data_PCOD8019391
_publ_section_title
;
Structure prediction by ZEFSAII (Michael W. Deem and Ramdas Pophale) SiO2 
 PCOD8019391
Probable space group: P -1
;
_chemical_formula_sum "Si O2"
_cell_formula_units_Z 16
_cell_length_a 15.139982
_cell_length_b 13.594381
_cell_length_c 9.537627
_cell_angle_alpha 90.176323
_cell_angle_beta 112.229233
_cell_angle_gamma 147.847690
_cell_volume 729.507995
_symmetry_space_group_name_H-M "P -1"
_symmetry_group_IT_number 2
_symmetry_cell_setting 'triclinic'
loop_
_space_group_symop_operation_xyz
x,y,z
-x,-y,-z
loop_
_atom_site_type_symbol
_atom_site_label
_atom_site_fract_x
_atom_site_fract_y
_atom_site_fract_z
Si Si1 0.527481 0.297670 0.566172
Si Si2 0.063182 0.187214 0.155935
Si Si3 0.583814 0.976657 0.705945
Si Si4 0.711233 0.126585 0.091231
Si Si5 0.861218 0.322545 0.631573
Si Si6 0.109343 0.199890 0.500887
Si Si7 0.828484 0.117223 0.424727
Si Si8 0.638210 0.714069 0.745365
O O1 0.801646 0.579775 0.773102
O O2 0.528562 0.226378 0.433049
O O3 0.413692 0.293528 0.442710
O O4 0.396985 0.130764 0.620814
O O5 0.016105 0.113310 0.286605
O O6 0.230062 0.265109 0.180128
O O7 0.809414 0.954843 0.926198
O O8 0.382390 0.870237 0.586573
O O9 0.808807 0.226744 0.752005
O O10 0.669987 0.037157 0.915421
O O11 0.730264 0.056334 0.213869
O O12 0.954370 0.416541 0.238312
O O13 0.500000 0.000000 0.000000
O O14 0.958262 0.330317 0.583427
O O15 0.394696 0.470063 0.684158
O O16 0.017859 0.209150 0.528570
O O17 0.000000 0.000000 0.500000
#
# Coordination Sequence:
#
# PCOD8019391 Si02
#       8
#     2   2   2   2   2   2   2   2
#     4  10  22  42  65  92 129 172 216 262 323 387
#     4  10  22  42  67  92 126 172 219 270 311 397
#     4  10  23  42  68  90 128 174 219 263 321 390
#     4  12  25  41  65  95 135 168 216 276 326 376
#     4  10  23  45  63  92 130 176 218 263 320 394
#     4  11  23  41  67  96 137 168 208 272 329 377
#     4  11  24  43  64  97 132 171 215 271 329 383
#     4  10  22  41  67  94 125 172 221 260 325 385
#
# _framework density 21.932590000000001
#
# number of rings (size 3 to 8) (size 9 to 14) (size 15 to 20)
#    0.000    1.500    1.250    3.750    5.250    0.500 
#    4.500    0.000    0.000    0.000    0.000    0.000 
#    0.000    0.000    0.000    0.000    0.000    0.000 
#
# Total GULP energy -198453.742401 kJ/mol
# GULP energy per Si atom -12403.358900 kJ/mol
# Density = 2.188267 g / cm^3
# Si number density = 21.932590 Si / 1000 Ang^3
#
#
#
# Elastic Constant Matrix: (Units=GPa)
#
#
# Indices 1 2 3 4 5 6 
#
# 1 109.4867 37.3558 30.8774 0.9918 -9.6940 7.7373
# 2 37.3558 130.0975 73.1471 2.9734 -18.6721 -10.3734
# 3 30.8774 73.1471 126.6493 7.8000 -23.6629 2.9465
# 4 0.9918 2.9734 7.8000 36.3541 -1.0354 -5.1326
# 5 -9.6940 -18.6721 -23.6629 -1.0354 30.3968 -1.5749
# 6 7.7373 -10.3734 2.9465 -5.1326 -1.5749 32.2678
#
#
#
# Elastic Compliance Matrix: (Units=1/GPa)
#
#
# Indices 1 2 3 4 5 6 
#
# 1 0.010605 -0.002774 -0.000707 -0.000361 0.000940 -0.003382
# 2 -0.002774 0.012942 -0.006586 0.001307 0.002280 0.005746
# 3 -0.000707 -0.006586 0.013177 -0.002569 0.005729 -0.003280
# 4 -0.000361 0.001307 -0.002569 0.028709 -0.000060 0.005305
# 5 0.000940 0.002280 0.005729 -0.000060 0.039154 0.001886
# 6 -0.003382 0.005746 -0.003280 0.005305 0.001886 0.034884
#
#
# Mechanical properties :
#
#
# Convention : Reuss Voigt Hill
#
# Bulk Modulus (GPa) = 60.27959 72.11045 66.19502
# Shear Modulus (GPa) = 30.27815 34.79395 32.53605
#
# Velocity S-wave (km/s) = 3.71955 3.98729 3.85575
# Velocity P-wave (km/s) = 6.78163 7.35850 7.07595
#
# Compressibility (1/GPa) = 0.01658936
#
# Stress axis : x y z
#
# Youngs Moduli (GPa) = 94.29651 77.26835 75.88898
#
# Poissons Ratio (x) = 0.21436 0.05362
# Poissons Ratio (y) = 0.26159 0.49984
# Poissons Ratio (z) = 0.06663 0.50893
#
# Static dielectric constant tensor:
#      x y z
#    x 4.063990 -0.014160 -0.126600 
#    y -0.014160 4.014540 0.055420 
#    z -0.126600 0.055420 4.015880 
# 
# 
# High freq. dielectric constant tensor:
#      x y z
#    x 1.872720 -0.001200 -0.009090 
#    y -0.001200 1.866890 0.003460 
#    z -0.009090 0.003460 1.855720 
# 
# From -- ./inp_files/315473.got.cif
#   From: 2010.06.25/outbox.cif.g09.slc.cpg/sg2_158_cif.got.tgz:315473.got - 2010.06.27 13:26:56.
