data_PCOD8019203
_publ_section_title
;
Structure prediction by ZEFSAII (Michael W. Deem and Ramdas Pophale) SiO2 
 PCOD8019203
Probable space group: P -1
;
_chemical_formula_sum "Si O2"
_cell_formula_units_Z 14
_cell_length_a 10.770913
_cell_length_b 7.661530
_cell_length_c 7.079733
_cell_angle_alpha 85.620366
_cell_angle_beta 104.210214
_cell_angle_gamma 102.878169
_cell_volume 551.963946
_symmetry_space_group_name_H-M "P -1"
_symmetry_group_IT_number 2
_symmetry_cell_setting 'triclinic'
loop_
_space_group_symop_operation_xyz
x,y,z
-x,-y,-z
loop_
_atom_site_type_symbol
_atom_site_label
_atom_site_fract_x
_atom_site_fract_y
_atom_site_fract_z
Si Si1 0.595409 0.867665 0.523174
Si Si2 0.644092 0.403985 0.621085
Si Si3 0.228190 0.090141 0.770409
Si Si4 0.178861 0.582802 0.665295
Si Si5 0.349353 0.451124 0.001756
Si Si6 0.231988 0.909709 0.159667
Si Si7 0.016933 0.779195 0.373578
O O1 0.510040 0.662531 0.496490
O O2 0.670992 0.926651 0.352749
O O3 0.500000 0.000000 0.500000
O O4 0.694799 0.899252 0.735560
O O5 0.739270 0.474874 0.476894
O O6 0.681708 0.234065 0.750762
O O7 0.662660 0.558419 0.774302
O O8 0.275744 0.269247 0.894401
O O9 0.087472 0.099535 0.621437
O O10 0.216295 0.927325 0.927364
O O11 0.276688 0.606108 0.879119
O O12 0.053295 0.426489 0.673476
O O13 0.127421 0.767255 0.580217
O O14 0.500000 0.500000 0.000000
O O15 0.087486 0.853220 0.200039
#
# Coordination Sequence:
#
# PCOD8019203 Si02
#       7
#     2   2   2   2   2   2   2
#     4  10  23  40  61  97 133 172 213 257 333 389
#     4  10  22  41  65  96 130 172 214 261 335 389
#     4  11  23  41  66  99 134 167 217 275 318 385
#     4   9  21  41  67  91 136 171 209 274 321 385
#     4  11  23  40  65 101 129 165 218 267 327 381
#     4  10  23  41  66  94 130 176 215 264 324 387
#     4   9  20  44  64  94 129 174 223 259 322 384
#
# _framework density 25.363976999999998
#
# number of rings (size 3 to 8) (size 9 to 14) (size 15 to 20)
#    0.000    2.000    1.429    0.429    2.000    9.143 
#    0.000   23.571    0.000    0.000    0.000    0.000 
#    0.000    0.000    0.000    0.000    0.000    0.000 
#
# Total GULP energy -173568.150940 kJ/mol
# GULP energy per Si atom -12397.725067 kJ/mol
# Density = 2.530625 g / cm^3
# Si number density = 25.363977 Si / 1000 Ang^3
#
#
#
# Elastic Constant Matrix: (Units=GPa)
#
#
# Indices 1 2 3 4 5 6 
#
# 1 151.4887 15.9502 57.9945 -6.8051 -3.2842 13.2430
# 2 15.9502 40.2595 8.2676 -6.7049 7.5252 6.8757
# 3 57.9945 8.2676 134.1093 0.5690 7.7656 -3.5698
# 4 -6.8051 -6.7049 0.5690 33.6780 -6.9007 4.3586
# 5 -3.2842 7.5252 7.7656 -6.9007 42.5893 -0.2284
# 6 13.2430 6.8757 -3.5698 4.3586 -0.2284 31.7067
#
#
#
# Elastic Compliance Matrix: (Units=1/GPa)
#
#
# Indices 1 2 3 4 5 6 
#
# 1 0.008821 -0.001998 -0.003931 0.002404 0.002118 -0.004009
# 2 -0.001998 0.028520 -0.000836 0.005224 -0.004228 -0.006193
# 3 -0.003931 -0.000836 0.009426 -0.001972 -0.002177 0.003140
# 4 0.002404 0.005224 -0.001972 0.033158 0.004958 -0.006881
# 5 0.002118 -0.004228 -0.002177 0.004958 0.025587 -0.000710
# 6 -0.004009 -0.006193 0.003140 -0.006881 -0.000710 0.035851
#
#
# Mechanical properties :
#
#
# Convention : Reuss Voigt Hill
#
# Bulk Modulus (GPa) = 30.08784 54.47578 42.28181
# Shear Modulus (GPa) = 30.12557 37.83781 33.98169
#
# Velocity S-wave (km/s) = 3.45009 3.86656 3.66425
# Velocity P-wave (km/s) = 5.26868 6.43879 5.88290
#
# Compressibility (1/GPa) = 0.03323601
#
# Stress axis : x y z
#
# Youngs Moduli (GPa) = 113.36960 35.06300 106.08968
#
# Poissons Ratio (x) = 0.07007 0.41702
# Poissons Ratio (y) = 0.22656 0.08871
# Poissons Ratio (z) = 0.44563 0.02932
#
# Static dielectric constant tensor:
#      x y z
#    x 5.101770 0.323430 0.649550 
#    y 0.323430 4.959340 0.161230 
#    z 0.649550 0.161230 4.994200 
# 
# 
# High freq. dielectric constant tensor:
#      x y z
#    x 2.022310 -0.001360 0.017200 
#    y -0.001360 2.021060 -0.007640 
#    z 0.017200 -0.007640 2.015930 
# 
# From -- ./inp_files/60784.got.cif
#   From: 2010.06.25/outbox.cif.g09.slc.cpg/sg2_31_cif.got.tgz:60784.got - 2010.06.27 13:26:56.
