data_PCOD8019219
_publ_section_title
;
Structure prediction by ZEFSAII (Michael W. Deem and Ramdas Pophale) SiO2 
 PCOD8019219
Probable space group: P -1
;
_chemical_formula_sum "Si O2"
_cell_formula_units_Z 16
_cell_length_a 9.040327
_cell_length_b 19.861275
_cell_length_c 8.420880
_cell_angle_alpha 41.627348
_cell_angle_beta 47.461440
_cell_angle_gamma 58.335602
_cell_volume 739.463924
_symmetry_space_group_name_H-M "P -1"
_symmetry_group_IT_number 2
_symmetry_cell_setting 'triclinic'
loop_
_space_group_symop_operation_xyz
x,y,z
-x,-y,-z
loop_
_atom_site_type_symbol
_atom_site_label
_atom_site_fract_x
_atom_site_fract_y
_atom_site_fract_z
Si Si1 0.908452 0.099640 0.804303
Si Si2 0.486160 0.895956 0.107239
Si Si3 0.062767 0.513919 0.611641
Si Si4 0.733400 0.274741 0.830171
Si Si5 0.446670 0.401133 0.621278
Si Si6 0.721124 0.234042 0.256176
Si Si7 0.922867 0.895446 0.668360
Si Si8 0.333967 0.561197 0.916170
O O1 0.681046 0.086369 0.936801
O O2 0.891698 0.199005 0.755114
O O3 0.049917 0.114518 0.523178
O O4 0.000000 0.000000 0.000000
O O5 0.435428 0.813489 0.423690
O O6 0.695687 0.869069 0.917443
O O7 0.500000 0.000000 0.000000
O O8 0.154161 0.621784 0.395279
O O9 0.210809 0.416817 0.723777
O O10 0.000000 0.500000 0.500000
O O11 0.855577 0.505810 0.875938
O O12 0.523748 0.301462 0.840231
O O13 0.660364 0.219813 0.140877
O O14 0.500000 0.500000 0.500000
O O15 0.577166 0.389431 0.389657
O O16 0.741052 0.352076 0.062634
O O17 0.945114 0.189949 0.189784
O O18 0.000000 0.000000 0.500000
O O19 0.500000 0.500000 0.000000
#
# Coordination Sequence:
#
# PCOD8019219 Si02
#       8
#     2   2   2   2   2   2   2   2
#     4  11  25  45  69 104 146 175 225 300 352 408
#     4  11  24  46  76  99 128 192 238 282 352 416
#     4  11  22  45  72  99 133 191 235 275 347 412
#     4  11  24  45  66 107 145 182 229 295 355 406
#     4  10  22  41  65  97 142 170 228 295 343 399
#     4  11  24  42  70 100 140 181 238 281 347 415
#     4  11  22  46  72 101 134 177 240 288 335 426
#     4  12  23  42  69 102 136 184 236 284 331 423
#
# _framework density 21.637295999999999
#
# number of rings (size 3 to 8) (size 9 to 14) (size 15 to 20)
#    0.000    1.000    5.000    3.000    0.000    5.500 
#    0.000    5.000    0.000    0.000    0.000    0.000 
#    0.000    0.000    0.000    0.000    0.000    0.000 
#
# Total GULP energy -198285.573854 kJ/mol
# GULP energy per Si atom -12392.848366 kJ/mol
# Density = 2.158805 g / cm^3
# Si number density = 21.637296 Si / 1000 Ang^3
#
#
#
# Elastic Constant Matrix: (Units=GPa)
#
#
# Indices 1 2 3 4 5 6 
#
# 1 153.4893 65.7484 80.1865 12.3385 20.0106 -29.8108
# 2 65.7484 154.6403 52.1353 1.5222 10.8334 -15.1759
# 3 80.1865 52.1353 113.5874 18.8501 7.1739 -21.5031
# 4 12.3385 1.5222 18.8501 44.8640 -4.7092 -1.9548
# 5 20.0106 10.8334 7.1739 -4.7092 50.4250 1.3297
# 6 -29.8108 -15.1759 -21.5031 -1.9548 1.3297 50.2025
#
#
#
# Elastic Compliance Matrix: (Units=1/GPa)
#
#
# Indices 1 2 3 4 5 6 
#
# 1 0.012150 -0.002372 -0.006412 -0.000776 -0.003573 0.003816
# 2 -0.002372 0.008276 -0.002281 0.001296 -0.000396 0.000178
# 3 -0.006412 -0.002281 0.015476 -0.004539 0.000357 0.001946
# 4 -0.000776 0.001296 -0.004539 0.024632 0.003006 -0.001134
# 5 -0.003573 -0.000396 0.000357 0.003006 0.021631 -0.002544
# 6 0.003816 0.000178 0.001946 -0.001134 -0.002544 0.023096
#
#
# Mechanical properties :
#
#
# Convention : Reuss Voigt Hill
#
# Bulk Modulus (GPa) = 72.60245 90.87305 81.73775
# Shear Modulus (GPa) = 37.88384 44.00807 40.94595
#
# Velocity S-wave (km/s) = 4.18887 4.51477 4.35487
# Velocity P-wave (km/s) = 7.55133 8.32268 7.94637
#
# Compressibility (1/GPa) = 0.01377364
#
# Stress axis : x y z
#
# Youngs Moduli (GPa) = 82.30373 120.82535 64.61513
#
# Poissons Ratio (x) = 0.28656 0.41431
# Poissons Ratio (y) = 0.19520 0.14738
# Poissons Ratio (z) = 0.52773 0.27559
#
# Static dielectric constant tensor:
#      x y z
#    x 4.056250 0.003420 0.106600 
#    y 0.003420 3.658640 -0.416050 
#    z 0.106600 -0.416050 3.187340 
# 
# 
# High freq. dielectric constant tensor:
#      x y z
#    x 1.858340 -0.004060 0.014320 
#    y -0.004060 1.871110 0.003880 
#    z 0.014320 0.003880 1.839340 
# 
# From -- ./inp_files/222975.got.cif
#   From: 2010.06.25/outbox.cif.g09.slc.cpg/sg2_112_cif.got.tgz:222975.got - 2010.06.27 13:26:56.
