data_PCOD8019781
_publ_section_title
;
Structure prediction by ZEFSAII (Michael W. Deem and Ramdas Pophale) SiO2 
 PCOD8019781
Probable space group: P -1
;
_chemical_formula_sum "Si O2"
_cell_formula_units_Z 16
_cell_length_a 22.439038
_cell_length_b 11.630058
_cell_length_c 8.180525
_cell_angle_alpha 118.425469
_cell_angle_beta 121.970630
_cell_angle_gamma 23.268766
_cell_volume 715.095107
_symmetry_space_group_name_H-M "P -1"
_symmetry_group_IT_number 2
_symmetry_cell_setting 'triclinic'
loop_
_space_group_symop_operation_xyz
x,y,z
-x,-y,-z
loop_
_atom_site_type_symbol
_atom_site_label
_atom_site_fract_x
_atom_site_fract_y
_atom_site_fract_z
Si Si1 0.484566 0.001217 0.792685
Si Si2 0.440731 0.777145 0.533175
Si Si3 0.607755 0.209700 0.880162
Si Si4 0.750572 0.142217 0.633027
Si Si5 0.778854 0.477596 0.448268
Si Si6 0.901577 0.881751 0.010497
Si Si7 0.123134 0.935895 0.554110
Si Si8 0.745157 0.722760 0.835727
O O1 0.359173 0.309088 0.738789
O O2 0.416254 0.970818 0.647595
O O3 0.657279 0.744252 0.801423
O O4 0.500000 0.000000 0.000000
O O5 0.483817 0.674685 0.338492
O O6 0.586900 0.488749 0.660164
O O7 0.284878 0.955554 0.482108
O O8 0.785002 0.955870 0.923462
O O9 0.635551 0.033392 0.910152
O O10 0.500000 0.500000 0.000000
O O11 0.856421 0.014184 0.854270
O O12 0.819706 0.058628 0.497528
O O13 0.762242 0.648834 0.622568
O O14 0.948604 0.187023 0.413449
O O15 0.768681 0.374349 0.494862
O O16 0.879052 0.011574 0.224006
O O17 0.081982 0.538350 0.018257
#
# Coordination Sequence:
#
# PCOD8019781 Si02
#       8
#     2   2   2   2   2   2   2   2
#     4  12  27  40  68  97 141 179 227 279 339 417
#     4  10  23  44  63 102 132 177 226 281 341 402
#     4  11  23  41  74  99 135 179 232 284 339 414
#     4  10  22  41  72  91 139 172 225 285 335 400
#     4  10  23  44  65  98 136 181 225 281 336 413
#     4  10  24  42  68 104 133 179 228 281 340 412
#     4  10  22  42  70  98 135 179 230 277 345 404
#     4  11  24  44  67  96 138 181 223 284 347 395
#
# _framework density 22.374647
#
# number of rings (size 3 to 8) (size 9 to 14) (size 15 to 20)
#    0.000    1.500    1.250    2.250    7.000    3.000 
#    0.000    3.125    0.000    0.000    0.000    0.000 
#    0.000    0.000    0.000    0.000    0.000    0.000 
#
# Total GULP energy -198233.751710 kJ/mol
# GULP energy per Si atom -12389.609482 kJ/mol
# Density = 2.232372 g / cm^3
# Si number density = 22.374647 Si / 1000 Ang^3
#
#
#
# Elastic Constant Matrix: (Units=GPa)
#
#
# Indices 1 2 3 4 5 6 
#
# 1 139.5327 54.9251 50.8131 -2.2596 -0.8144 -2.3379
# 2 54.9251 130.9462 65.8766 -15.9372 -3.3442 6.4500
# 3 50.8131 65.8766 131.2889 -12.5976 -11.0401 6.6456
# 4 -2.2596 -15.9372 -12.5976 40.4839 5.3619 9.9731
# 5 -0.8144 -3.3442 -11.0401 5.3619 29.3019 -0.1652
# 6 -2.3379 6.4500 6.6456 9.9731 -0.1652 28.4607
#
#
#
# Elastic Compliance Matrix: (Units=1/GPa)
#
#
# Indices 1 2 3 4 5 6 
#
# 1 0.009268 -0.003059 -0.002438 -0.002037 -0.000622 0.002734
# 2 -0.003059 0.011668 -0.004201 0.004087 -0.001103 -0.003353
# 3 -0.002438 -0.004201 0.011258 0.001893 0.003334 -0.002521
# 4 -0.002037 0.004087 0.001893 0.030391 -0.004507 -0.012211
# 5 -0.000622 -0.001103 0.003334 -0.004507 0.036072 0.001209
# 6 0.002734 -0.003353 -0.002521 -0.012211 0.001209 0.040995
#
#
# Mechanical properties :
#
#
# Convention : Reuss Voigt Hill
#
# Bulk Modulus (GPa) = 78.14656 82.77750 80.46203
# Shear Modulus (GPa) = 30.61558 34.99285 32.80421
#
# Velocity S-wave (km/s) = 3.70309 3.95897 3.83317
# Velocity P-wave (km/s) = 7.29973 7.61409 7.45857
#
# Compressibility (1/GPa) = 0.01279647
#
# Stress axis : x y z
#
# Youngs Moduli (GPa) = 107.89648 85.70354 88.82488
#
# Poissons Ratio (x) = 0.26220 0.21656
# Poissons Ratio (y) = 0.33010 0.37319
# Poissons Ratio (z) = 0.26306 0.36008
#
# Static dielectric constant tensor:
#      x y z
#    x 4.090990 -0.095630 -0.033250 
#    y -0.095630 3.495500 -0.667490 
#    z -0.033250 -0.667490 3.586940 
# 
# 
# High freq. dielectric constant tensor:
#      x y z
#    x 1.885740 -0.001800 0.009450 
#    y -0.001800 1.879270 -0.021900 
#    z 0.009450 -0.021900 1.874080 
# 
# From -- ./inp_files/353842.got.cif
#   From: 2010.06.25/outbox.cif.g09.slc.cpg/sg2_177_cif.got.tgz:353842.got - 2010.06.27 13:26:56.
