data_PCOD8019621
_publ_section_title
;
Structure prediction by ZEFSAII (Michael W. Deem and Ramdas Pophale) SiO2 
 PCOD8019621
Probable space group: P -1
;
_chemical_formula_sum "Si O2"
_cell_formula_units_Z 16
_cell_length_a 14.036894
_cell_length_b 9.049198
_cell_length_c 9.414648
_cell_angle_alpha 55.338149
_cell_angle_beta 123.051798
_cell_angle_gamma 86.701700
_cell_volume 697.393355
_symmetry_space_group_name_H-M "P -1"
_symmetry_group_IT_number 2
_symmetry_cell_setting 'triclinic'
loop_
_space_group_symop_operation_xyz
x,y,z
-x,-y,-z
loop_
_atom_site_type_symbol
_atom_site_label
_atom_site_fract_x
_atom_site_fract_y
_atom_site_fract_z
Si Si1 0.520052 0.458740 0.208445
Si Si2 0.572965 0.797722 0.568480
Si Si3 0.545757 0.135791 0.881437
Si Si4 0.111329 0.552798 0.695293
Si Si5 0.087066 0.830666 0.026927
Si Si6 0.820392 0.203562 0.584703
Si Si7 0.167851 0.148880 0.831269
Si Si8 0.134135 0.485725 0.064152
O O1 0.422166 0.392350 0.233190
O O2 0.503217 0.654616 0.178888
O O3 0.672062 0.256095 0.467762
O O4 0.500000 0.500000 0.000000
O O5 0.503750 0.822057 0.345861
O O6 0.725567 0.743206 0.697178
O O7 0.500000 0.000000 0.500000
O O8 0.500000 0.000000 0.000000
O O9 0.706514 0.991086 0.092007
O O10 0.193806 0.641879 0.638169
O O11 0.188994 0.297272 0.875993
O O12 0.956341 0.682550 0.455796
O O13 0.105770 0.599165 0.829641
O O14 0.141908 0.986990 0.981542
O O15 0.109399 0.749766 0.251569
O O16 0.172105 0.622383 0.118488
O O17 0.929739 0.952928 0.779740
O O18 0.000000 0.500000 0.000000
#
# Coordination Sequence:
#
# PCOD8019621 Si02
#       8
#     2   2   2   2   2   2   2   2
#     4  12  25  43  71  99 139 177 222 277 340 405
#     4  12  27  47  69  99 138 183 226 279 338 403
#     4  12  25  42  70  99 137 177 227 273 337 409
#     4  10  23  41  66  95 132 169 214 274 325 397
#     4  10  23  41  67  95 128 170 217 274 326 392
#     4  10  22  41  70  95 130 169 223 261 334 394
#     4  10  22  41  69  93 130 170 222 265 332 391
#     4  12  28  41  67  98 136 168 224 277 333 381
#
# _framework density 22.942575999999999
#
# number of rings (size 3 to 8) (size 9 to 14) (size 15 to 20)
#    0.000    1.000    0.000    5.625   10.500    3.000 
#    0.000    0.000    0.000    0.000    0.000    0.000 
#    0.000    0.000    0.000    0.000    0.000    0.000 
#
# Total GULP energy -198289.606892 kJ/mol
# GULP energy per Si atom -12393.100431 kJ/mol
# Density = 2.289036 g / cm^3
# Si number density = 22.942576 Si / 1000 Ang^3
#
#
#
# Elastic Constant Matrix: (Units=GPa)
#
#
# Indices 1 2 3 4 5 6 
#
# 1 127.4143 34.9349 42.8555 -4.9087 8.5493 -17.6127
# 2 34.9349 120.9790 37.3356 4.7737 -15.2304 -21.5864
# 3 42.8555 37.3356 85.1272 -0.5692 -3.6496 -14.9877
# 4 -4.9087 4.7737 -0.5692 29.8756 -13.4708 -1.4848
# 5 8.5493 -15.2304 -3.6496 -13.4708 55.5354 -3.4870
# 6 -17.6127 -21.5864 -14.9877 -1.4848 -3.4870 32.2782
#
#
#
# Elastic Compliance Matrix: (Units=1/GPa)
#
#
# Indices 1 2 3 4 5 6 
#
# 1 0.010141 -0.001497 -0.004079 0.001137 -0.001807 0.002495
# 2 -0.001497 0.011033 -0.002971 -0.000285 0.003339 0.005530
# 3 -0.004079 -0.002971 0.015739 0.000833 0.001255 0.003269
# 4 0.001137 -0.000285 0.000833 0.038073 0.009261 0.003568
# 5 -0.001807 0.003339 0.001255 0.009261 0.021819 0.004613
# 6 0.002495 0.005530 0.003269 0.003568 0.004613 0.038221
#
#
# Mechanical properties :
#
#
# Convention : Reuss Voigt Hill
#
# Bulk Modulus (GPa) = 50.45533 62.64141 56.54837
# Shear Modulus (GPa) = 31.50092 38.09746 34.79919
#
# Velocity S-wave (km/s) = 3.70947 4.07941 3.89883
# Velocity P-wave (km/s) = 6.35505 7.03929 6.70590
#
# Compressibility (1/GPa) = 0.01981951
#
# Stress axis : x y z
#
# Youngs Moduli (GPa) = 98.61137 90.63545 63.53790
#
# Poissons Ratio (x) = 0.13564 0.25919
# Poissons Ratio (y) = 0.14757 0.18875
# Poissons Ratio (z) = 0.40227 0.26925
#
# Static dielectric constant tensor:
#      x y z
#    x 4.176580 -0.155750 0.102500 
#    y -0.155750 4.221770 -0.014770 
#    z 0.102500 -0.014770 4.191450 
# 
# 
# High freq. dielectric constant tensor:
#      x y z
#    x 1.918640 -0.016290 0.006130 
#    y -0.016290 1.906430 -0.001720 
#    z 0.006130 -0.001720 1.912960 
# 
# From -- ./inp_files/297710.got.cif
#   From: 2010.06.25/outbox.cif.g09.slc.cpg/sg2_149_cif.got.tgz:297710.got - 2010.06.27 13:26:56.
