data_PCOD8019231
_publ_section_title
;
Structure prediction by ZEFSAII (Michael W. Deem and Ramdas Pophale) SiO2 
 PCOD8019231
Probable space group: P -1
;
_chemical_formula_sum "Si O2"
_cell_formula_units_Z 14
_cell_length_a 8.998154
_cell_length_b 15.430618
_cell_length_c 12.184771
_cell_angle_alpha 45.551108
_cell_angle_beta 146.510962
_cell_angle_gamma 121.200173
_cell_volume 656.989515
_symmetry_space_group_name_H-M "P -1"
_symmetry_group_IT_number 2
_symmetry_cell_setting 'triclinic'
loop_
_space_group_symop_operation_xyz
x,y,z
-x,-y,-z
loop_
_atom_site_type_symbol
_atom_site_label
_atom_site_fract_x
_atom_site_fract_y
_atom_site_fract_z
Si Si1 0.230044 0.976519 0.066901
Si Si2 0.249708 0.928756 0.435948
Si Si3 0.106504 0.439737 0.960350
Si Si4 0.606447 0.250843 0.506006
Si Si5 0.259971 0.898098 0.720080
Si Si6 0.305550 0.628045 0.069886
Si Si7 0.863905 0.470815 0.552403
O O1 0.425245 0.848255 0.330241
O O2 0.441924 0.070092 0.096345
O O3 0.000000 0.000000 0.000000
O O4 0.043155 0.978937 0.839997
O O5 0.241621 0.814763 0.449113
O O6 0.266444 0.874205 0.615452
O O7 0.500000 0.000000 0.500000
O O8 0.825315 0.417542 0.860487
O O9 0.076011 0.457033 0.795824
O O10 0.315528 0.317315 0.226641
O O11 0.205540 0.560912 0.961304
O O12 0.769984 0.341538 0.589203
O O13 0.233063 0.773806 0.878273
O O14 0.000000 0.000000 0.500000
O O15 0.624820 0.584960 0.326471
O O16 0.000000 0.500000 0.500000
#
# Coordination Sequence:
#
# PCOD8019231 Si02
#       7
#     2   2   2   2   2   2   2
#     4  10  22  41  65  99 132 176 226 270 342 408
#     4  11  24  41  69  96 138 185 223 284 347 405
#     4  10  23  47  67  94 137 183 219 279 347 403
#     4  10  23  39  68  98 127 176 225 272 345 407
#     4  12  26  43  68 105 138 178 230 284 344 408
#     4  10  25  43  68  97 137 178 228 274 338 409
#     4  11  26  39  69 102 131 172 229 280 336 402
#
# _framework density 21.309318999999999
#
# number of rings (size 3 to 8) (size 9 to 14) (size 15 to 20)
#    0.000    1.429    2.857    1.286   10.000    1.714 
#    0.000    0.000    0.000    0.000    0.000    0.000 
#    0.000    0.000    0.000    0.000    0.000    0.000 
#
# Total GULP energy -173529.530879 kJ/mol
# GULP energy per Si atom -12394.966491 kJ/mol
# Density = 2.126082 g / cm^3
# Si number density = 21.309319 Si / 1000 Ang^3
#
#
#
# Elastic Constant Matrix: (Units=GPa)
#
#
# Indices 1 2 3 4 5 6 
#
# 1 59.5382 12.0404 31.7528 5.3092 -2.9140 2.5208
# 2 12.0404 83.5576 54.6921 -10.5644 -4.5469 0.8744
# 3 31.7528 54.6921 153.4347 3.8469 -3.0643 8.2185
# 4 5.3092 -10.5644 3.8469 41.0512 -3.4750 -0.8282
# 5 -2.9140 -4.5469 -3.0643 -3.4750 39.8829 3.0439
# 6 2.5208 0.8744 8.2185 -0.8282 3.0439 29.8648
#
#
#
# Elastic Compliance Matrix: (Units=1/GPa)
#
#
# Indices 1 2 3 4 5 6 
#
# 1 0.019129 -0.000606 -0.003628 -0.002228 0.000913 -0.000753
# 2 -0.000606 0.016701 -0.005983 0.005109 0.001756 0.001171
# 3 -0.003628 -0.005983 0.009565 -0.002030 -0.000223 -0.002184
# 4 -0.002228 0.005109 -0.002030 0.026385 0.002481 0.001076
# 5 0.000913 0.001756 -0.000223 0.002481 0.025739 -0.002622
# 6 -0.000753 0.001171 -0.002184 0.001076 -0.002622 0.034412
#
#
# Mechanical properties :
#
#
# Convention : Reuss Voigt Hill
#
# Bulk Modulus (GPa) = 40.06527 54.83345 47.44936
# Shear Modulus (GPa) = 31.11691 35.36278 33.23985
#
# Velocity S-wave (km/s) = 3.82547 4.07811 3.95381
# Velocity P-wave (km/s) = 6.19313 6.92551 6.56953
#
# Compressibility (1/GPa) = 0.02495928
#
# Stress axis : x y z
#
# Youngs Moduli (GPa) = 52.27751 59.87748 104.55249
#
# Poissons Ratio (x) = 0.03626 0.37935
# Poissons Ratio (y) = 0.03166 0.62559
# Poissons Ratio (z) = 0.18968 0.35828
#
# Static dielectric constant tensor:
#      x y z
#    x 3.810330 -0.036760 -0.003220 
#    y -0.036760 3.668960 -0.047760 
#    z -0.003220 -0.047760 4.413810 
# 
# 
# High freq. dielectric constant tensor:
#      x y z
#    x 1.826620 0.006090 -0.002780 
#    y 0.006090 1.831370 -0.000640 
#    z -0.002780 -0.000640 1.857650 
# 
# From -- ./inp_files/398719.got.cif
#   From: 2010.06.25/outbox.cif.g09.slc.cpg/sg2_200_cif.got.tgz:398719.got - 2010.06.27 13:26:56.
