data_PCOD8019490
_publ_section_title
;
Structure prediction by ZEFSAII (Michael W. Deem and Ramdas Pophale) SiO2 
 PCOD8019490
Probable space group: P -1
;
_chemical_formula_sum "Si O2"
_cell_formula_units_Z 14
_cell_length_a 9.105473
_cell_length_b 9.551141
_cell_length_c 11.405595
_cell_angle_alpha 56.316063
_cell_angle_beta 54.268698
_cell_angle_gamma 90.720288
_cell_volume 580.985397
_symmetry_space_group_name_H-M "P -1"
_symmetry_group_IT_number 2
_symmetry_cell_setting 'triclinic'
loop_
_space_group_symop_operation_xyz
x,y,z
-x,-y,-z
loop_
_atom_site_type_symbol
_atom_site_label
_atom_site_fract_x
_atom_site_fract_y
_atom_site_fract_z
Si Si1 0.033030 0.998559 0.752485
Si Si2 0.170004 0.607646 0.157402
Si Si3 0.175530 0.301169 0.717669
Si Si4 0.580310 0.463946 0.299575
Si Si5 0.406204 0.267854 0.020324
Si Si6 0.808632 0.294282 0.160202
Si Si7 0.157673 0.215720 0.372260
O O1 0.791161 0.910395 0.868131
O O2 0.131955 0.862451 0.749672
O O3 0.063247 0.072959 0.838825
O O4 0.175572 0.191184 0.515179
O O5 0.091627 0.377153 0.298721
O O6 0.975880 0.620871 0.293981
O O7 0.374061 0.730410 0.088807
O O8 0.240060 0.718562 0.948542
O O9 0.392857 0.407903 0.499835
O O10 0.218835 0.349453 0.814635
O O11 0.624352 0.286517 0.333406
O O12 0.549183 0.534221 0.155564
O O13 0.368973 0.284623 0.168005
O O14 0.000000 0.500000 0.000000
O O15 0.000000 0.000000 0.500000
#
# Coordination Sequence:
#
# PCOD8019490 Si02
#       7
#     2   2   2   2   2   2   2
#     4  11  25  45  71 105 146 171 237 293 343 399
#     4  12  24  43  75 101 140 187 232 274 364 407
#     4  11  27  45  68 106 144 182 221 298 349 412
#     4  11  24  47  72 100 140 185 235 275 355 416
#     4  11  23  42  72 101 135 185 234 286 333 419
#     4  12  22  45  77 100 130 193 238 280 331 424
#     4  10  22  41  68 105 137 173 231 296 327 402
#
# _framework density 24.096990999999999
#
# number of rings (size 3 to 8) (size 9 to 14) (size 15 to 20)
#    0.000    0.857    4.286    2.143    2.000    5.714 
#    0.000    2.857    0.000    0.000    0.000    0.000 
#    0.000    0.000    0.000    0.000    0.000    0.000 
#
# Total GULP energy -173456.576431 kJ/mol
# GULP energy per Si atom -12389.755459 kJ/mol
# Density = 2.404215 g / cm^3
# Si number density = 24.096991 Si / 1000 Ang^3
#
#
#
# Elastic Constant Matrix: (Units=GPa)
#
#
# Indices 1 2 3 4 5 6 
#
# 1 141.9656 50.1018 34.1273 8.5275 -12.5802 -10.0725
# 2 50.1018 121.3501 22.7438 16.8434 -12.8637 -9.8009
# 3 34.1273 22.7438 70.5493 7.3880 -3.0875 -11.7303
# 4 8.5275 16.8434 7.3880 24.9190 -4.5930 -5.6464
# 5 -12.5802 -12.8637 -3.0875 -4.5930 39.0318 8.1770
# 6 -10.0725 -9.8009 -11.7303 -5.6464 8.1770 41.9236
#
#
#
# Elastic Compliance Matrix: (Units=1/GPa)
#
#
# Indices 1 2 3 4 5 6 
#
# 1 0.009034 -0.002944 -0.003331 0.000250 0.001653 0.000261
# 2 -0.002944 0.010667 -0.001314 -0.005411 0.001753 0.000348
# 3 -0.003331 -0.001314 0.017003 -0.002427 -0.001192 0.003556
# 4 0.000250 -0.005411 -0.002427 0.045771 0.002705 0.003753
# 5 0.001653 0.001753 -0.001192 0.002705 0.027920 -0.004608
# 6 0.000261 0.000348 0.003556 0.003753 -0.004608 0.026396
#
#
# Mechanical properties :
#
#
# Convention : Reuss Voigt Hill
#
# Bulk Modulus (GPa) = 46.45493 60.86786 53.66140
# Shear Modulus (GPa) = 31.41828 36.30103 33.85965
#
# Velocity S-wave (km/s) = 3.61477 3.88552 3.75259
# Velocity P-wave (km/s) = 6.06154 6.74122 6.41039
#
# Compressibility (1/GPa) = 0.02152624
#
# Stress axis : x y z
#
# Youngs Moduli (GPa) = 110.69726 93.74461 58.81456
#
# Poissons Ratio (x) = 0.27596 0.19593
# Poissons Ratio (y) = 0.32587 0.07726
# Poissons Ratio (z) = 0.36876 0.12314
#
# Static dielectric constant tensor:
#      x y z
#    x 5.146810 -0.256450 0.208950 
#    y -0.256450 5.274780 0.310140 
#    z 0.208950 0.310140 4.840460 
# 
# 
# High freq. dielectric constant tensor:
#      x y z
#    x 1.970060 0.013610 -0.005540 
#    y 0.013610 1.947120 0.007270 
#    z -0.005540 0.007270 1.959840 
# 
# From -- ./inp_files/381210.got.cif
#   From: 2010.06.25/outbox.cif.g09.slc.cpg/sg2_191_cif.got.tgz:381210.got - 2010.06.27 13:26:56.
