data_PCOD8019985
_publ_section_title
;
Structure prediction by ZEFSAII (Michael W. Deem and Ramdas Pophale) SiO2 
 PCOD8019985
Probable space group: P -1
;
_chemical_formula_sum "Si O2"
_cell_formula_units_Z 14
_cell_length_a 20.733730
_cell_length_b 11.331627
_cell_length_c 14.474952
_cell_angle_alpha 32.433135
_cell_angle_beta 21.146481
_cell_angle_gamma 41.938965
_cell_volume 641.277593
_symmetry_space_group_name_H-M "P -1"
_symmetry_group_IT_number 2
_symmetry_cell_setting 'triclinic'
loop_
_space_group_symop_operation_xyz
x,y,z
-x,-y,-z
loop_
_atom_site_type_symbol
_atom_site_label
_atom_site_fract_x
_atom_site_fract_y
_atom_site_fract_z
Si Si1 0.874897 0.388064 0.530052
Si Si2 0.861799 0.375088 0.346439
Si Si3 0.827886 0.843957 0.379149
Si Si4 0.508260 0.483076 0.302768
Si Si5 0.378035 0.080636 0.035217
Si Si6 0.530734 0.985286 0.245321
Si Si7 0.128148 0.369533 0.362484
O O1 0.941190 0.441716 0.299391
O O2 0.807193 0.596755 0.527104
O O3 0.041657 0.317666 0.409939
O O4 0.704299 0.181343 0.903676
O O5 0.666856 0.443856 0.554477
O O6 0.821659 0.098892 0.575528
O O7 0.000000 0.500000 0.000000
O O8 0.860735 0.845544 0.445849
O O9 0.652064 0.942408 0.525081
O O10 0.000000 0.000000 0.000000
O O11 0.440006 0.233198 0.596134
O O12 0.619530 0.659832 0.114024
O O13 0.662899 0.482273 0.018900
O O14 0.481929 0.077597 0.802919
O O15 0.500000 0.000000 0.000000
O O16 0.000000 0.500000 0.500000
#
# Coordination Sequence:
#
# PCOD8019985 Si02
#       7
#     2   2   2   2   2   2   2
#     4  10  23  41  63  91 125 163 208 265 310 360
#     4  10  23  43  65  95 126 163 209 260 314 365
#     4  11  23  41  64  90 124 168 210 254 313 378
#     4  11  23  40  63  91 125 167 208 253 309 376
#     4   9  20  38  61  85 120 164 205 250 303 367
#     4  11  22  39  61  93 126 163 210 258 312 367
#     4  10  22  42  64  91 123 162 210 256 308 373
#
# _framework density 21.831420000000001
#
# number of rings (size 3 to 8) (size 9 to 14) (size 15 to 20)
#    0.000    1.714    0.000    5.143    0.000   10.286 
#    0.000    7.143    0.000    0.000    0.000    3.000 
#    0.000    0.000    0.000    0.000    0.000    0.000 
#
# Total GULP energy -173478.689160 kJ/mol
# GULP energy per Si atom -12391.334940 kJ/mol
# Density = 2.178173 g / cm^3
# Si number density = 21.831420 Si / 1000 Ang^3
#
#
#
# Elastic Constant Matrix: (Units=GPa)
#
#
# Indices 1 2 3 4 5 6 
#
# 1 140.2301 25.2840 48.7445 -1.7375 10.8384 -7.8184
# 2 25.2840 80.2108 38.5940 -11.5322 -1.0035 -0.3112
# 3 48.7445 38.5940 146.0852 7.3962 21.9697 -3.6949
# 4 -1.7375 -11.5322 7.3962 44.1671 -4.7431 0.7844
# 5 10.8384 -1.0035 21.9697 -4.7431 32.5183 2.3916
# 6 -7.8184 -0.3112 -3.6949 0.7844 2.3916 30.2539
#
#
#
# Elastic Compliance Matrix: (Units=1/GPa)
#
#
# Indices 1 2 3 4 5 6 
#
# 1 0.008386 -0.001652 -0.002074 0.000039 -0.001588 0.002021
# 2 -0.001652 0.016165 -0.004821 0.005548 0.005219 -0.001406
# 3 -0.002074 -0.004821 0.010075 -0.003793 -0.006912 0.001290
# 4 0.000039 0.005548 -0.003793 0.025458 0.006550 -0.001574
# 5 -0.001588 0.005219 -0.006912 0.006550 0.037386 -0.004326
# 6 0.002021 -0.001406 0.001290 -0.001574 -0.004326 0.034102
#
#
# Mechanical properties :
#
#
# Convention : Reuss Voigt Hill
#
# Bulk Modulus (GPa) = 57.03550 65.75232 61.39391
# Shear Modulus (GPa) = 32.36064 38.31474 35.33769
#
# Velocity S-wave (km/s) = 3.85424 4.19385 4.02762
# Velocity P-wave (km/s) = 6.78152 7.32358 7.05775
#
# Compressibility (1/GPa) = 0.01753294
#
# Stress axis : x y z
#
# Youngs Moduli (GPa) = 119.25015 61.86213 99.25490
#
# Poissons Ratio (x) = 0.10219 0.20583
# Poissons Ratio (y) = 0.19699 0.47849
# Poissons Ratio (z) = 0.24729 0.29822
#
# Static dielectric constant tensor:
#      x y z
#    x 4.447480 0.103990 0.060630 
#    y 0.103990 4.115040 -0.533900 
#    z 0.060630 -0.533900 4.000310 
# 
# 
# High freq. dielectric constant tensor:
#      x y z
#    x 1.863100 -0.004480 0.009410 
#    y -0.004480 1.858750 0.002340 
#    z 0.009410 0.002340 1.865660 
# 
# From -- ./inp_files/241569.got.cif
#   From: 2010.06.25/outbox.cif.g09.slc.cpg/sg2_121_cif.got.tgz:241569.got - 2010.06.27 13:26:56.
