data_PCOD8019551
_publ_section_title
;
Structure prediction by ZEFSAII (Michael W. Deem and Ramdas Pophale) SiO2 
 PCOD8019551
Probable space group: P -1
;
_chemical_formula_sum "Si O2"
_cell_formula_units_Z 16
_cell_length_a 6.217497
_cell_length_b 19.696257
_cell_length_c 19.839624
_cell_angle_alpha 22.944413
_cell_angle_beta 115.384340
_cell_angle_gamma 100.955586
_cell_volume 696.292165
_symmetry_space_group_name_H-M "P -1"
_symmetry_group_IT_number 2
_symmetry_cell_setting 'triclinic'
loop_
_space_group_symop_operation_xyz
x,y,z
-x,-y,-z
loop_
_atom_site_type_symbol
_atom_site_label
_atom_site_fract_x
_atom_site_fract_y
_atom_site_fract_z
Si Si1 0.930332 0.921948 0.858453
Si Si2 0.554545 0.504500 0.899207
Si Si3 0.341790 0.280578 0.393727
Si Si4 0.845776 0.563085 0.169670
Si Si5 0.069178 0.794816 0.661536
Si Si6 0.419179 0.392210 0.772221
Si Si7 0.226237 0.801478 0.291834
Si Si8 0.690150 0.916714 0.035656
O O1 0.688674 0.118767 0.600061
O O2 0.972325 0.014791 0.847451
O O3 0.808046 0.780756 0.984289
O O4 0.250908 0.776741 0.000639
O O5 0.705605 0.530282 0.831960
O O6 0.403766 0.385901 0.964712
O O7 0.294649 0.732364 0.687720
O O8 0.796367 0.385294 0.098268
O O9 0.166917 0.382873 0.347080
O O10 0.227160 0.161618 0.447154
O O11 0.792772 0.482904 0.306331
O O12 0.000000 0.000000 0.500000
O O13 0.418763 0.564941 0.567005
O O14 0.316714 0.266161 0.833862
O O15 0.027344 0.801748 0.206838
O O16 0.420032 0.874636 0.217182
O O17 0.500000 0.000000 0.000000
#
# Coordination Sequence:
#
# PCOD8019551 Si02
#       8
#     2   2   2   2   2   2   2   2
#     4  12  24  43  66 103 139 180 234 283 350 422
#     4  10  22  42  64 100 134 177 236 286 345 413
#     4  11  25  43  68 101 139 182 232 289 346 421
#     4  11  24  43  67  98 139 184 233 285 353 412
#     4  10  22  41  68  96 135 180 226 289 351 408
#     4  12  26  46  73 103 141 189 230 292 353 414
#     4  11  25  45  70 104 137 179 238 284 351 423
#     4  11  24  48  72 103 140 182 233 291 350 420
#
# _framework density 22.978860000000001
#
# number of rings (size 3 to 8) (size 9 to 14) (size 15 to 20)
#    0.000    1.000    2.500    3.750    0.000    8.000 
#    2.250    0.000    0.000    0.000    0.000    0.000 
#    0.000    0.000    0.000    0.000    0.000    0.000 
#
# Total GULP energy -198373.268077 kJ/mol
# GULP energy per Si atom -12398.329255 kJ/mol
# Density = 2.292656 g / cm^3
# Si number density = 22.978860 Si / 1000 Ang^3
#
#
#
# Elastic Constant Matrix: (Units=GPa)
#
#
# Indices 1 2 3 4 5 6 
#
# 1 113.3052 50.7097 56.5868 0.6443 -4.9675 -17.3479
# 2 50.7097 141.6378 49.1113 -15.2609 -1.0258 8.6660
# 3 56.5868 49.1113 95.1392 -0.7217 -6.3273 -6.9812
# 4 0.6443 -15.2609 -0.7217 39.5445 5.0403 -7.9758
# 5 -4.9675 -1.0258 -6.3273 5.0403 36.2317 4.6139
# 6 -17.3479 8.6660 -6.9812 -7.9758 4.6139 42.4959
#
#
#
# Elastic Compliance Matrix: (Units=1/GPa)
#
#
# Indices 1 2 3 4 5 6 
#
# 1 0.014339 -0.003290 -0.006432 -0.000561 0.000147 0.005346
# 2 -0.003290 0.009987 -0.003466 0.003295 -0.000819 -0.003242
# 3 -0.006432 -0.003466 0.016273 -0.001121 0.001976 0.000329
# 4 -0.000561 0.003295 -0.001121 0.028093 -0.004685 0.004696
# 5 0.000147 -0.000819 0.001976 -0.004685 0.029037 -0.003480
# 6 0.005346 -0.003242 0.000329 0.004696 -0.003480 0.027689
#
#
# Mechanical properties :
#
#
# Convention : Reuss Voigt Hill
#
# Bulk Modulus (GPa) = 70.31102 73.65532 71.98317
# Shear Modulus (GPa) = 31.94172 36.56605 34.25389
#
# Velocity S-wave (km/s) = 3.73238 3.99343 3.86511
# Velocity P-wave (km/s) = 7.01703 7.30660 7.16328
#
# Compressibility (1/GPa) = 0.01422252
#
# Stress axis : x y z
#
# Youngs Moduli (GPa) = 69.74141 100.12616 61.45109
#
# Poissons Ratio (x) = 0.32939 0.39528
# Poissons Ratio (y) = 0.22943 0.21300
# Poissons Ratio (z) = 0.44860 0.34706
#
# Static dielectric constant tensor:
#      x y z
#    x 4.413480 0.350680 0.289260 
#    y 0.350680 4.749480 0.421950 
#    z 0.289260 0.421950 4.670320 
# 
# 
# High freq. dielectric constant tensor:
#      x y z
#    x 1.907210 0.010900 -0.008050 
#    y 0.010900 1.932720 -0.003880 
#    z -0.008050 -0.003880 1.886510 
# 
# From -- ./inp_files/584293.got.cif
#   From: 2010.06.25/outbox.cif.g09.slc.cpg/sg2_293_cif.got.tgz:584293.got - 2010.06.27 13:26:56.
