data_PCOD8019177
_publ_section_title
;
Structure prediction by ZEFSAII (Michael W. Deem and Ramdas Pophale) SiO2 
 PCOD8019177
Probable space group: P -1
;
_chemical_formula_sum "Si O2"
_cell_formula_units_Z 16
_cell_length_a 14.921322
_cell_length_b 12.392451
_cell_length_c 9.380193
_cell_angle_alpha 106.976884
_cell_angle_beta 95.234785
_cell_angle_gamma 27.352154
_cell_volume 704.229670
_symmetry_space_group_name_H-M "P -1"
_symmetry_group_IT_number 2
_symmetry_cell_setting 'triclinic'
loop_
_space_group_symop_operation_xyz
x,y,z
-x,-y,-z
loop_
_atom_site_type_symbol
_atom_site_label
_atom_site_fract_x
_atom_site_fract_y
_atom_site_fract_z
Si Si1 0.860454 0.635734 0.666127
Si Si2 0.634689 0.546858 0.870627
Si Si3 0.443496 0.750456 0.501209
Si Si4 0.185108 0.861374 0.397420
Si Si5 0.469122 0.224529 0.771240
Si Si6 0.146108 0.414751 0.854371
Si Si7 0.829496 0.414343 0.585436
Si Si8 0.238622 0.086430 0.853237
O O1 0.774075 0.606589 0.625462
O O2 0.000000 0.500000 0.500000
O O3 0.001017 0.496664 0.771210
O O4 0.668687 0.940011 0.763143
O O5 0.702720 0.337046 0.788172
O O6 0.811148 0.414805 0.753922
O O7 0.405764 0.834014 0.881320
O O8 0.635608 0.574970 0.048428
O O9 0.380652 0.689298 0.452926
O O10 0.469536 0.778225 0.361481
O O11 0.659061 0.521319 0.532020
O O12 0.253884 0.023038 0.668626
O O13 0.000000 0.000000 0.500000
O O14 0.056489 0.122211 0.435431
O O15 0.299930 0.318217 0.744929
O O16 0.277123 0.179720 0.885045
O O17 0.996033 0.667424 0.023424
#
# Coordination Sequence:
#
# PCOD8019177 Si02
#       8
#     2   2   2   2   2   2   2   2
#     4  12  24  41  66  98 137 171 211 263 324 388
#     4  10  23  42  64  95 126 170 216 273 313 383
#     4  11  24  44  64  96 129 169 215 269 320 386
#     4  10  23  43  70  94 125 167 223 268 322 374
#     4  12  25  41  65  98 136 169 211 263 333 376
#     4  11  24  38  65  98 133 171 213 262 318 385
#     4  10  23  41  68  96 127 171 219 260 321 382
#     4  10  22  41  65  94 129 171 216 262 316 381
#
# _framework density 22.719861999999999
#
# number of rings (size 3 to 8) (size 9 to 14) (size 15 to 20)
#    0.000    1.250    1.250    4.500    7.000    7.500 
#    0.000    0.625    0.000    0.000    0.000    0.000 
#    0.000    0.000    0.000    0.000    0.000    0.000 
#
# Total GULP energy -198232.685064 kJ/mol
# GULP energy per Si atom -12389.542817 kJ/mol
# Density = 2.266815 g / cm^3
# Si number density = 22.719862 Si / 1000 Ang^3
#
#
#
# Elastic Constant Matrix: (Units=GPa)
#
#
# Indices 1 2 3 4 5 6 
#
# 1 104.7196 3.3282 34.8382 -3.6861 3.6455 -20.8601
# 2 3.3282 61.6038 33.1630 17.5027 6.2769 -3.4315
# 3 34.8382 33.1630 125.0486 12.8975 5.0791 2.3737
# 4 -3.6861 17.5027 12.8975 39.0007 4.7671 3.6791
# 5 3.6455 6.2769 5.0791 4.7671 34.8015 -1.4350
# 6 -20.8601 -3.4315 2.3737 3.6791 -1.4350 25.4163
#
#
#
# Elastic Compliance Matrix: (Units=1/GPa)
#
#
# Indices 1 2 3 4 5 6 
#
# 1 0.013355 0.002247 -0.004584 0.000775 -0.000766 0.011537
# 2 0.002247 0.022046 -0.005671 -0.008167 -0.002001 0.006419
# 3 -0.004584 -0.005671 0.010991 -0.000988 -0.000189 -0.005422
# 4 0.000775 -0.008167 -0.000988 0.030521 -0.002849 -0.004953
# 5 -0.000766 -0.002001 -0.000189 -0.002849 0.029643 0.001205
# 6 0.011537 0.006419 -0.005422 -0.004953 0.001205 0.050972
#
#
# Mechanical properties :
#
#
# Convention : Reuss Voigt Hill
#
# Bulk Modulus (GPa) = 32.92199 48.22565 40.57382
# Shear Modulus (GPa) = 27.22275 34.51319 30.86797
#
# Velocity S-wave (km/s) = 3.46525 3.90176 3.68996
# Velocity P-wave (km/s) = 5.52562 6.44753 6.00429
#
# Compressibility (1/GPa) = 0.03037483
#
# Stress axis : x y z
#
# Youngs Moduli (GPa) = 74.87720 45.35980 90.98720
#
# Poissons Ratio (x) = -0.10192 0.41713
# Poissons Ratio (y) = -0.16824 0.51597
# Poissons Ratio (z) = 0.34327 0.25723
#
# Static dielectric constant tensor:
#      x y z
#    x 4.532780 0.119150 0.507240 
#    y 0.119150 4.141400 0.523810 
#    z 0.507240 0.523810 4.602630 
# 
# 
# High freq. dielectric constant tensor:
#      x y z
#    x 1.891840 -0.008710 0.007860 
#    y -0.008710 1.892140 0.024840 
#    z 0.007860 0.024840 1.899410 
# 
# From -- ./inp_files/308069.got.cif
#   From: 2010.06.25/outbox.cif.g09.slc.cpg/sg2_155_cif.got.tgz:308069.got - 2010.06.27 13:26:56.
