data_PCOD8019317
_publ_section_title
;
Structure prediction by ZEFSAII (Michael W. Deem and Ramdas Pophale) SiO2 
 PCOD8019317
Probable space group: P -1
;
_chemical_formula_sum "Si O2"
_cell_formula_units_Z 12
_cell_length_a 7.183993
_cell_length_b 7.563735
_cell_length_c 19.901185
_cell_angle_alpha 44.437271
_cell_angle_beta 46.402833
_cell_angle_gamma 36.299223
_cell_volume 430.882885
_symmetry_space_group_name_H-M "P -1"
_symmetry_group_IT_number 2
_symmetry_cell_setting 'triclinic'
loop_
_space_group_symop_operation_xyz
x,y,z
-x,-y,-z
loop_
_atom_site_type_symbol
_atom_site_label
_atom_site_fract_x
_atom_site_fract_y
_atom_site_fract_z
Si Si1 0.368163 0.355344 0.190148
Si Si2 0.181220 0.387360 0.848229
Si Si3 0.854411 0.758179 0.311049
Si Si4 0.309986 0.911338 0.484838
Si Si5 0.595987 0.761754 0.980387
Si Si6 0.406057 0.753519 0.652958
O O1 0.086143 0.419630 0.195633
O O2 0.492270 0.540418 0.078749
O O3 0.212256 0.465847 0.274528
O O4 0.671466 0.983757 0.228500
O O5 0.447682 0.449615 0.757178
O O6 0.982367 0.540069 0.927171
O O7 0.381128 0.000501 0.905287
O O8 0.627484 0.668653 0.422777
O O9 0.895670 0.936172 0.313686
O O10 0.286789 0.233705 0.419013
O O11 0.331689 0.756149 0.592348
O O12 0.000000 0.000000 0.500000
O O13 0.500000 0.000000 0.000000
#
# Coordination Sequence:
#
# PCOD8019317 Si02
#       6
#     2   2   2   2   2   2
#     4  12  23  42  67  97 133 178 220 275 331 394
#     4  12  24  42  65  99 133 173 226 274 328 398
#     4  10  22  41  66  96 134 169 223 270 334 392
#     4   9  19  42  71  97 135 174 223 276 337 397
#     4  12  25  42  66  94 134 179 223 271 332 395
#     4   9  21  41  67 101 134 174 225 275 334 399
#
# _framework density 27.849796000000001
#
# number of rings (size 3 to 8) (size 9 to 14) (size 15 to 20)
#    1.000    0.333    0.000    6.500    0.000    0.000 
#    0.000    8.333    0.000    0.000    0.000    0.000 
#    0.000    0.000    0.000    0.000    0.000    0.000 
#
# Total GULP energy -148714.267274 kJ/mol
# GULP energy per Si atom -12392.855606 kJ/mol
# Density = 2.778641 g / cm^3
# Si number density = 27.849796 Si / 1000 Ang^3
#
#
#
# Elastic Constant Matrix: (Units=GPa)
#
#
# Indices 1 2 3 4 5 6 
#
# 1 104.1266 -7.6589 22.3762 6.5873 -11.1851 -19.1806
# 2 -7.6589 72.0467 22.0880 5.2460 -15.4942 -17.4737
# 3 22.3762 22.0880 172.9222 4.7402 -19.0144 -11.5363
# 4 6.5873 5.2460 4.7402 25.2924 -3.5212 0.5517
# 5 -11.1851 -15.4942 -19.0144 -3.5212 50.0985 1.0617
# 6 -19.1806 -17.4737 -11.5363 0.5517 1.0617 25.8303
#
#
#
# Elastic Compliance Matrix: (Units=1/GPa)
#
#
# Indices 1 2 3 4 5 6 
#
# 1 0.013528 0.006268 -0.001081 -0.004370 0.003950 0.013734
# 2 0.006268 0.021214 -0.001430 -0.005234 0.006664 0.018204
# 3 -0.001081 -0.001430 0.006369 -0.000403 0.001684 0.001014
# 4 -0.004370 -0.005234 -0.000403 0.042061 0.000376 -0.007880
# 5 0.003950 0.006664 0.001684 0.000376 0.023416 0.007223
# 6 0.013734 0.018204 0.001014 -0.007880 0.007223 0.061552
#
#
# Mechanical properties :
#
#
# Convention : Reuss Voigt Hill
#
# Bulk Modulus (GPa) = 20.56544 46.96734 33.76639
# Shear Modulus (GPa) = 28.27513 41.06359 34.66936
#
# Velocity S-wave (km/s) = 3.18979 3.84404 3.53210
# Velocity P-wave (km/s) = 4.57895 6.05007 5.36517
#
# Compressibility (1/GPa) = 0.04862526
#
# Stress axis : x y z
#
# Youngs Moduli (GPa) = 73.92316 47.13861 157.00190
#
# Poissons Ratio (x) = -0.29546 0.16967
# Poissons Ratio (y) = -0.46335 0.22453
# Poissons Ratio (z) = 0.07989 0.06741
#
# Static dielectric constant tensor:
#      x y z
#    x 4.948040 0.020560 0.428370 
#    y 0.020560 4.872030 0.281050 
#    z 0.428370 0.281050 5.108360 
# 
# 
# High freq. dielectric constant tensor:
#      x y z
#    x 2.130840 -0.004800 0.021540 
#    y -0.004800 2.114030 0.003730 
#    z 0.021540 0.003730 2.154660 
# 
# From -- ./inp_files/606320.got.cif
#   From: 2010.06.25/outbox.cif.g09.slc.cpg/sg2_304_cif.got.tgz:606320.got - 2010.06.27 13:26:56.
