data_PCOD8019870
_publ_section_title
;
Structure prediction by ZEFSAII (Michael W. Deem and Ramdas Pophale) SiO2 
 PCOD8019870
Probable space group: P -1
;
_chemical_formula_sum "Si O2"
_cell_formula_units_Z 16
_cell_length_a 14.403774
_cell_length_b 12.280640
_cell_length_c 14.503029
_cell_angle_alpha 146.534052
_cell_angle_beta 29.576607
_cell_angle_gamma 141.682881
_cell_volume 681.616006
_symmetry_space_group_name_H-M "P -1"
_symmetry_group_IT_number 2
_symmetry_cell_setting 'triclinic'
loop_
_space_group_symop_operation_xyz
x,y,z
-x,-y,-z
loop_
_atom_site_type_symbol
_atom_site_label
_atom_site_fract_x
_atom_site_fract_y
_atom_site_fract_z
Si Si1 0.573460 0.738121 0.598820
Si Si2 0.209934 0.080790 0.936498
Si Si3 0.490731 0.273505 0.989546
Si Si4 0.755447 0.750563 0.635622
Si Si5 0.685475 0.284420 0.347189
Si Si6 0.158579 0.931885 0.482980
Si Si7 0.105475 0.732948 0.584824
Si Si8 0.517512 0.725000 0.304103
O O1 0.500000 0.500000 0.500000
O O2 0.630538 0.821942 0.711289
O O3 0.391957 0.801393 0.748128
O O4 0.758022 0.825779 0.434178
O O5 0.371459 0.211079 0.955490
O O6 0.011983 0.161006 0.163539
O O7 0.309064 0.101345 0.763526
O O8 0.162646 0.845885 0.843542
O O9 0.348946 0.216351 0.157421
O O10 0.573483 0.513168 0.084159
O O11 0.672985 0.173009 0.773846
O O12 0.779384 0.520890 0.436211
O O13 0.972056 0.879128 0.541468
O O14 0.501619 0.240137 0.545386
O O15 0.101163 0.860373 0.585315
O O16 0.317630 0.735287 0.435572
O O17 0.000000 0.500000 0.500000
#
# Coordination Sequence:
#
# PCOD8019870 Si02
#       8
#     2   2   2   2   2   2   2   2
#     4  10  22  43  69  92 128 170 212 273 329 367
#     4  12  21  38  63  92 131 172 209 261 319 379
#     4  11  21  38  66  95 127 169 216 263 314 385
#     4  10  23  43  66  94 127 164 215 269 322 381
#     4  10  22  42  61  92 132 170 211 265 321 379
#     4  12  22  40  68  99 127 169 216 263 318 387
#     4  12  22  36  63  97 133 169 211 260 313 380
#     4  11  22  38  60  92 131 173 212 254 317 384
#
# _framework density 23.473627
#
# number of rings (size 3 to 8) (size 9 to 14) (size 15 to 20)
#    0.000    1.000    5.000    2.625    0.000    1.000 
#    0.000    6.250    0.000   11.250    0.000    0.000 
#    0.000    0.000    0.000    0.000    0.000    0.000 
#
# Total GULP energy -198283.993379 kJ/mol
# GULP energy per Si atom -12392.749586 kJ/mol
# Density = 2.342020 g / cm^3
# Si number density = 23.473627 Si / 1000 Ang^3
#
#
#
# Elastic Constant Matrix: (Units=GPa)
#
#
# Indices 1 2 3 4 5 6 
#
# 1 118.4340 34.3856 24.0917 -9.9331 -13.5907 -3.7835
# 2 34.3856 136.2125 28.8727 -15.0290 -7.3667 -18.0164
# 3 24.0917 28.8727 105.9668 -4.1704 -16.5216 5.3385
# 4 -9.9331 -15.0290 -4.1704 30.2425 6.3257 -5.3943
# 5 -13.5907 -7.3667 -16.5216 6.3257 28.0165 -6.5591
# 6 -3.7835 -18.0164 5.3385 -5.3943 -6.5591 29.1477
#
#
#
# Elastic Compliance Matrix: (Units=1/GPa)
#
#
# Indices 1 2 3 4 5 6 
#
# 1 0.009772 -0.001595 -0.001243 0.001793 0.003568 0.001645
# 2 -0.001595 0.009859 -0.002338 0.005177 0.001028 0.007504
# 3 -0.001243 -0.002338 0.011232 -0.001590 0.005107 -0.002808
# 4 0.001793 0.005177 -0.001590 0.038832 -0.005194 0.009741
# 5 0.003568 0.001028 0.005107 -0.005194 0.044011 0.009106
# 6 0.001645 0.007504 -0.002808 0.009741 0.009106 0.043526
#
#
# Mechanical properties :
#
#
# Convention : Reuss Voigt Hill
#
# Bulk Modulus (GPa) = 48.75425 59.47926 54.11675
# Shear Modulus (GPa) = 28.66643 35.69890 32.18267
#
# Velocity S-wave (km/s) = 3.49838 3.90399 3.70674
# Velocity P-wave (km/s) = 6.09370 6.76130 6.43616
#
# Compressibility (1/GPa) = 0.02051103
#
# Stress axis : x y z
#
# Youngs Moduli (GPa) = 102.33513 101.43041 89.03404
#
# Poissons Ratio (x) = 0.16178 0.11067
# Poissons Ratio (y) = 0.16322 0.20813
# Poissons Ratio (z) = 0.12721 0.23711
#
# Static dielectric constant tensor:
#      x y z
#    x 4.749090 -0.204310 0.099280 
#    y -0.204310 4.727750 0.069350 
#    z 0.099280 0.069350 4.157380 
# 
# 
# High freq. dielectric constant tensor:
#      x y z
#    x 1.947860 0.000690 0.000530 
#    y 0.000690 1.948100 0.005380 
#    z 0.000530 0.005380 1.901620 
# 
# From -- ./inp_files/505096.got.cif
#   From: 2010.06.25/outbox.cif.g09.slc.cpg/sg2_253_cif.got.tgz:505096.got - 2010.06.27 13:26:56.
