data_PCOD8019560
_publ_section_title
;
Structure prediction by ZEFSAII (Michael W. Deem and Ramdas Pophale) SiO2 
 PCOD8019560
Probable space group: P -1
;
_chemical_formula_sum "Si O2"
_cell_formula_units_Z 14
_cell_length_a 12.638775
_cell_length_b 9.576792
_cell_length_c 15.828248
_cell_angle_alpha 43.909251
_cell_angle_beta 28.731870
_cell_angle_gamma 51.834536
_cell_volume 638.156950
_symmetry_space_group_name_H-M "P -1"
_symmetry_group_IT_number 2
_symmetry_cell_setting 'triclinic'
loop_
_space_group_symop_operation_xyz
x,y,z
-x,-y,-z
loop_
_atom_site_type_symbol
_atom_site_label
_atom_site_fract_x
_atom_site_fract_y
_atom_site_fract_z
Si Si1 0.020274 0.907575 0.838816
Si Si2 0.496852 0.445972 0.724751
Si Si3 0.473992 0.115509 0.771694
Si Si4 0.237896 0.642252 0.669619
Si Si5 0.845306 0.377709 0.000646
Si Si6 0.522492 0.301623 0.122681
Si Si7 0.838755 0.656793 0.503259
O O1 0.066899 0.780926 0.777170
O O2 0.033422 0.144232 0.707545
O O3 0.181742 0.826590 0.834167
O O4 0.783774 0.845618 0.069148
O O5 0.553309 0.213496 0.763582
O O6 0.398722 0.533705 0.668665
O O7 0.724522 0.556948 0.544559
O O8 0.323349 0.459356 0.916630
O O9 0.602409 0.222366 0.558716
O O10 0.508930 0.877959 0.844679
O O11 0.090387 0.482161 0.786497
O O12 0.766292 0.311280 0.991006
O O13 0.338620 0.274379 0.335003
O O14 0.500000 0.500000 0.000000
O O15 0.000000 0.500000 0.500000
#
# Coordination Sequence:
#
# PCOD8019560 Si02
#       7
#     2   2   2   2   2   2   2
#     4  11  22  42  69 101 133 177 217 271 340 387
#     4  10  22  41  68  97 132 174 219 271 329 397
#     4  12  23  40  70 102 132 172 224 271 331 399
#     4  11  21  42  67 104 139 165 220 278 331 389
#     4  10  22  43  71  94 141 172 216 277 332 393
#     4  11  26  46  64 101 134 176 228 272 323 403
#     4  11  25  47  67  92 139 183 218 273 334 390
#
# _framework density 21.938178000000001
#
# number of rings (size 3 to 8) (size 9 to 14) (size 15 to 20)
#    0.000    1.143    4.286    2.143    2.000    4.571 
#    2.571    3.571    0.000    0.000    0.000    0.000 
#    0.000    0.000    0.000    0.000    0.000    0.000 
#
# Total GULP energy -173517.260754 kJ/mol
# GULP energy per Si atom -12394.090054 kJ/mol
# Density = 2.188825 g / cm^3
# Si number density = 21.938178 Si / 1000 Ang^3
#
#
#
# Elastic Constant Matrix: (Units=GPa)
#
#
# Indices 1 2 3 4 5 6 
#
# 1 75.5602 38.5872 35.5505 -21.8918 -11.2832 -9.8679
# 2 38.5872 144.2237 40.5191 -23.3440 -2.4771 7.7953
# 3 35.5505 40.5191 118.1805 -14.6373 -1.7976 -11.1796
# 4 -21.8918 -23.3440 -14.6373 40.0437 1.2759 -1.6527
# 5 -11.2832 -2.4771 -1.7976 1.2759 30.7657 0.6956
# 6 -9.8679 7.7953 -11.1796 -1.6527 0.6956 23.4959
#
#
#
# Elastic Compliance Matrix: (Units=1/GPa)
#
#
# Indices 1 2 3 4 5 6 
#
# 1 0.021295 -0.003847 -0.003073 0.008438 0.006764 0.009151
# 2 -0.003847 0.009257 -0.002278 0.002254 -0.000766 -0.005589
# 3 -0.003073 -0.002278 0.010738 0.001137 -0.000836 0.004679
# 4 0.008438 0.002254 0.001137 0.031481 0.001913 0.005495
# 5 0.006764 -0.000766 -0.000836 0.001913 0.034754 0.001803
# 6 0.009151 -0.005589 0.004679 0.005495 0.001803 0.050817
#
#
# Mechanical properties :
#
#
# Convention : Reuss Voigt Hill
#
# Bulk Modulus (GPa) = 43.68014 63.03090 53.35552
# Shear Modulus (GPa) = 27.11970 33.74823 30.43396
#
# Velocity S-wave (km/s) = 3.51976 3.92641 3.72864
# Velocity P-wave (km/s) = 6.03921 7.02490 6.55062
#
# Compressibility (1/GPa) = 0.02289370
#
# Stress axis : x y z
#
# Youngs Moduli (GPa) = 46.96022 108.03102 93.12953
#
# Poissons Ratio (x) = 0.41555 0.28621
# Poissons Ratio (y) = 0.18064 0.21212
# Poissons Ratio (z) = 0.14432 0.24606
#
# Static dielectric constant tensor:
#      x y z
#    x 3.917870 0.428950 -0.045880 
#    y 0.428950 4.525330 0.155120 
#    z -0.045880 0.155120 4.153510 
# 
# 
# High freq. dielectric constant tensor:
#      x y z
#    x 1.839520 0.015460 -0.007530 
#    y 0.015460 1.873400 0.001740 
#    z -0.007530 0.001740 1.868770 
# 
# From -- ./inp_files/206033.got.cif
#   From: 2010.06.25/outbox.cif.g09.slc.cpg/sg2_104_cif.got.tgz:206033.got - 2010.06.27 13:26:56.
