data_PCOD8019693
_publ_section_title
;
Structure prediction by ZEFSAII (Michael W. Deem and Ramdas Pophale) SiO2 
 PCOD8019693
Probable space group: P -1
;
_chemical_formula_sum "Si O2"
_cell_formula_units_Z 14
_cell_length_a 8.740248
_cell_length_b 8.538027
_cell_length_c 8.674791
_cell_angle_alpha 109.005302
_cell_angle_beta 87.344905
_cell_angle_gamma 116.273834
_cell_volume 545.164194
_symmetry_space_group_name_H-M "P -1"
_symmetry_group_IT_number 2
_symmetry_cell_setting 'triclinic'
loop_
_space_group_symop_operation_xyz
x,y,z
-x,-y,-z
loop_
_atom_site_type_symbol
_atom_site_label
_atom_site_fract_x
_atom_site_fract_y
_atom_site_fract_z
Si Si1 0.382913 0.277093 0.290446
Si Si2 0.863449 0.604455 0.140193
Si Si3 0.263870 0.723489 0.765362
Si Si4 0.299726 0.849279 0.468127
Si Si5 0.296668 0.201805 0.608742
Si Si6 0.125079 0.922217 0.040109
Si Si7 0.642835 0.417234 0.810078
O O1 0.560213 0.292477 0.218286
O O2 0.388290 0.319327 0.487440
O O3 0.318864 0.406634 0.243741
O O4 0.242969 0.064184 0.208211
O O5 0.887644 0.460245 0.207759
O O6 0.848640 0.752523 0.302769
O O7 0.023351 0.719536 0.058991
O O8 0.694620 0.485909 0.003915
O O9 0.243336 0.728572 0.586425
O O10 0.249292 0.900063 0.897681
O O11 0.251666 0.696821 0.285846
O O12 0.500000 0.000000 0.500000
O O13 0.204603 0.979983 0.507735
O O14 0.443159 0.268072 0.756488
O O15 0.000000 0.000000 0.000000
#
# Coordination Sequence:
#
# PCOD8019693 Si02
#       7
#     2   2   2   2   2   2   2
#     4  12  24  45  79 104 143 191 250 301 353 429
#     4  12  26  45  74 106 154 193 237 295 372 436
#     4  12  25  46  76 108 140 192 250 301 350 431
#     4  10  22  41  70 109 147 175 242 309 358 412
#     4  11  23  43  74 110 142 187 249 302 357 423
#     4  12  28  49  69 109 154 195 235 296 375 434
#     4  11  22  42  72 110 142 188 240 305 355 424
#
# _framework density 25.680336
#
# number of rings (size 3 to 8) (size 9 to 14) (size 15 to 20)
#    0.000    0.571    5.714    3.429    2.000    1.714 
#    0.000    0.714    0.000    0.000    0.000    0.000 
#    0.000    0.000    0.000    0.000    0.000    0.000 
#
# Total GULP energy -173520.644436 kJ/mol
# GULP energy per Si atom -12394.331745 kJ/mol
# Density = 2.562189 g / cm^3
# Si number density = 25.680336 Si / 1000 Ang^3
#
#
#
# Elastic Constant Matrix: (Units=GPa)
#
#
# Indices 1 2 3 4 5 6 
#
# 1 47.2315 14.3542 40.0590 11.0957 -33.0109 -8.3774
# 2 14.3542 132.0721 32.3520 -13.7265 -10.8015 -16.6625
# 3 40.0590 32.3520 114.8817 1.7965 -32.8982 -15.4598
# 4 11.0957 -13.7265 1.7965 47.1877 -9.4153 -9.3079
# 5 -33.0109 -10.8015 -32.8982 -9.4153 41.4473 12.9754
# 6 -8.3774 -16.6625 -15.4598 -9.3079 12.9754 41.8832
#
#
#
# Elastic Compliance Matrix: (Units=1/GPa)
#
#
# Indices 1 2 3 4 5 6 
#
# 1 0.056191 -0.002412 -0.008957 -0.007359 0.037289 -0.006214
# 2 -0.002412 0.008981 -0.001575 0.003741 -0.001137 0.003693
# 3 -0.008957 -0.001575 0.013343 0.002126 0.002875 0.002088
# 4 -0.007359 0.003741 0.002126 0.025278 0.000591 0.006236
# 5 0.037289 -0.001137 0.002875 0.000591 0.059112 -0.010114
# 6 -0.006214 0.003693 0.002088 0.006236 -0.010114 0.029392
#
#
# Mechanical properties :
#
#
# Convention : Reuss Voigt Hill
#
# Bulk Modulus (GPa) = 19.00220 51.96842 35.48531
# Shear Modulus (GPa) = 21.21088 39.93163 30.57125
#
# Velocity S-wave (km/s) = 2.87707 3.94756 3.45404
# Velocity P-wave (km/s) = 4.29561 6.40767 5.45484
#
# Compressibility (1/GPa) = 0.05262549
#
# Stress axis : x y z
#
# Youngs Moduli (GPa) = 17.79656 111.34094 74.94714
#
# Poissons Ratio (x) = 0.26856 0.67132
# Poissons Ratio (y) = 0.04293 0.11807
# Poissons Ratio (z) = 0.15941 0.17540
#
# Static dielectric constant tensor:
#      x y z
#    x 4.394780 -0.346890 -0.332470 
#    y -0.346890 4.988950 0.418880 
#    z -0.332470 0.418880 4.830480 
# 
# 
# High freq. dielectric constant tensor:
#      x y z
#    x 2.002940 -0.018320 -0.023020 
#    y -0.018320 2.040180 0.007300 
#    z -0.023020 0.007300 2.035530 
# 
# From -- ./inp_files/159776.got.cif
#   From: 2010.06.25/outbox.cif.g09.slc.cpg/sg2_80_cif.got.tgz:159776.got - 2010.06.27 13:26:56.
