data_PCOD8019365
_publ_section_title
;
Structure prediction by ZEFSAII (Michael W. Deem and Ramdas Pophale) SiO2 
 PCOD8019365
Probable space group: P -1
;
_chemical_formula_sum "Si O2"
_cell_formula_units_Z 16
_cell_length_a 7.187345
_cell_length_b 10.789190
_cell_length_c 12.161174
_cell_angle_alpha 83.677596
_cell_angle_beta 123.179912
_cell_angle_gamma 104.962471
_cell_volume 761.960509
_symmetry_space_group_name_H-M "P -1"
_symmetry_group_IT_number 2
_symmetry_cell_setting 'triclinic'
loop_
_space_group_symop_operation_xyz
x,y,z
-x,-y,-z
loop_
_atom_site_type_symbol
_atom_site_label
_atom_site_fract_x
_atom_site_fract_y
_atom_site_fract_z
Si Si1 0.689319 0.749767 0.298677
Si Si2 0.062151 0.489598 0.179420
Si Si3 0.235440 0.700752 0.046907
Si Si4 0.139038 0.499992 0.654561
Si Si5 0.875401 0.053102 0.646510
Si Si6 0.042335 0.095346 0.104828
Si Si7 0.525713 0.818705 0.465125
Si Si8 0.581383 0.684479 0.720674
O O1 0.504904 0.760364 0.144328
O O2 0.758323 0.621898 0.301150
O O3 0.572667 0.740527 0.381574
O O4 0.909609 0.867460 0.359360
O O5 0.124488 0.630783 0.130639
O O6 0.265805 0.419007 0.230332
O O7 0.028947 0.503260 0.296803
O O8 0.824888 0.406635 0.058192
O O9 0.144190 0.822149 0.969447
O O10 0.347255 0.625846 0.714781
O O11 0.000000 0.500000 0.500000
O O12 0.718466 0.145210 0.632094
O O13 0.725009 0.948391 0.526848
O O14 0.984655 0.987804 0.785833
O O15 0.293433 0.192779 0.178126
O O16 0.000000 0.000000 0.000000
O O17 0.521100 0.727261 0.576503
#
# Coordination Sequence:
#
# PCOD8019365 Si02
#       8
#     2   2   2   2   2   2   2   2
#     4  12  24  37  65  97 123 166 214 262 317 374
#     4  10  23  45  62  90 136 164 212 257 317 385
#     4  10  23  43  64  91 126 176 206 262 318 367
#     4  12  26  38  65 100 125 167 213 261 323 382
#     4  10  23  41  62  93 124 173 212 260 318 370
#     4  10  22  41  67  90 123 168 215 261 314 375
#     4  10  22  42  65  88 135 166 212 262 314 384
#     4  10  22  43  64  94 127 170 206 262 327 367
#
# _framework density 20.998463999999998
#
# number of rings (size 3 to 8) (size 9 to 14) (size 15 to 20)
#    0.000    1.500    1.250    2.625    5.250    3.000 
#    0.000   11.250    0.000    0.000    0.000    0.000 
#    0.000    0.000    0.000    0.000    0.000    0.000 
#
# Total GULP energy -198413.507196 kJ/mol
# GULP energy per Si atom -12400.844200 kJ/mol
# Density = 2.095067 g / cm^3
# Si number density = 20.998464 Si / 1000 Ang^3
#
#
#
# Elastic Constant Matrix: (Units=GPa)
#
#
# Indices 1 2 3 4 5 6 
#
# 1 80.1275 21.2049 39.8162 -1.2320 -1.1906 3.2703
# 2 21.2049 68.3647 34.3301 -11.7479 3.6104 -0.8134
# 3 39.8162 34.3301 120.8129 -9.9139 6.6893 -1.9949
# 4 -1.2320 -11.7479 -9.9139 39.0394 -5.0146 -1.1006
# 5 -1.1906 3.6104 6.6893 -5.0146 35.4443 4.7124
# 6 3.2703 -0.8134 -1.9949 -1.1006 4.7124 25.3922
#
#
#
# Elastic Compliance Matrix: (Units=1/GPa)
#
#
# Indices 1 2 3 4 5 6 
#
# 1 0.015662 -0.002922 -0.004597 -0.001393 0.001877 -0.002881
# 2 -0.002922 0.018246 -0.003806 0.004363 -0.000753 0.000991
# 3 -0.004597 -0.003806 0.011118 0.001337 -0.001909 0.001756
# 4 -0.001393 0.004363 0.001337 0.027642 0.003026 0.001061
# 5 0.001877 -0.000753 -0.001909 0.003026 0.029918 -0.005837
# 6 -0.002881 0.000991 0.001756 0.001061 -0.005837 0.041052
#
#
# Mechanical properties :
#
#
# Convention : Reuss Voigt Hill
#
# Bulk Modulus (GPa) = 44.68986 51.11194 47.90090
# Shear Modulus (GPa) = 28.77749 31.57211 30.17480
#
# Velocity S-wave (km/s) = 3.70598 3.88176 3.79489
# Velocity P-wave (km/s) = 6.29612 6.66966 6.48558
#
# Compressibility (1/GPa) = 0.02237644
#
# Stress axis : x y z
#
# Youngs Moduli (GPa) = 63.84957 54.80595 89.94258
#
# Poissons Ratio (x) = 0.16015 0.41348
# Poissons Ratio (y) = 0.18657 0.34229
# Poissons Ratio (z) = 0.29352 0.20857
#
# Static dielectric constant tensor:
#      x y z
#    x 3.603970 0.132570 0.156510 
#    y 0.132570 3.903310 0.080950 
#    z 0.156510 0.080950 4.027130 
# 
# 
# High freq. dielectric constant tensor:
#      x y z
#    x 1.800870 0.004310 0.014270 
#    y 0.004310 1.836920 0.001330 
#    z 0.014270 0.001330 1.841590 
# 
# From -- ./inp_files/364660.got.cif
#   From: 2010.06.25/outbox.cif.g09.slc.cpg/sg2_183_cif.got.tgz:364660.got - 2010.06.27 13:26:56.
