data_PCOD8019669
_publ_section_title
;
Structure prediction by ZEFSAII (Michael W. Deem and Ramdas Pophale) SiO2 
 PCOD8019669
Probable space group: P -1
;
_chemical_formula_sum "Si O2"
_cell_formula_units_Z 14
_cell_length_a 8.310931
_cell_length_b 8.836286
_cell_length_c 8.791964
_cell_angle_alpha 117.154459
_cell_angle_beta 109.001034
_cell_angle_gamma 93.439768
_cell_volume 526.232771
_symmetry_space_group_name_H-M "P -1"
_symmetry_group_IT_number 2
_symmetry_cell_setting 'triclinic'
loop_
_space_group_symop_operation_xyz
x,y,z
-x,-y,-z
loop_
_atom_site_type_symbol
_atom_site_label
_atom_site_fract_x
_atom_site_fract_y
_atom_site_fract_z
Si Si1 0.868760 0.188800 0.844902
Si Si2 0.672973 0.822484 0.491260
Si Si3 0.830341 0.540932 0.544901
Si Si4 0.146763 0.093926 0.706236
Si Si5 0.488168 0.712812 0.822270
Si Si6 0.733881 0.053438 0.032344
Si Si7 0.683053 0.436201 0.763316
O O1 0.794629 0.361229 0.887845
O O2 0.059974 0.223436 0.840379
O O3 0.724070 0.025887 0.650254
O O4 0.892741 0.143927 0.009878
O O5 0.814137 0.730254 0.570541
O O6 0.690764 0.808071 0.304035
O O7 0.473694 0.722161 0.425346
O O8 0.654966 0.395359 0.383092
O O9 0.826342 0.524583 0.718846
O O10 0.000000 0.500000 0.500000
O O11 0.201618 0.958199 0.779417
O O12 0.000000 0.000000 0.500000
O O13 0.635071 0.861954 0.846814
O O14 0.594267 0.584063 0.876634
O O15 0.401187 0.820751 0.964897
#
# Coordination Sequence:
#
# PCOD8019669 Si02
#       7
#     2   2   2   2   2   2   2
#     4  11  23  40  69 102 138 181 225 283 345 402
#     4  10  22  41  69  99 136 184 230 279 335 410
#     4  11  23  42  70 102 141 178 230 288 336 400
#     4  10  24  43  70 103 133 178 235 284 335 405
#     4  10  25  43  69  98 139 184 228 276 344 398
#     4  11  24  45  71  97 142 182 229 278 343 413
#     4  11  23  42  68 102 138 178 235 274 339 410
#
# _framework density 26.604195000000001
#
# number of rings (size 3 to 8) (size 9 to 14) (size 15 to 20)
#    0.000    1.429    0.000    5.143   12.000    0.571 
#    5.143    0.714    0.000    0.000    0.000    0.000 
#    0.000    0.000    0.000    0.000    0.000    0.000 
#
# Total GULP energy -173486.657621 kJ/mol
# GULP energy per Si atom -12391.904116 kJ/mol
# Density = 2.654364 g / cm^3
# Si number density = 26.604195 Si / 1000 Ang^3
#
#
#
# Elastic Constant Matrix: (Units=GPa)
#
#
# Indices 1 2 3 4 5 6 
#
# 1 113.7558 59.8708 15.6443 -19.4210 -17.6031 -4.2117
# 2 59.8708 175.2662 50.4169 -22.0475 -26.2362 -21.0312
# 3 15.6443 50.4169 35.4203 -18.3840 -8.9243 -3.3367
# 4 -19.4210 -22.0475 -18.3840 54.2259 8.6077 -11.8228
# 5 -17.6031 -26.2362 -8.9243 8.6077 40.0080 -0.2741
# 6 -4.2117 -21.0312 -3.3367 -11.8228 -0.2741 55.4455
#
#
#
# Elastic Compliance Matrix: (Units=1/GPa)
#
#
# Indices 1 2 3 4 5 6 
#
# 1 0.011373 -0.003907 0.002766 0.003090 0.002396 0.000219
# 2 -0.003907 0.012032 -0.015071 -0.001447 0.003142 0.003067
# 3 0.002766 -0.015071 0.055954 0.013881 0.000835 0.000825
# 4 0.003090 -0.001447 0.013881 0.025250 -0.001885 0.005896
# 5 0.002396 0.003142 0.000835 -0.001885 0.028709 0.001164
# 6 0.000219 0.003067 0.000825 0.005896 0.001164 0.020528
#
#
# Mechanical properties :
#
#
# Convention : Reuss Voigt Hill
#
# Bulk Modulus (GPa) = 21.30560 64.03401 42.66981
# Shear Modulus (GPa) = 24.76278 43.16991 33.96634
#
# Velocity S-wave (km/s) = 3.05419 4.03261 3.57701
# Velocity P-wave (km/s) = 4.52362 6.76787 5.75618
#
# Compressibility (1/GPa) = 0.04693601
#
# Stress axis : x y z
#
# Youngs Moduli (GPa) = 87.92697 83.11271 17.87168
#
# Poissons Ratio (x) = 0.32474 -0.04944
# Poissons Ratio (y) = 0.34355 0.26934
# Poissons Ratio (z) = -0.24322 1.25257
#
# Static dielectric constant tensor:
#      x y z
#    x 5.239170 0.128850 -0.247730 
#    y 0.128850 5.127050 -0.056650 
#    z -0.247730 -0.056650 4.487320 
# 
# 
# High freq. dielectric constant tensor:
#      x y z
#    x 2.079960 0.003120 -0.003450 
#    y 0.003120 2.075980 0.002910 
#    z -0.003450 0.002910 2.043530 
# 
# From -- ./inp_files/160245.got.cif
#   From: 2010.06.25/outbox.cif.g09.slc.cpg/sg2_81_cif.got.tgz:160245.got - 2010.06.27 13:26:56.
