data_PCOD8019021
_publ_section_title
;
Structure prediction by ZEFSAII (Michael W. Deem and Ramdas Pophale) SiO2 
 PCOD8019021
Probable space group: P -1
;
_chemical_formula_sum "Si O2"
_cell_formula_units_Z 16
_cell_length_a 5.250518
_cell_length_b 14.904043
_cell_length_c 8.604974
_cell_angle_alpha 96.083890
_cell_angle_beta 80.461520
_cell_angle_gamma 100.814087
_cell_volume 650.317961
_symmetry_space_group_name_H-M "P -1"
_symmetry_group_IT_number 2
_symmetry_cell_setting 'triclinic'
loop_
_space_group_symop_operation_xyz
x,y,z
-x,-y,-z
loop_
_atom_site_type_symbol
_atom_site_label
_atom_site_fract_x
_atom_site_fract_y
_atom_site_fract_z
Si Si1 0.342953 0.023311 0.374550
Si Si2 0.192222 0.201412 0.377556
Si Si3 0.921547 0.541863 0.677003
Si Si4 0.201321 0.275998 0.715098
Si Si5 0.288301 0.633842 0.150538
Si Si6 0.006317 0.092240 0.819389
Si Si7 0.187526 0.900436 0.832056
Si Si8 0.552736 0.353123 0.218384
O O1 0.176621 0.102168 0.449134
O O2 0.505344 0.080168 0.228447
O O3 0.500000 0.000000 0.500000
O O4 0.196695 0.926894 0.306733
O O5 0.163876 0.273079 0.531382
O O6 0.451214 0.247046 0.260357
O O7 0.952526 0.183350 0.276498
O O8 0.858807 0.466407 0.804801
O O9 0.669336 0.590283 0.690409
O O10 0.000000 0.500000 0.500000
O O11 0.170741 0.614259 0.720828
O O12 0.472915 0.340395 0.745603
O O13 0.935248 0.303094 0.814607
O O14 0.229909 0.176737 0.765124
O O15 0.415507 0.636971 0.968300
O O16 0.861254 0.124644 0.989481
O O17 0.105345 0.997727 0.817741
#
# Coordination Sequence:
#
# PCOD8019021 Si02
#       8
#     2   2   2   2   2   2   2   2
#     4  11  23  39  66  92 138 177 238 284 355 409
#     4  11  26  41  66 103 132 186 231 295 345 410
#     4  12  25  48  76 106 142 180 227 283 354 418
#     4  12  26  43  69 100 144 178 240 282 348 409
#     4  12  27  46  71 105 140 186 229 287 348 417
#     4  10  23  40  62  97 128 189 227 296 344 416
#     4  10  22  41  64  89 138 173 243 281 356 408
#     4  12  26  46  76 103 143 181 232 284 346 419
#
# _framework density 24.603348
#
# number of rings (size 3 to 8) (size 9 to 14) (size 15 to 20)
#    0.000    0.750    0.000    6.750    8.750    2.000 
#    0.000    0.000    0.000    0.000    0.000    0.000 
#    0.000    0.000    0.000    0.000    0.000    0.000 
#
# Total GULP energy -198318.465124 kJ/mol
# GULP energy per Si atom -12394.904070 kJ/mol
# Density = 2.454735 g / cm^3
# Si number density = 24.603348 Si / 1000 Ang^3
#
#
#
# Elastic Constant Matrix: (Units=GPa)
#
#
# Indices 1 2 3 4 5 6 
#
# 1 98.2157 10.7858 13.2590 15.5451 -3.6482 11.3664
# 2 10.7858 84.1082 13.5887 -7.9915 6.4276 15.8324
# 3 13.2590 13.5887 110.5417 4.8356 -9.4396 -5.0444
# 4 15.5451 -7.9915 4.8356 38.6807 6.1160 0.7707
# 5 -3.6482 6.4276 -9.4396 6.1160 31.2337 -6.1110
# 6 11.3664 15.8324 -5.0444 0.7707 -6.1110 33.6828
#
#
#
# Elastic Compliance Matrix: (Units=1/GPa)
#
#
# Indices 1 2 3 4 5 6 
#
# 1 0.011685 -0.001388 -0.000996 -0.005076 0.001755 -0.003005
# 2 -0.001388 0.015154 -0.002899 0.005303 -0.006849 -0.008453
# 3 -0.000996 -0.002899 0.010227 -0.002325 0.004841 0.004162
# 4 -0.005076 0.005303 -0.002325 0.030787 -0.009097 -0.003483
# 5 0.001755 -0.006849 0.004841 -0.009097 0.038955 0.010628
# 6 -0.003005 -0.008453 0.004162 -0.003483 0.010628 0.037307
#
#
# Mechanical properties :
#
#
# Convention : Reuss Voigt Hill
#
# Bulk Modulus (GPa) = 37.73609 40.90363 39.31986
# Shear Modulus (GPa) = 30.57829 37.73491 34.15660
#
# Velocity S-wave (km/s) = 3.52923 3.92054 3.73002
# Velocity P-wave (km/s) = 5.65494 6.09553 5.87936
#
# Compressibility (1/GPa) = 0.02649983
#
# Stress axis : x y z
#
# Youngs Moduli (GPa) = 85.57993 65.98839 97.77842
#
# Poissons Ratio (x) = 0.09161 0.09740
# Poissons Ratio (y) = 0.11881 0.28345
# Poissons Ratio (z) = 0.08524 0.19129
#
# Static dielectric constant tensor:
#      x y z
#    x 4.452120 0.180490 -0.268450 
#    y 0.180490 4.578430 0.017180 
#    z -0.268450 0.017180 4.786150 
# 
# 
# High freq. dielectric constant tensor:
#      x y z
#    x 1.972510 0.011390 -0.006200 
#    y 0.011390 1.992360 -0.005850 
#    z -0.006200 -0.005850 1.996530 
# 
# From -- ./inp_files/106724.got.cif
#   From: 2010.06.25/outbox.cif.g09.slc.cpg/sg2_54_cif.got.tgz:106724.got - 2010.06.27 13:26:56.
