data_PCOD8019137
_publ_section_title
;
Structure prediction by ZEFSAII (Michael W. Deem and Ramdas Pophale) SiO2 
 PCOD8019137
Probable space group: P -1
;
_chemical_formula_sum "Si O2"
_cell_formula_units_Z 12
_cell_length_a 24.961311
_cell_length_b 11.116446
_cell_length_c 25.348571
_cell_angle_alpha 25.987479
_cell_angle_beta 11.489613
_cell_angle_gamma 24.762418
_cell_volume 583.390439
_symmetry_space_group_name_H-M "P -1"
_symmetry_group_IT_number 2
_symmetry_cell_setting 'triclinic'
loop_
_space_group_symop_operation_xyz
x,y,z
-x,-y,-z
loop_
_atom_site_type_symbol
_atom_site_label
_atom_site_fract_x
_atom_site_fract_y
_atom_site_fract_z
Si Si1 0.969192 0.321085 0.049640
Si Si2 0.851622 0.837029 0.778520
Si Si3 0.769945 0.882347 0.961559
Si Si4 0.628966 0.377971 0.705590
Si Si5 0.201699 0.193044 0.445546
Si Si6 0.411204 0.076355 0.403763
O O1 0.781860 0.119173 0.321054
O O2 0.819110 0.547857 0.059545
O O3 0.000000 0.500000 0.000000
O O4 0.270506 0.121925 0.818833
O O5 0.814900 0.919875 0.842011
O O6 0.178269 0.687790 0.507041
O O7 0.738278 0.136274 0.739437
O O8 0.684225 0.613065 0.012905
O O9 0.008907 0.984185 0.720925
O O10 0.453534 0.073420 0.207532
O O11 0.638750 0.677252 0.601662
O O12 0.343972 0.216577 0.355231
O O13 0.000000 0.500000 0.500000
#
# Coordination Sequence:
#
# PCOD8019137 Si02
#       6
#     2   2   2   2   2   2
#     4  12  23  42  63  89 130 173 202 249 309 374
#     4  10  22  42  64  89 124 164 205 252 316 364
#     4  12  24  41  63  92 125 165 209 248 314 370
#     4  10  22  41  65  89 123 164 204 258 308 366
#     4  12  24  38  63  95 126 154 202 269 315 366
#     4  12  23  41  64  94 124 164 215 249 310 370
#
# _framework density 20.569413999999998
#
# number of rings (size 3 to 8) (size 9 to 14) (size 15 to 20)
#    0.000    0.667    3.333    5.000    0.000    4.000 
#    0.000    5.000    0.000    0.000    0.000    0.000 
#    0.000    0.000    0.000    0.000    0.000    0.000 
#
# Total GULP energy -148855.198446 kJ/mol
# GULP energy per Si atom -12404.599870 kJ/mol
# Density = 2.052260 g / cm^3
# Si number density = 20.569414 Si / 1000 Ang^3
#
#
#
# Elastic Constant Matrix: (Units=GPa)
#
#
# Indices 1 2 3 4 5 6 
#
# 1 56.0580 39.5251 27.3752 11.7240 12.3114 -1.1222
# 2 39.5251 113.9095 58.4810 11.9162 4.5806 6.8152
# 3 27.3752 58.4810 146.4374 7.4093 8.9475 8.0615
# 4 11.7240 11.9162 7.4093 41.8060 8.8181 -7.4111
# 5 12.3114 4.5806 8.9475 8.8181 33.1022 -6.0413
# 6 -1.1222 6.8152 8.0615 -7.4111 -6.0413 32.3496
#
#
#
# Elastic Compliance Matrix: (Units=1/GPa)
#
#
# Indices 1 2 3 4 5 6 
#
# 1 0.026321 -0.007941 -0.001178 -0.003218 -0.007375 0.000765
# 2 -0.007941 0.013798 -0.003944 -0.001864 0.002202 -0.002215
# 3 -0.001178 -0.003944 0.008827 -0.000059 -0.001704 -0.001741
# 4 -0.003218 -0.001864 -0.000059 0.027380 -0.004787 0.005674
# 5 -0.007375 0.002202 -0.001704 -0.004787 0.035334 0.005207
# 6 0.000765 -0.002215 -0.001741 0.005674 0.005207 0.034112
#
#
# Mechanical properties :
#
#
# Convention : Reuss Voigt Hill
#
# Bulk Modulus (GPa) = 43.82060 63.01862 53.41961
# Shear Modulus (GPa) = 27.85442 34.18646 31.02044
#
# Velocity S-wave (km/s) = 3.68389 4.08119 3.88762
# Velocity P-wave (km/s) = 6.28051 7.27404 6.79546
#
# Compressibility (1/GPa) = 0.02282032
#
# Stress axis : x y z
#
# Youngs Moduli (GPa) = 37.99280 72.47300 113.28605
#
# Poissons Ratio (x) = 0.57549 0.13344
# Poissons Ratio (y) = 0.30169 0.44683
# Poissons Ratio (z) = 0.04475 0.28585
#
# Static dielectric constant tensor:
#      x y z
#    x 3.477010 0.401660 0.039410 
#    y 0.401660 2.986970 -0.163430 
#    z 0.039410 -0.163430 4.025630 
# 
# 
# High freq. dielectric constant tensor:
#      x y z
#    x 1.798360 0.002650 0.002350 
#    y 0.002650 1.806460 0.000660 
#    z 0.002350 0.000660 1.828840 
# 
# From -- ./inp_files/28987.got.cif
#   From: 2010.06.25/outbox.cif.g09.slc.cpg/sg2_15_cif.got.tgz:28987.got - 2010.06.27 13:26:56.
