data_PCOD8019734
_publ_section_title
;
Structure prediction by ZEFSAII (Michael W. Deem and Ramdas Pophale) SiO2 
 PCOD8019734
Probable space group: P -1
;
_chemical_formula_sum "Si O2"
_cell_formula_units_Z 16
_cell_length_a 5.130917
_cell_length_b 9.657178
_cell_length_c 20.278798
_cell_angle_alpha 135.050335
_cell_angle_beta 115.825474
_cell_angle_gamma 68.739362
_cell_volume 636.655210
_symmetry_space_group_name_H-M "P -1"
_symmetry_group_IT_number 2
_symmetry_cell_setting 'triclinic'
loop_
_space_group_symop_operation_xyz
x,y,z
-x,-y,-z
loop_
_atom_site_type_symbol
_atom_site_label
_atom_site_fract_x
_atom_site_fract_y
_atom_site_fract_z
Si Si1 0.342476 0.652947 0.813202
Si Si2 0.673775 0.192270 0.525104
Si Si3 0.726604 0.861306 0.824333
Si Si4 0.236104 0.213195 0.662916
Si Si5 0.964810 0.696019 0.521009
Si Si6 0.304833 0.734064 0.983808
Si Si7 0.856269 0.606009 0.081302
Si Si8 0.786102 0.973771 0.267226
O O1 0.578428 0.726986 0.815301
O O2 0.368522 0.417545 0.731235
O O3 0.423168 0.727507 0.920324
O O4 0.016755 0.743023 0.787720
O O5 0.356851 0.292409 0.541510
O O6 0.884137 0.232421 0.622760
O O7 0.797342 0.291502 0.505916
O O8 0.649332 0.957667 0.433929
O O9 0.500523 0.914769 0.759164
O O10 0.834370 0.049530 0.938992
O O11 0.324601 0.148292 0.724485
O O12 0.000000 0.500000 0.500000
O O13 0.989823 0.871906 0.635073
O O14 0.097374 0.553941 0.907624
O O15 0.530478 0.678347 0.048472
O O16 0.971764 0.813826 0.186710
O O17 0.000000 0.500000 0.000000
#
# Coordination Sequence:
#
# PCOD8019734 Si02
#       8
#     2   2   2   2   2   2   2   2
#     4  12  26  44  71 101 138 185 234 286 351 412
#     4  10  25  45  72 104 141 184 239 289 350 422
#     4  11  28  43  68 101 144 178 230 293 347 422
#     4  10  24  46  75 102 142 187 240 294 347 423
#     4  11  25  45  73 105 147 186 229 293 364 423
#     4  10  23  43  64  98 136 184 231 285 350 408
#     4  10  22  41  71 102 138 183 239 294 340 419
#     4  10  24  47  68 107 138 188 238 287 356 422
#
# _framework density 25.131340999999999
#
# number of rings (size 3 to 8) (size 9 to 14) (size 15 to 20)
#    0.000    1.500    1.250    1.125    8.750    9.500 
#    2.250    0.000    0.000    0.000    0.000    0.000 
#    0.000    0.000    0.000    0.000    0.000    0.000 
#
# Total GULP energy -198325.160952 kJ/mol
# GULP energy per Si atom -12395.322559 kJ/mol
# Density = 2.507414 g / cm^3
# Si number density = 25.131341 Si / 1000 Ang^3
#
#
#
# Elastic Constant Matrix: (Units=GPa)
#
#
# Indices 1 2 3 4 5 6 
#
# 1 45.6410 8.6466 -16.6713 12.2536 4.9750 -2.3906
# 2 8.6466 142.4722 31.3340 12.9438 12.1367 10.9102
# 3 -16.6713 31.3340 74.6670 6.4592 -1.8069 13.5118
# 4 12.2536 12.9438 6.4592 51.9812 -0.0904 5.3943
# 5 4.9750 12.1367 -1.8069 -0.0904 25.8059 -1.0366
# 6 -2.3906 10.9102 13.5118 5.3943 -1.0366 23.5165
#
#
#
# Elastic Compliance Matrix: (Units=1/GPa)
#
#
# Indices 1 2 3 4 5 6 
#
# 1 0.027398 -0.002454 0.007465 -0.006891 -0.003587 0.001057
# 2 -0.002454 0.008570 -0.003798 -0.000881 -0.003908 -0.002013
# 3 0.007465 -0.003798 0.018217 -0.002312 0.001319 -0.007357
# 4 -0.006891 -0.000881 -0.002312 0.021775 0.001501 -0.003892
# 5 -0.003587 -0.003908 0.001319 0.001501 0.041465 0.002174
# 6 0.001057 -0.002013 -0.007357 -0.003892 0.002174 0.048781
#
#
# Mechanical properties :
#
#
# Convention : Reuss Voigt Hill
#
# Bulk Modulus (GPa) = 17.66439 34.37766 26.02102
# Shear Modulus (GPa) = 27.37453 36.22542 31.79998
#
# Velocity S-wave (km/s) = 3.30397 3.80075 3.56104
# Velocity P-wave (km/s) = 4.64748 5.74194 5.22345
#
# Compressibility (1/GPa) = 0.05661107
#
# Stress axis : x y z
#
# Youngs Moduli (GPa) = 36.49864 116.68121 54.89407
#
# Poissons Ratio (x) = 0.28633 -0.40979
# Poissons Ratio (y) = 0.08957 0.20851
# Poissons Ratio (z) = -0.27247 0.44321
#
# Static dielectric constant tensor:
#      x y z
#    x 3.981100 0.231020 0.087310 
#    y 0.231020 4.723450 0.167310 
#    z 0.087310 0.167310 4.858110 
# 
# 
# High freq. dielectric constant tensor:
#      x y z
#    x 1.972790 0.001310 0.001100 
#    y 0.001310 2.028520 0.003670 
#    z 0.001100 0.003670 2.010620 
# 
# From -- ./inp_files/582628.got.cif
#   From: 2010.06.25/outbox.cif.g09.slc.cpg/sg2_292_cif.got.tgz:582628.got - 2010.06.27 13:26:56.
