data_PCOD8019488
_publ_section_title
;
Structure prediction by ZEFSAII (Michael W. Deem and Ramdas Pophale) SiO2 
 PCOD8019488
Probable space group: P -1
;
_chemical_formula_sum "Si O2"
_cell_formula_units_Z 16
_cell_length_a 14.326145
_cell_length_b 12.471450
_cell_length_c 10.042472
_cell_angle_alpha 145.675546
_cell_angle_beta 65.379895
_cell_angle_gamma 130.927311
_cell_volume 731.092869
_symmetry_space_group_name_H-M "P -1"
_symmetry_group_IT_number 2
_symmetry_cell_setting 'triclinic'
loop_
_space_group_symop_operation_xyz
x,y,z
-x,-y,-z
loop_
_atom_site_type_symbol
_atom_site_label
_atom_site_fract_x
_atom_site_fract_y
_atom_site_fract_z
Si Si1 0.074771 0.510408 0.339037
Si Si2 0.787277 0.669951 0.510786
Si Si3 0.144439 0.826425 0.086512
Si Si4 0.963894 0.132598 0.564893
Si Si5 0.526393 0.907371 0.519856
Si Si6 0.754020 0.952071 0.308131
Si Si7 0.738953 0.586526 0.762994
Si Si8 0.382002 0.828163 0.990160
O O1 0.148333 0.397047 0.209241
O O2 0.000000 0.500000 0.500000
O O3 0.181345 0.781308 0.507245
O O4 0.970515 0.357970 0.131578
O O5 0.778981 0.648025 0.650545
O O6 0.660764 0.439973 0.278080
O O7 0.909067 0.673265 0.397246
O O8 0.803069 0.903587 0.696831
O O9 0.085297 0.749516 0.192383
O O10 0.265932 0.826285 0.001662
O O11 0.849808 0.944891 0.340513
O O12 0.000000 0.000000 0.500000
O O13 0.624444 0.850522 0.363343
O O14 0.395628 0.672918 0.412611
O O15 0.500000 0.000000 0.500000
O O16 0.586329 0.102757 0.802823
O O17 0.722073 0.780200 0.027447
O O18 0.500000 0.000000 0.000000
#
# Coordination Sequence:
#
# PCOD8019488 Si02
#       8
#     2   2   2   2   2   2   2   2
#     4  12  26  43  72 106 144 184 236 294 361 424
#     4  11  25  44  72 104 140 184 233 296 352 423
#     4  11  25  44  70 104 140 183 236 289 359 424
#     4  10  22  41  68 104 136 178 232 284 354 419
#     4  12  27  49  73 105 143 194 241 297 361 424
#     4  12  25  45  73 101 143 188 232 297 354 423
#     4  12  25  47  70 106 144 187 241 291 359 430
#     4  12  26  48  73 100 143 185 243 296 353 423
#
# _framework density 21.885044000000001
#
# number of rings (size 3 to 8) (size 9 to 14) (size 15 to 20)
#    0.000    0.500    3.750    4.875    1.750    6.000 
#    2.250    0.000    0.000    0.000    0.000    0.000 
#    0.000    0.000    0.000    0.000    0.000    0.000 
#
# Total GULP energy -198442.415523 kJ/mol
# GULP energy per Si atom -12402.650970 kJ/mol
# Density = 2.183523 g / cm^3
# Si number density = 21.885044 Si / 1000 Ang^3
#
#
#
# Elastic Constant Matrix: (Units=GPa)
#
#
# Indices 1 2 3 4 5 6 
#
# 1 81.0163 25.4042 20.3083 -4.3034 11.6760 2.5645
# 2 25.4042 105.2559 32.2890 -18.5263 3.4533 4.6658
# 3 20.3083 32.2890 136.0372 -9.4674 16.4963 -7.3755
# 4 -4.3034 -18.5263 -9.4674 46.4678 -1.8271 -2.8893
# 5 11.6760 3.4533 16.4963 -1.8271 36.4113 -3.7724
# 6 2.5645 4.6658 -7.3755 -2.8893 -3.7724 37.8151
#
#
#
# Elastic Compliance Matrix: (Units=1/GPa)
#
#
# Indices 1 2 3 4 5 6 
#
# 1 0.014115 -0.002969 -0.001014 -0.000312 -0.003926 -0.001204
# 2 -0.002969 0.011604 -0.002224 0.003855 0.000920 -0.001278
# 3 -0.001014 -0.002224 0.008556 0.000749 -0.003121 0.001758
# 4 -0.000312 0.003855 0.000749 0.023306 0.000724 0.001545
# 5 -0.003926 0.000920 -0.003121 0.000724 0.030358 0.002628
# 6 -0.001204 -0.001278 0.001758 0.001545 0.002628 0.027407
#
#
# Mechanical properties :
#
#
# Convention : Reuss Voigt Hill
#
# Bulk Modulus (GPa) = 45.73735 53.14583 49.44159
# Shear Modulus (GPa) = 37.02437 40.42603 38.72520
#
# Velocity S-wave (km/s) = 4.11757 4.30257 4.21109
# Velocity P-wave (km/s) = 6.59925 7.00140 6.80330
#
# Compressibility (1/GPa) = 0.02186397
#
# Stress axis : x y z
#
# Youngs Moduli (GPa) = 70.84411 86.17450 116.87828
#
# Poissons Ratio (x) = 0.25583 0.11846
# Poissons Ratio (y) = 0.21031 0.25990
# Poissons Ratio (z) = 0.07180 0.19162
#
# Static dielectric constant tensor:
#      x y z
#    x 4.068960 0.282820 -0.045660 
#    y 0.282820 4.448250 -0.135990 
#    z -0.045660 -0.135990 4.727230 
# 
# 
# High freq. dielectric constant tensor:
#      x y z
#    x 1.863900 0.009810 0.002780 
#    y 0.009810 1.879320 -0.008490 
#    z 0.002780 -0.008490 1.875240 
# 
# From -- ./inp_files/308759.got.cif
#   From: 2010.06.25/outbox.cif.g09.slc.cpg/sg2_155_cif.got.tgz:308759.got - 2010.06.27 13:26:56.
