data_PCOD8019872
_publ_section_title
;
Structure prediction by ZEFSAII (Michael W. Deem and Ramdas Pophale) SiO2 
 PCOD8019872
Probable space group: P -1
;
_chemical_formula_sum "Si O2"
_cell_formula_units_Z 12
_cell_length_a 9.353257
_cell_length_b 8.897840
_cell_length_c 11.417531
_cell_angle_alpha 79.530235
_cell_angle_beta 83.427809
_cell_angle_gamma 139.697743
_cell_volume 554.495884
_symmetry_space_group_name_H-M "P -1"
_symmetry_group_IT_number 2
_symmetry_cell_setting 'triclinic'
loop_
_space_group_symop_operation_xyz
x,y,z
-x,-y,-z
loop_
_atom_site_type_symbol
_atom_site_label
_atom_site_fract_x
_atom_site_fract_y
_atom_site_fract_z
Si Si1 0.038103 0.196355 0.087320
Si Si2 0.869600 0.260377 0.472085
Si Si3 0.614912 0.231212 0.301874
Si Si4 0.601353 0.028792 0.108823
Si Si5 0.708753 0.644467 0.189896
Si Si6 0.732457 0.525949 0.736727
O O1 0.153451 0.381235 0.158573
O O2 0.245969 0.327754 0.957818
O O3 0.849906 0.149208 0.046909
O O4 0.904738 0.928714 0.184582
O O5 0.759498 0.237606 0.367630
O O6 0.000000 0.500000 0.500000
O O7 0.062395 0.296658 0.407742
O O8 0.665957 0.003720 0.603351
O O9 0.728514 0.496311 0.270002
O O10 0.641054 0.204916 0.167390
O O11 0.413207 0.755193 0.227203
O O12 0.500000 0.000000 0.000000
O O13 0.438545 0.473741 0.261950
#
# Coordination Sequence:
#
# PCOD8019872 Si02
#       6
#     2   2   2   2   2   2
#     4  10  22  42  61  93 137 170 199 264 322 378
#     4  11  24  43  68  89 127 172 216 266 310 366
#     4  11  24  42  64  97 125 166 219 264 309 375
#     4  11  23  37  67  99 125 164 217 260 321 381
#     4  10  24  39  64  95 130 167 209 260 321 383
#     4  11  22  42  64  91 129 171 210 258 320 378
#
# _framework density 21.641279000000001
#
# number of rings (size 3 to 8) (size 9 to 14) (size 15 to 20)
#    0.000    1.333    3.333    1.500    2.333    6.000 
#    0.000    1.667    0.000    0.000    0.000    0.000 
#    0.000    0.000    0.000    0.000    0.000    0.000 
#
# Total GULP energy -148846.924087 kJ/mol
# GULP energy per Si atom -12403.910341 kJ/mol
# Density = 2.159202 g / cm^3
# Si number density = 21.641279 Si / 1000 Ang^3
#
#
#
# Elastic Constant Matrix: (Units=GPa)
#
#
# Indices 1 2 3 4 5 6 
#
# 1 101.0376 22.0404 34.5775 -12.4844 -21.8859 -15.0110
# 2 22.0404 65.8788 6.7719 -0.3699 -5.4165 -1.3160
# 3 34.5775 6.7719 68.9969 -5.2417 -22.7155 -3.0029
# 4 -12.4844 -0.3699 -5.2417 38.8955 -2.0976 2.3799
# 5 -21.8859 -5.4165 -22.7155 -2.0976 47.1249 -5.5344
# 6 -15.0110 -1.3160 -3.0029 2.3799 -5.5344 23.0143
#
#
#
# Elastic Compliance Matrix: (Units=1/GPa)
#
#
# Indices 1 2 3 4 5 6 
#
# 1 0.015760 -0.004061 -0.004776 0.004059 0.005957 0.010437
# 2 -0.004061 0.016467 0.000234 -0.001024 -0.000114 -0.001598
# 3 -0.004776 0.000234 0.019444 0.001422 0.007369 0.001061
# 4 0.004059 -0.001024 0.001422 0.027346 0.003770 0.000853
# 5 0.005957 -0.000114 0.007369 0.003770 0.029036 0.011433
# 6 0.010437 -0.001598 0.001061 0.000853 0.011433 0.052967
#
#
# Mechanical properties :
#
#
# Convention : Reuss Voigt Hill
#
# Bulk Modulus (GPa) = 29.01379 40.29921 34.65650
# Shear Modulus (GPa) = 26.35556 33.30850 29.83203
#
# Velocity S-wave (km/s) = 3.49354 3.92742 3.71681
# Velocity P-wave (km/s) = 5.45058 6.26323 5.87098
#
# Compressibility (1/GPa) = 0.03446636
#
# Stress axis : x y z
#
# Youngs Moduli (GPa) = 63.45212 60.72805 51.42935
#
# Poissons Ratio (x) = 0.24660 0.24561
# Poissons Ratio (y) = 0.25766 -0.01204
# Poissons Ratio (z) = 0.30303 -0.01422
#
# Static dielectric constant tensor:
#      x y z
#    x 3.920760 0.011740 -0.329040 
#    y 0.011740 4.022550 -0.181900 
#    z -0.329040 -0.181900 3.738400 
# 
# 
# High freq. dielectric constant tensor:
#      x y z
#    x 1.850440 -0.003780 -0.024480 
#    y -0.003780 1.858640 -0.007690 
#    z -0.024480 -0.007690 1.836870 
# 
# From -- ./inp_files/18737.got.cif
#   From: 2010.06.25/outbox.cif.g09.slc.cpg/sg2_10_cif.got.tgz:18737.got - 2010.06.27 13:26:56.
