data_PCOD8019102
_publ_section_title
;
Structure prediction by ZEFSAII (Michael W. Deem and Ramdas Pophale) SiO2 
 PCOD8019102
Probable space group: P -1
;
_chemical_formula_sum "Si O2"
_cell_formula_units_Z 16
_cell_length_a 14.373323
_cell_length_b 21.247058
_cell_length_c 10.924744
_cell_angle_alpha 145.324563
_cell_angle_beta 150.146366
_cell_angle_gamma 28.391411
_cell_volume 764.406757
_symmetry_space_group_name_H-M "P -1"
_symmetry_group_IT_number 2
_symmetry_cell_setting 'triclinic'
loop_
_space_group_symop_operation_xyz
x,y,z
-x,-y,-z
loop_
_atom_site_type_symbol
_atom_site_label
_atom_site_fract_x
_atom_site_fract_y
_atom_site_fract_z
Si Si1 0.184283 0.064365 0.169551
Si Si2 0.655600 0.283361 0.880216
Si Si3 0.523742 0.449233 0.751715
Si Si4 0.249341 0.469068 0.237597
Si Si5 0.112316 0.690831 0.251406
Si Si6 0.387512 0.107113 0.938293
Si Si7 0.345558 0.820762 0.791936
Si Si8 0.401712 0.945274 0.472732
O O1 0.353088 0.103754 0.382403
O O2 0.202138 0.033500 0.285115
O O3 0.931942 0.191435 0.046806
O O4 0.249315 0.925647 0.960465
O O5 0.555572 0.351485 0.742513
O O6 0.570958 0.190337 0.669779
O O7 0.564870 0.401405 0.065615
O O8 0.339640 0.460882 0.465192
O O9 0.771829 0.383256 0.863864
O O10 0.245003 0.584628 0.343464
O O11 0.427316 0.326199 0.141747
O O12 0.000000 0.500000 0.000000
O O13 0.142566 0.811805 0.498648
O O14 0.842276 0.754350 0.048839
O O15 0.322350 0.051051 0.661552
O O16 0.576510 0.131643 0.157132
O O17 0.500000 0.000000 0.000000
#
# Coordination Sequence:
#
# PCOD8019102 Si02
#       8
#     2   2   2   2   2   2   2   2
#     4  10  23  42  67  94 128 171 218 266 323 382
#     4  11  24  46  65  92 136 170 214 275 317 389
#     4  10  26  43  65  97 129 174 222 258 332 390
#     4  11  23  43  69  97 131 170 218 274 321 388
#     4  11  24  42  68  92 128 172 211 268 324 377
#     4  11  25  40  65  99 131 166 214 267 326 385
#     4  10  22  41  64  98 124 165 218 262 321 381
#     4  10  24  40  67  97 126 170 218 265 324 387
#
# _framework density 20.931263999999999
#
# number of rings (size 3 to 8) (size 9 to 14) (size 15 to 20)
#    0.000    1.500    1.250    2.625   12.250    1.500 
#    0.000    1.250    0.000    0.000    0.000    0.000 
#    0.000    0.000    0.000    0.000    0.000    0.000 
#
# Total GULP energy -198419.142197 kJ/mol
# GULP energy per Si atom -12401.196387 kJ/mol
# Density = 2.088362 g / cm^3
# Si number density = 20.931264 Si / 1000 Ang^3
#
#
#
# Elastic Constant Matrix: (Units=GPa)
#
#
# Indices 1 2 3 4 5 6 
#
# 1 118.6142 53.0730 45.6763 5.8215 -10.4190 6.9039
# 2 53.0730 112.0222 27.2597 9.8257 -10.5532 10.7454
# 3 45.6763 27.2597 71.2622 16.5436 -2.3102 7.3053
# 4 5.8215 9.8257 16.5436 30.4451 7.4904 1.1961
# 5 -10.4190 -10.5532 -2.3102 7.4904 31.8652 8.0139
# 6 6.9039 10.7454 7.3053 1.1961 8.0139 39.6783
#
#
#
# Elastic Compliance Matrix: (Units=1/GPa)
#
#
# Indices 1 2 3 4 5 6 
#
# 1 0.013330 -0.004572 -0.007289 0.002456 0.001782 -0.000173
# 2 -0.004572 0.012223 -0.000411 -0.003757 0.004205 -0.003175
# 3 -0.007289 -0.000411 0.021706 -0.010717 0.002265 -0.002751
# 4 0.002456 -0.003757 -0.010717 0.042239 -0.012085 0.003731
# 5 0.001782 0.004205 0.002265 -0.012085 0.038706 -0.009319
# 6 -0.000173 -0.003175 -0.002751 0.003731 -0.009319 0.028369
#
#
# Mechanical properties :
#
#
# Convention : Reuss Voigt Hill
#
# Bulk Modulus (GPa) = 44.02793 61.54629 52.78711
# Shear Modulus (GPa) = 26.49853 32.12369 29.31111
#
# Velocity S-wave (km/s) = 3.56192 3.92180 3.74619
# Velocity P-wave (km/s) = 6.16413 7.06932 6.63219
#
# Compressibility (1/GPa) = 0.02271285
#
# Stress axis : x y z
#
# Youngs Moduli (GPa) = 75.02082 81.81090 46.07082
#
# Poissons Ratio (x) = 0.37407 0.33583
# Poissons Ratio (y) = 0.34302 0.01894
# Poissons Ratio (z) = 0.54686 0.03363
#
# Static dielectric constant tensor:
#      x y z
#    x 3.874780 0.027340 0.138810 
#    y 0.027340 3.872060 0.073250 
#    z 0.138810 0.073250 3.948510 
# 
# 
# High freq. dielectric constant tensor:
#      x y z
#    x 1.831370 0.000750 0.009090 
#    y 0.000750 1.826450 0.008180 
#    z 0.009090 0.008180 1.818900 
# 
# From -- ./inp_files/457388.got.cif
#   From: 2010.06.25/outbox.cif.g09.slc.cpg/sg2_229_cif.got.tgz:457388.got - 2010.06.27 13:26:56.
