data_PCOD8019314
_publ_section_title
;
Structure prediction by ZEFSAII (Michael W. Deem and Ramdas Pophale) SiO2 
 PCOD8019314
Probable space group: P -1
;
_chemical_formula_sum "Si O2"
_cell_formula_units_Z 16
_cell_length_a 12.744772
_cell_length_b 9.543502
_cell_length_c 8.640025
_cell_angle_alpha 95.847775
_cell_angle_beta 85.752993
_cell_angle_gamma 137.398692
_cell_volume 707.633471
_symmetry_space_group_name_H-M "P -1"
_symmetry_group_IT_number 2
_symmetry_cell_setting 'triclinic'
loop_
_space_group_symop_operation_xyz
x,y,z
-x,-y,-z
loop_
_atom_site_type_symbol
_atom_site_label
_atom_site_fract_x
_atom_site_fract_y
_atom_site_fract_z
Si Si1 0.019923 0.450295 0.324344
Si Si2 0.975044 0.044236 0.672728
Si Si3 0.225669 0.886793 0.310699
Si Si4 0.274689 0.451020 0.844333
Si Si5 0.476122 0.419889 0.667500
Si Si6 0.796306 0.635242 0.797037
Si Si7 0.692495 0.037142 0.348227
Si Si8 0.531143 0.096067 0.170433
O O1 0.092045 0.648102 0.234325
O O2 0.145843 0.449281 0.303166
O O3 0.000000 0.500000 0.500000
O O4 0.854799 0.225009 0.258305
O O5 0.835168 0.015399 0.666654
O O6 0.129963 0.273718 0.732880
O O7 0.927598 0.882644 0.786762
O O8 0.000000 0.000000 0.500000
O O9 0.281361 0.886417 0.471874
O O10 0.377234 0.035559 0.207119
O O11 0.414262 0.480907 0.794776
O O12 0.323132 0.656302 0.815896
O O13 0.230154 0.407492 0.023384
O O14 0.500000 0.500000 0.500000
O O15 0.640034 0.526219 0.718257
O O16 0.352156 0.171202 0.666899
O O17 0.557641 0.997425 0.280246
O O18 0.500000 0.000000 0.000000
#
# Coordination Sequence:
#
# PCOD8019314 Si02
#       8
#     2   2   2   2   2   2   2   2
#     4  10  22  41  66  96 130 174 225 277 334 402
#     4  12  25  45  71 102 135 176 230 285 342 414
#     4  11  23  42  66  96 129 171 222 281 338 396
#     4  12  26  45  68 101 138 181 227 285 349 409
#     4  12  25  43  69 101 136 180 232 284 340 409
#     4  12  25  44  67  98 139 181 224 284 347 406
#     4  11  23  42  67  95 129 174 224 280 335 397
#     4  12  26  44  66  97 136 177 223 274 335 409
#
# _framework density 22.610574
#
# number of rings (size 3 to 8) (size 9 to 14) (size 15 to 20)
#    0.000    0.500    0.000   10.125    0.000    6.000 
#    0.000    2.500    0.000    0.000    0.000    0.000 
#    0.000    0.000    0.000    0.000    0.000    0.000 
#
# Total GULP energy -198403.203339 kJ/mol
# GULP energy per Si atom -12400.200209 kJ/mol
# Density = 2.255911 g / cm^3
# Si number density = 22.610574 Si / 1000 Ang^3
#
#
#
# Elastic Constant Matrix: (Units=GPa)
#
#
# Indices 1 2 3 4 5 6 
#
# 1 149.9767 16.7367 64.6964 4.1664 -24.7526 -11.9874
# 2 16.7367 150.2623 43.4387 -4.7453 -7.9933 -17.1088
# 3 64.6964 43.4387 116.6297 -1.1289 -15.5893 -5.6053
# 4 4.1664 -4.7453 -1.1289 37.2812 0.8450 4.7408
# 5 -24.7526 -7.9933 -15.5893 0.8450 28.4457 -4.2283
# 6 -11.9874 -17.1088 -5.6053 4.7408 -4.2283 40.1508
#
#
#
# Elastic Compliance Matrix: (Units=1/GPa)
#
#
# Indices 1 2 3 4 5 6 
#
# 1 0.010198 0.001038 -0.004935 -0.001795 0.007072 0.003755
# 2 0.001038 0.007941 -0.003107 0.000321 0.001931 0.003425
# 3 -0.004935 -0.003107 0.012645 0.000622 0.001604 -0.000937
# 4 -0.001795 0.000321 0.000622 0.027629 -0.002522 -0.003840
# 5 0.007072 0.001931 0.001604 -0.002522 0.044008 0.008091
# 6 0.003755 0.003425 -0.000937 -0.003840 0.008091 0.028661
#
#
# Mechanical properties :
#
#
# Convention : Reuss Voigt Hill
#
# Bulk Modulus (GPa) = 59.61664 74.06803 66.84233
# Shear Modulus (GPa) = 33.18242 40.64199 36.91220
#
# Velocity S-wave (km/s) = 3.83503 4.24427 4.04483
# Velocity P-wave (km/s) = 6.78483 7.53974 7.17222
#
# Compressibility (1/GPa) = 0.01677384
#
# Stress axis : x y z
#
# Youngs Moduli (GPa) = 98.05852 125.93565 79.08571
#
# Poissons Ratio (x) = -0.13070 0.39030
# Poissons Ratio (y) = -0.10177 0.24575
# Poissons Ratio (z) = 0.48393 0.39132
#
# Static dielectric constant tensor:
#      x y z
#    x 4.278420 0.167350 -0.154570 
#    y 0.167350 4.933530 0.027800 
#    z -0.154570 0.027800 4.228510 
# 
# 
# High freq. dielectric constant tensor:
#      x y z
#    x 1.904420 0.001090 -0.010540 
#    y 0.001090 1.922640 -0.005420 
#    z -0.010540 -0.005420 1.874000 
# 
# From -- ./inp_files/244071.got.cif
#   From: 2010.06.25/outbox.cif.g09.slc.cpg/sg2_123_cif.got.tgz:244071.got - 2010.06.27 13:26:56.
