data_PCOD8019090
_publ_section_title
;
Structure prediction by ZEFSAII (Michael W. Deem and Ramdas Pophale) SiO2 
 PCOD8019090
Probable space group: P -1
;
_chemical_formula_sum "Si O2"
_cell_formula_units_Z 10
_cell_length_a 7.182905
_cell_length_b 7.246740
_cell_length_c 13.729465
_cell_angle_alpha 130.928444
_cell_angle_beta 74.057480
_cell_angle_gamma 77.283225
_cell_volume 433.353064
_symmetry_space_group_name_H-M "P -1"
_symmetry_group_IT_number 2
_symmetry_cell_setting 'triclinic'
loop_
_space_group_symop_operation_xyz
x,y,z
-x,-y,-z
loop_
_atom_site_type_symbol
_atom_site_label
_atom_site_fract_x
_atom_site_fract_y
_atom_site_fract_z
Si Si1 0.360842 0.617753 0.460533
Si Si2 0.973377 0.346525 0.184965
Si Si3 0.927443 0.804460 0.496800
Si Si4 0.738550 0.034982 0.149603
Si Si5 0.394232 0.110145 0.682989
O O1 0.500000 0.500000 0.500000
O O2 0.497828 0.348718 0.272109
O O3 0.096849 0.698234 0.531644
O O4 0.375577 0.900202 0.531785
O O5 0.007271 0.518517 0.323646
O O6 0.939344 0.103030 0.153296
O O7 0.744705 0.566658 0.228928
O O8 0.199281 0.185201 0.026046
O O9 0.659692 0.989278 0.629982
O O10 0.000000 0.000000 0.500000
O O11 0.732295 0.885542 0.198306
#
# Coordination Sequence:
#
# PCOD8019090 Si02
#       5
#     2   2   2   2   2
#     4  10  22  41  64  96 130 169 223 265 320 392
#     4  11  22  42  68  97 136 171 216 279 324 393
#     4  12  23  39  72  99 126 177 227 265 329 392
#     4  10  23  41  66  97 134 175 213 270 342 377
#     4  11  22  44  68  93 134 176 218 271 323 397
#
# _framework density 23.075873000000001
#
# number of rings (size 3 to 8) (size 9 to 14) (size 15 to 20)
#    0.000    1.200    4.000    2.400    0.000    4.000 
#    0.000    1.000    0.000    0.000    0.000    0.000 
#    0.000    0.000    0.000    0.000    0.000    0.000 
#
# Total GULP energy -123915.401143 kJ/mol
# GULP energy per Si atom -12391.540114 kJ/mol
# Density = 2.302335 g / cm^3
# Si number density = 23.075873 Si / 1000 Ang^3
#
#
#
# Elastic Constant Matrix: (Units=GPa)
#
#
# Indices 1 2 3 4 5 6 
#
# 1 163.5854 41.3396 45.7589 -5.6796 -12.9972 -14.5755
# 2 41.3396 72.3314 29.4187 -4.2215 0.5020 0.4836
# 3 45.7589 29.4187 114.2323 1.1958 -17.9526 -2.2748
# 4 -5.6796 -4.2215 1.1958 26.9043 3.2231 -2.3634
# 5 -12.9972 0.5020 -17.9526 3.2231 31.6541 6.9848
# 6 -14.5755 0.4836 -2.2748 -2.3634 6.9848 33.4035
#
#
#
# Elastic Compliance Matrix: (Units=1/GPa)
#
#
# Indices 1 2 3 4 5 6 
#
# 1 0.008064 -0.003752 -0.001995 0.001320 0.001390 0.003240
# 2 -0.003752 0.017661 -0.003712 0.002514 -0.003929 -0.001146
# 3 -0.001995 -0.003712 0.011501 -0.002409 0.006346 -0.001531
# 4 0.001320 0.002514 -0.002409 0.039026 -0.005798 0.004349
# 5 0.001390 -0.003929 0.006346 -0.005798 0.038017 -0.007264
# 6 0.003240 -0.001146 -0.001531 0.004349 -0.007264 0.033090
#
#
# Mechanical properties :
#
#
# Convention : Reuss Voigt Hill
#
# Bulk Modulus (GPa) = 54.61865 64.79818 59.70842
# Shear Modulus (GPa) = 29.00586 33.96783 31.48684
#
# Velocity S-wave (km/s) = 3.54923 3.84084 3.69791
# Velocity P-wave (km/s) = 6.36527 6.91454 6.64558
#
# Compressibility (1/GPa) = 0.01830877
#
# Stress axis : x y z
#
# Youngs Moduli (GPa) = 124.00618 56.62227 86.94707
#
# Poissons Ratio (x) = 0.21243 0.17346
# Poissons Ratio (y) = 0.46524 0.32275
# Poissons Ratio (z) = 0.24739 0.21018
#
# Static dielectric constant tensor:
#      x y z
#    x 4.545350 -0.042790 -0.179870 
#    y -0.042790 4.500770 0.392200 
#    z -0.179870 0.392200 4.676510 
# 
# 
# High freq. dielectric constant tensor:
#      x y z
#    x 1.898760 0.015360 -0.011080 
#    y 0.015360 1.921920 0.009950 
#    z -0.011080 0.009950 1.908180 
# 
# From -- ./inp_files/18124.got.cif
#   From: 2010.06.25/outbox.cif.g09.slc.cpg/sg2_10_cif.got.tgz:18124.got - 2010.06.27 13:26:56.
