data_PCOD8019066
_publ_section_title
;
Structure prediction by ZEFSAII (Michael W. Deem and Ramdas Pophale) SiO2 
 PCOD8019066
Probable space group: P -1
;
_chemical_formula_sum "Si O2"
_cell_formula_units_Z 12
_cell_length_a 5.152669
_cell_length_b 20.085289
_cell_length_c 7.722563
_cell_angle_alpha 138.795487
_cell_angle_beta 61.024489
_cell_angle_gamma 121.509794
_cell_volume 442.900923
_symmetry_space_group_name_H-M "P -1"
_symmetry_group_IT_number 2
_symmetry_cell_setting 'triclinic'
loop_
_space_group_symop_operation_xyz
x,y,z
-x,-y,-z
loop_
_atom_site_type_symbol
_atom_site_label
_atom_site_fract_x
_atom_site_fract_y
_atom_site_fract_z
Si Si1 0.660217 0.275681 0.496209
Si Si2 0.889958 0.794451 0.242634
Si Si3 0.273691 0.962126 0.657115
Si Si4 0.182995 0.924982 0.093534
Si Si5 0.754076 0.590391 0.259428
Si Si6 0.838646 0.566087 0.800498
O O1 0.473253 0.234476 0.652985
O O2 0.448392 0.327691 0.547418
O O3 0.979975 0.362587 0.597912
O O4 0.734421 0.178888 0.190971
O O5 0.084766 0.839913 0.445939
O O6 0.975924 0.890621 0.267942
O O7 0.959945 0.688206 0.941437
O O8 0.972673 0.967428 0.109964
O O9 0.500000 0.000000 0.500000
O O10 0.493402 0.982694 0.797281
O O11 0.531437 0.482503 0.199210
O O12 0.903800 0.561275 0.976225
O O13 0.000000 0.500000 0.500000
#
# Coordination Sequence:
#
# PCOD8019066 Si02
#       6
#     2   2   2   2   2   2
#     4  11  24  42  66  95 128 165 207 256 312 374
#     4  10  23  40  64  93 126 166 211 258 311 371
#     4  10  22  41  64  93 129 164 206 262 310 363
#     4  11  23  42  66  92 128 167 206 256 313 372
#     4  10  24  43  62  96 133 158 205 268 307 360
#     4  10  22  42  68  93 125 169 211 255 315 375
#
# _framework density 27.094096
#
# number of rings (size 3 to 8) (size 9 to 14) (size 15 to 20)
#    0.000    1.667    0.000    4.000    0.000   18.000 
#    0.000    5.000    0.000    0.000    0.000    0.000 
#    0.000    0.000    0.000    0.000    0.000    0.000 
#
# Total GULP energy -148764.746863 kJ/mol
# GULP energy per Si atom -12397.062239 kJ/mol
# Density = 2.703243 g / cm^3
# Si number density = 27.094096 Si / 1000 Ang^3
#
#
#
# Elastic Constant Matrix: (Units=GPa)
#
#
# Indices 1 2 3 4 5 6 
#
# 1 140.1276 30.8467 56.4497 16.5003 -3.9201 16.8037
# 2 30.8467 100.8968 24.3932 39.7426 -0.6486 10.5485
# 3 56.4497 24.3932 137.4139 41.4416 -7.7829 6.4920
# 4 16.5003 39.7426 41.4416 48.1730 4.8483 4.0095
# 5 -3.9201 -0.6486 -7.7829 4.8483 46.4363 10.7016
# 6 16.8037 10.5485 6.4920 4.0095 10.7016 33.2378
#
#
#
# Elastic Compliance Matrix: (Units=1/GPa)
#
#
# Indices 1 2 3 4 5 6 
#
# 1 0.009468 -0.002524 -0.003981 0.002505 0.000696 -0.003734
# 2 -0.002524 0.016351 0.003078 -0.015270 0.002961 -0.003626
# 3 -0.003981 0.003078 0.012181 -0.011899 0.003208 -0.000941
# 4 0.002505 -0.015270 -0.011899 0.043209 -0.007201 0.003010
# 5 0.000696 0.002961 0.003208 -0.007201 0.025023 -0.009106
# 6 -0.003734 -0.003626 -0.000941 0.003010 -0.009106 0.035878
#
#
# Mechanical properties :
#
#
# Convention : Reuss Voigt Hill
#
# Bulk Modulus (GPa) = 32.10562 66.86863 49.48712
# Shear Modulus (GPa) = 31.37843 43.35266 37.36554
#
# Velocity S-wave (km/s) = 3.40682 4.00444 3.71766
# Velocity P-wave (km/s) = 5.22978 6.79076 6.06074
#
# Compressibility (1/GPa) = 0.03114720
#
# Stress axis : x y z
#
# Youngs Moduli (GPa) = 105.61916 61.15746 82.09506
#
# Poissons Ratio (x) = 0.15435 0.32681
# Poissons Ratio (y) = 0.26656 -0.25271
# Poissons Ratio (z) = 0.42046 -0.18826
#
# Static dielectric constant tensor:
#      x y z
#    x 4.864660 0.351130 0.169850 
#    y 0.351130 5.478730 0.261790 
#    z 0.169850 0.261790 5.376570 
# 
# 
# High freq. dielectric constant tensor:
#      x y z
#    x 2.075110 0.017710 -0.015890 
#    y 0.017710 2.107890 0.011800 
#    z -0.015890 0.011800 2.105010 
# 
# From -- ./inp_files/143227.got.cif
#   From: 2010.06.25/outbox.cif.g09.slc.cpg/sg2_72_cif.got.tgz:143227.got - 2010.06.27 13:26:56.
