data_PCOD8019269
_publ_section_title
;
Structure prediction by ZEFSAII (Michael W. Deem and Ramdas Pophale) SiO2 
 PCOD8019269
Probable space group: P -1
;
_chemical_formula_sum "Si O2"
_cell_formula_units_Z 16
_cell_length_a 6.653738
_cell_length_b 9.053190
_cell_length_c 17.656061
_cell_angle_alpha 132.595664
_cell_angle_beta 81.217378
_cell_angle_gamma 88.123843
_cell_volume 760.100092
_symmetry_space_group_name_H-M "P -1"
_symmetry_group_IT_number 2
_symmetry_cell_setting 'triclinic'
loop_
_space_group_symop_operation_xyz
x,y,z
-x,-y,-z
loop_
_atom_site_type_symbol
_atom_site_label
_atom_site_fract_x
_atom_site_fract_y
_atom_site_fract_z
Si Si1 0.190696 0.604574 0.002312
Si Si2 0.699693 0.891359 0.995010
Si Si3 0.923388 0.146772 0.663417
Si Si4 0.281468 0.127998 0.530465
Si Si5 0.616542 0.456181 0.877309
Si Si6 0.705708 0.580470 0.503551
Si Si7 0.996508 0.953958 0.877665
Si Si8 0.045893 0.189267 0.336986
O O1 0.300577 0.663870 0.092837
O O2 0.115635 0.810368 0.032534
O O3 0.367005 0.462497 0.890215
O O4 0.000000 0.500000 0.000000
O O5 0.657486 0.685164 0.962992
O O6 0.889994 0.835110 0.905790
O O7 0.765430 0.039622 0.108944
O O8 0.500000 0.000000 0.000000
O O9 0.744547 0.343009 0.760256
O O10 0.132080 0.208690 0.638572
O O11 0.826984 0.021898 0.563675
O O12 0.991966 0.013400 0.688292
O O13 0.301921 0.324794 0.547490
O O14 0.500000 0.000000 0.500000
O O15 0.500000 0.500000 0.500000
O O16 0.738319 0.750586 0.624290
O O17 0.876573 0.380752 0.436261
O O18 0.969859 0.843899 0.762615
#
# Coordination Sequence:
#
# PCOD8019269 Si02
#       8
#     2   2   2   2   2   2   2   2
#     4  11  22  41  65  92 127 166 217 268 316 386
#     4  11  24  42  61  90 135 167 214 270 321 387
#     4  10  22  41  66  92 127 163 215 266 320 384
#     4  10  22  42  63  94 130 165 207 266 324 387
#     4  11  23  40  65  93 125 171 213 271 325 379
#     4  10  22  42  65  95 127 164 212 266 320 389
#     4  11  23  42  64  91 127 174 213 269 325 385
#     4  10  22  42  66  89 123 168 213 264 320 380
#
# _framework density 21.049859000000001
#
# number of rings (size 3 to 8) (size 9 to 14) (size 15 to 20)
#    0.000    1.500    3.750    0.750    1.750    3.000 
#    6.750    0.000    0.000    0.000    0.000    0.000 
#    0.000    0.000    0.000    0.000    0.000    0.000 
#
# Total GULP energy -198300.835454 kJ/mol
# GULP energy per Si atom -12393.802216 kJ/mol
# Density = 2.100195 g / cm^3
# Si number density = 21.049859 Si / 1000 Ang^3
#
#
#
# Elastic Constant Matrix: (Units=GPa)
#
#
# Indices 1 2 3 4 5 6 
#
# 1 134.6005 44.2178 41.8454 -7.4050 -12.2689 13.1598
# 2 44.2178 85.1531 19.6673 -6.4993 5.4030 12.1860
# 3 41.8454 19.6673 94.5074 -14.1868 -8.3597 10.6896
# 4 -7.4050 -6.4993 -14.1868 28.1809 -5.4222 -2.8496
# 5 -12.2689 5.4030 -8.3597 -5.4222 35.0472 -6.1819
# 6 13.1598 12.1860 10.6896 -2.8496 -6.1819 42.6981
#
#
#
# Elastic Compliance Matrix: (Units=1/GPa)
#
#
# Indices 1 2 3 4 5 6 
#
# 1 0.010390 -0.004784 -0.003121 0.000711 0.003656 -0.000479
# 2 -0.004784 0.015279 -0.001039 0.000491 -0.004781 -0.003285
# 3 -0.003121 -0.001039 0.013522 0.006201 0.003028 -0.001275
# 4 0.000711 0.000491 0.006201 0.040708 0.008304 0.002007
# 5 0.003656 -0.004781 0.003028 0.008304 0.033416 0.004872
# 6 -0.000479 -0.003285 -0.001275 0.002007 0.004872 0.025664
#
#
# Mechanical properties :
#
#
# Convention : Reuss Voigt Hill
#
# Bulk Modulus (GPa) = 46.93947 58.41357 52.67652
# Shear Modulus (GPa) = 30.49389 35.08729 32.79059
#
# Velocity S-wave (km/s) = 3.81024 4.08716 3.95113
# Velocity P-wave (km/s) = 6.45793 7.07697 6.77452
#
# Compressibility (1/GPa) = 0.02130403
#
# Stress axis : x y z
#
# Youngs Moduli (GPa) = 96.24370 65.45069 73.95328
#
# Poissons Ratio (x) = 0.31310 0.23079
# Poissons Ratio (y) = 0.46041 0.07683
# Poissons Ratio (z) = 0.30035 0.06800
#
# Static dielectric constant tensor:
#      x y z
#    x 3.903610 0.149610 -0.130450 
#    y 0.149610 4.025500 0.009100 
#    z -0.130450 0.009100 3.632430 
# 
# 
# High freq. dielectric constant tensor:
#      x y z
#    x 1.834840 -0.003940 0.000430 
#    y -0.003940 1.839140 -0.006570 
#    z 0.000430 -0.006570 1.800210 
# 
# From -- ./inp_files/109396.got.cif
#   From: 2010.06.25/outbox.cif.g09.slc.cpg/sg2_55_cif.got.tgz:109396.got - 2010.06.27 13:26:56.
