data_PCOD8019381
_publ_section_title
;
Structure prediction by ZEFSAII (Michael W. Deem and Ramdas Pophale) SiO2 
 PCOD8019381
Probable space group: P -1
;
_chemical_formula_sum "Si O2"
_cell_formula_units_Z 16
_cell_length_a 21.450160
_cell_length_b 8.196781
_cell_length_c 6.516243
_cell_angle_alpha 119.023346
_cell_angle_beta 129.453167
_cell_angle_gamma 60.216693
_cell_volume 742.820986
_symmetry_space_group_name_H-M "P -1"
_symmetry_group_IT_number 2
_symmetry_cell_setting 'triclinic'
loop_
_space_group_symop_operation_xyz
x,y,z
-x,-y,-z
loop_
_atom_site_type_symbol
_atom_site_label
_atom_site_fract_x
_atom_site_fract_y
_atom_site_fract_z
Si Si1 0.074375 0.709999 0.854238
Si Si2 0.149074 0.963989 0.853696
Si Si3 0.425677 0.012122 0.696266
Si Si4 0.381076 0.434297 0.712677
Si Si5 0.105278 0.258535 0.585943
Si Si6 0.525708 0.378595 0.677164
Si Si7 0.250767 0.008475 0.466192
Si Si8 0.212313 0.698183 0.448645
O O1 0.093312 0.860302 0.816997
O O2 0.099305 0.485573 0.700862
O O3 0.974024 0.778878 0.726422
O O4 0.121783 0.704993 0.167397
O O5 0.198427 0.801859 0.700838
O O6 0.102029 0.160143 0.745381
O O7 0.214447 0.031847 0.174509
O O8 0.411411 0.207558 0.664602
O O9 0.344057 0.027608 0.673791
O O10 0.445020 0.847447 0.460975
O O11 0.500000 0.000000 0.000000
O O12 0.438812 0.462254 0.665698
O O13 0.280359 0.489407 0.491779
O O14 0.397114 0.566210 0.015435
O O15 0.191019 0.161142 0.588043
O O16 0.500000 0.500000 0.500000
O O17 0.259215 0.795897 0.440750
#
# Coordination Sequence:
#
# PCOD8019381 Si02
#       8
#     2   2   2   2   2   2   2   2
#     4  10  23  41  65  96 133 166 218 264 322 386
#     4  10  22  41  67  93 128 176 212 262 329 380
#     4  12  25  43  67  97 127 172 218 269 330 389
#     4  11  25  41  69  94 128 172 217 266 332 388
#     4  10  23  42  65  97 129 171 214 269 317 393
#     4  11  23  45  65  93 129 166 216 273 324 389
#     4  10  24  43  64  92 132 162 217 269 318 385
#     4  10  23  42  65  95 127 170 212 264 320 390
#
# _framework density 21.539508999999999
#
# number of rings (size 3 to 8) (size 9 to 14) (size 15 to 20)
#    0.000    1.500    1.250    2.250    5.250    7.500 
#    2.250    2.500    0.000    0.000    0.000    0.000 
#    0.000    0.000    0.000    0.000    0.000    0.000 
#
# Total GULP energy -198258.016707 kJ/mol
# GULP energy per Si atom -12391.126044 kJ/mol
# Density = 2.149048 g / cm^3
# Si number density = 21.539509 Si / 1000 Ang^3
#
#
#
# Elastic Constant Matrix: (Units=GPa)
#
#
# Indices 1 2 3 4 5 6 
#
# 1 65.8272 7.3161 38.9546 -4.9217 13.6737 -6.1334
# 2 7.3161 92.6188 34.6625 -1.8297 3.3060 0.7133
# 3 38.9546 34.6625 101.9075 -1.2553 3.0302 0.6546
# 4 -4.9217 -1.8297 -1.2553 33.6461 -1.4459 2.7750
# 5 13.6737 3.3060 3.0302 -1.4459 34.9749 -3.6504
# 6 -6.1334 0.7133 0.6546 2.7750 -3.6504 34.4709
#
#
#
# Elastic Compliance Matrix: (Units=1/GPa)
#
#
# Indices 1 2 3 4 5 6 
#
# 1 0.022349 0.001882 -0.008943 0.002451 -0.007716 0.003093
# 2 0.001882 0.012564 -0.004940 0.000715 -0.001470 -0.000045
# 3 -0.008943 -0.004940 0.014837 -0.000797 0.002494 -0.001442
# 4 0.002451 0.000715 -0.000797 0.030257 0.000086 -0.001990
# 5 -0.007716 -0.001470 0.002494 0.000086 0.031740 0.001964
# 6 0.003093 -0.000045 -0.001442 -0.001990 0.001964 0.029957
#
#
# Mechanical properties :
#
#
# Convention : Reuss Voigt Hill
#
# Bulk Modulus (GPa) = 38.83984 46.91332 42.87658
# Shear Modulus (GPa) = 28.68808 32.57973 30.63391
#
# Velocity S-wave (km/s) = 3.65345 3.89338 3.77532
# Velocity P-wave (km/s) = 5.98899 6.48372 6.24126
#
# Compressibility (1/GPa) = 0.02574676
#
# Stress axis : x y z
#
# Youngs Moduli (GPa) = 44.74533 79.59225 67.39945
#
# Poissons Ratio (x) = -0.14976 0.60276
# Poissons Ratio (y) = -0.08419 0.33295
# Poissons Ratio (z) = 0.40016 0.39318
#
# Static dielectric constant tensor:
#      x y z
#    x 4.037050 0.137510 0.324580 
#    y 0.137510 3.978690 -0.199150 
#    z 0.324580 -0.199150 4.074930 
# 
# 
# High freq. dielectric constant tensor:
#      x y z
#    x 1.844950 0.001630 0.003020 
#    y 0.001630 1.860200 -0.007680 
#    z 0.003020 -0.007680 1.850120 
# 
# From -- ./inp_files/53994.got.cif
#   From: 2010.06.25/outbox.cif.g09.slc.cpg/sg2_27_cif.got.tgz:53994.got - 2010.06.27 13:26:56.
