data_PCOD8019777
_publ_section_title
;
Structure prediction by ZEFSAII (Michael W. Deem and Ramdas Pophale) SiO2 
 PCOD8019777
Probable space group: P -1
;
_chemical_formula_sum "Si O2"
_cell_formula_units_Z 16
_cell_length_a 16.710891
_cell_length_b 10.391931
_cell_length_c 8.860044
_cell_angle_alpha 121.728589
_cell_angle_beta 70.729623
_cell_angle_gamma 149.442593
_cell_volume 637.923597
_symmetry_space_group_name_H-M "P -1"
_symmetry_group_IT_number 2
_symmetry_cell_setting 'triclinic'
loop_
_space_group_symop_operation_xyz
x,y,z
-x,-y,-z
loop_
_atom_site_type_symbol
_atom_site_label
_atom_site_fract_x
_atom_site_fract_y
_atom_site_fract_z
Si Si1 0.466403 0.026125 0.376155
Si Si2 0.452617 0.505902 0.377204
Si Si3 0.864541 0.015654 0.910425
Si Si4 0.277815 0.725255 0.822724
Si Si5 0.892323 0.824964 0.278496
Si Si6 0.745382 0.843179 0.208075
Si Si7 0.033403 0.744106 0.431061
Si Si8 0.819051 0.302465 0.836226
O O1 0.554047 0.322670 0.495892
O O2 0.544650 0.031527 0.207326
O O3 0.500000 0.000000 0.500000
O O4 0.275690 0.753543 0.275667
O O5 0.500000 0.500000 0.500000
O O6 0.577418 0.660760 0.257963
O O7 0.272073 0.167759 0.244983
O O8 0.954013 0.992545 0.809052
O O9 0.002180 0.355845 0.029542
O O10 0.759389 0.862964 0.033720
O O11 0.195481 0.444818 0.751957
O O12 0.153676 0.598171 0.690221
O O13 0.288608 0.855449 0.039222
O O14 0.755965 0.687106 0.164947
O O15 0.947268 0.045678 0.496414
O O16 0.905371 0.178417 0.385637
O O17 0.157806 0.836761 0.307889
#
# Coordination Sequence:
#
# PCOD8019777 Si02
#       8
#     2   2   2   2   2   2   2   2
#     4  12  28  48  73 108 152 193 240 305 375 434
#     4  12  27  48  75 107 148 195 248 300 366 441
#     4  11  25  44  75 108 143 191 244 308 359 435
#     4  11  23  42  72 103 145 188 244 298 364 433
#     4   9  21  40  70 105 139 185 246 291 363 433
#     4  10  23  42  72 102 147 181 247 296 369 419
#     4  10  22  41  72 106 140 185 244 297 368 425
#     4  11  26  47  70 107 146 190 247 298 368 436
#
# _framework density 25.081375000000001
#
# number of rings (size 3 to 8) (size 9 to 14) (size 15 to 20)
#    0.750    0.500    1.250    3.375    5.250    4.500 
#    0.000    5.000    0.000    0.000    0.000    0.000 
#    0.000    0.000    0.000    0.000    0.000    0.000 
#
# Total GULP energy -198256.551908 kJ/mol
# GULP energy per Si atom -12391.034494 kJ/mol
# Density = 2.502429 g / cm^3
# Si number density = 25.081375 Si / 1000 Ang^3
#
#
#
# Elastic Constant Matrix: (Units=GPa)
#
#
# Indices 1 2 3 4 5 6 
#
# 1 94.5436 26.4054 60.2384 -2.8747 -18.3945 18.8565
# 2 26.4054 72.9902 38.8464 -11.3462 -3.4058 19.5617
# 3 60.2384 38.8464 137.9183 -5.6967 -11.8280 10.0967
# 4 -2.8747 -11.3462 -5.6967 48.3997 21.9395 -0.7103
# 5 -18.3945 -3.4058 -11.8280 21.9395 51.6691 -6.2033
# 6 18.8565 19.5617 10.0967 -0.7103 -6.2033 38.7284
#
#
#
# Elastic Compliance Matrix: (Units=1/GPa)
#
#
# Indices 1 2 3 4 5 6 
#
# 1 0.016877 -0.001574 -0.006238 -0.002389 0.004884 -0.005058
# 2 -0.001574 0.019485 -0.004265 0.005476 -0.003591 -0.008438
# 3 -0.006238 -0.004265 0.011028 -0.000219 0.000401 0.002376
# 4 -0.002389 0.005476 -0.000219 0.027421 -0.012550 -0.003053
# 5 0.004884 -0.003591 0.000401 -0.012550 0.026682 0.003375
# 6 -0.005058 -0.008438 0.002376 -0.003053 0.003375 0.032411
#
#
# Mechanical properties :
#
#
# Convention : Reuss Voigt Hill
#
# Bulk Modulus (GPa) = 43.03421 61.82585 52.43003
# Shear Modulus (GPa) = 30.15644 39.75688 34.95666
#
# Velocity S-wave (km/s) = 3.47124 3.98567 3.73732
# Velocity P-wave (km/s) = 5.76725 6.77380 6.29069
#
# Compressibility (1/GPa) = 0.02323733
#
# Stress axis : x y z
#
# Youngs Moduli (GPa) = 59.25072 51.32206 90.68037
#
# Poissons Ratio (x) = 0.08077 0.56565
# Poissons Ratio (y) = 0.09324 0.38673
# Poissons Ratio (z) = 0.36960 0.21888
#
# Static dielectric constant tensor:
#      x y z
#    x 4.794020 0.504430 -0.119490 
#    y 0.504430 4.188540 -0.029960 
#    z -0.119490 -0.029960 4.909710 
# 
# 
# High freq. dielectric constant tensor:
#      x y z
#    x 2.010970 0.028720 -0.003580 
#    y 0.028720 1.967430 -0.001750 
#    z -0.003580 -0.001750 2.016910 
# 
# From -- ./inp_files/332342.got.cif
#   From: 2010.06.25/outbox.cif.g09.slc.cpg/sg2_167_cif.got.tgz:332342.got - 2010.06.27 13:26:56.
