data_PCOD8019692
_publ_section_title
;
Structure prediction by ZEFSAII (Michael W. Deem and Ramdas Pophale) SiO2 
 PCOD8019692
Probable space group: P -1
;
_chemical_formula_sum "Si O2"
_cell_formula_units_Z 16
_cell_length_a 15.439364
_cell_length_b 7.966507
_cell_length_c 9.453146
_cell_angle_alpha 89.579166
_cell_angle_beta 63.423410
_cell_angle_gamma 45.906204
_cell_volume 657.907944
_symmetry_space_group_name_H-M "P -1"
_symmetry_group_IT_number 2
_symmetry_cell_setting 'triclinic'
loop_
_space_group_symop_operation_xyz
x,y,z
-x,-y,-z
loop_
_atom_site_type_symbol
_atom_site_label
_atom_site_fract_x
_atom_site_fract_y
_atom_site_fract_z
Si Si1 0.865967 0.518036 0.469207
Si Si2 0.398272 0.320422 0.714384
Si Si3 0.899275 0.790802 0.934616
Si Si4 0.085886 0.618000 0.059456
Si Si5 0.426576 0.262284 0.372932
Si Si6 0.329172 0.916927 0.329757
Si Si7 0.398283 0.769118 0.986494
Si Si8 0.049281 0.096077 0.552059
O O1 0.739013 0.543832 0.576161
O O2 0.781563 0.807613 0.509054
O O3 0.949723 0.372655 0.262232
O O4 0.980811 0.351811 0.518909
O O5 0.405565 0.364928 0.544955
O O6 0.475826 0.037791 0.687568
O O7 0.500878 0.321960 0.723702
O O8 0.224108 0.544999 0.895918
O O9 0.854835 0.652149 0.956632
O O10 0.938406 0.800897 0.063204
O O11 0.757196 0.089620 0.974986
O O12 0.023844 0.801825 0.239641
O O13 0.506674 0.280437 0.208178
O O14 0.235739 0.865280 0.414449
O O15 0.345022 0.960456 0.154568
O O16 0.500000 0.500000 0.000000
O O17 0.000000 0.000000 0.500000
#
# Coordination Sequence:
#
# PCOD8019692 Si02
#       8
#     2   2   2   2   2   2   2   2
#     4  11  22  43  73 102 139 186 249 313 359 430
#     4  10  22  41  70 108 143 177 244 313 365 425
#     4  11  22  44  76 109 143 183 253 304 368 429
#     4  11  23  42  77 112 138 187 243 316 366 427
#     4  10  23  40  68 107 145 183 236 306 376 424
#     4  11  25  43  69 105 142 193 247 303 369 433
#     4  12  27  44  66 101 155 201 234 292 369 458
#     4  12  27  43  67 104 149 188 237 300 376 444
#
# _framework density 24.319512
#
# number of rings (size 3 to 8) (size 9 to 14) (size 15 to 20)
#    0.000    1.000    5.000    1.125    5.250    1.000 
#    0.000    2.500    0.000    0.000    0.000    0.000 
#    0.000    0.000    0.000    0.000    0.000    0.000 
#
# Total GULP energy -198313.579010 kJ/mol
# GULP energy per Si atom -12394.598688 kJ/mol
# Density = 2.426416 g / cm^3
# Si number density = 24.319512 Si / 1000 Ang^3
#
#
#
# Elastic Constant Matrix: (Units=GPa)
#
#
# Indices 1 2 3 4 5 6 
#
# 1 154.8475 32.0734 73.2614 4.9107 -3.9634 -23.4578
# 2 32.0734 86.9318 33.9987 -2.0137 1.3022 -22.8587
# 3 73.2614 33.9987 195.6139 -19.0669 -1.6614 -9.1418
# 4 4.9107 -2.0137 -19.0669 31.4487 -8.5251 -1.4602
# 5 -3.9634 1.3022 -1.6614 -8.5251 37.9350 -5.1225
# 6 -23.4578 -22.8587 -9.1418 -1.4602 -5.1225 35.8961
#
#
#
# Elastic Compliance Matrix: (Units=1/GPa)
#
#
# Indices 1 2 3 4 5 6 
#
# 1 0.008996 -0.000954 -0.003289 -0.003054 0.000738 0.004415
# 2 -0.000954 0.014765 -0.001753 0.000583 0.000587 0.008440
# 3 -0.003289 -0.001753 0.007083 0.004909 0.000978 -0.001122
# 4 -0.003054 0.000583 0.004909 0.037754 0.008684 0.002400
# 5 0.000738 0.000587 0.000978 0.008684 0.029171 0.005622
# 6 0.004415 0.008440 -0.001122 0.002400 0.005622 0.036732
#
#
# Mechanical properties :
#
#
# Convention : Reuss Voigt Hill
#
# Bulk Modulus (GPa) = 53.04135 79.56223 66.30179
# Shear Modulus (GPa) = 32.72784 40.92660 36.82722
#
# Velocity S-wave (km/s) = 3.67242 4.10673 3.89563
# Velocity P-wave (km/s) = 6.31187 7.43461 6.89613
#
# Compressibility (1/GPa) = 0.01885321
#
# Stress axis : x y z
#
# Youngs Moduli (GPa) = 111.16055 67.72928 141.18963
#
# Poissons Ratio (x) = 0.06460 0.46431
# Poissons Ratio (y) = 0.10603 0.24747
# Poissons Ratio (z) = 0.36555 0.11871
#
# Static dielectric constant tensor:
#      x y z
#    x 4.626770 -0.383060 0.012510 
#    y -0.383060 4.387400 -0.072960 
#    z 0.012510 -0.072960 4.809220 
# 
# 
# High freq. dielectric constant tensor:
#      x y z
#    x 1.969140 -0.026440 -0.004760 
#    y -0.026440 1.951940 0.002750 
#    z -0.004760 0.002750 1.982570 
# 
# From -- ./inp_files/298771.got.cif
#   From: 2010.06.25/outbox.cif.g09.slc.cpg/sg2_150_cif.got.tgz:298771.got - 2010.06.27 13:26:56.
