data_PCOD8019546
_publ_section_title
;
Structure prediction by ZEFSAII (Michael W. Deem and Ramdas Pophale) SiO2 
 PCOD8019546
Probable space group: P -1
;
_chemical_formula_sum "Si O2"
_cell_formula_units_Z 14
_cell_length_a 7.793764
_cell_length_b 10.073852
_cell_length_c 9.618031
_cell_angle_alpha 109.882367
_cell_angle_beta 115.648425
_cell_angle_gamma 76.866845
_cell_volume 637.302012
_symmetry_space_group_name_H-M "P -1"
_symmetry_group_IT_number 2
_symmetry_cell_setting 'triclinic'
loop_
_space_group_symop_operation_xyz
x,y,z
-x,-y,-z
loop_
_atom_site_type_symbol
_atom_site_label
_atom_site_fract_x
_atom_site_fract_y
_atom_site_fract_z
Si Si1 0.121328 0.120407 0.337452
Si Si2 0.444637 0.087528 0.236237
Si Si3 0.543664 0.598906 0.674899
Si Si4 0.112636 0.129587 0.918645
Si Si5 0.353405 0.470500 0.821543
Si Si6 0.252482 0.168804 0.696756
Si Si7 0.969985 0.644915 0.817584
O O1 0.328452 0.066160 0.329692
O O2 0.126295 0.120891 0.506825
O O3 0.062802 0.278864 0.316526
O O4 0.974029 0.017165 0.190983
O O5 0.533116 0.238693 0.327920
O O6 0.608541 0.961421 0.242819
O O7 0.313439 0.088914 0.052932
O O8 0.500000 0.500000 0.500000
O O9 0.417450 0.553177 0.740928
O O10 0.773225 0.583240 0.777491
O O11 0.127485 0.210319 0.804864
O O12 0.979300 0.237618 0.008447
O O13 0.361898 0.302480 0.734512
O O14 0.139659 0.522549 0.816171
O O15 0.500000 0.500000 0.000000
#
# Coordination Sequence:
#
# PCOD8019546 Si02
#       7
#     2   2   2   2   2   2   2
#     4  10  22  41  68  96 130 173 216 283 341 382
#     4  10  22  43  67  96 133 171 223 272 328 413
#     4  10  23  46  71  98 134 182 220 272 346 395
#     4  10  22  42  69  93 131 177 218 272 339 392
#     4  12  27  43  70  99 136 182 222 278 339 395
#     4  12  25  40  64 107 132 161 231 280 330 399
#     4  10  24  47  66  96 137 179 232 267 328 421
#
# _framework density 21.967607000000001
#
# number of rings (size 3 to 8) (size 9 to 14) (size 15 to 20)
#    0.000    1.714    0.000    6.429    6.000    4.571 
#    2.571    0.000    0.000    0.000    0.000    0.000 
#    0.000    0.000    0.000    0.000    0.000    0.000 
#
# Total GULP energy -173580.937998 kJ/mol
# GULP energy per Si atom -12398.638428 kJ/mol
# Density = 2.191761 g / cm^3
# Si number density = 21.967607 Si / 1000 Ang^3
#
#
#
# Elastic Constant Matrix: (Units=GPa)
#
#
# Indices 1 2 3 4 5 6 
#
# 1 85.9571 50.4419 21.4830 1.6784 -9.4314 -0.7736
# 2 50.4419 120.6855 45.0194 16.2645 2.3296 2.8424
# 3 21.4830 45.0194 149.4313 3.3494 -13.1024 0.7764
# 4 1.6784 16.2645 3.3494 36.2826 17.9830 -0.9213
# 5 -9.4314 2.3296 -13.1024 17.9830 27.0477 1.2997
# 6 -0.7736 2.8424 0.7764 -0.9213 1.2997 34.4575
#
#
#
# Elastic Compliance Matrix: (Units=1/GPa)
#
#
# Indices 1 2 3 4 5 6 
#
# 1 0.016500 -0.007036 0.000422 -0.001298 0.007397 0.000628
# 2 -0.007036 0.012973 -0.002990 -0.004153 -0.002201 -0.001189
# 3 0.000422 -0.002990 0.008105 -0.002363 0.005912 -0.000213
# 4 -0.001298 -0.004153 -0.002363 0.045419 -0.031570 0.002772
# 5 0.007397 -0.002201 0.005912 -0.031570 0.063740 -0.003034
# 6 0.000628 -0.001189 -0.000213 0.002772 -0.003034 0.029327
#
#
# Mechanical properties :
#
#
# Convention : Reuss Voigt Hill
#
# Bulk Modulus (GPa) = 54.44279 65.55140 59.99709
# Shear Modulus (GPa) = 24.82685 35.49953 30.16319
#
# Velocity S-wave (km/s) = 3.36543 4.02430 3.70952
# Velocity P-wave (km/s) = 6.31969 7.17622 6.76153
#
# Compressibility (1/GPa) = 0.01836791
#
# Stress axis : x y z
#
# Youngs Moduli (GPa) = 60.60613 77.08523 123.38500
#
# Poissons Ratio (x) = 0.54241 -0.05209
# Poissons Ratio (y) = 0.42645 0.36898
# Poissons Ratio (z) = -0.02559 0.23052
#
# Static dielectric constant tensor:
#      x y z
#    x 4.003320 0.168890 -0.151510 
#    y 0.168890 3.961910 0.125880 
#    z -0.151510 0.125880 4.043200 
# 
# 
# High freq. dielectric constant tensor:
#      x y z
#    x 1.854410 0.016490 -0.010870 
#    y 0.016490 1.865440 0.005690 
#    z -0.010870 0.005690 1.875440 
# 
# From -- ./inp_files/159958.got.cif
#   From: 2010.06.25/outbox.cif.g09.slc.cpg/sg2_80_cif.got.tgz:159958.got - 2010.06.27 13:26:56.
