data_PCOD8019871
_publ_section_title
;
Structure prediction by ZEFSAII (Michael W. Deem and Ramdas Pophale) SiO2 
 PCOD8019871
Probable space group: P -1
;
_chemical_formula_sum "Si O2"
_cell_formula_units_Z 16
_cell_length_a 19.119137
_cell_length_b 9.549757
_cell_length_c 6.560564
_cell_angle_alpha 110.090274
_cell_angle_beta 80.120325
_cell_angle_gamma 137.036535
_cell_volume 760.717034
_symmetry_space_group_name_H-M "P -1"
_symmetry_group_IT_number 2
_symmetry_cell_setting 'triclinic'
loop_
_space_group_symop_operation_xyz
x,y,z
-x,-y,-z
loop_
_atom_site_type_symbol
_atom_site_label
_atom_site_fract_x
_atom_site_fract_y
_atom_site_fract_z
Si Si1 0.795573 0.640386 0.192257
Si Si2 0.033729 0.329251 0.966849
Si Si3 0.647858 0.456395 0.524105
Si Si4 0.295572 0.140381 0.152551
Si Si5 0.112858 0.741510 0.300995
Si Si6 0.147855 0.956380 0.784434
Si Si7 0.466277 0.170764 0.171340
Si Si8 0.387145 0.758500 0.172351
O O1 0.743166 0.534891 0.386011
O O2 0.817858 0.849219 0.265460
O O3 0.902193 0.713709 0.164840
O O4 0.720994 0.471660 0.966465
O O5 0.107721 0.557451 0.165120
O O6 0.943193 0.134047 0.062485
O O7 0.985844 0.332398 0.792244
O O8 0.682140 0.650782 0.734127
O O9 0.556818 0.365987 0.371635
O O10 0.608431 0.266238 0.600246
O O11 0.402192 0.213705 0.146677
O O12 0.220992 0.971684 0.284224
O O13 0.243160 0.034866 0.905714
O O14 0.108434 0.766233 0.557555
O O15 0.392292 0.942580 0.215434
O O16 0.514155 0.167600 0.945693
#
# Coordination Sequence:
#
# PCOD8019871 Si02
#       8
#     2   2   2   2   2   2   2   2
#     4  11  22  40  63  92 129 165 207 261 310 370
#     4  10  23  40  64  90 126 167 209 257 312 371
#     4  11  22  40  64  92 127 165 212 258 310 372
#     4  11  22  40  63  92 129 165 207 261 310 370
#     4  10  22  42  61  93 128 161 209 261 308 376
#     4  11  22  40  64  92 127 165 212 258 310 372
#     4  10  23  40  64  90 126 167 209 257 312 371
#     4  10  22  42  61  93 128 161 209 261 308 376
#
# _framework density 21.032789000000001
#
# number of rings (size 3 to 8) (size 9 to 14) (size 15 to 20)
#    0.000    1.500    2.500    2.250    0.000    3.000 
#    0.000    7.500    0.000    0.000    0.000    0.000 
#    0.000    0.000    0.000    0.000    0.000    0.000 
#
# Total GULP energy -198496.080110 kJ/mol
# GULP energy per Si atom -12406.005007 kJ/mol
# Density = 2.098492 g / cm^3
# Si number density = 21.032789 Si / 1000 Ang^3
#
#
#
# Elastic Constant Matrix: (Units=GPa)
#
#
# Indices 1 2 3 4 5 6 
#
# 1 86.0189 9.0909 37.6200 -9.5582 1.5529 10.0631
# 2 9.0909 81.5795 23.4325 -7.4423 2.8357 2.0645
# 3 37.6200 23.4325 125.8319 -6.2984 5.7827 5.5578
# 4 -9.5582 -7.4423 -6.2984 40.8652 -1.4239 1.0800
# 5 1.5529 2.8357 5.7827 -1.4239 16.7602 1.0378
# 6 10.0631 2.0645 5.5578 1.0800 1.0378 21.9237
#
#
#
# Elastic Compliance Matrix: (Units=1/GPa)
#
#
# Indices 1 2 3 4 5 6 
#
# 1 0.014323 -0.000088 -0.003895 0.002908 0.000635 -0.005752
# 2 -0.000088 0.013153 -0.002236 0.002005 -0.001234 -0.000671
# 3 -0.003895 -0.002236 0.009665 0.000091 -0.002567 -0.000335
# 4 0.002908 0.002005 0.000091 0.025666 0.001720 -0.002892
# 5 0.000635 -0.001234 -0.002567 0.001720 0.061001 -0.002497
# 6 -0.005752 -0.000671 -0.000335 -0.002892 -0.002497 0.048662
#
#
# Mechanical properties :
#
#
# Convention : Reuss Voigt Hill
#
# Bulk Modulus (GPa) = 40.48369 48.19081 44.33725
# Shear Modulus (GPa) = 25.88744 30.79562 28.34153
#
# Velocity S-wave (km/s) = 3.51210 3.83060 3.67480
# Velocity P-wave (km/s) = 5.97797 6.52125 6.25551
#
# Compressibility (1/GPa) = 0.02470131
#
# Stress axis : x y z
#
# Youngs Moduli (GPa) = 69.81896 76.02874 103.46202
#
# Poissons Ratio (x) = 0.00673 0.40301
# Poissons Ratio (y) = 0.00618 0.23136
# Poissons Ratio (z) = 0.27196 0.17001
#
# Static dielectric constant tensor:
#      x y z
#    x 3.532020 0.050850 0.032250 
#    y 0.050850 3.880440 0.033170 
#    z 0.032250 0.033170 3.748150 
# 
# 
# High freq. dielectric constant tensor:
#      x y z
#    x 1.808620 0.005560 0.002970 
#    y 0.005560 1.836580 0.002590 
#    z 0.002970 0.002590 1.825700 
# 
# From -- ./inp_files/37969.got.cif
#   From: 2010.06.25/outbox.cif.g09.slc.cpg/sg2_19_cif.got.tgz:37969.got - 2010.06.27 13:26:56.
