data_PCOD8019459
_publ_section_title
;
Structure prediction by ZEFSAII (Michael W. Deem and Ramdas Pophale) SiO2 
 PCOD8019459
Probable space group: P -1
;
_chemical_formula_sum "Si O2"
_cell_formula_units_Z 16
_cell_length_a 12.567894
_cell_length_b 7.798686
_cell_length_c 9.232854
_cell_angle_alpha 90.415361
_cell_angle_beta 130.165843
_cell_angle_gamma 81.898032
_cell_volume 680.437340
_symmetry_space_group_name_H-M "P -1"
_symmetry_group_IT_number 2
_symmetry_cell_setting 'triclinic'
loop_
_space_group_symop_operation_xyz
x,y,z
-x,-y,-z
loop_
_atom_site_type_symbol
_atom_site_label
_atom_site_fract_x
_atom_site_fract_y
_atom_site_fract_z
Si Si1 0.750161 0.701482 0.457118
Si Si2 0.261092 0.919194 0.503217
Si Si3 0.093290 0.662538 0.510905
Si Si4 0.554367 0.212991 0.906065
Si Si5 0.852246 0.668604 0.086785
Si Si6 0.112990 0.165190 0.173851
Si Si7 0.457494 0.180275 0.127318
Si Si8 0.144370 0.708534 0.886377
O O1 0.837642 0.544111 0.437826
O O2 0.582058 0.696148 0.306429
O O3 0.814755 0.686795 0.677304
O O4 0.763305 0.900957 0.417368
O O5 0.182746 0.774367 0.497117
O O6 0.427701 0.835519 0.642682
O O7 0.209025 0.975145 0.293962
O O8 0.086308 0.723188 0.670896
O O9 0.934954 0.698608 0.306773
O O10 0.587133 0.005376 0.935117
O O11 0.526327 0.262349 0.050162
O O12 0.691774 0.276895 0.963516
O O13 0.887779 0.468062 0.069914
O O14 0.893516 0.796164 0.000816
O O15 0.685260 0.690627 0.963746
O O16 0.957649 0.150161 0.103643
#
# Coordination Sequence:
#
# PCOD8019459 Si02
#       8
#     2   2   2   2   2   2   2   2
#     4   9  22  44  65  95 138 172 214 279 329 395
#     4   9  22  45  65  97 134 175 219 284 325 398
#     4  12  24  41  72 104 126 178 229 275 338 388
#     4  10  22  42  67 100 133 171 217 286 340 381
#     4  12  26  42  68  98 136 181 220 274 333 405
#     4  10  25  48  62  93 145 178 217 275 335 396
#     4  10  22  41  67  98 134 169 223 280 335 392
#     4  12  25  41  69 103 130 173 226 282 330 396
#
# _framework density 23.514289999999999
#
# number of rings (size 3 to 8) (size 9 to 14) (size 15 to 20)
#    0.750    0.750    2.500    1.500    5.250    2.500 
#    0.000    0.625    0.000    0.000    0.000    0.000 
#    0.000    0.000    0.000    0.000    0.000    0.000 
#
# Total GULP energy -198213.741196 kJ/mol
# GULP energy per Si atom -12388.358825 kJ/mol
# Density = 2.346077 g / cm^3
# Si number density = 23.514290 Si / 1000 Ang^3
#
#
#
# Elastic Constant Matrix: (Units=GPa)
#
#
# Indices 1 2 3 4 5 6 
#
# 1 92.7815 -2.8089 58.2043 -11.4375 31.3676 21.2308
# 2 -2.8089 38.6867 15.7636 -14.3942 7.7201 20.9105
# 3 58.2043 15.7636 114.6442 -27.2336 30.2777 10.8166
# 4 -11.4375 -14.3942 -27.2336 23.6018 -3.5447 6.3292
# 5 31.3676 7.7201 30.2777 -3.5447 25.1963 -15.0593
# 6 21.2308 20.9105 10.8166 6.3292 -15.0593 29.2879
#
#
#
# Elastic Compliance Matrix: (Units=1/GPa)
#
#
# Indices 1 2 3 4 5 6 
#
# 1 0.009213 -0.009461 -0.010869 -0.015735 0.009749 0.012503
# 2 -0.009461 0.009959 -0.007360 -0.007780 0.027365 0.018218
# 3 -0.010869 -0.007360 0.016710 0.008129 -0.000057 0.005177
# 4 -0.015735 -0.007780 0.008129 0.038224 0.030299 0.021277
# 5 0.009749 0.027365 -0.000057 0.030299 0.005335 -0.030389
# 6 0.012503 0.018218 0.005177 0.021277 -0.030389 -0.010062
#
#
# Mechanical properties :
#
#
# Convention : Reuss Voigt Hill
#
# Bulk Modulus (GPa) = -51.28849 43.15894 -4.06477
# Shear Modulus (GPa) = 42.27995 27.28077 34.78036
#
# Velocity S-wave (km/s) = 4.24495 3.40983 3.85010
# Velocity P-wave (km/s) = 1.47211 5.82210 4.24641
#
# Compressibility (1/GPa) = -0.01949755
#
# Stress axis : x y z
#
# Youngs Moduli (GPa) = 108.54023 100.41634 59.84296
#
# Poissons Ratio (x) = 0.95000 0.65043
# Poissons Ratio (y) = 1.02685 0.44046
# Poissons Ratio (z) = 1.17973 0.73909
#
# Static dielectric constant tensor:
#      x y z
#    x 3.867880 0.086220 0.315900 
#    y 0.086220 4.116710 -0.172070 
#    z 0.315900 -0.172070 4.435670 
# 
# 
# High freq. dielectric constant tensor:
#      x y z
#    x 1.907820 0.010730 0.029750 
#    y 0.010730 1.920440 -0.016720 
#    z 0.029750 -0.016720 1.940700 
# 
# From -- ./inp_files/244202.got.cif
#   From: 2010.06.25/outbox.cif.g09.slc.cpg/sg2_123_cif.got.tgz:244202.got - 2010.06.27 13:26:56.
