data_PCOD8019764
_publ_section_title
;
Structure prediction by ZEFSAII (Michael W. Deem and Ramdas Pophale) SiO2 
 PCOD8019764
Probable space group: P -1
;
_chemical_formula_sum "Si O2"
_cell_formula_units_Z 16
_cell_length_a 11.405778
_cell_length_b 8.654294
_cell_length_c 13.442336
_cell_angle_alpha 32.549687
_cell_angle_beta 96.982803
_cell_angle_gamma 104.931175
_cell_volume 678.029993
_symmetry_space_group_name_H-M "P -1"
_symmetry_group_IT_number 2
_symmetry_cell_setting 'triclinic'
loop_
_space_group_symop_operation_xyz
x,y,z
-x,-y,-z
loop_
_atom_site_type_symbol
_atom_site_label
_atom_site_fract_x
_atom_site_fract_y
_atom_site_fract_z
Si Si1 0.402981 0.551795 0.384695
Si Si2 0.164769 0.777867 0.019571
Si Si3 0.323364 0.076849 0.042215
Si Si4 0.803420 0.347347 0.435435
Si Si5 0.101678 0.278085 0.951459
Si Si6 0.103067 0.184513 0.226901
Si Si7 0.847783 0.788049 0.370180
Si Si8 0.547705 0.338538 0.357593
O O1 0.500000 0.500000 0.500000
O O2 0.259148 0.379106 0.475713
O O3 0.440039 0.442682 0.342277
O O4 0.406371 0.902102 0.202893
O O5 0.127580 0.422419 0.190051
O O6 0.045535 0.865036 0.008940
O O7 0.289336 0.900622 0.029275
O O8 0.198434 0.949560 0.826080
O O9 0.186715 0.051339 0.084896
O O10 0.403537 0.424519 0.855800
O O11 0.845786 0.450469 0.269689
O O12 0.880137 0.575042 0.403227
O O13 0.663579 0.362428 0.429305
O O14 0.799929 0.006306 0.644263
O O15 0.107829 0.362218 0.025304
O O16 0.971597 0.934137 0.366091
O O17 0.500000 0.000000 0.500000
#
# Coordination Sequence:
#
# PCOD8019764 Si02
#       8
#     2   2   2   2   2   2   2   2
#     4  12  25  46  72  99 139 183 239 286 346 409
#     4  11  23  44  66 105 143 175 225 287 347 421
#     4  11  24  45  73  98 133 191 227 284 355 412
#     4  11  23  44  68 100 140 180 234 287 345 421
#     4  10  22  41  71  98 142 182 222 277 352 412
#     4  11  26  40  69 107 143 178 231 287 348 414
#     4  11  22  43  68  99 137 184 229 284 344 412
#     4  11  26  47  69  98 135 180 240 290 340 413
#
# _framework density 23.597777000000001
#
# number of rings (size 3 to 8) (size 9 to 14) (size 15 to 20)
#    0.000    1.000    3.750    3.375    5.250    4.500 
#    0.000    0.625    0.000    0.000    0.000    0.000 
#    0.000    0.000    0.000    0.000    0.000    0.000 
#
# Total GULP energy -198248.346017 kJ/mol
# GULP energy per Si atom -12390.521626 kJ/mol
# Density = 2.354407 g / cm^3
# Si number density = 23.597777 Si / 1000 Ang^3
#
#
#
# Elastic Constant Matrix: (Units=GPa)
#
#
# Indices 1 2 3 4 5 6 
#
# 1 93.1859 19.3951 49.0331 -1.8290 2.1814 -11.9110
# 2 19.3951 41.7052 25.2722 -19.9698 -7.1546 6.7305
# 3 49.0331 25.2722 125.7484 -18.7810 5.7213 4.2577
# 4 -1.8290 -19.9698 -18.7810 42.4231 -1.6925 0.6579
# 5 2.1814 -7.1546 5.7213 -1.6925 41.6977 5.8633
# 6 -11.9110 6.7305 4.2577 0.6579 5.8633 22.9995
#
#
#
# Elastic Compliance Matrix: (Units=1/GPa)
#
#
# Indices 1 2 3 4 5 6 
#
# 1 0.018514 -0.011972 -0.006337 -0.008073 -0.004687 0.015691
# 2 -0.011972 0.046829 -0.001274 0.021851 0.013044 -0.023618
# 3 -0.006337 -0.001274 0.011515 0.004279 -0.000588 -0.005013
# 4 -0.008073 0.021851 0.004279 0.035905 0.007037 -0.014188
# 5 -0.004687 0.013044 -0.000588 0.007037 0.028754 -0.013667
# 6 0.015691 -0.023618 -0.005013 -0.014188 -0.013667 0.063335
#
#
# Mechanical properties :
#
#
# Convention : Reuss Voigt Hill
#
# Bulk Modulus (GPa) = 26.52981 49.78223 38.15602
# Shear Modulus (GPa) = 19.48702 32.55334 26.02018
#
# Velocity S-wave (km/s) = 2.87679 3.71820 3.32423
# Velocity P-wave (km/s) = 4.72244 6.29089 5.56223
#
# Compressibility (1/GPa) = 0.03769344
#
# Stress axis : x y z
#
# Youngs Moduli (GPa) = 54.01245 21.35419 86.84365
#
# Poissons Ratio (x) = 0.25565 0.55032
# Poissons Ratio (y) = 0.64664 0.11060
# Poissons Ratio (z) = 0.34227 0.02720
#
# Static dielectric constant tensor:
#      x y z
#    x 4.455920 -0.072970 0.115010 
#    y -0.072970 3.937660 0.007900 
#    z 0.115010 0.007900 4.340510 
# 
# 
# High freq. dielectric constant tensor:
#      x y z
#    x 1.940280 -0.002900 0.009820 
#    y -0.002900 1.908610 0.001750 
#    z 0.009820 0.001750 1.934590 
# 
# From -- ./inp_files/514836.got.cif
#   From: 2010.06.25/outbox.cif.g09.slc.cpg/sg2_258_cif.got.tgz:514836.got - 2010.06.27 13:26:56.
