data_PCOD8019196
_publ_section_title
;
Structure prediction by ZEFSAII (Michael W. Deem and Ramdas Pophale) SiO2 
 PCOD8019196
Probable space group: P -1
;
_chemical_formula_sum "Si O2"
_cell_formula_units_Z 14
_cell_length_a 11.619494
_cell_length_b 11.277115
_cell_length_c 14.044009
_cell_angle_alpha 31.199849
_cell_angle_beta 138.989752
_cell_angle_gamma 128.846937
_cell_volume 624.647512
_symmetry_space_group_name_H-M "P -1"
_symmetry_group_IT_number 2
_symmetry_cell_setting 'triclinic'
loop_
_space_group_symop_operation_xyz
x,y,z
-x,-y,-z
loop_
_atom_site_type_symbol
_atom_site_label
_atom_site_fract_x
_atom_site_fract_y
_atom_site_fract_z
Si Si1 0.238866 0.373082 0.937188
Si Si2 0.905601 0.281550 0.052049
Si Si3 0.807118 0.972059 0.357949
Si Si4 0.904452 0.237200 0.744673
Si Si5 0.701371 0.478511 0.610898
Si Si6 0.594237 0.154632 0.266441
Si Si7 0.799330 0.981357 0.681312
O O1 0.294968 0.622438 0.825321
O O2 0.063230 0.408496 0.738319
O O3 0.388068 0.219009 0.080051
O O4 0.209886 0.250020 0.104443
O O5 0.044372 0.070290 0.260728
O O6 0.774093 0.173613 0.120731
O O7 0.799422 0.351082 0.845362
O O8 0.000000 0.500000 0.000000
O O9 0.783784 0.720928 0.472677
O O10 0.658239 0.989623 0.334634
O O11 0.000000 0.000000 0.500000
O O12 0.737211 0.321218 0.647262
O O13 0.835024 0.202980 0.617511
O O14 0.000000 0.000000 0.000000
O O15 0.500000 0.500000 0.500000
O O16 0.625077 0.038167 0.469926
#
# Coordination Sequence:
#
# PCOD8019196 Si02
#       7
#     2   2   2   2   2   2   2
#     4  10  22  41  65  95 132 168 223 274 335 392
#     4  12  23  44  73  99 133 187 228 283 343 407
#     4  12  24  42  72 100 137 180 234 276 344 409
#     4  10  22  44  68  90 136 177 217 268 343 407
#     4  12  27  47  69 103 141 180 230 289 342 407
#     4  11  23  40  65 101 130 168 225 286 317 402
#     4  11  22  40  69  94 128 177 223 267 342 399
#
# _framework density 22.412641000000001
#
# number of rings (size 3 to 8) (size 9 to 14) (size 15 to 20)
#    0.000    0.857    5.714    2.143    4.000    1.143 
#    7.714    0.000    0.000    0.000    0.000    0.000 
#    0.000    0.000    0.000    0.000    0.000    0.000 
#
# Total GULP energy -173583.259954 kJ/mol
# GULP energy per Si atom -12398.804282 kJ/mol
# Density = 2.236163 g / cm^3
# Si number density = 22.412641 Si / 1000 Ang^3
#
#
#
# Elastic Constant Matrix: (Units=GPa)
#
#
# Indices 1 2 3 4 5 6 
#
# 1 119.1602 38.5012 23.6522 -6.0162 15.6149 -18.4121
# 2 38.5012 68.7728 18.3745 -10.6059 2.4072 -15.2318
# 3 23.6522 18.3745 61.0848 -15.9028 -3.1702 -8.5502
# 4 -6.0162 -10.6059 -15.9028 20.4747 4.4653 -0.9600
# 5 15.6149 2.4072 -3.1702 4.4653 55.3241 -3.0425
# 6 -18.4121 -15.2318 -8.5502 -0.9600 -3.0425 42.3697
#
#
#
# Elastic Compliance Matrix: (Units=1/GPa)
#
#
# Indices 1 2 3 4 5 6 
#
# 1 0.011302 -0.005071 -0.002895 -0.000806 -0.002945 0.002274
# 2 -0.005071 0.020062 -0.001255 0.008137 0.000102 0.004947
# 3 -0.002895 -0.001255 0.022526 0.015918 0.001058 0.003273
# 4 -0.000806 0.008137 0.015918 0.066425 -0.004191 0.006992
# 5 -0.002945 0.000102 0.001058 -0.004191 0.019315 0.000262
# 6 0.002274 0.004947 0.003273 0.006992 0.000262 0.027206
#
#
# Mechanical properties :
#
#
# Convention : Reuss Voigt Hill
#
# Bulk Modulus (GPa) = 28.21037 45.56375 36.88706
# Shear Modulus (GPa) = 25.36852 34.86636 30.11744
#
# Velocity S-wave (km/s) = 3.36800 3.94846 3.66972
# Velocity P-wave (km/s) = 5.26675 6.41566 5.86939
#
# Compressibility (1/GPa) = 0.03544796
#
# Stress axis : x y z
#
# Youngs Moduli (GPa) = 88.48110 49.84588 44.39235
#
# Poissons Ratio (x) = 0.25277 0.12851
# Poissons Ratio (y) = 0.44870 0.05571
# Poissons Ratio (z) = 0.25614 0.06256
#
# Static dielectric constant tensor:
#      x y z
#    x 4.428280 -0.003970 0.174750 
#    y -0.003970 4.376710 0.010180 
#    z 0.174750 0.010180 4.077980 
# 
# 
# High freq. dielectric constant tensor:
#      x y z
#    x 1.891280 -0.004420 0.007000 
#    y -0.004420 1.880600 -0.009800 
#    z 0.007000 -0.009800 1.879530 
# 
# From -- ./inp_files/434138.got.cif
#   From: 2010.06.25/outbox.cif.g09.slc.cpg/sg2_218_cif.got.tgz:434138.got - 2010.06.27 13:26:56.
