data_PCOD8019789
_publ_section_title
;
Structure prediction by ZEFSAII (Michael W. Deem and Ramdas Pophale) SiO2 
 PCOD8019789
Probable space group: P -1
;
_chemical_formula_sum "Si O2"
_cell_formula_units_Z 14
_cell_length_a 11.904827
_cell_length_b 11.378010
_cell_length_c 8.784660
_cell_angle_alpha 40.226733
_cell_angle_beta 61.048687
_cell_angle_gamma 52.280149
_cell_volume 607.526473
_symmetry_space_group_name_H-M "P -1"
_symmetry_group_IT_number 2
_symmetry_cell_setting 'triclinic'
loop_
_space_group_symop_operation_xyz
x,y,z
-x,-y,-z
loop_
_atom_site_type_symbol
_atom_site_label
_atom_site_fract_x
_atom_site_fract_y
_atom_site_fract_z
Si Si1 0.685885 0.675537 0.438514
Si Si2 0.126483 0.736241 0.775318
Si Si3 0.621848 0.546931 0.298669
Si Si4 0.871459 0.851129 0.642914
Si Si5 0.874222 0.843339 0.311983
Si Si6 0.563631 0.945920 0.845326
Si Si7 0.824019 0.284562 0.900073
O O1 0.699729 0.617299 0.309100
O O2 0.810972 0.738079 0.338605
O O3 0.694572 0.480278 0.719288
O O4 0.536680 0.871567 0.379881
O O5 0.266437 0.648693 0.665373
O O6 0.999027 0.697165 0.818626
O O7 0.081935 0.970931 0.596067
O O8 0.153963 0.643937 0.017244
O O9 0.500000 0.500000 0.500000
O O10 0.563242 0.727297 0.031870
O O11 0.861201 0.765193 0.567891
O O12 0.723209 0.923924 0.755155
O O13 0.038925 0.767155 0.243107
O O14 0.790295 0.088440 0.114837
O O15 0.500000 0.000000 0.000000
#
# Coordination Sequence:
#
# PCOD8019789 Si02
#       7
#     2   2   2   2   2   2   2
#     4  11  24  43  68  94 138 178 219 277 337 403
#     4  10  22  41  72  98 131 178 225 279 329 401
#     4  11  25  45  68  99 132 179 228 276 342 400
#     4  10  22  44  67  99 135 173 230 276 332 399
#     4  10  23  43  66 101 138 177 225 272 342 399
#     4  10  24  42  64  96 131 177 223 278 328 400
#     4  10  23  42  69 103 135 179 219 281 338 393
#
# _framework density 23.044263000000001
#
# number of rings (size 3 to 8) (size 9 to 14) (size 15 to 20)
#    0.000    1.714    0.000    3.000    8.000    2.286 
#    0.000    2.143    0.000    0.000    0.000    0.000 
#    0.000    0.000    0.000    0.000    0.000    0.000 
#
# Total GULP energy -173509.495396 kJ/mol
# GULP energy per Si atom -12393.535385 kJ/mol
# Density = 2.299181 g / cm^3
# Si number density = 23.044263 Si / 1000 Ang^3
#
#
#
# Elastic Constant Matrix: (Units=GPa)
#
#
# Indices 1 2 3 4 5 6 
#
# 1 67.9004 36.9180 28.6054 1.5835 3.3061 5.4926
# 2 36.9180 97.7145 33.2485 16.0169 10.6770 -4.2963
# 3 28.6054 33.2485 96.6944 -10.9144 14.5278 -0.8539
# 4 1.5835 16.0169 -10.9144 47.8238 -1.3832 -5.0963
# 5 3.3061 10.6770 14.5278 -1.3832 34.2214 -0.5513
# 6 5.4926 -4.2963 -0.8539 -5.0963 -0.5513 42.4577
#
#
#
# Elastic Compliance Matrix: (Units=1/GPa)
#
#
# Indices 1 2 3 4 5 6 
#
# 1 0.020192 -0.006694 -0.003924 0.000377 0.001765 -0.003300
# 2 -0.006694 0.015231 -0.003445 -0.005574 -0.002842 0.001632
# 3 -0.003924 -0.003445 0.013828 0.004414 -0.004223 0.000912
# 4 0.000377 -0.005574 0.004414 0.024049 0.000839 0.002374
# 5 0.001765 -0.002842 -0.004223 0.000839 0.031763 -0.000088
# 6 -0.003300 0.001632 0.000912 0.002374 -0.000088 0.024447
#
#
# Mechanical properties :
#
#
# Convention : Reuss Voigt Hill
#
# Bulk Modulus (GPa) = 47.33311 51.09479 49.21395
# Shear Modulus (GPa) = 30.36263 35.80309 33.08286
#
# Velocity S-wave (km/s) = 3.63378 3.94593 3.79307
# Velocity P-wave (km/s) = 6.17985 6.55600 6.37070
#
# Compressibility (1/GPa) = 0.02112686
#
# Stress axis : x y z
#
# Youngs Moduli (GPa) = 49.52457 65.65621 72.31723
#
# Poissons Ratio (x) = 0.43947 0.28375
# Poissons Ratio (y) = 0.33150 0.24911
# Poissons Ratio (z) = 0.19432 0.22617
#
# Static dielectric constant tensor:
#      x y z
#    x 4.092340 0.025000 0.370440 
#    y 0.025000 4.336910 -0.526530 
#    z 0.370440 -0.526530 4.526780 
# 
# 
# High freq. dielectric constant tensor:
#      x y z
#    x 1.894150 0.003360 0.005740 
#    y 0.003360 1.911400 -0.014060 
#    z 0.005740 -0.014060 1.916360 
# 
# From -- ./inp_files/256660.got.cif
#   From: 2010.06.25/outbox.cif.g09.slc.cpg/sg2_129_cif.got.tgz:256660.got - 2010.06.27 13:26:56.
