data_PCOD8019802
_publ_section_title
;
Structure prediction by ZEFSAII (Michael W. Deem and Ramdas Pophale) SiO2 
 PCOD8019802
Probable space group: P -1
;
_chemical_formula_sum "Si O2"
_cell_formula_units_Z 16
_cell_length_a 5.458296
_cell_length_b 9.465210
_cell_length_c 20.491413
_cell_angle_alpha 121.337675
_cell_angle_beta 128.384432
_cell_angle_gamma 72.658026
_cell_volume 708.299117
_symmetry_space_group_name_H-M "P -1"
_symmetry_group_IT_number 2
_symmetry_cell_setting 'triclinic'
loop_
_space_group_symop_operation_xyz
x,y,z
-x,-y,-z
loop_
_atom_site_type_symbol
_atom_site_label
_atom_site_fract_x
_atom_site_fract_y
_atom_site_fract_z
Si Si1 0.822954 0.010243 0.906847
Si Si2 0.794965 0.778439 0.288446
Si Si3 0.788645 0.689391 0.756628
Si Si4 0.819364 0.872525 0.174067
Si Si5 0.562685 0.442848 0.204627
Si Si6 0.851403 0.673517 0.008194
Si Si7 0.557389 0.904646 0.666133
Si Si8 0.272175 0.900707 0.486674
O O1 0.447194 0.990110 0.839855
O O2 0.953938 0.859696 0.850888
O O3 0.877114 0.190256 0.928193
O O4 0.000000 0.000000 0.000000
O O5 0.856889 0.758631 0.217134
O O6 0.530635 0.640535 0.234072
O O7 0.104548 0.756498 0.379825
O O8 0.707831 0.969683 0.327788
O O9 0.589489 0.598035 0.759863
O O10 0.554011 0.741408 0.672184
O O11 0.064622 0.582708 0.746599
O O12 0.712779 0.737708 0.068656
O O13 0.128278 0.985517 0.243889
O O14 0.395172 0.334494 0.093867
O O15 0.000000 0.500000 0.000000
O O16 0.495807 0.836311 0.566109
O O17 0.500000 0.000000 0.500000
O O18 0.000000 0.000000 0.500000
#
# Coordination Sequence:
#
# PCOD8019802 Si02
#       8
#     2   2   2   2   2   2   2   2
#     4  12  24  40  63  93 135 184 238 279 337 409
#     4  11  25  45  71 102 139 182 235 289 358 415
#     4  12  26  45  67 101 137 190 231 284 345 416
#     4  12  22  40  72  96 137 182 239 285 347 408
#     4  12  29  45  67  98 148 186 231 285 352 413
#     4  12  27  41  63 101 139 182 236 288 349 401
#     4  11  23  43  74 105 135 179 240 292 351 416
#     4  10  22  41  73 111 137 171 231 299 348 412
#
# _framework density 22.589327999999998
#
# number of rings (size 3 to 8) (size 9 to 14) (size 15 to 20)
#    0.000    0.500    5.000    3.000    3.500    2.000 
#    0.000    1.250    0.000    0.000    0.000    0.000 
#    0.000    0.000    0.000    0.000    0.000    0.000 
#
# Total GULP energy -198236.771736 kJ/mol
# GULP energy per Si atom -12389.798234 kJ/mol
# Density = 2.253791 g / cm^3
# Si number density = 22.589328 Si / 1000 Ang^3
#
#
#
# Elastic Constant Matrix: (Units=GPa)
#
#
# Indices 1 2 3 4 5 6 
#
# 1 119.4733 38.6668 28.6671 -11.2114 -8.7207 22.3735
# 2 38.6668 84.6270 15.3759 -17.5209 -10.2331 18.4108
# 3 28.6671 15.3759 127.6055 -36.5946 -12.3212 19.3665
# 4 -11.2114 -17.5209 -36.5946 34.9273 15.7125 -6.9176
# 5 -8.7207 -10.2331 -12.3212 15.7125 30.8196 -5.8767
# 6 22.3735 18.4108 19.3665 -6.9176 -5.8767 41.5931
#
#
#
# Elastic Compliance Matrix: (Units=1/GPa)
#
#
# Indices 1 2 3 4 5 6 
#
# 1 0.010635 -0.004033 -0.001769 -0.001631 0.001181 -0.003216
# 2 -0.004033 0.015897 0.001895 0.007739 0.000101 -0.004448
# 3 -0.001769 0.001895 0.012224 0.013651 -0.002646 -0.003682
# 4 -0.001631 0.007739 0.013651 0.055260 -0.021121 -0.002698
# 5 0.001181 0.000101 -0.002646 -0.021121 0.043122 0.003132
# 6 -0.003216 -0.004448 -0.003682 -0.002698 0.003132 0.029450
#
#
# Mechanical properties :
#
#
# Convention : Reuss Voigt Hill
#
# Bulk Modulus (GPa) = 32.31860 55.23616 43.77738
# Shear Modulus (GPa) = 27.06851 38.06775 32.56813
#
# Velocity S-wave (km/s) = 3.46538 4.10958 3.80116
# Velocity P-wave (km/s) = 5.50908 6.85738 6.21987
#
# Compressibility (1/GPa) = 0.03094194
#
# Stress axis : x y z
#
# Youngs Moduli (GPa) = 94.02670 62.90424 81.80645
#
# Poissons Ratio (x) = 0.25370 0.14470
# Poissons Ratio (y) = 0.37922 -0.15499
# Poissons Ratio (z) = 0.16632 -0.11918
#
# Static dielectric constant tensor:
#      x y z
#    x 3.928950 0.085380 -0.131930 
#    y 0.085380 4.281790 -0.307920 
#    z -0.131930 -0.307920 4.709650 
# 
# 
# High freq. dielectric constant tensor:
#      x y z
#    x 1.887710 0.009560 -0.008370 
#    y 0.009560 1.882370 -0.021220 
#    z -0.008370 -0.021220 1.900850 
# 
# From -- ./inp_files/51194.got.cif
#   From: 2010.06.25/outbox.cif.g09.slc.cpg/sg2_26_cif.got.tgz:51194.got - 2010.06.27 13:26:56.
