data_PCOD8019350
_publ_section_title
;
Structure prediction by ZEFSAII (Michael W. Deem and Ramdas Pophale) SiO2 
 PCOD8019350
Probable space group: P -1
;
_chemical_formula_sum "Si O2"
_cell_formula_units_Z 12
_cell_length_a 6.339761
_cell_length_b 8.693248
_cell_length_c 15.110020
_cell_angle_alpha 58.480122
_cell_angle_beta 46.018519
_cell_angle_gamma 74.292453
_cell_volume 504.996332
_symmetry_space_group_name_H-M "P -1"
_symmetry_group_IT_number 2
_symmetry_cell_setting 'triclinic'
loop_
_space_group_symop_operation_xyz
x,y,z
-x,-y,-z
loop_
_atom_site_type_symbol
_atom_site_label
_atom_site_fract_x
_atom_site_fract_y
_atom_site_fract_z
Si Si1 0.875149 0.705563 0.051652
Si Si2 0.444791 0.820689 0.627272
Si Si3 0.286337 0.778721 0.290417
Si Si4 0.157341 0.380510 0.108509
Si Si5 0.515021 0.844667 0.799447
Si Si6 0.284010 0.435752 0.504290
O O1 0.604591 0.785460 0.150311
O O2 0.994455 0.555083 0.124658
O O3 0.746367 0.614946 0.024065
O O4 0.164064 0.859695 0.905960
O O5 0.602378 0.836758 0.673293
O O6 0.556541 0.653666 0.595055
O O7 0.092699 0.792385 0.750546
O O8 0.500000 0.000000 0.500000
O O9 0.204201 0.629559 0.436423
O O10 0.997995 0.710815 0.332456
O O11 0.284721 0.980523 0.268399
O O12 0.424275 0.343690 0.109131
O O13 0.500000 0.500000 0.500000
#
# Coordination Sequence:
#
# PCOD8019350 Si02
#       6
#     2   2   2   2   2   2
#     4  10  22  44  66 101 141 176 229 274 342 404
#     4  11  23  43  68  99 138 176 233 279 334 410
#     4  11  24  43  66 103 136 176 225 280 341 404
#     4  10  22  41  67 100 135 184 224 276 334 411
#     4  11  24  41  73 103 136 178 225 283 342 400
#     4  11  25  44  66  95 138 183 224 279 339 404
#
# _framework density 23.762547999999999
#
# number of rings (size 3 to 8) (size 9 to 14) (size 15 to 20)
#    0.000    1.333    1.667    3.000    0.000    8.667 
#    0.000    0.000    0.000    0.000    0.000    0.000 
#    0.000    0.000    0.000    0.000    0.000    0.000 
#
# Total GULP energy -148693.600157 kJ/mol
# GULP energy per Si atom -12391.133346 kJ/mol
# Density = 2.370846 g / cm^3
# Si number density = 23.762548 Si / 1000 Ang^3
#
#
#
# Elastic Constant Matrix: (Units=GPa)
#
#
# Indices 1 2 3 4 5 6 
#
# 1 147.2196 53.8928 45.7184 8.7552 -4.6320 14.5304
# 2 53.8928 111.4475 30.7159 9.8970 4.8616 13.0614
# 3 45.7184 30.7159 90.4259 7.6588 -2.5005 5.2508
# 4 8.7552 9.8970 7.6588 31.5752 -6.2212 -5.8449
# 5 -4.6320 4.8616 -2.5005 -6.2212 45.6148 -9.7955
# 6 14.5304 13.0614 5.2508 -5.8449 -9.7955 31.3984
#
#
#
# Elastic Compliance Matrix: (Units=1/GPa)
#
#
# Indices 1 2 3 4 5 6 
#
# 1 0.009346 -0.003209 -0.003381 -0.001150 0.000410 -0.002511
# 2 -0.003209 0.012165 -0.001967 -0.004044 -0.003366 -0.005049
# 3 -0.003381 -0.001967 0.013595 -0.001689 0.000361 -0.000093
# 4 -0.001150 -0.004044 -0.001689 0.037428 0.007887 0.011925
# 5 0.000410 -0.003366 0.000361 0.007887 0.025703 0.010637
# 6 -0.002511 -0.005049 -0.000093 0.011925 0.010637 0.040665
#
#
# Mechanical properties :
#
#
# Convention : Reuss Voigt Hill
#
# Bulk Modulus (GPa) = 55.58148 67.74969 61.66558
# Shear Modulus (GPa) = 30.86189 36.30208 33.58199
#
# Velocity S-wave (km/s) = 3.60774 3.91282 3.76338
# Velocity P-wave (km/s) = 6.38714 6.99904 6.70008
#
# Compressibility (1/GPa) = 0.01799160
#
# Stress axis : x y z
#
# Youngs Moduli (GPa) = 106.99285 82.20612 73.55854
#
# Poissons Ratio (x) = 0.26383 0.24869
# Poissons Ratio (y) = 0.34338 0.14468
# Poissons Ratio (z) = 0.36172 0.16169
#
# Static dielectric constant tensor:
#      x y z
#    x 4.942020 -0.017180 -0.604780 
#    y -0.017180 4.156570 -0.198290 
#    z -0.604780 -0.198290 4.737140 
# 
# 
# High freq. dielectric constant tensor:
#      x y z
#    x 1.947610 0.000580 -0.020380 
#    y 0.000580 1.930130 -0.017440 
#    z -0.020380 -0.017440 1.952700 
# 
# From -- ./inp_files/22388.got.cif
#   From: 2010.06.25/outbox.cif.g09.slc.cpg/sg2_12_cif.got.tgz:22388.got - 2010.06.27 13:26:56.
