data_PCOD8019916
_publ_section_title
;
Structure prediction by ZEFSAII (Michael W. Deem and Ramdas Pophale) SiO2 
 PCOD8019916
Probable space group: P -1
;
_chemical_formula_sum "Si O2"
_cell_formula_units_Z 12
_cell_length_a 14.236528
_cell_length_b 8.327646
_cell_length_c 5.284800
_cell_angle_alpha 125.324980
_cell_angle_beta 80.901040
_cell_angle_gamma 116.193182
_cell_volume 454.647300
_symmetry_space_group_name_H-M "P -1"
_symmetry_group_IT_number 2
_symmetry_cell_setting 'triclinic'
loop_
_space_group_symop_operation_xyz
x,y,z
-x,-y,-z
loop_
_atom_site_type_symbol
_atom_site_label
_atom_site_fract_x
_atom_site_fract_y
_atom_site_fract_z
Si Si1 0.695266 0.841128 0.871481
Si Si2 0.159913 0.682299 0.719270
Si Si3 0.954142 0.727659 0.897930
Si Si4 0.535424 0.251455 0.229396
Si Si5 0.605292 0.475648 0.909651
Si Si6 0.859112 0.737978 0.451453
O O1 0.573445 0.717436 0.713206
O O2 0.701976 0.711321 0.007917
O O3 0.762393 0.802920 0.582168
O O4 0.732101 0.095402 0.156885
O O5 0.119523 0.537237 0.346813
O O6 0.178995 0.525381 0.771466
O O7 0.073241 0.762256 0.925221
O O8 0.940571 0.847065 0.754371
O O9 0.917788 0.824585 0.240668
O O10 0.596502 0.323036 0.533292
O O11 0.618618 0.372267 0.074585
O O12 0.500000 0.000000 0.000000
O O13 0.500000 0.500000 0.000000
#
# Coordination Sequence:
#
# PCOD8019916 Si02
#       6
#     2   2   2   2   2   2
#     4  11  24  43  68 105 129 176 224 279 321 400
#     4   9  22  43  65  98 132 177 223 263 332 388
#     4   9  21  44  64  91 141 176 212 274 325 389
#     4  11  25  47  71  94 134 179 215 273 341 393
#     4  10  23  47  65  95 135 168 217 275 333 395
#     4  10  22  42  62  96 135 173 218 275 321 388
#
# _framework density 26.394086000000001
#
# number of rings (size 3 to 8) (size 9 to 14) (size 15 to 20)
#    1.000    1.000    0.000    3.000    2.333    5.333 
#   12.000    0.000    0.000    0.000    0.000    0.000 
#    0.000    0.000    0.000    0.000    0.000    0.000 
#
# Total GULP energy -148708.132718 kJ/mol
# GULP energy per Si atom -12392.344393 kJ/mol
# Density = 2.633401 g / cm^3
# Si number density = 26.394086 Si / 1000 Ang^3
#
#
#
# Elastic Constant Matrix: (Units=GPa)
#
#
# Indices 1 2 3 4 5 6 
#
# 1 70.4416 -5.8948 25.4376 -11.2304 -1.3961 2.7456
# 2 -5.8948 108.0541 48.9606 -20.2351 6.2512 5.1639
# 3 25.4376 48.9606 130.0830 -44.2932 -0.4890 10.6728
# 4 -11.2304 -20.2351 -44.2932 42.0297 14.2850 -0.8217
# 5 -1.3961 6.2512 -0.4890 14.2850 41.2425 9.4484
# 6 2.7456 5.1639 10.6728 -0.8217 9.4484 30.7940
#
#
#
# Elastic Compliance Matrix: (Units=1/GPa)
#
#
# Indices 1 2 3 4 5 6 
#
# 1 0.016045 0.002911 -0.003416 0.002290 -0.000621 -0.000483
# 2 0.002911 0.012008 -0.003946 0.003413 -0.002973 0.000098
# 3 -0.003416 -0.003946 0.014791 0.013929 -0.003548 -0.002700
# 4 0.002290 0.003413 0.013929 0.046343 -0.016484 0.000690
# 5 -0.000621 -0.002973 -0.003548 -0.016484 0.032307 -0.008569
# 6 -0.000483 0.000098 -0.002700 0.000690 -0.008569 0.036084
#
#
# Mechanical properties :
#
#
# Convention : Reuss Voigt Hill
#
# Bulk Modulus (GPa) = 29.46137 49.50948 39.48543
# Shear Modulus (GPa) = 28.12248 38.81827 33.47038
#
# Velocity S-wave (km/s) = 3.26772 3.83916 3.56490
# Velocity P-wave (km/s) = 5.04219 6.20086 5.65130
#
# Compressibility (1/GPa) = 0.03394275
#
# Stress axis : x y z
#
# Youngs Moduli (GPa) = 62.32447 83.27914 67.60680
#
# Poissons Ratio (x) = -0.24244 0.23095
# Poissons Ratio (y) = -0.18144 0.26677
# Poissons Ratio (z) = 0.21291 0.32861
#
# Static dielectric constant tensor:
#      x y z
#    x 4.443620 -0.390470 0.130100 
#    y -0.390470 4.680800 -0.086950 
#    z 0.130100 -0.086950 4.802670 
# 
# 
# High freq. dielectric constant tensor:
#      x y z
#    x 2.049170 0.005690 -0.003830 
#    y 0.005690 2.060340 0.017330 
#    z -0.003830 0.017330 2.058480 
# 
# From -- ./inp_files/105770.got.cif
#   From: 2010.06.25/outbox.cif.g09.slc.cpg/sg2_53_cif.got.tgz:105770.got - 2010.06.27 13:26:56.
