data_PCOD8019072
_publ_section_title
;
Structure prediction by ZEFSAII (Michael W. Deem and Ramdas Pophale) SiO2 
 PCOD8019072
Probable space group: P -1
;
_chemical_formula_sum "Si O2"
_cell_formula_units_Z 16
_cell_length_a 8.558663
_cell_length_b 12.603678
_cell_length_c 17.188914
_cell_angle_alpha 25.230058
_cell_angle_beta 66.413714
_cell_angle_gamma 70.221983
_cell_volume 723.003012
_symmetry_space_group_name_H-M "P -1"
_symmetry_group_IT_number 2
_symmetry_cell_setting 'triclinic'
loop_
_space_group_symop_operation_xyz
x,y,z
-x,-y,-z
loop_
_atom_site_type_symbol
_atom_site_label
_atom_site_fract_x
_atom_site_fract_y
_atom_site_fract_z
Si Si1 0.085266 0.391709 0.222002
Si Si2 0.108935 0.274160 0.475199
Si Si3 0.253461 0.885902 0.810911
Si Si4 0.596201 0.870608 0.234925
Si Si5 0.289072 0.698032 0.638333
Si Si6 0.257182 0.608503 0.526022
Si Si7 0.575808 0.421668 0.822322
Si Si8 0.580845 0.774132 0.735737
O O1 0.090167 0.277548 0.383531
O O2 0.236917 0.259745 0.232486
O O3 0.897629 0.325778 0.267366
O O4 0.123585 0.691434 0.011382
O O5 0.268039 0.468986 0.335350
O O6 0.931386 0.351392 0.497640
O O7 0.155685 0.006446 0.678251
O O8 0.414605 0.734895 0.848765
O O9 0.326410 0.100208 0.712907
O O10 0.400823 0.760090 0.346526
O O11 0.712464 0.685624 0.287271
O O12 0.601880 0.132384 0.017082
O O13 0.266342 0.715956 0.539295
O O14 0.393617 0.456429 0.795739
O O15 0.402057 0.938931 0.489264
O O16 0.573502 0.562798 0.811725
#
# Coordination Sequence:
#
# PCOD8019072 Si02
#       8
#     2   2   2   2   2   2   2   2
#     4  10  24  39  61  98 126 169 213 253 312 383
#     4  10  22  41  64  94 127 163 213 258 317 374
#     4  12  22  41  66  92 131 169 210 258 317 375
#     4  11  23  43  65  93 127 166 219 257 314 382
#     4  11  22  42  63  92 131 168 207 263 320 366
#     4  10  24  43  65  92 127 168 208 270 316 368
#     4  11  23  40  66  97 126 168 213 258 312 388
#     4  11  21  40  65  91 131 170 206 258 317 376
#
# _framework density 22.129923000000002
#
# number of rings (size 3 to 8) (size 9 to 14) (size 15 to 20)
#    0.000    1.250    5.000    1.125    3.500    1.500 
#    0.000    0.625    0.000    0.000    0.000    0.000 
#    0.000    0.000    0.000    0.000    0.000    0.000 
#
# Total GULP energy -198309.330568 kJ/mol
# GULP energy per Si atom -12394.333161 kJ/mol
# Density = 2.207955 g / cm^3
# Si number density = 22.129923 Si / 1000 Ang^3
#
#
#
# Elastic Constant Matrix: (Units=GPa)
#
#
# Indices 1 2 3 4 5 6 
#
# 1 109.1109 25.4655 24.1043 6.5280 8.2030 -33.7479
# 2 25.4655 61.0757 20.2080 -8.6817 -4.2978 -23.2890
# 3 24.1043 20.2080 94.2274 -6.1102 7.4746 3.2572
# 4 6.5280 -8.6817 -6.1102 31.3491 -0.8381 -0.7441
# 5 8.2030 -4.2978 7.4746 -0.8381 33.0582 -3.2105
# 6 -33.7479 -23.2890 3.2572 -0.7441 -3.2105 32.2342
#
#
#
# Elastic Compliance Matrix: (Units=1/GPa)
#
#
# Indices 1 2 3 4 5 6 
#
# 1 0.015768 0.001336 -0.005088 -0.003508 -0.000948 0.017812
# 2 0.001336 0.029035 -0.007550 0.007067 0.007667 0.024066
# 3 -0.005088 -0.007550 0.014388 0.001362 -0.004163 -0.012619
# 4 -0.003508 0.007067 0.001362 0.034977 0.002597 0.002362
# 5 -0.000948 0.007667 -0.004163 0.002597 0.033299 0.008344
# 6 0.017812 0.024066 -0.012619 0.002362 0.008344 0.069219
#
#
# Mechanical properties :
#
#
# Convention : Reuss Voigt Hill
#
# Bulk Modulus (GPa) = 27.33306 44.88551 36.10929
# Shear Modulus (GPa) = 21.59948 32.30404 26.95176
#
# Velocity S-wave (km/s) = 3.12754 3.82481 3.49361
# Velocity P-wave (km/s) = 5.04182 6.31128 5.71193
#
# Compressibility (1/GPa) = 0.03658573
#
# Stress axis : x y z
#
# Youngs Moduli (GPa) = 63.42145 34.44117 69.50131
#
# Poissons Ratio (x) = -0.04601 0.35362
# Poissons Ratio (y) = -0.08472 0.52476
# Poissons Ratio (z) = 0.32269 0.26004
#
# Static dielectric constant tensor:
#      x y z
#    x 4.514760 -0.561230 -0.099300 
#    y -0.561230 3.842900 -0.003460 
#    z -0.099300 -0.003460 3.949850 
# 
# 
# High freq. dielectric constant tensor:
#      x y z
#    x 1.877310 -0.031340 -0.001990 
#    y -0.031340 1.841280 -0.004040 
#    z -0.001990 -0.004040 1.875190 
# 
# From -- ./inp_files/237583.got.cif
#   From: 2010.06.25/outbox.cif.g09.slc.cpg/sg2_119_cif.got.tgz:237583.got - 2010.06.27 13:26:56.
