data_PCOD8019029
_publ_section_title
;
Structure prediction by ZEFSAII (Michael W. Deem and Ramdas Pophale) SiO2 
 PCOD8019029
Probable space group: P -1
;
_chemical_formula_sum "Si O2"
_cell_formula_units_Z 16
_cell_length_a 21.069781
_cell_length_b 9.820272
_cell_length_c 18.084146
_cell_angle_alpha 60.146839
_cell_angle_beta 18.768524
_cell_angle_gamma 49.159197
_cell_volume 789.413087
_symmetry_space_group_name_H-M "P -1"
_symmetry_group_IT_number 2
_symmetry_cell_setting 'triclinic'
loop_
_space_group_symop_operation_xyz
x,y,z
-x,-y,-z
loop_
_atom_site_type_symbol
_atom_site_label
_atom_site_fract_x
_atom_site_fract_y
_atom_site_fract_z
Si Si1 0.043979 0.848443 0.805282
Si Si2 0.435695 0.453534 0.884840
Si Si3 0.525642 0.936437 0.572472
Si Si4 0.002775 0.139610 0.662596
Si Si5 0.398496 0.429624 0.455818
Si Si6 0.735625 0.147733 0.295469
Si Si7 0.463960 0.076912 0.935894
Si Si8 0.011273 0.090978 0.388436
O O1 0.142727 0.666012 0.688240
O O2 0.225158 0.759479 0.702599
O O3 0.060710 0.010770 0.707018
O O4 0.752183 0.952608 0.116094
O O5 0.402820 0.575749 0.813934
O O6 0.383924 0.300474 0.963146
O O7 0.731711 0.320290 0.623577
O O8 0.228147 0.615948 0.132054
O O9 0.683389 0.688725 0.464640
O O10 0.500000 0.000000 0.500000
O O11 0.663849 0.009169 0.442030
O O12 0.265405 0.093418 0.360528
O O13 0.911657 0.068685 0.718313
O O14 0.522365 0.329709 0.426235
O O15 0.000000 0.000000 0.000000
O O16 0.234555 0.105286 0.140097
O O17 0.500000 0.000000 0.000000
O O18 0.000000 0.000000 0.500000
#
# Coordination Sequence:
#
# PCOD8019029 Si02
#       8
#     2   2   2   2   2   2   2   2
#     4  12  22  44  65  94 134 171 218 268 320 380
#     4  11  23  45  67  99 136 171 218 273 326 387
#     4  10  22  41  64  90 130 171 216 266 317 374
#     4  11  24  43  70  98 137 169 219 278 321 387
#     4  11  22  44  65  93 134 173 211 272 318 378
#     4  11  22  42  65  93 133 172 218 264 319 379
#     4  11  23  46  69  97 133 168 217 274 331 396
#     4  11  23  46  68  94 135 171 213 273 331 398
#
# _framework density 20.268224
#
# number of rings (size 3 to 8) (size 9 to 14) (size 15 to 20)
#    0.000    1.000    8.750    0.375    0.000    5.000 
#    6.750    0.000    0.000    0.000    0.000    0.000 
#    0.000    0.000    0.000    0.000    0.000    0.000 
#
# Total GULP energy -198357.939798 kJ/mol
# GULP energy per Si atom -12397.371237 kJ/mol
# Density = 2.022209 g / cm^3
# Si number density = 20.268224 Si / 1000 Ang^3
#
#
#
# Elastic Constant Matrix: (Units=GPa)
#
#
# Indices 1 2 3 4 5 6 
#
# 1 75.3534 31.0154 48.4975 -4.3846 -1.2906 8.5189
# 2 31.0154 114.4211 55.5286 -5.3435 4.2668 18.8977
# 3 48.4975 55.5286 154.5483 -4.5077 6.3960 23.7775
# 4 -4.3846 -5.3435 -4.5077 45.8587 8.0141 8.5969
# 5 -1.2906 4.2668 6.3960 8.0141 39.3483 -7.3062
# 6 8.5189 18.8977 23.7775 8.5969 -7.3062 34.2897
#
#
#
# Elastic Compliance Matrix: (Units=1/GPa)
#
#
# Indices 1 2 3 4 5 6 
#
# 1 0.017312 -0.002563 -0.004646 0.000519 0.001596 0.000543
# 2 -0.002563 0.011661 -0.002424 0.002263 -0.002378 -0.005183
# 3 -0.004646 -0.002424 0.009787 0.001728 -0.002822 -0.005331
# 4 0.000519 0.002263 0.001728 0.025631 -0.007705 -0.010642
# 5 0.001596 -0.002378 -0.002822 -0.007705 0.029824 0.011157
# 6 0.000543 -0.005183 -0.005331 -0.010642 0.011157 0.040627
#
#
# Mechanical properties :
#
#
# Convention : Reuss Voigt Hill
#
# Bulk Modulus (GPa) = 51.29740 68.26731 59.78235
# Shear Modulus (GPa) = 31.13229 37.85142 34.49186
#
# Velocity S-wave (km/s) = 3.92345 4.32618 4.12973
# Velocity P-wave (km/s) = 6.77413 7.66221 7.23182
#
# Compressibility (1/GPa) = 0.01949417
#
# Stress axis : x y z
#
# Youngs Moduli (GPa) = 57.76294 85.75650 102.18033
#
# Poissons Ratio (x) = 0.21978 0.47475
# Poissons Ratio (y) = 0.14804 0.24765
# Poissons Ratio (z) = 0.26838 0.20784
#
# Static dielectric constant tensor:
#      x y z
#    x 3.710890 0.056680 0.118770 
#    y 0.056680 4.210760 -0.237700 
#    z 0.118770 -0.237700 3.814860 
# 
# 
# High freq. dielectric constant tensor:
#      x y z
#    x 1.784350 0.002100 0.016280 
#    y 0.002100 1.800660 -0.006790 
#    z 0.016280 -0.006790 1.795630 
# 
# From -- ./inp_files/577303.got.cif
#   From: 2010.06.25/outbox.cif.g09.slc.cpg/sg2_289_cif.got.tgz:577303.got - 2010.06.27 13:26:56.
