data_PCOD8019967
_publ_section_title
;
Structure prediction by ZEFSAII (Michael W. Deem and Ramdas Pophale) SiO2 
 PCOD8019967
Probable space group: P -1
;
_chemical_formula_sum "Si O2"
_cell_formula_units_Z 16
_cell_length_a 10.863661
_cell_length_b 21.077661
_cell_length_c 5.320378
_cell_angle_alpha 94.976095
_cell_angle_beta 82.194686
_cell_angle_gamma 147.640312
_cell_volume 645.113307
_symmetry_space_group_name_H-M "P -1"
_symmetry_group_IT_number 2
_symmetry_cell_setting 'triclinic'
loop_
_space_group_symop_operation_xyz
x,y,z
-x,-y,-z
loop_
_atom_site_type_symbol
_atom_site_label
_atom_site_fract_x
_atom_site_fract_y
_atom_site_fract_z
Si Si1 0.646998 0.970848 0.467662
Si Si2 0.493412 0.733859 0.089500
Si Si3 0.754234 0.151342 0.737881
Si Si4 0.881420 0.715818 0.965335
Si Si5 0.864146 0.838615 0.730965
Si Si6 0.100256 0.386340 0.420944
Si Si7 0.658009 0.263518 0.359051
Si Si8 0.546973 0.644264 0.356776
O O1 0.732305 0.074936 0.580078
O O2 0.874224 0.026768 0.361781
O O3 0.484967 0.912701 0.243997
O O4 0.493211 0.866688 0.683406
O O5 0.447483 0.756373 0.354734
O O6 0.437908 0.636123 0.145589
O O7 0.764215 0.846772 0.961653
O O8 0.350634 0.695642 0.871058
O O9 0.967091 0.285344 0.620963
O O10 0.843361 0.175199 0.002495
O O11 0.876309 0.771789 0.797621
O O12 0.796104 0.613749 0.827964
O O13 0.720867 0.663163 0.231160
O O14 0.685992 0.757708 0.517772
O O15 0.326459 0.518926 0.522290
O O16 0.928321 0.365575 0.351041
#
# Coordination Sequence:
#
# PCOD8019967 Si02
#       8
#     2   2   2   2   2   2   2   2
#     4  10  22  44  69 101 142 187 226 294 352 419
#     4  11  26  51  69 104 141 187 248 287 346 419
#     4  10  22  42  64 105 144 178 232 282 362 427
#     4  11  22  40  70 107 142 180 232 288 355 430
#     4  11  23  46  71 103 143 189 233 288 355 416
#     4  11  25  43  70 107 140 185 231 293 357 423
#     4  11  27  48  72 104 139 188 244 291 349 414
#     4  11  24  46  72 100 146 187 232 292 351 419
#
# _framework density 24.801842000000001
#
# number of rings (size 3 to 8) (size 9 to 14) (size 15 to 20)
#    0.000    1.250    3.750    0.375    3.500    7.500 
#    0.000    0.000    0.000    0.000    0.000    0.000 
#    0.000    0.000    0.000    0.000    0.000    0.000 
#
# Total GULP energy -198210.285500 kJ/mol
# GULP energy per Si atom -12388.142844 kJ/mol
# Density = 2.474539 g / cm^3
# Si number density = 24.801842 Si / 1000 Ang^3
#
#
#
# Elastic Constant Matrix: (Units=GPa)
#
#
# Indices 1 2 3 4 5 6 
#
# 1 107.4699 9.9464 31.6422 7.5537 13.2329 13.0300
# 2 9.9464 96.5370 5.8920 -10.2750 4.9639 24.9214
# 3 31.6422 5.8920 83.6634 -2.7781 8.2947 7.6104
# 4 7.5537 -10.2750 -2.7781 13.8522 8.3763 0.7133
# 5 13.2329 4.9639 8.2947 8.3763 22.9182 4.4324
# 6 13.0300 24.9214 7.6104 0.7133 4.4324 21.2847
#
#
#
# Elastic Compliance Matrix: (Units=1/GPa)
#
#
# Indices 1 2 3 4 5 6 
#
# 1 0.011763 -0.000202 -0.003955 -0.005729 -0.002279 -0.004884
# 2 -0.000202 0.018163 0.002130 0.019786 -0.007768 -0.020950
# 3 -0.003955 0.002130 0.014715 0.010943 -0.006669 -0.004313
# 4 -0.005729 0.019786 0.010943 0.120648 -0.045526 -0.018135
# 5 -0.002279 -0.007768 -0.006669 -0.045526 0.065539 0.000752
# 6 -0.004884 -0.020950 -0.004313 -0.018135 0.000752 0.076494
#
#
# Mechanical properties :
#
#
# Convention : Reuss Voigt Hill
#
# Bulk Modulus (GPa) = 24.63796 42.51462 33.57629
# Shear Modulus (GPa) = 15.38907 27.62370 21.50639
#
# Velocity S-wave (km/s) = 2.49365 3.34095 2.94790
# Velocity P-wave (km/s) = 4.27160 5.66229 5.01538
#
# Compressibility (1/GPa) = 0.04058778
#
# Stress axis : x y z
#
# Youngs Moduli (GPa) = 85.00928 55.05646 67.95690
#
# Poissons Ratio (x) = 0.01115 0.26876
# Poissons Ratio (y) = 0.01721 -0.14476
# Poissons Ratio (z) = 0.33620 -0.11728
#
# Static dielectric constant tensor:
#      x y z
#    x 4.914700 0.281860 0.076120 
#    y 0.281860 4.287690 -0.090430 
#    z 0.076120 -0.090430 4.245680 
# 
# 
# High freq. dielectric constant tensor:
#      x y z
#    x 2.013210 0.012920 0.004810 
#    y 0.012920 1.968300 -0.007860 
#    z 0.004810 -0.007860 1.966490 
# 
# From -- ./inp_files/84400.got.cif
#   From: 2010.06.25/outbox.cif.g09.slc.cpg/sg2_43_cif.got.tgz:84400.got - 2010.06.27 13:26:56.
