data_PCOD8019433
_publ_section_title
;
Structure prediction by ZEFSAII (Michael W. Deem and Ramdas Pophale) SiO2 
 PCOD8019433
Probable space group: P -1
;
_chemical_formula_sum "Si O2"
_cell_formula_units_Z 14
_cell_length_a 4.962778
_cell_length_b 20.807046
_cell_length_c 5.842578
_cell_angle_alpha 94.794608
_cell_angle_beta 109.120296
_cell_angle_gamma 77.684707
_cell_volume 556.847632
_symmetry_space_group_name_H-M "P -1"
_symmetry_group_IT_number 2
_symmetry_cell_setting 'triclinic'
loop_
_space_group_symop_operation_xyz
x,y,z
-x,-y,-z
loop_
_atom_site_type_symbol
_atom_site_label
_atom_site_fract_x
_atom_site_fract_y
_atom_site_fract_z
Si Si1 0.014376 0.616396 0.783973
Si Si2 0.884200 0.176643 0.444086
Si Si3 0.628174 0.634549 0.091450
Si Si4 0.344262 0.921516 0.912356
Si Si5 0.940879 0.942399 0.215066
Si Si6 0.654794 0.737721 0.465429
Si Si7 0.353397 0.489562 0.701453
O O1 0.050790 0.545308 0.640401
O O2 0.780463 0.676487 0.641994
O O3 0.329436 0.636497 0.871784
O O4 0.907876 0.605455 0.006423
O O5 0.706965 0.151891 0.179467
O O6 0.674564 0.231835 0.547945
O O7 0.004290 0.108521 0.581234
O O8 0.156735 0.206219 0.447358
O O9 0.642013 0.708562 0.197462
O O10 0.664094 0.587353 0.312703
O O11 0.171902 0.980947 0.717396
O O12 0.684911 0.921406 0.983938
O O13 0.232476 0.937360 0.144886
O O14 0.500000 0.500000 0.500000
O O15 0.500000 0.500000 0.000000
#
# Coordination Sequence:
#
# PCOD8019433 Si02
#       7
#     2   2   2   2   2   2   2
#     4  11  26  47  70 101 138 183 234 294 358 429
#     4  12  25  42  64 101 130 184 226 284 340 425
#     4  11  26  47  70 101 138 183 234 294 358 429
#     4  10  22  41  67  96 131 173 223 286 346 407
#     4  10  22  41  67  96 131 173 223 286 346 407
#     4  12  28  41  69  94 140 184 228 278 350 424
#     4  10  25  45  79 109 142 188 242 313 375 431
#
# _framework density 25.141529999999999
#
# number of rings (size 3 to 8) (size 9 to 14) (size 15 to 20)
#    0.000    1.143    0.000    4.286   10.000    7.429 
#    0.000    5.714    0.000    0.000    0.000    0.000 
#    0.000    0.000    0.000    0.000    0.000    0.000 
#
# Total GULP energy -173511.859219 kJ/mol
# GULP energy per Si atom -12393.704230 kJ/mol
# Density = 2.508431 g / cm^3
# Si number density = 25.141530 Si / 1000 Ang^3
#
#
#
# Elastic Constant Matrix: (Units=GPa)
#
#
# Indices 1 2 3 4 5 6 
#
# 1 85.1430 11.4849 7.7063 1.1225 -9.4952 -4.7913
# 2 11.4849 126.6069 34.0497 8.3482 1.6374 7.4068
# 3 7.7063 34.0497 55.3043 -2.4535 -17.6458 -7.4314
# 4 1.1225 8.3482 -2.4535 47.0840 0.3805 -0.6357
# 5 -9.4952 1.6374 -17.6458 0.3805 38.9134 0.9630
# 6 -4.7913 7.4068 -7.4314 -0.6357 0.9630 46.2703
#
#
#
# Elastic Compliance Matrix: (Units=1/GPa)
#
#
# Indices 1 2 3 4 5 6 
#
# 1 0.012333 -0.001324 0.000302 -0.000049 0.003166 0.001471
# 2 -0.001324 0.010643 -0.008304 -0.002294 -0.004437 -0.003114
# 3 0.000302 -0.008304 0.028203 0.002906 0.013044 0.005659
# 4 -0.000049 -0.002294 0.002906 0.021804 0.001162 0.001104
# 5 0.003166 -0.004437 0.013044 0.001162 0.032500 0.002473
# 6 0.001471 -0.003114 0.005659 0.001104 0.002473 0.023135
#
#
# Mechanical properties :
#
#
# Convention : Reuss Voigt Hill
#
# Bulk Modulus (GPa) = 30.74284 41.50399 36.12342
# Shear Modulus (GPa) = 31.62348 40.70775 36.16561
#
# Velocity S-wave (km/s) = 3.55042 4.02822 3.79685
# Velocity P-wave (km/s) = 5.39090 6.17895 5.79833
#
# Compressibility (1/GPa) = 0.03252790
#
# Stress axis : x y z
#
# Youngs Moduli (GPa) = 81.08544 93.96228 35.45692
#
# Poissons Ratio (x) = 0.12438 -0.01072
# Poissons Ratio (y) = 0.10734 0.29443
# Poissons Ratio (z) = -0.02450 0.78024
#
# Static dielectric constant tensor:
#      x y z
#    x 4.468120 0.087610 0.262080 
#    y 0.087610 5.003250 0.093490 
#    z 0.262080 0.093490 4.524400 
# 
# 
# High freq. dielectric constant tensor:
#      x y z
#    x 2.006020 0.001010 0.011690 
#    y 0.001010 2.027500 0.003810 
#    z 0.011690 0.003810 1.997330 
# 
# From -- ./inp_files/9723.got.cif
#   From: 2010.06.25/outbox.cif.g09.slc.cpg/sg2_5_cif.got.tgz:9723.got - 2010.06.27 13:26:56.
