data_PCOD8019740
_publ_section_title
;
Structure prediction by ZEFSAII (Michael W. Deem and Ramdas Pophale) SiO2 
 PCOD8019740
Probable space group: P -1
;
_chemical_formula_sum "Si O2"
_cell_formula_units_Z 16
_cell_length_a 15.263163
_cell_length_b 11.686700
_cell_length_c 9.147379
_cell_angle_alpha 71.180824
_cell_angle_beta 99.416464
_cell_angle_gamma 152.205508
_cell_volume 692.234080
_symmetry_space_group_name_H-M "P -1"
_symmetry_group_IT_number 2
_symmetry_cell_setting 'triclinic'
loop_
_space_group_symop_operation_xyz
x,y,z
-x,-y,-z
loop_
_atom_site_type_symbol
_atom_site_label
_atom_site_fract_x
_atom_site_fract_y
_atom_site_fract_z
Si Si1 0.026922 0.782799 0.062275
Si Si2 0.828807 0.309683 0.147136
Si Si3 0.249376 0.491605 0.435921
Si Si4 0.792669 0.283135 0.604372
Si Si5 0.342936 0.054469 0.512368
Si Si6 0.647007 0.994289 0.974701
Si Si7 0.868039 0.986113 0.690428
Si Si8 0.760964 0.591025 0.859825
O O1 0.223283 0.967192 0.966442
O O2 0.852940 0.470914 0.159790
O O3 0.081619 0.899370 0.186246
O O4 0.947754 0.791288 0.930206
O O5 0.818783 0.193922 0.315600
O O6 0.634832 0.063084 0.091418
O O7 0.000000 0.500000 0.000000
O O8 0.243573 0.618867 0.448031
O O9 0.450773 0.671585 0.465167
O O10 0.224298 0.460655 0.268010
O O11 0.069541 0.198915 0.575406
O O12 0.773819 0.214012 0.793555
O O13 0.000000 0.500000 0.500000
O O14 0.628188 0.012764 0.577169
O O15 0.262072 0.079549 0.412174
O O16 0.432526 0.692151 0.992956
O O17 0.743315 0.712933 0.782646
#
# Coordination Sequence:
#
# PCOD8019740 Si02
#       8
#     2   2   2   2   2   2   2   2
#     4  11  25  45  73 102 141 188 239 303 355 416
#     4  10  22  41  71 106 142 180 234 301 366 416
#     4  12  27  45  72 107 140 190 241 299 359 419
#     4  12  23  46  75 108 146 179 237 306 368 421
#     4  12  25  45  72 107 144 187 237 296 363 427
#     4  11  24  45  71 107 142 187 236 298 365 415
#     4  12  28  49  70 103 148 199 242 286 353 425
#     4  12  29  47  71 105 146 196 246 286 347 437
#
# _framework density 23.113567
#
# number of rings (size 3 to 8) (size 9 to 14) (size 15 to 20)
#    0.000    0.500    3.750    4.125    7.000    3.000 
#    0.000    0.000    0.000    0.000    0.000    0.000 
#    0.000    0.000    0.000    0.000    0.000    0.000 
#
# Total GULP energy -198384.912184 kJ/mol
# GULP energy per Si atom -12399.057011 kJ/mol
# Density = 2.306096 g / cm^3
# Si number density = 23.113567 Si / 1000 Ang^3
#
#
#
# Elastic Constant Matrix: (Units=GPa)
#
#
# Indices 1 2 3 4 5 6 
#
# 1 68.8457 40.8302 21.0572 6.3445 5.7479 0.6391
# 2 40.8302 88.0076 33.3052 2.2257 2.7034 6.5963
# 3 21.0572 33.3052 82.4755 22.3627 0.8526 -3.6309
# 4 6.3445 2.2257 22.3627 39.0563 2.1001 8.0090
# 5 5.7479 2.7034 0.8526 2.1001 33.4105 2.7813
# 6 0.6391 6.5963 -3.6309 8.0090 2.7813 32.6847
#
#
#
# Elastic Compliance Matrix: (Units=1/GPa)
#
#
# Indices 1 2 3 4 5 6 
#
# 1 0.020775 -0.009433 -0.000595 -0.002830 -0.002815 0.002364
# 2 -0.009433 0.018616 -0.006874 0.005561 0.000420 -0.005735
# 3 -0.000595 -0.006874 0.018394 -0.011333 0.000386 0.006186
# 4 -0.002830 0.005561 -0.011333 0.034480 -0.000951 -0.010694
# 5 -0.002815 0.000420 0.000386 -0.000951 0.030627 -0.002360
# 6 0.002364 -0.005735 0.006186 -0.010694 -0.002360 0.035215
#
#
# Mechanical properties :
#
#
# Convention : Reuss Voigt Hill
#
# Bulk Modulus (GPa) = 41.69597 47.74598 44.72098
# Shear Modulus (GPa) = 25.01206 30.63938 27.82572
#
# Velocity S-wave (km/s) = 3.29315 3.64483 3.47345
# Velocity P-wave (km/s) = 5.70426 6.19799 5.95624
#
# Compressibility (1/GPa) = 0.02398313
#
# Stress axis : x y z
#
# Youngs Moduli (GPa) = 48.13456 53.71602 54.36676
#
# Poissons Ratio (x) = 0.50668 0.03232
# Poissons Ratio (y) = 0.45403 0.37371
# Poissons Ratio (z) = 0.02862 0.36924
#
# Static dielectric constant tensor:
#      x y z
#    x 4.066290 -0.158960 -0.087360 
#    y -0.158960 4.603340 0.200070 
#    z -0.087360 0.200070 4.260350 
# 
# 
# High freq. dielectric constant tensor:
#      x y z
#    x 1.894890 -0.001750 -0.003610 
#    y -0.001750 1.923970 0.015890 
#    z -0.003610 0.015890 1.922890 
# 
# From -- ./inp_files/307071.got.cif
#   From: 2010.06.25/outbox.cif.g09.slc.cpg/sg2_154_cif.got.tgz:307071.got - 2010.06.27 13:26:56.
