data_PCOD8019567
_publ_section_title
;
Structure prediction by ZEFSAII (Michael W. Deem and Ramdas Pophale) SiO2 
 PCOD8019567
Probable space group: P -1
;
_chemical_formula_sum "Si O2"
_cell_formula_units_Z 16
_cell_length_a 15.649876
_cell_length_b 10.664112
_cell_length_c 10.069876
_cell_angle_alpha 71.777787
_cell_angle_beta 152.969567
_cell_angle_gamma 109.187233
_cell_volume 720.556769
_symmetry_space_group_name_H-M "P -1"
_symmetry_group_IT_number 2
_symmetry_cell_setting 'triclinic'
loop_
_space_group_symop_operation_xyz
x,y,z
-x,-y,-z
loop_
_atom_site_type_symbol
_atom_site_label
_atom_site_fract_x
_atom_site_fract_y
_atom_site_fract_z
Si Si1 0.234673 0.769498 0.414357
Si Si2 0.859597 0.288968 0.264740
Si Si3 0.146250 0.234685 0.471627
Si Si4 0.934142 0.041906 0.038732
Si Si5 0.377987 0.495550 0.698392
Si Si6 0.369085 0.491810 0.193885
Si Si7 0.546389 0.148336 0.052851
Si Si8 0.094505 0.252113 0.852389
O O1 0.330949 0.641975 0.548447
O O2 0.323308 0.846157 0.639707
O O3 0.016720 0.728313 0.170708
O O4 0.239948 0.870499 0.261483
O O5 0.660301 0.211606 0.061697
O O6 0.977619 0.203066 0.356169
O O7 0.991608 0.319039 0.566137
O O8 0.809536 0.421734 0.074869
O O9 0.181177 0.395990 0.453702
O O10 0.092744 0.142372 0.300517
O O11 0.357278 0.209162 0.815282
O O12 0.879406 0.904138 0.089530
O O13 0.000000 0.000000 0.000000
O O14 0.510397 0.447612 0.783884
O O15 0.500000 0.500000 0.000000
O O16 0.500000 0.500000 0.500000
O O17 0.298088 0.336445 0.123003
O O18 0.500000 0.000000 0.000000
#
# Coordination Sequence:
#
# PCOD8019567 Si02
#       8
#     2   2   2   2   2   2   2   2
#     4  10  22  41  68  98 134 181 231 284 357 406
#     4  11  24  45  69 104 136 183 237 284 359 413
#     4  12  24  43  75  99 138 184 239 286 345 429
#     4  10  24  42  68  98 136 186 227 285 357 412
#     4  12  23  44  71 101 136 183 238 287 349 420
#     4  12  27  42  70 106 142 181 232 305 358 405
#     4  11  23  43  71 101 139 187 234 288 338 428
#     4  10  22  45  67  94 143 179 229 285 350 427
#
# _framework density 22.205052999999999
#
# number of rings (size 3 to 8) (size 9 to 14) (size 15 to 20)
#    0.000    1.000    2.500    4.875    5.250    3.500 
#    0.000    0.625    0.000    0.000    0.000    0.000 
#    0.000    0.000    0.000    0.000    0.000    0.000 
#
# Total GULP energy -198266.457537 kJ/mol
# GULP energy per Si atom -12391.653596 kJ/mol
# Density = 2.215451 g / cm^3
# Si number density = 22.205053 Si / 1000 Ang^3
#
#
#
# Elastic Constant Matrix: (Units=GPa)
#
#
# Indices 1 2 3 4 5 6 
#
# 1 99.5877 21.4654 42.5888 3.2729 8.5977 -3.5077
# 2 21.4654 149.9026 71.5545 10.1086 -1.1219 0.3390
# 3 42.5888 71.5545 124.0636 -7.4095 -10.4523 9.6085
# 4 3.2729 10.1086 -7.4095 45.4292 -8.0164 -3.4795
# 5 8.5977 -1.1219 -10.4523 -8.0164 36.1237 -2.2783
# 6 -3.5077 0.3390 9.6085 -3.4795 -2.2783 21.7847
#
#
#
# Elastic Compliance Matrix: (Units=1/GPa)
#
#
# Indices 1 2 3 4 5 6 
#
# 1 0.013052 0.001160 -0.006048 -0.002816 -0.005208 0.003756
# 2 0.001160 0.009947 -0.006741 -0.003691 -0.002602 0.002144
# 3 -0.006048 -0.006741 0.015346 0.005099 0.006414 -0.006152
# 4 -0.002816 -0.003691 0.005099 0.025418 0.007812 0.002232
# 5 -0.005208 -0.002602 0.006414 0.007812 0.032495 0.001019
# 6 0.003756 0.002144 -0.006152 0.002232 0.001019 0.049652
#
#
# Mechanical properties :
#
#
# Convention : Reuss Voigt Hill
#
# Bulk Modulus (GPa) = 66.27742 71.64127 68.95934
# Shear Modulus (GPa) = 28.70323 36.53054 32.61688
#
# Velocity S-wave (km/s) = 3.59924 4.06044 3.83677
# Velocity P-wave (km/s) = 6.86916 7.36997 7.12397
#
# Compressibility (1/GPa) = 0.01508810
#
# Stress axis : x y z
#
# Youngs Moduli (GPa) = 76.61584 100.53017 65.16450
#
# Poissons Ratio (x) = -0.11664 0.39409
# Poissons Ratio (y) = -0.08889 0.43928
# Poissons Ratio (z) = 0.46335 0.67768
#
# Static dielectric constant tensor:
#      x y z
#    x 3.731080 0.129910 0.005190 
#    y 0.129910 4.362920 -0.469920 
#    z 0.005190 -0.469920 4.513170 
# 
# 
# High freq. dielectric constant tensor:
#      x y z
#    x 1.854280 -0.006710 0.002040 
#    y -0.006710 1.887950 -0.006550 
#    z 0.002040 -0.006550 1.874610 
# 
# From -- ./inp_files/307223.got.cif
#   From: 2010.06.25/outbox.cif.g09.slc.cpg/sg2_154_cif.got.tgz:307223.got - 2010.06.27 13:26:56.
