data_PCOD8019878
_publ_section_title
;
Structure prediction by ZEFSAII (Michael W. Deem and Ramdas Pophale) SiO2 
 PCOD8019878
Probable space group: P -1
;
_chemical_formula_sum "Si O2"
_cell_formula_units_Z 12
_cell_length_a 15.778884
_cell_length_b 16.510582
_cell_length_c 13.686350
_cell_angle_alpha 31.925634
_cell_angle_beta 149.839568
_cell_angle_gamma 161.573004
_cell_volume 557.102013
_symmetry_space_group_name_H-M "P -1"
_symmetry_group_IT_number 2
_symmetry_cell_setting 'triclinic'
loop_
_space_group_symop_operation_xyz
x,y,z
-x,-y,-z
loop_
_atom_site_type_symbol
_atom_site_label
_atom_site_fract_x
_atom_site_fract_y
_atom_site_fract_z
Si Si1 0.491178 0.358524 0.365379
Si Si2 0.161568 0.772471 0.906939
Si Si3 0.997739 0.841204 0.492725
Si Si4 0.143141 0.815325 0.243327
Si Si5 0.977231 0.159862 0.109629
Si Si6 0.414011 0.695367 0.689086
O O1 0.797014 0.580017 0.497617
O O2 0.316307 0.384632 0.193724
O O3 0.522017 0.375458 0.262115
O O4 0.308056 0.075964 0.508150
O O5 0.040213 0.815167 0.671552
O O6 0.076089 0.751870 0.952692
O O7 0.000000 0.500000 0.000000
O O8 0.500000 0.000000 0.000000
O O9 0.853222 0.904674 0.284882
O O10 0.291845 0.760348 0.454051
O O11 0.811166 0.553671 0.209540
O O12 0.295027 0.052232 0.221474
O O13 0.181516 0.902604 0.082364
#
# Coordination Sequence:
#
# PCOD8019878 Si02
#       6
#     2   2   2   2   2   2
#     4  10  23  41  69  94 131 179 206 273 315 395
#     4  12  28  45  70  99 128 172 217 274 326 391
#     4  10  24  44  65  98 130 172 210 272 324 381
#     4  10  23  39  65  94 132 173 215 266 317 383
#     4  10  27  42  69  97 132 172 220 266 327 388
#     4  10  22  42  61  96 134 172 215 265 319 376
#
# _framework density 21.540040000000001
#
# number of rings (size 3 to 8) (size 9 to 14) (size 15 to 20)
#    1.000    0.667    0.000    2.500    9.333    2.000 
#    0.000    0.000    0.000    0.000    0.000    0.000 
#    0.000    0.000    0.000    0.000    0.000    0.000 
#
# Total GULP energy -148774.655340 kJ/mol
# GULP energy per Si atom -12397.887945 kJ/mol
# Density = 2.149101 g / cm^3
# Si number density = 21.540040 Si / 1000 Ang^3
#
#
#
# Elastic Constant Matrix: (Units=GPa)
#
#
# Indices 1 2 3 4 5 6 
#
# 1 159.2030 52.3785 47.0612 5.8208 -13.6638 -13.3963
# 2 52.3785 168.6977 41.2913 5.5458 -4.6657 -8.7428
# 3 47.0612 41.2913 123.0088 4.6985 -27.0044 -8.0009
# 4 5.8208 5.5458 4.6985 22.2244 -6.6568 -7.9551
# 5 -13.6638 -4.6657 -27.0044 -6.6568 28.3456 6.3481
# 6 -13.3963 -8.7428 -8.0009 -7.9551 6.3481 26.5857
#
#
#
# Elastic Compliance Matrix: (Units=1/GPa)
#
#
# Indices 1 2 3 4 5 6 
#
# 1 0.007744 -0.001761 -0.001993 0.000022 0.000991 0.002493
# 2 -0.001761 0.007002 -0.002036 -0.001145 -0.002121 0.000967
# 3 -0.001993 -0.002036 0.011772 0.001589 0.010320 -0.000119
# 4 0.000022 -0.001145 0.001589 0.052958 0.010775 0.013386
# 5 0.000991 -0.002121 0.010320 0.010775 0.049018 -0.005573
# 6 0.002493 0.000967 -0.000119 0.013386 -0.005573 0.044489
#
#
# Mechanical properties :
#
#
# Convention : Reuss Voigt Hill
#
# Bulk Modulus (GPa) = 66.93638 81.37460 74.15549
# Shear Modulus (GPa) = 26.37964 36.10972 31.24468
#
# Velocity S-wave (km/s) = 3.50334 4.09883 3.81273
# Velocity P-wave (km/s) = 6.89255 7.76278 7.34058
#
# Compressibility (1/GPa) = 0.01493956
#
# Stress axis : x y z
#
# Youngs Moduli (GPa) = 129.13794 142.82067 84.94577
#
# Poissons Ratio (x) = 0.25146 0.16926
# Poissons Ratio (y) = 0.22737 0.17293
# Poissons Ratio (z) = 0.25732 0.29075
#
# Static dielectric constant tensor:
#      x y z
#    x 3.632370 0.020480 -0.087610 
#    y 0.020480 3.899140 -0.002530 
#    z -0.087610 -0.002530 3.806360 
# 
# 
# High freq. dielectric constant tensor:
#      x y z
#    x 1.836520 -0.002110 -0.011470 
#    y -0.002110 1.850000 0.001930 
#    z -0.011470 0.001930 1.846280 
# 
# From -- ./inp_files/57407.got.cif
#   From: 2010.06.25/outbox.cif.g09.slc.cpg/sg2_29_cif.got.tgz:57407.got - 2010.06.27 13:26:56.
