data_PCOD8019111
_publ_section_title
;
Structure prediction by ZEFSAII (Michael W. Deem and Ramdas Pophale) SiO2 
 PCOD8019111
Probable space group: P -1
;
_chemical_formula_sum "Si O2"
_cell_formula_units_Z 14
_cell_length_a 24.620383
_cell_length_b 5.200672
_cell_length_c 15.388798
_cell_angle_alpha 95.700085
_cell_angle_beta 160.785486
_cell_angle_gamma 76.272690
_cell_volume 580.007904
_symmetry_space_group_name_H-M "P -1"
_symmetry_group_IT_number 2
_symmetry_cell_setting 'triclinic'
loop_
_space_group_symop_operation_xyz
x,y,z
-x,-y,-z
loop_
_atom_site_type_symbol
_atom_site_label
_atom_site_fract_x
_atom_site_fract_y
_atom_site_fract_z
Si Si1 0.662743 0.847531 0.311288
Si Si2 0.653404 0.451939 0.604165
Si Si3 0.069355 0.486467 0.861384
Si Si4 0.002304 0.809608 0.613926
Si Si5 0.803171 0.406344 0.270798
Si Si6 0.610600 0.394962 0.338826
Si Si7 0.657138 0.097018 0.753459
O O1 0.606980 0.669872 0.292014
O O2 0.850322 0.608866 0.544599
O O3 0.721076 0.085154 0.448800
O O4 0.500000 0.000000 0.000000
O O5 0.685430 0.382961 0.548493
O O6 0.701132 0.176010 0.726789
O O7 0.438125 0.658238 0.308023
O O8 0.809895 0.558139 0.870373
O O9 0.110996 0.703931 0.866541
O O10 0.154774 0.167251 0.934744
O O11 0.891795 0.618836 0.431766
O O12 0.146650 0.741422 0.752654
O O13 0.863963 0.144954 0.422407
O O14 0.588868 0.594122 0.959060
O O15 0.500000 0.000000 0.500000
#
# Coordination Sequence:
#
# PCOD8019111 Si02
#       7
#     2   2   2   2   2   2   2
#     4  12  29  50  74 101 139 198 245 291 345 414
#     4  10  25  43  71 109 139 186 230 295 368 424
#     4  11  25  43  72  98 144 185 237 291 351 425
#     4  10  23  40  67 101 131 178 228 295 357 415
#     4  10  22  41  64  99 135 173 233 290 357 407
#     4  12  27  46  73 100 146 187 238 296 345 424
#     4   9  22  43  68 106 143 182 231 283 363 431
#
# _framework density 24.137601
#
# number of rings (size 3 to 8) (size 9 to 14) (size 15 to 20)
#    0.000    1.429    0.000    3.000   14.000    3.429 
#    0.000    0.000    0.000    0.000    0.000    0.000 
#    0.000    0.000    0.000    0.000    0.000    0.000 
#
# Total GULP energy -173484.442774 kJ/mol
# GULP energy per Si atom -12391.745912 kJ/mol
# Density = 2.408266 g / cm^3
# Si number density = 24.137601 Si / 1000 Ang^3
#
#
#
# Elastic Constant Matrix: (Units=GPa)
#
#
# Indices 1 2 3 4 5 6 
#
# 1 103.8040 10.8760 45.1885 -3.0251 -16.8374 7.3999
# 2 10.8760 84.7343 35.6754 -11.6212 -6.2865 18.0166
# 3 45.1885 35.6754 140.8416 -23.0698 -4.5767 -6.0408
# 4 -3.0251 -11.6212 -23.0698 30.2378 -10.8171 -2.3438
# 5 -16.8374 -6.2865 -4.5767 -10.8171 41.6743 -1.6845
# 6 7.3999 18.0166 -6.0408 -2.3438 -1.6845 38.2105
#
#
#
# Elastic Compliance Matrix: (Units=1/GPa)
#
#
# Indices 1 2 3 4 5 6 
#
# 1 0.012359 0.001284 -0.004333 -0.000234 0.004509 -0.003500
# 2 0.001284 0.015756 -0.004063 0.003558 0.003051 -0.007967
# 3 -0.004333 -0.004063 0.010909 0.007018 0.000856 0.004948
# 4 -0.000234 0.003558 0.007018 0.044601 0.012902 0.002782
# 5 0.004509 0.003051 0.000856 0.012902 0.029718 -0.000075
# 6 -0.003500 -0.007967 0.004948 0.002782 -0.000075 0.031555
#
#
# Mechanical properties :
#
#
# Convention : Reuss Voigt Hill
#
# Bulk Modulus (GPa) = 40.31975 56.98439 48.65207
# Shear Modulus (GPa) = 29.87117 37.86721 33.86919
#
# Velocity S-wave (km/s) = 3.52168 3.96511 3.74996
# Velocity P-wave (km/s) = 5.76860 6.67999 6.24095
#
# Compressibility (1/GPa) = 0.02480174
#
# Stress axis : x y z
#
# Youngs Moduli (GPa) = 80.91196 63.46937 91.66816
#
# Poissons Ratio (x) = -0.08152 0.39716
# Poissons Ratio (y) = -0.10392 0.37243
# Poissons Ratio (z) = 0.35055 0.25786
#
# Static dielectric constant tensor:
#      x y z
#    x 4.576620 -0.186970 0.025230 
#    y -0.186970 5.220840 -0.267490 
#    z 0.025230 -0.267490 4.639560 
# 
# 
# High freq. dielectric constant tensor:
#      x y z
#    x 1.947750 0.005910 -0.003940 
#    y 0.005910 1.979960 0.000490 
#    z -0.003940 0.000490 1.967290 
# 
# From -- ./inp_files/542173.got.cif
#   From: 2010.06.25/outbox.cif.g09.slc.cpg/sg2_272_cif.got.tgz:542173.got - 2010.06.27 13:26:56.
