data_PCOD8019673
_publ_section_title
;
Structure prediction by ZEFSAII (Michael W. Deem and Ramdas Pophale) SiO2 
 PCOD8019673
Probable space group: P -1
;
_chemical_formula_sum "Si O2"
_cell_formula_units_Z 14
_cell_length_a 18.222667
_cell_length_b 9.082392
_cell_length_c 12.911319
_cell_angle_alpha 42.987076
_cell_angle_beta 152.180243
_cell_angle_gamma 119.674585
_cell_volume 597.510865
_symmetry_space_group_name_H-M "P -1"
_symmetry_group_IT_number 2
_symmetry_cell_setting 'triclinic'
loop_
_space_group_symop_operation_xyz
x,y,z
-x,-y,-z
loop_
_atom_site_type_symbol
_atom_site_label
_atom_site_fract_x
_atom_site_fract_y
_atom_site_fract_z
Si Si1 0.845293 0.027187 0.370989
Si Si2 0.214098 0.415099 0.500556
Si Si3 0.573427 0.787636 0.517260
Si Si4 0.059069 0.727772 0.472069
Si Si5 0.554798 0.571129 0.398555
Si Si6 0.088502 0.350050 0.856972
Si Si7 0.397907 0.344438 0.970736
O O1 0.894495 0.071346 0.526287
O O2 0.847374 0.772533 0.523932
O O3 0.651144 0.236996 0.983666
O O4 0.000000 0.000000 0.500000
O O5 0.310945 0.495102 0.495107
O O6 0.039801 0.650372 0.209920
O O7 0.351298 0.281203 0.833043
O O8 0.631072 0.678854 0.528907
O O9 0.431747 0.692033 0.420013
O O10 0.506946 0.076777 0.295727
O O11 0.728330 0.686017 0.848663
O O12 0.996685 0.618842 0.547188
O O13 0.908135 0.834843 0.136046
O O14 0.234771 0.501310 0.761118
O O15 0.500000 0.500000 0.000000
#
# Coordination Sequence:
#
# PCOD8019673 Si02
#       7
#     2   2   2   2   2   2   2
#     4  12  21  41  73 103 131 186 235 280 336 416
#     4  11  23  44  71 100 138 185 238 280 343 419
#     4  11  24  45  70 104 142 179 231 294 346 411
#     4  10  22  41  69  99 140 184 231 274 350 418
#     4  11  24  41  73 107 138 178 234 293 350 397
#     4  10  22  44  68  99 141 182 230 285 346 410
#     4  11  25  43  72 102 138 185 233 284 350 416
#
# _framework density 23.430537000000001
#
# number of rings (size 3 to 8) (size 9 to 14) (size 15 to 20)
#    0.000    1.143    4.286    1.286    2.000    1.143 
#    0.000    2.857    6.286    0.000    0.000    0.000 
#    0.000    0.000    0.000    0.000    0.000    0.000 
#
# Total GULP energy -173444.317213 kJ/mol
# GULP energy per Si atom -12388.879801 kJ/mol
# Density = 2.337721 g / cm^3
# Si number density = 23.430537 Si / 1000 Ang^3
#
#
#
# Elastic Constant Matrix: (Units=GPa)
#
#
# Indices 1 2 3 4 5 6 
#
# 1 141.1217 44.3239 23.2056 1.0469 6.5943 -2.4140
# 2 44.3239 173.3134 51.8387 24.8985 -8.6580 -17.0857
# 3 23.2056 51.8387 42.6313 23.0937 -6.8734 -7.2295
# 4 1.0469 24.8985 23.0937 43.4220 -3.9942 -16.3568
# 5 6.5943 -8.6580 -6.8734 -3.9942 22.3125 10.9202
# 6 -2.4140 -17.0857 -7.2295 -16.3568 10.9202 44.6820
#
#
#
# Elastic Compliance Matrix: (Units=1/GPa)
#
#
# Indices 1 2 3 4 5 6 
#
# 1 0.008626 -0.001039 -0.005972 0.003742 -0.004945 0.001681
# 2 -0.001039 0.009442 -0.011415 0.001537 -0.000433 0.002376
# 3 -0.005972 -0.011415 0.054463 -0.024039 0.013742 -0.008034
# 4 0.003742 0.001537 -0.024039 0.039063 -0.007274 0.012978
# 5 -0.004945 -0.000433 0.013742 -0.007274 0.056190 -0.014605
# 6 0.001681 0.002376 -0.008034 0.012978 -0.014605 0.030400
#
#
# Mechanical properties :
#
#
# Convention : Reuss Voigt Hill
#
# Bulk Modulus (GPa) = 28.02700 66.20031 47.11365
# Shear Modulus (GPa) = 20.24878 37.92984 29.08931
#
# Velocity S-wave (km/s) = 2.94293 4.02782 3.52733
# Velocity P-wave (km/s) = 4.85134 7.06727 6.06143
#
# Compressibility (1/GPa) = 0.03567988
#
# Stress axis : x y z
#
# Youngs Moduli (GPa) = 115.92290 105.91459 18.36110
#
# Poissons Ratio (x) = 0.11004 0.10965
# Poissons Ratio (y) = 0.12043 0.20959
# Poissons Ratio (z) = 0.69226 1.20901
#
# Static dielectric constant tensor:
#      x y z
#    x 4.331410 -0.142430 -0.021140 
#    y -0.142430 4.758760 0.494620 
#    z -0.021140 0.494620 4.001580 
# 
# 
# High freq. dielectric constant tensor:
#      x y z
#    x 1.933450 -0.008560 0.002120 
#    y -0.008560 1.948370 0.028260 
#    z 0.002120 0.028260 1.895910 
# 
# From -- ./inp_files/172064.got.cif
#   From: 2010.06.25/outbox.cif.g09.slc.cpg/sg2_87_cif.got.tgz:172064.got - 2010.06.27 13:26:56.
