data_PCOD8019597
_publ_section_title
;
Structure prediction by ZEFSAII (Michael W. Deem and Ramdas Pophale) SiO2 
 PCOD8019597
Probable space group: P -1
;
_chemical_formula_sum "Si O2"
_cell_formula_units_Z 16
_cell_length_a 15.333733
_cell_length_b 9.177631
_cell_length_c 21.317704
_cell_angle_alpha 134.222429
_cell_angle_beta 20.157621
_cell_angle_gamma 133.469099
_cell_volume 734.123812
_symmetry_space_group_name_H-M "P -1"
_symmetry_group_IT_number 2
_symmetry_cell_setting 'triclinic'
loop_
_space_group_symop_operation_xyz
x,y,z
-x,-y,-z
loop_
_atom_site_type_symbol
_atom_site_label
_atom_site_fract_x
_atom_site_fract_y
_atom_site_fract_z
Si Si1 0.256336 0.840489 0.130192
Si Si2 0.677006 0.631505 0.308895
Si Si3 0.276476 0.641072 0.192210
Si Si4 0.338378 0.441782 0.893755
Si Si5 0.917143 0.247872 0.029460
Si Si6 0.455195 0.131970 0.813194
Si Si7 0.231491 0.030379 0.554595
Si Si8 0.246201 0.635364 0.502659
O O1 0.253608 0.752596 0.175419
O O2 0.245388 0.660742 0.031861
O O3 0.017202 0.960060 0.316408
O O4 0.500000 0.000000 0.000000
O O5 0.689196 0.388233 0.236258
O O6 0.424183 0.669356 0.453817
O O7 0.669438 0.750181 0.415194
O O8 0.943605 0.713076 0.119309
O O9 0.340824 0.821360 0.254627
O O10 0.010920 0.508482 0.349747
O O11 0.500000 0.500000 0.000000
O O12 0.376792 0.349249 0.908819
O O13 0.604344 0.471911 0.684757
O O14 0.126122 0.287293 0.954839
O O15 0.795930 0.011786 0.037129
O O16 0.553581 0.022172 0.653408
O O17 0.178817 0.855123 0.590822
#
# Coordination Sequence:
#
# PCOD8019597 Si02
#       8
#     2   2   2   2   2   2   2   2
#     4  12  27  43  71  99 138 181 226 280 339 406
#     4  10  22  42  70 100 134 181 223 280 337 395
#     4  12  27  47  68 100 133 181 228 279 342 403
#     4  10  22  47  68 102 135 183 220 278 341 398
#     4  10  22  41  69 102 137 175 229 278 332 399
#     4  11  26  42  69  98 138 179 229 277 337 403
#     4  11  25  44  67 105 135 180 225 280 339 397
#     4  10  25  44  73  98 139 176 226 278 336 407
#
# _framework density 21.794688000000001
#
# number of rings (size 3 to 8) (size 9 to 14) (size 15 to 20)
#    0.000    1.250    2.500    1.500    7.000    3.000 
#    0.000    0.000    0.000    0.000    0.000    0.000 
#    0.000    0.000    0.000    0.000    0.000    0.000 
#
# Total GULP energy -198461.102999 kJ/mol
# GULP energy per Si atom -12403.818937 kJ/mol
# Density = 2.174508 g / cm^3
# Si number density = 21.794688 Si / 1000 Ang^3
#
#
#
# Elastic Constant Matrix: (Units=GPa)
#
#
# Indices 1 2 3 4 5 6 
#
# 1 117.9297 30.8485 35.9507 -2.9672 -13.5687 -1.5072
# 2 30.8485 90.9476 48.1064 -19.3013 -2.2371 4.5583
# 3 35.9507 48.1064 83.8382 -5.9789 -16.5074 -6.6730
# 4 -2.9672 -19.3013 -5.9789 40.5814 1.0480 -1.7123
# 5 -13.5687 -2.2371 -16.5074 1.0480 34.8490 9.6874
# 6 -1.5072 4.5583 -6.6730 -1.7123 9.6874 39.1842
#
#
#
# Elastic Compliance Matrix: (Units=1/GPa)
#
#
# Indices 1 2 3 4 5 6 
#
# 1 0.010134 -0.002055 -0.002731 -0.000731 0.002690 -0.000533
# 2 -0.002055 0.018742 -0.010355 0.007225 -0.003961 -0.002728
# 3 -0.002731 -0.010355 0.020541 -0.002174 0.007318 0.002693
# 4 -0.000731 0.007225 -0.002174 0.027769 -0.001802 0.000420
# 5 0.002690 -0.003961 0.007318 -0.001802 0.034928 -0.006903
# 6 -0.000533 -0.002728 0.002693 0.000420 -0.006903 0.028001
#
#
# Mechanical properties :
#
#
# Convention : Reuss Voigt Hill
#
# Bulk Modulus (GPa) = 52.26002 58.05851 55.15926
# Shear Modulus (GPa) = 28.28434 34.77691 31.53063
#
# Velocity S-wave (km/s) = 3.60636 3.99890 3.80769
# Velocity P-wave (km/s) = 6.43206 6.92953 6.68542
#
# Compressibility (1/GPa) = 0.01913509
#
# Stress axis : x y z
#
# Youngs Moduli (GPa) = 98.67631 53.35554 48.68318
#
# Poissons Ratio (x) = 0.10963 0.13298
# Poissons Ratio (y) = 0.20276 0.50411
# Poissons Ratio (z) = 0.26953 0.55249
#
# Static dielectric constant tensor:
#      x y z
#    x 4.099250 -0.205800 -0.095150 
#    y -0.205800 4.048760 0.233370 
#    z -0.095150 0.233370 3.971060 
# 
# 
# High freq. dielectric constant tensor:
#      x y z
#    x 1.869530 -0.002720 -0.003060 
#    y -0.002720 1.856750 0.006200 
#    z -0.003060 0.006200 1.856880 
# 
# From -- ./inp_files/299442.got.cif
#   From: 2010.06.25/outbox.cif.g09.slc.cpg/sg2_150_cif.got.tgz:299442.got - 2010.06.27 13:26:56.
