data_PCOD8019646
_publ_section_title
;
Structure prediction by ZEFSAII (Michael W. Deem and Ramdas Pophale) SiO2 
 PCOD8019646
Probable space group: P -1
;
_chemical_formula_sum "Si O2"
_cell_formula_units_Z 14
_cell_length_a 11.485465
_cell_length_b 13.405062
_cell_length_c 13.243522
_cell_angle_alpha 31.637302
_cell_angle_beta 61.816997
_cell_angle_gamma 44.256893
_cell_volume 691.765280
_symmetry_space_group_name_H-M "P -1"
_symmetry_group_IT_number 2
_symmetry_cell_setting 'triclinic'
loop_
_space_group_symop_operation_xyz
x,y,z
-x,-y,-z
loop_
_atom_site_type_symbol
_atom_site_label
_atom_site_fract_x
_atom_site_fract_y
_atom_site_fract_z
Si Si1 0.745954 0.598229 0.490209
Si Si2 0.905219 0.052903 0.596577
Si Si3 0.631120 0.983332 0.035103
Si Si4 0.493065 0.515813 0.608988
Si Si5 0.044385 0.118182 0.664016
Si Si6 0.014438 0.725587 0.010823
Si Si7 0.704754 0.806188 0.546536
O O1 0.643618 0.502231 0.603248
O O2 0.739362 0.659839 0.555748
O O3 0.948994 0.354839 0.578632
O O4 0.652300 0.852721 0.243645
O O5 0.924161 0.214352 0.527374
O O6 0.988482 0.785526 0.849019
O O7 0.000000 0.000000 0.500000
O O8 0.699766 0.217201 0.509714
O O9 0.530484 0.276288 0.850143
O O10 0.500000 0.000000 0.000000
O O11 0.827097 0.830793 0.039884
O O12 0.500000 0.500000 0.500000
O O13 0.233748 0.033790 0.630043
O O14 0.069711 0.879094 0.904917
O O15 0.171479 0.419071 0.226504
O O16 0.500000 0.000000 0.500000
#
# Coordination Sequence:
#
# PCOD8019646 Si02
#       7
#     2   2   2   2   2   2   2
#     4  12  24  41  70  97 130 176 221 273 323 389
#     4  10  22  41  69  96 134 170 208 270 342 393
#     4  12  21  37  70 105 133 165 218 274 330 391
#     4  12  20  41  65 102 133 165 217 274 328 395
#     4  10  22  45  66  95 129 167 226 271 318 389
#     4  10  23  43  69  94 134 173 217 272 333 379
#     4  12  29  46  64  95 136 177 229 271 322 396
#
# _framework density 20.238078999999999
#
# number of rings (size 3 to 8) (size 9 to 14) (size 15 to 20)
#    0.857    0.000    7.143    0.429    2.000    3.429 
#    0.000    0.714    0.000    0.000    0.000    0.000 
#    0.000    0.000    0.000    0.000    0.000    0.000 
#
# Total GULP energy -173535.357329 kJ/mol
# GULP energy per Si atom -12395.382666 kJ/mol
# Density = 2.019202 g / cm^3
# Si number density = 20.238079 Si / 1000 Ang^3
#
#
#
# Elastic Constant Matrix: (Units=GPa)
#
#
# Indices 1 2 3 4 5 6 
#
# 1 82.6987 27.5703 23.7295 2.0437 -15.0416 -29.0147
# 2 27.5703 115.9941 31.7985 -1.4842 8.0991 -17.4050
# 3 23.7295 31.7985 122.1157 0.7185 -4.1561 -17.6910
# 4 2.0437 -1.4842 0.7185 25.6515 -6.7053 6.3103
# 5 -15.0416 8.0991 -4.1561 -6.7053 32.4500 0.5708
# 6 -29.0147 -17.4050 -17.6910 6.3103 0.5708 39.3431
#
#
#
# Elastic Compliance Matrix: (Units=1/GPa)
#
#
# Indices 1 2 3 4 5 6 
#
# 1 0.019646 -0.003165 -0.000785 -0.002566 0.009037 0.013016
# 2 -0.003165 0.010470 -0.002036 -0.000643 -0.004501 0.001551
# 3 -0.000785 -0.002036 0.009322 -0.000709 0.001142 0.002809
# 4 -0.002566 -0.000643 -0.000709 0.043645 0.008068 -0.009613
# 5 0.009037 -0.004501 0.001142 0.008068 0.037884 0.003343
# 6 0.013016 0.001551 0.002809 -0.009613 0.003343 0.038459
#
#
# Mechanical properties :
#
#
# Convention : Reuss Voigt Hill
#
# Bulk Modulus (GPa) = 36.40963 54.11167 45.26065
# Shear Modulus (GPa) = 27.69262 35.33629 31.51445
#
# Velocity S-wave (km/s) = 3.70312 4.18309 3.95040
# Velocity P-wave (km/s) = 6.02610 7.08001 6.57421
#
# Compressibility (1/GPa) = 0.02746526
#
# Stress axis : x y z
#
# Youngs Moduli (GPa) = 50.90027 95.50746 107.27645
#
# Poissons Ratio (x) = 0.30230 0.08423
# Poissons Ratio (y) = 0.16111 0.21843
# Poissons Ratio (z) = 0.03997 0.19447
#
# Static dielectric constant tensor:
#      x y z
#    x 3.770670 -0.157640 -0.084610 
#    y -0.157640 3.214820 0.328730 
#    z -0.084610 0.328730 3.705930 
# 
# 
# High freq. dielectric constant tensor:
#      x y z
#    x 1.795830 -0.021860 -0.004270 
#    y -0.021860 1.774660 0.009650 
#    z -0.004270 0.009650 1.791620 
# 
# From -- ./inp_files/497771.got.cif
#   From: 2010.06.25/outbox.cif.g09.slc.cpg/sg2_249_cif.got.tgz:497771.got - 2010.06.27 13:26:56.
