data_PCOD8019757
_publ_section_title
;
Structure prediction by ZEFSAII (Michael W. Deem and Ramdas Pophale) SiO2 
 PCOD8019757
Probable space group: P -1
;
_chemical_formula_sum "Si O2"
_cell_formula_units_Z 16
_cell_length_a 22.254365
_cell_length_b 13.083234
_cell_length_c 9.273688
_cell_angle_alpha 45.728965
_cell_angle_beta 37.158858
_cell_angle_gamma 26.132521
_cell_volume 716.801871
_symmetry_space_group_name_H-M "P -1"
_symmetry_group_IT_number 2
_symmetry_cell_setting 'triclinic'
loop_
_space_group_symop_operation_xyz
x,y,z
-x,-y,-z
loop_
_atom_site_type_symbol
_atom_site_label
_atom_site_fract_x
_atom_site_fract_y
_atom_site_fract_z
Si Si1 0.442205 0.573931 0.377285
Si Si2 0.120605 0.086973 0.514836
Si Si3 0.387314 0.843462 0.722352
Si Si4 0.893045 0.614206 0.892703
Si Si5 0.746503 0.721060 0.370082
Si Si6 0.045351 0.177850 0.905321
Si Si7 0.591334 0.588876 0.850746
Si Si8 0.068912 0.894842 0.316091
O O1 0.500000 0.500000 0.500000
O O2 0.486893 0.370255 0.420096
O O3 0.251328 0.815744 0.502297
O O4 0.523063 0.623972 0.103137
O O5 0.184944 0.172226 0.266145
O O6 0.073456 0.142616 0.717075
O O7 0.972260 0.214546 0.565038
O O8 0.446541 0.719687 0.886895
O O9 0.383810 0.020573 0.565369
O O10 0.204570 0.013905 0.861645
O O11 0.073273 0.464543 0.731437
O O12 0.910624 0.449794 0.928439
O O13 0.769834 0.723271 0.152023
O O14 0.665765 0.661500 0.618347
O O15 0.985890 0.093346 0.160986
O O16 0.738237 0.309549 0.827854
O O17 0.000000 0.000000 0.500000
#
# Coordination Sequence:
#
# PCOD8019757 Si02
#       8
#     2   2   2   2   2   2   2   2
#     4  12  25  44  65  98 135 177 216 267 332 397
#     4  12  24  44  68  95 135 176 217 269 334 389
#     4  11  23  41  68  93 131 176 219 268 325 389
#     4  10  22  41  71  96 132 167 220 274 335 388
#     4  10  22  42  66 102 129 167 220 281 326 384
#     4  11  24  43  66  97 134 175 219 271 331 395
#     4  12  23  42  68  97 132 171 223 271 329 390
#     4  12  25  40  67 102 130 169 226 278 324 386
#
# _framework density 22.321370000000002
#
# number of rings (size 3 to 8) (size 9 to 14) (size 15 to 20)
#    0.000    0.750    3.750    3.750    5.250    0.000 
#    0.000    0.625    0.000    0.000    0.000    0.000 
#    0.000    0.000    0.000    0.000    0.000    0.000 
#
# Total GULP energy -198226.558650 kJ/mol
# GULP energy per Si atom -12389.159916 kJ/mol
# Density = 2.227057 g / cm^3
# Si number density = 22.321370 Si / 1000 Ang^3
#
#
#
# Elastic Constant Matrix: (Units=GPa)
#
#
# Indices 1 2 3 4 5 6 
#
# 1 95.5569 50.1299 68.4604 -4.8028 16.5620 8.3344
# 2 50.1299 129.1538 26.8515 -5.8961 15.7098 26.6674
# 3 68.4604 26.8515 124.4670 -15.8626 33.3265 16.9202
# 4 -4.8028 -5.8961 -15.8626 32.9215 -5.8012 -1.5057
# 5 16.5620 15.7098 33.3265 -5.8012 31.7757 3.8842
# 6 8.3344 26.6674 16.9202 -1.5057 3.8842 43.6897
#
#
#
# Elastic Compliance Matrix: (Units=1/GPa)
#
#
# Indices 1 2 3 4 5 6 
#
# 1 0.022445 -0.007738 -0.012990 -0.003345 0.004535 0.004954
# 2 -0.007738 0.012018 0.004225 0.001832 -0.005152 -0.006975
# 3 -0.012990 0.004225 0.019597 0.005534 -0.014097 -0.006246
# 4 -0.003345 0.001832 0.005534 0.033031 0.001259 -0.001597
# 5 0.004535 -0.005152 -0.014097 0.001259 0.046220 0.003674
# 6 0.004954 -0.006975 -0.006246 -0.001597 0.003674 0.028238
#
#
# Mechanical properties :
#
#
# Convention : Reuss Voigt Hill
#
# Bulk Modulus (GPa) = 47.49898 71.11793 59.30845
# Shear Modulus (GPa) = 24.80494 35.25978 30.03236
#
# Velocity S-wave (km/s) = 3.33718 3.97878 3.67202
# Velocity P-wave (km/s) = 6.01455 7.28270 6.67879
#
# Compressibility (1/GPa) = 0.02105308
#
# Stress axis : x y z
#
# Youngs Moduli (GPa) = 44.55415 83.20621 51.02951
#
# Poissons Ratio (x) = 0.64387 0.66286
# Poissons Ratio (y) = 0.34477 -0.21558
# Poissons Ratio (z) = 0.57874 -0.35152
#
# Static dielectric constant tensor:
#      x y z
#    x 3.997240 0.052340 -0.056890 
#    y 0.052340 4.546350 -0.125890 
#    z -0.056890 -0.125890 3.997330 
# 
# 
# High freq. dielectric constant tensor:
#      x y z
#    x 1.869930 0.003080 0.001460 
#    y 0.003080 1.904000 -0.013500 
#    z 0.001460 -0.013500 1.873060 
# 
# From -- ./inp_files/188589.got.cif
#   From: 2010.06.25/outbox.cif.g09.slc.cpg/sg2_95_cif.got.tgz:188589.got - 2010.06.27 13:26:56.
