data_PCOD8019375
_publ_section_title
;
Structure prediction by ZEFSAII (Michael W. Deem and Ramdas Pophale) SiO2 
 PCOD8019375
Probable space group: P -1
;
_chemical_formula_sum "Si O2"
_cell_formula_units_Z 14
_cell_length_a 20.416649
_cell_length_b 5.907785
_cell_length_c 9.960327
_cell_angle_alpha 110.272891
_cell_angle_beta 39.727989
_cell_angle_gamma 86.210681
_cell_volume 599.319421
_symmetry_space_group_name_H-M "P -1"
_symmetry_group_IT_number 2
_symmetry_cell_setting 'triclinic'
loop_
_space_group_symop_operation_xyz
x,y,z
-x,-y,-z
loop_
_atom_site_type_symbol
_atom_site_label
_atom_site_fract_x
_atom_site_fract_y
_atom_site_fract_z
Si Si1 0.133868 0.353943 0.322661
Si Si2 0.958416 0.190777 0.975565
Si Si3 0.761528 0.203707 0.122047
Si Si4 0.434915 0.854578 0.150184
Si Si5 0.324004 0.383102 0.887298
Si Si6 0.834108 0.766942 0.444354
Si Si7 0.430241 0.832170 0.450002
O O1 0.134435 0.370195 0.485280
O O2 0.000000 0.500000 0.500000
O O3 0.201624 0.509872 0.196622
O O4 0.216252 0.025893 0.073788
O O5 0.079314 0.116109 0.690228
O O6 0.889958 0.091549 0.967978
O O7 0.867427 0.526589 0.229002
O O8 0.000000 0.000000 0.000000
O O9 0.713215 0.493841 0.177432
O O10 0.659323 0.281636 0.414496
O O11 0.410195 0.978995 0.365935
O O12 0.308171 0.973284 0.294698
O O13 0.500000 0.500000 0.000000
O O14 0.500000 0.000000 0.000000
O O15 0.424242 0.424963 0.812323
O O16 0.391520 0.042507 0.682234
#
# Coordination Sequence:
#
# PCOD8019375 Si02
#       7
#     2   2   2   2   2   2   2
#     4  11  24  42  64 100 135 176 226 290 357 421
#     4  11  24  43  71  98 132 185 234 295 358 426
#     4  11  23  40  70  96 128 176 230 284 350 413
#     4  12  29  46  72 106 147 193 239 297 364 432
#     4  10  22  41  67  92 131 176 228 285 348 419
#     4  11  26  45  68  99 143 183 237 293 360 431
#     4  10  23  43  66  95 133 177 233 285 344 422
#
# _framework density 23.359829000000001
#
# number of rings (size 3 to 8) (size 9 to 14) (size 15 to 20)
#    0.000    1.143    0.000    4.714    8.000    8.000 
#    0.000    0.000    0.000    0.000    0.000    0.000 
#    0.000    0.000    0.000    0.000    0.000    0.000 
#
# Total GULP energy -173460.751823 kJ/mol
# GULP energy per Si atom -12390.053702 kJ/mol
# Density = 2.330666 g / cm^3
# Si number density = 23.359829 Si / 1000 Ang^3
#
#
#
# Elastic Constant Matrix: (Units=GPa)
#
#
# Indices 1 2 3 4 5 6 
#
# 1 117.8988 31.9034 57.0798 -20.5042 -30.4914 -25.9980
# 2 31.9034 108.6617 56.5659 -33.0434 -22.3741 -18.2197
# 3 57.0798 56.5659 140.1019 -40.4826 -33.6050 -4.8449
# 4 -20.5042 -33.0434 -40.4826 57.8305 3.6788 4.1072
# 5 -30.4914 -22.3741 -33.6050 3.6788 55.4954 1.9486
# 6 -25.9980 -18.2197 -4.8449 4.1072 1.9486 47.1308
#
#
#
# Elastic Compliance Matrix: (Units=1/GPa)
#
#
# Indices 1 2 3 4 5 6 
#
# 1 0.013167 0.000760 -0.003780 0.001660 0.004902 0.006821
# 2 0.000760 0.013862 -0.003400 0.005249 0.003430 0.004829
# 3 -0.003780 -0.003400 0.012420 0.005364 0.003814 -0.002748
# 4 0.001660 0.005249 0.005364 0.024256 0.004627 0.001191
# 5 0.004902 0.003430 0.003814 0.004627 0.023993 0.003027
# 6 0.006821 0.004829 -0.002748 0.001191 0.003027 0.026335
#
#
# Mechanical properties :
#
#
# Convention : Reuss Voigt Hill
#
# Bulk Modulus (GPa) = 37.58111 73.08451 55.33281
# Shear Modulus (GPa) = 36.83473 46.83223 41.83348
#
# Velocity S-wave (km/s) = 3.97525 4.48238 4.23641
# Velocity P-wave (km/s) = 6.09861 7.62517 6.90421
#
# Compressibility (1/GPa) = 0.02660912
#
# Stress axis : x y z
#
# Youngs Moduli (GPa) = 75.94849 72.14142 80.51458
#
# Poissons Ratio (x) = -0.05481 0.30431
# Poissons Ratio (y) = -0.05770 0.27374
# Poissons Ratio (z) = 0.28705 0.24528
#
# Static dielectric constant tensor:
#      x y z
#    x 4.293230 0.159890 -0.105340 
#    y 0.159890 4.262580 -0.175270 
#    z -0.105340 -0.175270 4.478720 
# 
# 
# High freq. dielectric constant tensor:
#      x y z
#    x 1.933050 -0.005830 -0.008980 
#    y -0.005830 1.918480 -0.012840 
#    z -0.008980 -0.012840 1.938110 
# 
# From -- ./inp_files/38707.got.cif
#   From: 2010.06.25/outbox.cif.g09.slc.cpg/sg2_20_cif.got.tgz:38707.got - 2010.06.27 13:26:56.
