data_PCOD8019343
_publ_section_title
;
Structure prediction by ZEFSAII (Michael W. Deem and Ramdas Pophale) SiO2 
 PCOD8019343
Probable space group: P -1
;
_chemical_formula_sum "Si O2"
_cell_formula_units_Z 14
_cell_length_a 7.273232
_cell_length_b 11.736158
_cell_length_c 9.450806
_cell_angle_alpha 110.875068
_cell_angle_beta 59.720851
_cell_angle_gamma 91.017416
_cell_volume 637.696846
_symmetry_space_group_name_H-M "P -1"
_symmetry_group_IT_number 2
_symmetry_cell_setting 'triclinic'
loop_
_space_group_symop_operation_xyz
x,y,z
-x,-y,-z
loop_
_atom_site_type_symbol
_atom_site_label
_atom_site_fract_x
_atom_site_fract_y
_atom_site_fract_z
Si Si1 0.233867 0.605184 0.197533
Si Si2 0.095076 0.257550 0.421500
Si Si3 0.430170 0.837050 0.730330
Si Si4 0.175596 0.342365 0.127063
Si Si5 0.681437 0.886416 0.199505
Si Si6 0.120868 0.730602 0.003794
Si Si7 0.652860 0.217844 0.559354
O O1 0.304372 0.455060 0.101888
O O2 0.398486 0.660650 0.263361
O O3 0.988702 0.644782 0.375412
O O4 0.232908 0.658452 0.063977
O O5 0.321749 0.167898 0.326597
O O6 0.105207 0.340737 0.315823
O O7 0.915757 0.169285 0.433144
O O8 0.305242 0.792388 0.889349
O O9 0.422470 0.748976 0.557667
O O10 0.318185 0.977705 0.798841
O O11 0.961769 0.363302 0.117058
O O12 0.329337 0.209044 0.969259
O O13 0.472989 0.887409 0.381898
O O14 0.909219 0.837858 0.174203
#
# Coordination Sequence:
#
# PCOD8019343 Si02
#       7
#     2   2   2   2   2   2   2
#     4  10  22  44  67  95 132 165 222 264 323 384
#     4  10  24  40  68  96 129 172 213 260 329 376
#     4  12  23  46  65  97 134 168 218 264 322 387
#     4  10  22  45  64  97 132 167 216 270 317 387
#     4  10  24  41  70  92 135 168 214 268 322 379
#     4  10  22  41  67 100 126 171 213 268 326 369
#     4  10  23  44  63  98 128 171 214 267 317 381
#
# _framework density 21.954004000000001
#
# number of rings (size 3 to 8) (size 9 to 14) (size 15 to 20)
#    1.714    0.000    1.429    2.571    2.000    1.714 
#    2.571    1.429    0.000    0.000    0.000    0.000 
#    0.000    0.000    0.000    0.000    0.000    0.000 
#
# Total GULP energy -173468.471562 kJ/mol
# GULP energy per Si atom -12390.605112 kJ/mol
# Density = 2.190404 g / cm^3
# Si number density = 21.954004 Si / 1000 Ang^3
#
#
#
# Elastic Constant Matrix: (Units=GPa)
#
#
# Indices 1 2 3 4 5 6 
#
# 1 95.6234 21.1167 46.7917 -9.5766 -1.0884 0.4270
# 2 21.1167 102.7879 53.4019 -12.1519 15.4627 4.4839
# 3 46.7917 53.4019 99.5423 -32.6368 12.3911 -1.9799
# 4 -9.5766 -12.1519 -32.6368 32.3996 3.9714 -2.3795
# 5 -1.0884 15.4627 12.3911 3.9714 30.2878 -5.1640
# 6 0.4270 4.4839 -1.9799 -2.3795 -5.1640 28.3610
#
#
#
# Elastic Compliance Matrix: (Units=1/GPa)
#
#
# Indices 1 2 3 4 5 6 
#
# 1 0.014547 0.000681 -0.009755 -0.005910 0.004835 -0.000623
# 2 0.000681 0.014513 -0.008567 -0.002759 -0.004182 -0.003896
# 3 -0.009755 -0.008567 0.028462 0.024087 -0.010155 0.003660
# 4 -0.005910 -0.002759 0.024087 0.054495 -0.015117 0.004026
# 5 0.004835 -0.004182 -0.010155 -0.015117 0.042546 0.006358
# 6 -0.000623 -0.003896 0.003660 0.004026 0.006358 0.037636
#
#
# Mechanical properties :
#
#
# Convention : Reuss Voigt Hill
#
# Bulk Modulus (GPa) = 44.96688 60.06381 52.51535
# Shear Modulus (GPa) = 21.28606 29.98590 25.63598
#
# Velocity S-wave (km/s) = 3.11718 3.69975 3.42089
# Velocity P-wave (km/s) = 5.78641 6.75790 6.29094
#
# Compressibility (1/GPa) = 0.02223859
#
# Stress axis : x y z
#
# Youngs Moduli (GPa) = 68.74360 68.90474 35.13439
#
# Poissons Ratio (x) = -0.04691 0.34274
# Poissons Ratio (y) = -0.04680 0.30101
# Poissons Ratio (z) = 0.67061 0.59032
#
# Static dielectric constant tensor:
#      x y z
#    x 3.834620 0.144450 0.012630 
#    y 0.144450 3.429660 -0.084810 
#    z 0.012630 -0.084810 4.021220 
# 
# 
# High freq. dielectric constant tensor:
#      x y z
#    x 1.859590 0.013460 -0.004360 
#    y 0.013460 1.830570 -0.015590 
#    z -0.004360 -0.015590 1.878330 
# 
# From -- ./inp_files/170212.got.cif
#   From: 2010.06.25/outbox.cif.g09.slc.cpg/sg2_86_cif.got.tgz:170212.got - 2010.06.27 13:26:56.
