data_PCOD8019988
_publ_section_title
;
Structure prediction by ZEFSAII (Michael W. Deem and Ramdas Pophale) SiO2 
 PCOD8019988
Probable space group: P -1
;
_chemical_formula_sum "Si O2"
_cell_formula_units_Z 16
_cell_length_a 6.053478
_cell_length_b 8.421923
_cell_length_c 18.584564
_cell_angle_alpha 91.465287
_cell_angle_beta 90.423291
_cell_angle_gamma 47.409941
_cell_volume 697.254805
_symmetry_space_group_name_H-M "P -1"
_symmetry_group_IT_number 2
_symmetry_cell_setting 'triclinic'
loop_
_space_group_symop_operation_xyz
x,y,z
-x,-y,-z
loop_
_atom_site_type_symbol
_atom_site_label
_atom_site_fract_x
_atom_site_fract_y
_atom_site_fract_z
Si Si1 0.600676 0.908751 0.787769
Si Si2 0.257213 0.581241 0.833769
Si Si3 0.588285 0.251484 0.715769
Si Si4 0.743242 0.044686 0.341425
Si Si5 0.579184 0.620775 0.542624
Si Si6 0.751974 0.717350 0.410647
Si Si7 0.584584 0.301663 0.956766
Si Si8 0.749334 0.067969 0.091915
O O1 0.461399 0.854294 0.729088
O O2 0.416884 0.985437 0.862864
O O3 0.936597 0.690312 0.802457
O O4 0.585547 0.095444 0.762640
O O5 0.496219 0.445350 0.767669
O O6 0.338448 0.410724 0.893820
O O7 0.264688 0.756359 0.865139
O O8 0.350703 0.357751 0.651398
O O9 0.912819 0.123667 0.681928
O O10 0.673270 0.228105 0.395101
O O11 0.649176 0.940054 0.387896
O O12 0.500000 0.500000 0.500000
O O13 0.588599 0.757523 0.485800
O O14 0.891823 0.460825 0.583099
O O15 0.500000 0.500000 0.000000
O O16 0.587370 0.157855 0.013856
O O17 0.910457 0.154183 0.918979
#
# Coordination Sequence:
#
# PCOD8019988 Si02
#       8
#     2   2   2   2   2   2   2   2
#     4  11  24  39  63  92 124 162 208 255 306 368
#     4  11  22  40  63  91 124 162 208 256 307 366
#     4  11  25  42  63  92 125 164 207 255 309 367
#     4  11  24  43  63  89 127 165 204 256 310 368
#     4  11  24  42  66  94 124 161 206 258 310 366
#     4  10  24  42  64  93 124 162 208 252 310 372
#     4   9  20  40  65  91 125 164 205 254 309 364
#     4  10  22  42  64  91 126 164 206 256 307 365
#
# _framework density 22.947133000000001
#
# number of rings (size 3 to 8) (size 9 to 14) (size 15 to 20)
#    0.000    1.500    0.000    4.125    0.000   14.500 
#    0.000    8.750    0.000    0.000    0.000    0.000 
#    0.000    0.000    0.000    0.000    0.000    0.000 
#
# Total GULP energy -198372.985659 kJ/mol
# GULP energy per Si atom -12398.311604 kJ/mol
# Density = 2.289490 g / cm^3
# Si number density = 22.947133 Si / 1000 Ang^3
#
#
#
# Elastic Constant Matrix: (Units=GPa)
#
#
# Indices 1 2 3 4 5 6 
#
# 1 76.3305 34.4438 34.6332 3.5905 -1.6629 -21.7717
# 2 34.4438 116.5074 66.2713 13.7806 6.5016 -26.1263
# 3 34.6332 66.2713 124.2006 2.9580 0.2215 -25.5053
# 4 3.5905 13.7806 2.9580 64.1025 -4.5393 4.6004
# 5 -1.6629 6.5016 0.2215 -4.5393 46.1738 -3.5361
# 6 -21.7717 -26.1263 -25.5053 4.6004 -3.5361 31.3875
#
#
#
# Elastic Compliance Matrix: (Units=1/GPa)
#
#
# Indices 1 2 3 4 5 6 
#
# 1 0.017609 -0.001991 -0.001910 -0.001031 0.001537 0.009329
# 2 -0.001991 0.014303 -0.005737 -0.003274 -0.001911 0.006127
# 3 -0.001910 -0.005737 0.012465 0.000547 0.001044 0.004067
# 4 -0.001031 -0.003274 0.000547 0.016833 0.001672 -0.005274
# 5 0.001537 -0.001911 0.001044 0.001672 0.022340 0.002596
# 6 0.009329 0.006127 0.004067 -0.005274 0.002596 0.047801
#
#
# Mechanical properties :
#
#
# Convention : Reuss Voigt Hill
#
# Bulk Modulus (GPa) = 39.83953 65.30389 52.57171
# Shear Modulus (GPa) = 31.44761 40.44543 35.94652
#
# Velocity S-wave (km/s) = 3.70596 4.20283 3.96219
# Velocity P-wave (km/s) = 5.97589 7.21608 6.62507
#
# Compressibility (1/GPa) = 0.02510070
#
# Stress axis : x y z
#
# Youngs Moduli (GPa) = 56.78912 69.91625 80.22156
#
# Poissons Ratio (x) = 0.13921 0.15324
# Poissons Ratio (y) = 0.11307 0.46023
# Poissons Ratio (z) = 0.10848 0.40110
#
# Static dielectric constant tensor:
#      x y z
#    x 3.875200 -0.059120 -0.003930 
#    y -0.059120 4.158920 -0.298070 
#    z -0.003930 -0.298070 4.836100 
# 
# 
# High freq. dielectric constant tensor:
#      x y z
#    x 1.881640 -0.005280 -0.000330 
#    y -0.005280 1.910280 -0.007570 
#    z -0.000330 -0.007570 1.939450 
# 
# From -- ./inp_files/122780.got.cif
#   From: 2010.06.25/outbox.cif.g09.slc.cpg/sg2_62_cif.got.tgz:122780.got - 2010.06.27 13:26:56.
