data_PCOD8019779
_publ_section_title
;
Structure prediction by ZEFSAII (Michael W. Deem and Ramdas Pophale) SiO2 
 PCOD8019779
Probable space group: P -1
;
_chemical_formula_sum "Si O2"
_cell_formula_units_Z 14
_cell_length_a 8.833793
_cell_length_b 10.419044
_cell_length_c 7.295246
_cell_angle_alpha 70.562242
_cell_angle_beta 87.979815
_cell_angle_gamma 108.551564
_cell_volume 592.753344
_symmetry_space_group_name_H-M "P -1"
_symmetry_group_IT_number 2
_symmetry_cell_setting 'triclinic'
loop_
_space_group_symop_operation_xyz
x,y,z
-x,-y,-z
loop_
_atom_site_type_symbol
_atom_site_label
_atom_site_fract_x
_atom_site_fract_y
_atom_site_fract_z
Si Si1 0.161727 0.798501 0.775540
Si Si2 0.357799 0.366669 0.309794
Si Si3 0.488953 0.866825 0.937918
Si Si4 0.969988 0.829587 0.110306
Si Si5 0.644968 0.938345 0.550751
Si Si6 0.979471 0.641577 0.521576
Si Si7 0.375245 0.353859 0.884154
O O1 0.330600 0.800826 0.850786
O O2 0.091139 0.675207 0.683598
O O3 0.191736 0.953037 0.598973
O O4 0.036578 0.775003 0.955069
O O5 0.378334 0.219695 0.456434
O O6 0.206219 0.392324 0.398351
O O7 0.530035 0.491407 0.287527
O O8 0.332109 0.366442 0.091967
O O9 0.652069 0.924112 0.777716
O O10 0.501395 0.733052 0.114500
O O11 0.500000 0.000000 0.000000
O O12 0.043708 0.781974 0.313451
O O13 0.782926 0.731561 0.183084
O O14 0.000000 0.000000 0.000000
O O15 0.500000 0.000000 0.500000
O O16 0.000000 0.500000 0.500000
#
# Coordination Sequence:
#
# PCOD8019779 Si02
#       7
#     2   2   2   2   2   2   2
#     4  11  25  46  74 105 160 187 252 325 369 454
#     4  10  22  45  70 103 149 192 250 308 375 454
#     4  10  22  41  72 110 142 194 251 304 377 459
#     4  12  27  46  76 112 146 200 254 313 391 451
#     4   9  21  41  70 104 140 194 240 304 381 437
#     4  12  30  47  74 112 152 207 259 308 390 458
#     4  10  23  44  74 103 148 197 246 314 380 442
#
# _framework density 23.618594000000002
#
# number of rings (size 3 to 8) (size 9 to 14) (size 15 to 20)
#    0.000    1.429    1.429    1.714    8.000    8.000 
#    0.000    1.429    0.000    0.000    0.000    0.000 
#    0.000    0.000    0.000    0.000    0.000    0.000 
#
# Total GULP energy -173464.391304 kJ/mol
# GULP energy per Si atom -12390.313665 kJ/mol
# Density = 2.356484 g / cm^3
# Si number density = 23.618594 Si / 1000 Ang^3
#
#
#
# Elastic Constant Matrix: (Units=GPa)
#
#
# Indices 1 2 3 4 5 6 
#
# 1 104.2275 53.2326 34.1704 6.1277 -11.0444 -0.6488
# 2 53.2326 126.9263 47.2055 4.9667 -13.1637 -14.8723
# 3 34.1704 47.2055 96.7856 6.3551 -9.1260 -4.5236
# 4 6.1277 4.9667 6.3551 39.6603 5.8140 2.3632
# 5 -11.0444 -13.1637 -9.1260 5.8140 31.6467 0.6105
# 6 -0.6488 -14.8723 -4.5236 2.3632 0.6105 47.5244
#
#
#
# Elastic Compliance Matrix: (Units=1/GPa)
#
#
# Indices 1 2 3 4 5 6 
#
# 1 0.012899 -0.004493 -0.002123 -0.001343 0.002294 -0.001395
# 2 -0.004493 0.011815 -0.003755 -0.000721 0.002333 0.003284
# 3 -0.002123 -0.003755 0.013191 -0.001584 0.001790 0.000107
# 4 -0.001343 -0.000721 -0.001584 0.026760 -0.006110 -0.001647
# 5 0.002294 0.002333 0.001790 -0.006110 0.034993 0.000786
# 6 -0.001395 0.003284 0.000107 -0.001647 0.000786 0.022133
#
#
# Mechanical properties :
#
#
# Convention : Reuss Voigt Hill
#
# Bulk Modulus (GPa) = 58.27055 66.35074 62.31064
# Shear Modulus (GPa) = 33.72615 36.65501 35.19058
#
# Velocity S-wave (km/s) = 3.78292 3.94376 3.86418
# Velocity P-wave (km/s) = 6.61859 6.99223 6.80797
#
# Compressibility (1/GPa) = 0.01716133
#
# Stress axis : x y z
#
# Youngs Moduli (GPa) = 77.52821 84.64156 75.80875
#
# Poissons Ratio (x) = 0.38029 0.16096
# Poissons Ratio (y) = 0.34833 0.28468
# Poissons Ratio (z) = 0.16461 0.31785
#
# Static dielectric constant tensor:
#      x y z
#    x 4.202720 -0.029240 -0.150860 
#    y -0.029240 4.317690 -0.307000 
#    z -0.150860 -0.307000 5.063850 
# 
# 
# High freq. dielectric constant tensor:
#      x y z
#    x 1.924200 -0.005060 -0.010270 
#    y -0.005060 1.936130 -0.002590 
#    z -0.010270 -0.002590 1.952790 
# 
# From -- ./inp_files/149241.got.cif
#   From: 2010.06.25/outbox.cif.g09.slc.cpg/sg2_75_cif.got.tgz:149241.got - 2010.06.27 13:26:56.
