data_PCOD8019169
_publ_section_title
;
Structure prediction by ZEFSAII (Michael W. Deem and Ramdas Pophale) SiO2 
 PCOD8019169
Probable space group: P -1
;
_chemical_formula_sum "Si O2"
_cell_formula_units_Z 16
_cell_length_a 8.720949
_cell_length_b 18.332575
_cell_length_c 12.585488
_cell_angle_alpha 149.328560
_cell_angle_beta 52.418553
_cell_angle_gamma 128.795851
_cell_volume 787.117555
_symmetry_space_group_name_H-M "P -1"
_symmetry_group_IT_number 2
_symmetry_cell_setting 'triclinic'
loop_
_space_group_symop_operation_xyz
x,y,z
-x,-y,-z
loop_
_atom_site_type_symbol
_atom_site_label
_atom_site_fract_x
_atom_site_fract_y
_atom_site_fract_z
Si Si1 0.415322 0.617107 0.120501
Si Si2 0.329652 0.550483 0.571385
Si Si3 0.044887 0.421195 0.119340
Si Si4 0.861138 0.106279 0.723948
Si Si5 0.215210 0.068853 0.946876
Si Si6 0.505751 0.056261 0.451834
Si Si7 0.558142 0.118186 0.033860
Si Si8 0.714179 0.643223 0.857504
O O1 0.176984 0.555034 0.158986
O O2 0.507232 0.774892 0.335852
O O3 0.500000 0.500000 0.000000
O O4 0.488476 0.626989 0.978705
O O5 0.500000 0.500000 0.500000
O O6 0.383161 0.722858 0.737385
O O7 0.285877 0.477159 0.382993
O O8 0.137897 0.514607 0.684689
O O9 0.151049 0.376375 0.123456
O O10 0.980676 0.278898 0.889439
O O11 0.678994 0.067245 0.670794
O O12 0.751835 0.078008 0.849000
O O13 0.000000 0.000000 0.500000
O O14 0.286607 0.944303 0.694513
O O15 0.376549 0.124898 0.041048
O O16 0.201634 0.198478 0.033921
O O17 0.000000 0.000000 0.000000
O O18 0.500000 0.000000 0.500000
O O19 0.500000 0.000000 0.000000
#
# Coordination Sequence:
#
# PCOD8019169 Si02
#       8
#     2   2   2   2   2   2   2   2
#     4  10  22  41  66  96 130 169 217 264 320 388
#     4  11  23  42  66  91 136 168 210 271 326 378
#     4  10  24  41  67  99 127 171 223 263 323 392
#     4  10  22  41  65  93 130 165 213 263 320 381
#     4  11  25  39  66  96 129 169 221 263 323 391
#     4  11  23  42  67  93 134 170 210 272 327 374
#     4  10  24  42  63  95 130 166 214 268 322 382
#     4  11  22  42  67  92 131 172 213 271 325 379
#
# _framework density 20.327331999999998
#
# number of rings (size 3 to 8) (size 9 to 14) (size 15 to 20)
#    0.000    1.500    2.500    1.875    5.250    5.000 
#    0.000    2.500    0.000    0.000    0.000    0.000 
#    0.000    0.000    0.000    0.000    0.000    0.000 
#
# Total GULP energy -198265.725880 kJ/mol
# GULP energy per Si atom -12391.607867 kJ/mol
# Density = 2.028107 g / cm^3
# Si number density = 20.327332 Si / 1000 Ang^3
#
#
#
# Elastic Constant Matrix: (Units=GPa)
#
#
# Indices 1 2 3 4 5 6 
#
# 1 74.5499 46.2030 47.5571 0.3348 -5.2190 11.0129
# 2 46.2030 152.5692 61.7265 -4.4135 -1.6763 13.9494
# 3 47.5571 61.7265 174.7696 -5.3455 8.2901 12.0974
# 4 0.3348 -4.4135 -5.3455 32.8880 11.3147 -7.1922
# 5 -5.2190 -1.6763 8.2901 11.3147 34.5888 0.1464
# 6 11.0129 13.9494 12.0974 -7.1922 0.1464 34.5283
#
#
#
# Elastic Compliance Matrix: (Units=1/GPa)
#
#
# Indices 1 2 3 4 5 6 
#
# 1 0.019344 -0.003952 -0.003946 -0.003968 0.004988 -0.004038
# 2 -0.003952 0.008659 -0.001869 0.000543 0.000100 -0.001470
# 3 -0.003946 -0.001869 0.007688 0.002094 -0.003213 -0.000230
# 4 -0.003968 0.000543 0.002094 0.037204 -0.013279 0.008119
# 5 0.004988 0.000100 -0.003213 -0.013279 0.034797 -0.003419
# 6 -0.004038 -0.001470 -0.000230 0.008119 -0.003419 0.032630
#
#
# Mechanical properties :
#
#
# Convention : Reuss Voigt Hill
#
# Bulk Modulus (GPa) = 61.89749 79.20688 70.55218
# Shear Modulus (GPa) = 30.25862 36.82782 33.54322
#
# Velocity S-wave (km/s) = 3.86238 4.26107 4.06662
# Velocity P-wave (km/s) = 7.09980 7.95357 7.53878
#
# Compressibility (1/GPa) = 0.01615574
#
# Stress axis : x y z
#
# Youngs Moduli (GPa) = 51.69468 115.49125 130.06959
#
# Poissons Ratio (x) = 0.45645 0.51331
# Poissons Ratio (y) = 0.20431 0.24311
# Poissons Ratio (z) = 0.20401 0.21586
#
# Static dielectric constant tensor:
#      x y z
#    x 3.536910 0.210500 -0.297970 
#    y 0.210500 4.227650 -0.461410 
#    z -0.297970 -0.461410 3.563870 
# 
# 
# High freq. dielectric constant tensor:
#      x y z
#    x 1.783690 0.012160 -0.001540 
#    y 0.012160 1.800120 -0.007460 
#    z -0.001540 -0.007460 1.815360 
# 
# From -- ./inp_files/403512.got.cif
#   From: 2010.06.25/outbox.cif.g09.slc.cpg/sg2_202_cif.got.tgz:403512.got - 2010.06.27 13:26:56.
