data_PCOD8019122
_publ_section_title
;
Structure prediction by ZEFSAII (Michael W. Deem and Ramdas Pophale) SiO2 
 PCOD8019122
Probable space group: P -1
;
_chemical_formula_sum "Si O2"
_cell_formula_units_Z 14
_cell_length_a 4.824881
_cell_length_b 15.007029
_cell_length_c 12.226885
_cell_angle_alpha 51.139218
_cell_angle_beta 95.324500
_cell_angle_gamma 120.701544
_cell_volume 557.463694
_symmetry_space_group_name_H-M "P -1"
_symmetry_group_IT_number 2
_symmetry_cell_setting 'triclinic'
loop_
_space_group_symop_operation_xyz
x,y,z
-x,-y,-z
loop_
_atom_site_type_symbol
_atom_site_label
_atom_site_fract_x
_atom_site_fract_y
_atom_site_fract_z
Si Si1 0.610101 0.866453 0.115585
Si Si2 0.135204 0.757597 0.972480
Si Si3 0.199431 0.092024 0.222950
Si Si4 0.180904 0.171051 0.389626
Si Si5 0.812272 0.457398 0.140087
Si Si6 0.059882 0.832513 0.280561
Si Si7 0.828418 0.263927 0.436273
O O1 0.699778 0.764524 0.254590
O O2 0.378262 0.793982 0.057750
O O3 0.603549 0.100792 0.836071
O O4 0.000000 0.000000 0.000000
O O5 0.385947 0.796923 0.847006
O O6 0.976523 0.845737 0.896351
O O7 0.834616 0.591050 0.087603
O O8 0.077127 0.056852 0.374772
O O9 0.113882 0.956260 0.261898
O O10 0.414357 0.323376 0.215752
O O11 0.415429 0.176202 0.492608
O O12 0.868319 0.160772 0.441407
O O13 0.995371 0.415131 0.267591
O O14 0.000000 0.500000 0.000000
O O15 0.025175 0.715920 0.451016
#
# Coordination Sequence:
#
# PCOD8019122 Si02
#       7
#     2   2   2   2   2   2   2
#     4  12  26  46  69  99 129 180 229 284 333 391
#     4  12  25  40  66 105 129 172 229 283 335 382
#     4  12  24  38  68 102 133 178 216 276 343 393
#     4  10  22  41  65 102 134 175 221 260 339 403
#     4  10  22  43  70  97 139 172 227 274 328 399
#     4  12  26  45  68  96 142 173 226 280 334 404
#     4  10  24  43  66  98 140 183 215 270 342 390
#
# _framework density 25.113744000000001
#
# number of rings (size 3 to 8) (size 9 to 14) (size 15 to 20)
#    0.857    0.000    2.857    4.714    2.000    2.286 
#    0.000    1.429    0.000    0.000    0.000    0.000 
#    0.000    0.000    0.000    0.000    0.000    0.000 
#
# Total GULP energy -173460.641632 kJ/mol
# GULP energy per Si atom -12390.045831 kJ/mol
# Density = 2.505658 g / cm^3
# Si number density = 25.113744 Si / 1000 Ang^3
#
#
#
# Elastic Constant Matrix: (Units=GPa)
#
#
# Indices 1 2 3 4 5 6 
#
# 1 124.1766 9.7790 27.4522 -1.9150 4.7553 -17.4458
# 2 9.7790 42.8207 19.5227 2.3636 -1.9667 -10.0982
# 3 27.4522 19.5227 120.4749 19.8401 16.0862 -13.1972
# 4 -1.9150 2.3636 19.8401 25.5093 -0.3357 -2.7073
# 5 4.7553 -1.9667 16.0862 -0.3357 42.9424 7.4326
# 6 -17.4458 -10.0982 -13.1972 -2.7073 7.4326 33.8011
#
#
#
# Elastic Compliance Matrix: (Units=1/GPa)
#
#
# Indices 1 2 3 4 5 6 
#
# 1 0.009183 -0.000432 -0.001831 0.002600 -0.001082 0.004342
# 2 -0.000432 0.026688 -0.004027 0.001276 0.001769 0.005891
# 3 -0.001831 -0.004027 0.011773 -0.008684 -0.004952 0.002842
# 4 0.002600 0.001276 -0.008684 0.046216 0.003153 0.001341
# 5 -0.001082 0.001769 -0.004952 0.003153 0.026679 -0.007577
# 6 0.004342 0.005891 0.002842 0.001341 -0.007577 0.036469
#
#
# Mechanical properties :
#
#
# Convention : Reuss Voigt Hill
#
# Bulk Modulus (GPa) = 28.51855 44.55334 36.53595
# Shear Modulus (GPa) = 27.58223 35.83178 31.70701
#
# Velocity S-wave (km/s) = 3.31764 3.78137 3.55707
# Velocity P-wave (km/s) = 5.10452 6.06994 5.60804
#
# Compressibility (1/GPa) = 0.03506489
#
# Stress axis : x y z
#
# Youngs Moduli (GPa) = 108.89283 37.46997 84.94158
#
# Poissons Ratio (x) = 0.01618 0.15549
# Poissons Ratio (y) = 0.04702 0.34208
# Poissons Ratio (z) = 0.19934 0.15090
#
# Static dielectric constant tensor:
#      x y z
#    x 4.999380 0.091760 0.279710 
#    y 0.091760 4.300830 0.209670 
#    z 0.279710 0.209670 5.475690 
# 
# 
# High freq. dielectric constant tensor:
#      x y z
#    x 2.018890 -0.007620 0.007230 
#    y -0.007620 1.962730 0.015260 
#    z 0.007230 0.015260 2.024640 
# 
# From -- ./inp_files/368915.got.cif
#   From: 2010.06.25/outbox.cif.g09.slc.cpg/sg2_185_cif.got.tgz:368915.got - 2010.06.27 13:26:56.
