data_PCOD8019342
_publ_section_title
;
Structure prediction by ZEFSAII (Michael W. Deem and Ramdas Pophale) SiO2 
 PCOD8019342
Probable space group: P -1
;
_chemical_formula_sum "Si O2"
_cell_formula_units_Z 12
_cell_length_a 9.747042
_cell_length_b 11.792962
_cell_length_c 14.562099
_cell_angle_alpha 138.967672
_cell_angle_beta 47.629136
_cell_angle_gamma 150.682516
_cell_volume 537.373656
_symmetry_space_group_name_H-M "P -1"
_symmetry_group_IT_number 2
_symmetry_cell_setting 'triclinic'
loop_
_space_group_symop_operation_xyz
x,y,z
-x,-y,-z
loop_
_atom_site_type_symbol
_atom_site_label
_atom_site_fract_x
_atom_site_fract_y
_atom_site_fract_z
Si Si1 0.293482 0.176432 0.575166
Si Si2 0.204853 0.366530 0.582979
Si Si3 0.419831 0.841592 0.716023
Si Si4 0.210192 0.809006 0.075653
Si Si5 0.711689 0.869419 0.085076
Si Si6 0.706254 0.661944 0.143132
O O1 0.158732 0.254401 0.636307
O O2 0.520146 0.233744 0.446515
O O3 0.428344 0.335734 0.706484
O O4 0.037318 0.865504 0.518976
O O5 0.500000 0.500000 0.500000
O O6 0.204902 0.576454 0.713054
O O7 0.698346 0.070908 0.789788
O O8 0.273962 0.914329 0.793478
O O9 0.028372 0.832592 0.122444
O O10 0.000000 0.500000 0.000000
O O11 0.500000 0.000000 0.000000
O O12 0.670927 0.778777 0.151462
O O13 0.465500 0.630030 0.983281
O O14 0.000000 0.000000 0.000000
#
# Coordination Sequence:
#
# PCOD8019342 Si02
#       6
#     2   2   2   2   2   2
#     4  10  22  41  66  99 141 172 238 292 371 417
#     4   9  19  36  62  99 134 173 214 290 350 425
#     4  11  24  42  72 102 137 185 238 298 357 431
#     4  12  26  43  74 112 143 189 245 297 362 431
#     4  11  26  47  66  94 142 190 243 295 357 438
#     4  11  25  45  68 100 140 190 234 302 361 429
#
# _framework density 22.330831
#
# number of rings (size 3 to 8) (size 9 to 14) (size 15 to 20)
#    0.000    1.333    1.667    4.000    4.667    6.000 
#    0.000    1.667    0.000    0.000    0.000    0.000 
#    0.000    0.000    0.000    0.000    0.000    0.000 
#
# Total GULP energy -148702.358702 kJ/mol
# GULP energy per Si atom -12391.863225 kJ/mol
# Density = 2.228001 g / cm^3
# Si number density = 22.330831 Si / 1000 Ang^3
#
#
#
# Elastic Constant Matrix: (Units=GPa)
#
#
# Indices 1 2 3 4 5 6 
#
# 1 121.0787 41.3079 83.9665 13.6925 -15.2188 -3.0616
# 2 41.3079 100.0890 37.9132 9.1885 -13.4586 -14.3052
# 3 83.9665 37.9132 143.2878 3.3749 -2.1804 -18.8460
# 4 13.6925 9.1885 3.3749 36.7743 -9.1779 -15.6444
# 5 -15.2188 -13.4586 -2.1804 -9.1779 50.2663 5.8673
# 6 -3.0616 -14.3052 -18.8460 -15.6444 5.8673 33.7632
#
#
#
# Elastic Compliance Matrix: (Units=1/GPa)
#
#
# Indices 1 2 3 4 5 6 
#
# 1 0.018119 -0.003615 -0.010779 -0.008356 0.003742 -0.010427
# 2 -0.003615 0.012550 -0.000576 0.000709 0.001824 0.004680
# 3 -0.010779 -0.000576 0.014628 0.006571 -0.002806 0.010476
# 4 -0.008356 0.000709 0.006571 0.039052 0.002642 0.020846
# 5 0.003742 0.001824 -0.002806 0.002642 0.022237 -0.003094
# 6 -0.010427 0.004680 0.010476 0.020846 -0.003094 0.046700
#
#
# Mechanical properties :
#
#
# Convention : Reuss Voigt Hill
#
# Bulk Modulus (GPa) = 65.11255 76.75897 70.93576
# Shear Modulus (GPa) = 26.54701 37.57861 32.06281
#
# Velocity S-wave (km/s) = 3.45165 4.10666 3.79332
# Velocity P-wave (km/s) = 6.71614 7.54549 7.14286
#
# Compressibility (1/GPa) = 0.01535802
#
# Stress axis : x y z
#
# Youngs Moduli (GPa) = 55.19040 79.68002 68.36123
#
# Poissons Ratio (x) = 0.28805 0.73686
# Poissons Ratio (y) = 0.19951 0.03936
# Poissons Ratio (z) = 0.59490 0.04587
#
# Static dielectric constant tensor:
#      x y z
#    x 8.923420 -3.579120 0.349950 
#    y -3.579120 6.488330 0.042370 
#    z 0.349950 0.042370 4.206610 
# 
# 
# High freq. dielectric constant tensor:
#      x y z
#    x 1.869660 -0.013100 -0.003140 
#    y -0.013100 1.884760 0.008340 
#    z -0.003140 0.008340 1.882730 
# 
# From -- ./inp_files/60277.got.cif
#   From: 2010.06.25/outbox.cif.g09.slc.cpg/sg2_31_cif.got.tgz:60277.got - 2010.06.27 13:26:56.
