data_PCOD8019378
_publ_section_title
;
Structure prediction by ZEFSAII (Michael W. Deem and Ramdas Pophale) SiO2 
 PCOD8019378
Probable space group: P -1
;
_chemical_formula_sum "Si O2"
_cell_formula_units_Z 16
_cell_length_a 15.805998
_cell_length_b 8.755080
_cell_length_c 9.184502
_cell_angle_alpha 97.650549
_cell_angle_beta 41.545530
_cell_angle_gamma 79.592202
_cell_volume 755.664591
_symmetry_space_group_name_H-M "P -1"
_symmetry_group_IT_number 2
_symmetry_cell_setting 'triclinic'
loop_
_space_group_symop_operation_xyz
x,y,z
-x,-y,-z
loop_
_atom_site_type_symbol
_atom_site_label
_atom_site_fract_x
_atom_site_fract_y
_atom_site_fract_z
Si Si1 0.344042 0.237247 0.765876
Si Si2 0.596352 0.621077 0.015620
Si Si3 0.899966 0.508425 0.498886
Si Si4 0.607402 0.116485 0.226153
Si Si5 0.100801 0.838076 0.647366
Si Si6 0.068736 0.540548 0.053501
Si Si7 0.361348 0.758534 0.111926
Si Si8 0.164912 0.827910 0.894703
O O1 0.441775 0.191930 0.490082
O O2 0.188811 0.369172 0.941361
O O3 0.323148 0.081064 0.844832
O O4 0.421610 0.306984 0.790191
O O5 0.738988 0.612527 0.761416
O O6 0.598753 0.436292 0.005126
O O7 0.470860 0.752838 0.094942
O O8 0.927945 0.325528 0.370393
O O9 0.000000 0.500000 0.500000
O O10 0.939470 0.616943 0.342790
O O11 0.685211 0.207343 0.232570
O O12 0.624001 0.141324 0.035972
O O13 0.203219 0.853350 0.392034
O O14 0.174670 0.829389 0.707533
O O15 0.952266 0.001584 0.860981
O O16 0.132664 0.672168 0.960795
O O17 0.000000 0.500000 0.000000
#
# Coordination Sequence:
#
# PCOD8019378 Si02
#       8
#     2   2   2   2   2   2   2   2
#     4  11  25  45  64  94 135 171 218 272 330 393
#     4  10  22  41  67  92 134 171 216 274 319 393
#     4  11  22  41  66  96 136 175 212 270 329 384
#     4  11  26  42  67  97 131 173 216 274 332 390
#     4  10  23  43  65  96 135 170 216 271 327 388
#     4  12  25  42  68  99 130 176 224 266 326 395
#     4  10  23  42  66  99 125 172 224 266 329 385
#     4  11  24  42  69  95 131 175 216 272 325 393
#
# _framework density 21.173414000000001
#
# number of rings (size 3 to 8) (size 9 to 14) (size 15 to 20)
#    0.000    1.250    2.500    2.250    5.250    5.000 
#    0.000    0.000    0.000    0.000    0.000    0.000 
#    0.000    0.000    0.000    0.000    0.000    0.000 
#
# Total GULP energy -198396.531393 kJ/mol
# GULP energy per Si atom -12399.783212 kJ/mol
# Density = 2.112522 g / cm^3
# Si number density = 21.173414 Si / 1000 Ang^3
#
#
#
# Elastic Constant Matrix: (Units=GPa)
#
#
# Indices 1 2 3 4 5 6 
#
# 1 121.7780 19.3313 18.0697 -8.9678 4.4087 4.1928
# 2 19.3313 76.1729 35.7902 -15.8091 3.4551 -0.6867
# 3 18.0697 35.7902 106.2674 -25.3300 12.5433 -7.5488
# 4 -8.9678 -15.8091 -25.3300 34.4466 -1.0559 10.0347
# 5 4.4087 3.4551 12.5433 -1.0559 38.1543 -3.4250
# 6 4.1928 -0.6867 -7.5488 10.0347 -3.4250 28.0691
#
#
#
# Elastic Compliance Matrix: (Units=1/GPa)
#
#
# Indices 1 2 3 4 5 6 
#
# 1 0.008786 -0.001562 -0.000613 0.001747 -0.000825 -0.002241
# 2 -0.001562 0.016504 -0.004357 0.004598 0.000051 -0.002173
# 3 -0.000613 -0.004357 0.013179 0.007279 -0.003622 0.000485
# 4 0.001747 0.004598 0.007279 0.040672 -0.003062 -0.013105
# 5 -0.000825 0.000051 -0.003622 -0.003062 0.027732 0.003629
# 6 -0.002241 -0.002173 0.000485 -0.013105 0.003629 0.041166
#
#
# Mechanical properties :
#
#
# Convention : Reuss Voigt Hill
#
# Bulk Modulus (GPa) = 39.36257 50.06676 44.71466
# Shear Modulus (GPa) = 29.48588 35.53581 32.51084
#
# Velocity S-wave (km/s) = 3.73579 4.10118 3.92274
# Velocity P-wave (km/s) = 6.10238 6.79144 6.45611
#
# Compressibility (1/GPa) = 0.02540485
#
# Stress axis : x y z
#
# Youngs Moduli (GPa) = 113.81390 60.59105 75.87765
#
# Poissons Ratio (x) = 0.09463 0.04654
# Poissons Ratio (y) = 0.17775 0.33061
# Poissons Ratio (z) = 0.06981 0.26400
#
# Static dielectric constant tensor:
#      x y z
#    x 3.942940 0.068650 0.083540 
#    y 0.068650 3.831070 -0.226620 
#    z 0.083540 -0.226620 4.207340 
# 
# 
# High freq. dielectric constant tensor:
#      x y z
#    x 1.843200 0.008280 -0.000370 
#    y 0.008280 1.819020 -0.008020 
#    z -0.000370 -0.008020 1.846740 
# 
# From -- ./inp_files/186077.got.cif
#   From: 2010.06.25/outbox.cif.g09.slc.cpg/sg2_94_cif.got.tgz:186077.got - 2010.06.27 13:26:56.
