data_PCOD8019399
_publ_section_title
;
Structure prediction by ZEFSAII (Michael W. Deem and Ramdas Pophale) SiO2 
 PCOD8019399
Probable space group: P -1
;
_chemical_formula_sum "Si O2"
_cell_formula_units_Z 14
_cell_length_a 11.048928
_cell_length_b 8.875479
_cell_length_c 12.390839
_cell_angle_alpha 61.136164
_cell_angle_beta 129.356926
_cell_angle_gamma 137.371021
_cell_volume 635.991918
_symmetry_space_group_name_H-M "P -1"
_symmetry_group_IT_number 2
_symmetry_cell_setting 'triclinic'
loop_
_space_group_symop_operation_xyz
x,y,z
-x,-y,-z
loop_
_atom_site_type_symbol
_atom_site_label
_atom_site_fract_x
_atom_site_fract_y
_atom_site_fract_z
Si Si1 0.345931 0.639803 0.523497
Si Si2 0.720971 0.074926 0.479858
Si Si3 0.618690 0.229144 0.046960
Si Si4 0.350215 0.390673 0.186442
Si Si5 0.934439 0.235281 0.323962
Si Si6 0.991770 0.970735 0.745193
Si Si7 0.649136 0.760259 0.976400
O O1 0.274677 0.726579 0.543525
O O2 0.441928 0.539751 0.670425
O O3 0.155137 0.440836 0.417615
O O4 0.502870 0.836524 0.461002
O O5 0.771188 0.097780 0.374246
O O6 0.895997 0.092338 0.635117
O O7 0.847483 0.329372 0.167444
O O8 0.490904 0.170533 0.105787
O O9 0.615807 0.395532 0.912926
O O10 0.500000 0.000000 0.000000
O O11 0.174752 0.276778 0.215520
O O12 0.272772 0.200879 0.115736
O O13 0.939649 0.061325 0.319393
O O14 0.173520 0.120324 0.878272
O O15 0.500000 0.500000 0.000000
#
# Coordination Sequence:
#
# PCOD8019399 Si02
#       7
#     2   2   2   2   2   2   2
#     4  10  24  46  70 103 130 179 229 271 344 394
#     4  10  24  44  71  99 137 176 227 277 328 416
#     4  11  24  43  65 100 134 174 225 272 343 395
#     4  10  24  44  69  94 137 177 224 285 323 409
#     4  12  25  41  69 101 138 177 220 283 336 401
#     4  11  24  43  66 104 132 179 225 275 347 387
#     4  10  22  41  67  94 132 177 224 274 329 399
#
# _framework density 22.012858000000001
#
# number of rings (size 3 to 8) (size 9 to 14) (size 15 to 20)
#    0.000    1.429    1.429    2.143    8.000    5.143 
#    5.143    0.000    0.000    0.000    0.000    0.000 
#    0.000    0.000    0.000    0.000    0.000    0.000 
#
# Total GULP energy -173578.340695 kJ/mol
# GULP energy per Si atom -12398.452907 kJ/mol
# Density = 2.196276 g / cm^3
# Si number density = 22.012858 Si / 1000 Ang^3
#
#
#
# Elastic Constant Matrix: (Units=GPa)
#
#
# Indices 1 2 3 4 5 6 
#
# 1 134.6379 46.5306 51.4270 11.2516 -1.3414 -2.9808
# 2 46.5306 90.1512 71.5480 14.5390 12.5274 -11.1979
# 3 51.4270 71.5480 134.2900 22.5955 16.8133 2.8701
# 4 11.2516 14.5390 22.5955 42.5750 1.9963 0.1838
# 5 -1.3414 12.5274 16.8133 1.9963 39.9289 4.1970
# 6 -2.9808 -11.1979 2.8701 0.1838 4.1970 26.4416
#
#
#
# Elastic Compliance Matrix: (Units=1/GPa)
#
#
# Indices 1 2 3 4 5 6 
#
# 1 0.009476 -0.003807 -0.001825 -0.000344 0.002374 -0.000720
# 2 -0.003807 0.023779 -0.010713 -0.001280 -0.004220 0.011483
# 3 -0.001825 -0.010713 0.014859 -0.003619 -0.002146 -0.005989
# 4 -0.000344 -0.001280 -0.003619 0.025907 0.000669 -0.000474
# 5 0.002374 -0.004220 -0.002146 0.000669 0.027920 -0.005723
# 6 -0.000720 0.011483 -0.005989 -0.000474 -0.005723 0.044163
#
#
# Mechanical properties :
#
#
# Convention : Reuss Voigt Hill
#
# Bulk Modulus (GPa) = 64.82929 77.56557 71.19743
# Shear Modulus (GPa) = 27.18364 34.42732 30.80548
#
# Velocity S-wave (km/s) = 3.51792 3.95899 3.74496
# Velocity P-wave (km/s) = 6.78348 7.49741 7.14936
#
# Compressibility (1/GPa) = 0.01542513
#
# Stress axis : x y z
#
# Youngs Moduli (GPa) = 105.52520 42.05462 67.30116
#
# Poissons Ratio (x) = 0.16009 0.12281
# Poissons Ratio (y) = 0.40171 0.72098
# Poissons Ratio (z) = 0.19256 0.45052
#
# Static dielectric constant tensor:
#      x y z
#    x 5.292020 -0.469950 -0.235480 
#    y -0.469950 3.975630 0.005670 
#    z -0.235480 0.005670 4.260300 
# 
# 
# High freq. dielectric constant tensor:
#      x y z
#    x 1.890220 -0.002320 0.007010 
#    y -0.002320 1.851910 0.006140 
#    z 0.007010 0.006140 1.872860 
# 
# From -- ./inp_files/279267.got.cif
#   From: 2010.06.25/outbox.cif.g09.slc.cpg/sg2_140_cif.got.tgz:279267.got - 2010.06.27 13:26:56.
