data_PCOD8019919
_publ_section_title
;
Structure prediction by ZEFSAII (Michael W. Deem and Ramdas Pophale) SiO2 
 PCOD8019919
Probable space group: P -1
;
_chemical_formula_sum "Si O2"
_cell_formula_units_Z 16
_cell_length_a 12.725040
_cell_length_b 9.774472
_cell_length_c 11.871338
_cell_angle_alpha 136.027003
_cell_angle_beta 55.940210
_cell_angle_gamma 133.349197
_cell_volume 739.107200
_symmetry_space_group_name_H-M "P -1"
_symmetry_group_IT_number 2
_symmetry_cell_setting 'triclinic'
loop_
_space_group_symop_operation_xyz
x,y,z
-x,-y,-z
loop_
_atom_site_type_symbol
_atom_site_label
_atom_site_fract_x
_atom_site_fract_y
_atom_site_fract_z
Si Si1 0.383644 0.497176 0.856741
Si Si2 0.322355 0.025207 0.615008
Si Si3 0.398858 0.808127 0.857482
Si Si4 0.876040 0.436633 0.627436
Si Si5 0.400265 0.781096 0.587834
Si Si6 0.124614 0.534415 0.103967
Si Si7 0.128318 0.837218 0.094892
Si Si8 0.708503 0.638932 0.726886
O O1 0.382520 0.571433 0.771218
O O2 0.554952 0.604572 0.850939
O O3 0.285568 0.226713 0.772046
O O4 0.295160 0.594507 0.039514
O O5 0.218027 0.834935 0.477780
O O6 0.313425 0.910326 0.675027
O O7 0.479825 0.149916 0.538943
O O8 0.462520 0.850282 0.717503
O O9 0.242201 0.789618 0.929428
O O10 0.500000 0.000000 0.000000
O O11 0.939490 0.502221 0.753703
O O12 0.781161 0.559199 0.732110
O O13 0.000000 0.500000 0.500000
O O14 0.308636 0.508531 0.463541
O O15 0.116762 0.743440 0.173511
O O16 0.027347 0.302051 0.955536
O O17 0.182588 0.103061 0.220575
#
# Coordination Sequence:
#
# PCOD8019919 Si02
#       8
#     2   2   2   2   2   2   2   2
#     4  10  22  42  63 101 121 164 213 260 324 372
#     4   9  21  40  61  91 126 164 211 261 316 370
#     4  11  22  38  65  96 130 166 211 259 315 380
#     4  11  26  42  64  93 129 173 217 252 320 379
#     4   9  21  39  63  92 129 164 205 267 313 368
#     4  10  25  43  65  92 134 168 209 266 316 378
#     4  10  23  43  64  96 127 167 214 261 323 371
#     4  10  22  42  66  99 126 162 217 260 316 385
#
# _framework density 21.647736999999999
#
# number of rings (size 3 to 8) (size 9 to 14) (size 15 to 20)
#    0.000    2.000    1.250    0.750    8.750    5.000 
#    0.000    0.625    0.000    0.000    0.000    0.000 
#    0.000    0.000    0.000    0.000    0.000    0.000 
#
# Total GULP energy -198259.853551 kJ/mol
# GULP energy per Si atom -12391.240847 kJ/mol
# Density = 2.159847 g / cm^3
# Si number density = 21.647737 Si / 1000 Ang^3
#
#
#
# Elastic Constant Matrix: (Units=GPa)
#
#
# Indices 1 2 3 4 5 6 
#
# 1 93.1333 42.6008 44.3659 -6.4068 9.4856 -4.3052
# 2 42.6008 130.6947 55.7932 24.7608 11.1593 -15.3039
# 3 44.3659 55.7932 73.5934 -0.4833 21.5993 -16.8310
# 4 -6.4068 24.7608 -0.4833 50.2149 -1.9060 0.8232
# 5 9.4856 11.1593 21.5993 -1.9060 34.7643 -6.7273
# 6 -4.3052 -15.3039 -16.8310 0.8232 -6.7273 26.2957
#
#
#
# Elastic Compliance Matrix: (Units=1/GPa)
#
#
# Indices 1 2 3 4 5 6 
#
# 1 0.016212 -0.002661 -0.009194 0.003421 0.001457 -0.004513
# 2 -0.002661 0.013822 -0.008883 -0.007211 0.001924 0.002641
# 3 -0.009194 -0.008883 0.031885 0.002876 -0.012259 0.010507
# 4 0.003421 -0.007211 0.002876 0.023991 0.000438 -0.002434
# 5 0.001457 0.001924 -0.012259 0.000438 0.035910 0.002685
# 6 -0.004513 0.002641 0.010507 -0.002434 0.002685 0.046315
#
#
# Mechanical properties :
#
#
# Convention : Reuss Voigt Hill
#
# Bulk Modulus (GPa) = 48.91249 64.77124 56.84187
# Shear Modulus (GPa) = 23.10275 32.56574 27.83424
#
# Velocity S-wave (km/s) = 3.27037 3.88280 3.58967
# Velocity P-wave (km/s) = 6.07488 7.07722 6.59512
#
# Compressibility (1/GPa) = 0.02044467
#
# Stress axis : x y z
#
# Youngs Moduli (GPa) = 61.68137 72.34956 31.36305
#
# Poissons Ratio (x) = 0.19251 0.28834
# Poissons Ratio (y) = 0.16412 0.27858
# Poissons Ratio (z) = 0.56708 0.64265
#
# Static dielectric constant tensor:
#      x y z
#    x 3.683150 -1.054580 -0.715320 
#    y -1.054580 2.187930 -0.812200 
#    z -0.715320 -0.812200 2.984420 
# 
# 
# High freq. dielectric constant tensor:
#      x y z
#    x 1.848820 -0.005820 -0.009170 
#    y -0.005820 1.861600 0.013630 
#    z -0.009170 0.013630 1.820340 
# 
# From -- ./inp_files/419967.got.cif
#   From: 2010.06.25/outbox.cif.g09.slc.cpg/sg2_210_cif.got.tgz:419967.got - 2010.06.27 13:26:56.
