data_PCOD8019117
_publ_section_title
;
Structure prediction by ZEFSAII (Michael W. Deem and Ramdas Pophale) SiO2 
 PCOD8019117
Probable space group: P -1
;
_chemical_formula_sum "Si O2"
_cell_formula_units_Z 16
_cell_length_a 8.721360
_cell_length_b 14.662142
_cell_length_c 14.997775
_cell_angle_alpha 140.982052
_cell_angle_beta 57.874216
_cell_angle_gamma 92.803002
_cell_volume 746.668291
_symmetry_space_group_name_H-M "P -1"
_symmetry_group_IT_number 2
_symmetry_cell_setting 'triclinic'
loop_
_space_group_symop_operation_xyz
x,y,z
-x,-y,-z
loop_
_atom_site_type_symbol
_atom_site_label
_atom_site_fract_x
_atom_site_fract_y
_atom_site_fract_z
Si Si1 0.239371 0.251078 0.498205
Si Si2 0.763825 0.577438 0.187912
Si Si3 0.164663 0.790901 0.094092
Si Si4 0.315810 0.751318 0.827268
Si Si5 0.612643 0.089328 0.559023
Si Si6 0.864572 0.429008 0.352551
Si Si7 0.348524 0.043377 0.988046
Si Si8 0.208326 0.969776 0.359929
O O1 0.293842 0.296792 0.610968
O O2 0.107963 0.438716 0.615146
O O3 0.091537 0.182935 0.515639
O O4 0.480996 0.048886 0.222773
O O5 0.540784 0.700771 0.280714
O O6 0.771042 0.410216 0.089891
O O7 0.000000 0.500000 0.000000
O O8 0.326029 0.796155 0.118784
O O9 0.220757 0.836984 0.019705
O O10 0.885325 0.960937 0.340470
O O11 0.615810 0.570184 0.596573
O O12 0.167145 0.694339 0.793464
O O13 0.242894 0.937551 0.940289
O O14 0.500000 0.000000 0.500000
O O15 0.583243 0.109853 0.690951
O O16 0.111152 0.279310 0.224353
O O17 0.500000 0.000000 0.000000
O O18 0.000000 0.000000 0.500000
#
# Coordination Sequence:
#
# PCOD8019117 Si02
#       8
#     2   2   2   2   2   2   2   2
#     4  11  23  41  69  96 128 178 231 264 336 401
#     4  12  23  39  64  97 129 171 225 268 319 395
#     4  11  23  41  66  96 133 169 221 275 335 394
#     4  10  22  41  65 101 129 173 224 274 332 397
#     4  11  22  40  66  94 130 179 219 275 324 389
#     4  10  23  43  69  95 133 171 225 280 325 404
#     4  11  25  44  67  99 137 175 217 280 346 402
#     4  10  22  43  63  95 137 169 217 275 329 389
#
# _framework density 21.428523999999999
#
# number of rings (size 3 to 8) (size 9 to 14) (size 15 to 20)
#    0.000    1.250    3.750    1.875    1.750    4.500 
#    0.000    6.250    0.000    0.000    0.000    0.000 
#    0.000    0.000    0.000    0.000    0.000    0.000 
#
# Total GULP energy -198210.029731 kJ/mol
# GULP energy per Si atom -12388.126858 kJ/mol
# Density = 2.137975 g / cm^3
# Si number density = 21.428524 Si / 1000 Ang^3
#
#
#
# Elastic Constant Matrix: (Units=GPa)
#
#
# Indices 1 2 3 4 5 6 
#
# 1 103.0568 48.1501 37.3481 -6.9333 12.8146 -7.9225
# 2 48.1501 124.1879 40.8317 2.4201 -3.7054 7.9279
# 3 37.3481 40.8317 87.7495 -5.8801 6.4888 -14.1658
# 4 -6.9333 2.4201 -5.8801 40.9133 -13.3238 9.9188
# 5 12.8146 -3.7054 6.4888 -13.3238 35.9657 7.3546
# 6 -7.9225 7.9279 -14.1658 9.9188 7.3546 42.0678
#
#
#
# Elastic Compliance Matrix: (Units=1/GPa)
#
#
# Indices 1 2 3 4 5 6 
#
# 1 0.013986 -0.004987 -0.002595 -0.000629 -0.006061 0.003908
# 2 -0.004987 0.012102 -0.004824 0.001002 0.005501 -0.006042
# 3 -0.002595 -0.004824 0.016089 -0.000840 -0.004170 0.006765
# 4 -0.000629 0.001002 -0.000840 0.031323 0.014222 -0.010462
# 5 -0.006061 0.005501 -0.004170 0.014222 0.039378 -0.013820
# 6 0.003908 -0.006042 0.006765 -0.010462 -0.013820 0.032807
#
#
# Mechanical properties :
#
#
# Convention : Reuss Voigt Hill
#
# Bulk Modulus (GPa) = 57.58673 63.07266 60.32969
# Shear Modulus (GPa) = 28.36293 36.36697 32.36495
#
# Velocity S-wave (km/s) = 3.64209 4.12409 3.89056
# Velocity P-wave (km/s) = 6.67972 7.22325 6.95679
#
# Compressibility (1/GPa) = 0.01736511
#
# Stress axis : x y z
#
# Youngs Moduli (GPa) = 71.50116 82.62819 62.15264
#
# Poissons Ratio (x) = 0.41210 0.16129
# Poissons Ratio (y) = 0.35661 0.29981
# Poissons Ratio (z) = 0.18554 0.39859
#
# Static dielectric constant tensor:
#      x y z
#    x 1.799550 1.605390 1.275210 
#    y 1.605390 3.132380 -0.709580 
#    z 1.275210 -0.709580 3.557200 
# 
# 
# High freq. dielectric constant tensor:
#      x y z
#    x 1.837550 0.009000 0.024660 
#    y 0.009000 1.862720 -0.007380 
#    z 0.024660 -0.007380 1.832310 
# 
# From -- ./inp_files/504366.got.cif
#   From: 2010.06.25/outbox.cif.g09.slc.cpg/sg2_253_cif.got.tgz:504366.got - 2010.06.27 13:26:56.
