data_PCOD8019840
_publ_section_title
;
Structure prediction by ZEFSAII (Michael W. Deem and Ramdas Pophale) SiO2 
 PCOD8019840
Probable space group: P -1
;
_chemical_formula_sum "Si O2"
_cell_formula_units_Z 16
_cell_length_a 8.005515
_cell_length_b 18.243624
_cell_length_c 8.641368
_cell_angle_alpha 119.537499
_cell_angle_beta 76.357459
_cell_angle_gamma 139.409784
_cell_volume 692.719424
_symmetry_space_group_name_H-M "P -1"
_symmetry_group_IT_number 2
_symmetry_cell_setting 'triclinic'
loop_
_space_group_symop_operation_xyz
x,y,z
-x,-y,-z
loop_
_atom_site_type_symbol
_atom_site_label
_atom_site_fract_x
_atom_site_fract_y
_atom_site_fract_z
Si Si1 0.958726 0.633254 0.008317
Si Si2 0.150132 0.117389 0.471986
Si Si3 0.530307 0.347047 0.825187
Si Si4 0.083588 0.122733 0.163797
Si Si5 0.066976 0.648798 0.341203
Si Si6 0.821268 0.145090 0.994378
Si Si7 0.369370 0.642329 0.843909
Si Si8 0.455644 0.871907 0.708044
O O1 0.958511 0.722853 0.014232
O O2 0.189197 0.657583 0.922734
O O3 0.671502 0.485687 0.885852
O O4 0.984169 0.662683 0.214903
O O5 0.257975 0.234855 0.673821
O O6 0.987963 0.094958 0.337128
O O7 0.382178 0.153229 0.370485
O O8 0.000000 0.000000 0.500000
O O9 0.714940 0.337936 0.734764
O O10 0.478497 0.324856 0.996476
O O11 0.402087 0.255488 0.224696
O O12 0.939905 0.137231 0.103411
O O13 0.000000 0.000000 0.000000
O O14 0.191036 0.766025 0.549244
O O15 0.815371 0.505689 0.322774
O O16 0.630817 0.145082 0.112744
O O17 0.651634 0.024108 0.785453
#
# Coordination Sequence:
#
# PCOD8019840 Si02
#       8
#     2   2   2   2   2   2   2   2
#     4   9  18  37  64  91 119 157 199 248 301 352
#     4  11  22  41  65  90 116 156 207 251 294 358
#     4   8  17  35  62  93 120 152 202 249 292 354
#     4  12  24  40  59  86 121 162 203 247 304 355
#     4   8  17  37  63  93 117 154 204 247 288 353
#     4  11  24  40  58  88 127 163 197 242 308 358
#     4   9  18  37  67  90 118 156 200 247 296 354
#     4  10  22  42  59  87 124 155 204 244 295 357
#
# _framework density 23.097376000000001
#
# number of rings (size 3 to 8) (size 9 to 14) (size 15 to 20)
#    0.000    2.250    1.250    3.000    1.750    1.500 
#    2.250    8.750    0.000    0.000    0.000    0.000 
#    0.000    0.000    0.000    0.000    0.000    0.000 
#
# Total GULP energy -198259.040794 kJ/mol
# GULP energy per Si atom -12391.190050 kJ/mol
# Density = 2.304481 g / cm^3
# Si number density = 23.097376 Si / 1000 Ang^3
#
#
#
# Elastic Constant Matrix: (Units=GPa)
#
#
# Indices 1 2 3 4 5 6 
#
# 1 48.1867 27.6081 23.8793 2.8010 9.3089 -18.7788
# 2 27.6081 169.7999 65.6169 18.9548 24.6024 -32.1999
# 3 23.8793 65.6169 154.7375 34.4425 27.8300 -20.5525
# 4 2.8010 18.9548 34.4425 34.7822 5.1427 0.0193
# 5 9.3089 24.6024 27.8300 5.1427 28.2698 -4.6291
# 6 -18.7788 -32.1999 -20.5525 0.0193 -4.6291 36.1496
#
#
#
# Elastic Compliance Matrix: (Units=1/GPa)
#
#
# Indices 1 2 3 4 5 6 
#
# 1 0.027655 -0.000990 -0.001479 0.000497 -0.004911 0.012013
# 2 -0.000990 0.008607 -0.001345 -0.002630 -0.004408 0.005824
# 3 -0.001479 -0.001345 0.010955 -0.008972 -0.006942 0.003378
# 4 0.000497 -0.002630 -0.008972 0.038616 0.002811 -0.006846
# 5 -0.004911 -0.004408 -0.006942 0.002811 0.046415 -0.004482
# 6 0.012013 0.005824 0.003378 -0.006846 -0.004482 0.040441
#
#
# Mechanical properties :
#
#
# Convention : Reuss Voigt Hill
#
# Bulk Modulus (GPa) = 25.26079 67.43697 46.34888
# Shear Modulus (GPa) = 25.83771 36.88162 31.35967
#
# Velocity S-wave (km/s) = 3.34824 4.00032 3.68872
# Velocity P-wave (km/s) = 5.08999 7.11315 6.18486
#
# Compressibility (1/GPa) = 0.03958704
#
# Stress axis : x y z
#
# Youngs Moduli (GPa) = 36.15992 116.18658 91.27874
#
# Poissons Ratio (x) = 0.11508 0.13504
# Poissons Ratio (y) = 0.03582 0.12279
# Poissons Ratio (z) = 0.05350 0.15629
#
# Static dielectric constant tensor:
#      x y z
#    x 3.841640 0.036400 0.174510 
#    y 0.036400 4.272270 0.180900 
#    z 0.174510 0.180900 4.717290 
# 
# 
# High freq. dielectric constant tensor:
#      x y z
#    x 1.887470 -0.000930 0.003570 
#    y -0.000930 1.917560 0.012470 
#    z 0.003570 0.012470 1.911680 
# 
# From -- ./inp_files/218270.got.cif
#   From: 2010.06.25/outbox.cif.g09.slc.cpg/sg2_110_cif.got.tgz:218270.got - 2010.06.27 13:26:56.
