data_PCOD8019671
_publ_section_title
;
Structure prediction by ZEFSAII (Michael W. Deem and Ramdas Pophale) SiO2 
 PCOD8019671
Probable space group: P -1
;
_chemical_formula_sum "Si O2"
_cell_formula_units_Z 16
_cell_length_a 15.078380
_cell_length_b 24.417322
_cell_length_c 18.481141
_cell_angle_alpha 20.717922
_cell_angle_beta 29.004509
_cell_angle_gamma 17.352985
_cell_volume 707.206865
_symmetry_space_group_name_H-M "P -1"
_symmetry_group_IT_number 2
_symmetry_cell_setting 'triclinic'
loop_
_space_group_symop_operation_xyz
x,y,z
-x,-y,-z
loop_
_atom_site_type_symbol
_atom_site_label
_atom_site_fract_x
_atom_site_fract_y
_atom_site_fract_z
Si Si1 0.399130 0.617139 0.139297
Si Si2 0.030773 0.152555 0.316510
Si Si3 0.177511 0.976127 0.122083
Si Si4 0.317626 0.185247 0.969612
Si Si5 0.203815 0.017150 0.524914
Si Si6 0.196326 0.500374 0.321268
Si Si7 0.178782 0.249851 0.383695
Si Si8 0.058156 0.852873 0.236074
O O1 0.721229 0.444537 0.154341
O O2 0.389019 0.468252 0.282580
O O3 0.169388 0.745053 0.210289
O O4 0.283293 0.844760 0.895878
O O5 0.000000 0.000000 0.500000
O O6 0.068185 0.139466 0.391575
O O7 0.298756 0.059602 0.197440
O O8 0.971986 0.005199 0.283355
O O9 0.496150 0.795416 0.155465
O O10 0.254953 0.843152 0.154263
O O11 0.011705 0.250712 0.887125
O O12 0.973469 0.476678 0.838426
O O13 0.500000 0.000000 0.000000
O O14 0.558353 0.739905 0.609911
O O15 0.183368 0.190023 0.371092
O O16 0.000000 0.500000 0.500000
O O17 0.936346 0.311346 0.523908
O O18 0.500000 0.000000 0.500000
#
# Coordination Sequence:
#
# PCOD8019671 Si02
#       8
#     2   2   2   2   2   2   2   2
#     4  10  22  41  69  99 138 182 229 285 349 414
#     4  12  25  45  69 102 141 180 231 283 357 416
#     4  10  24  44  67 100 137 183 240 285 351 415
#     4  12  29  46  72 105 138 185 234 294 350 426
#     4  11  25  44  70 100 142 189 229 294 351 418
#     4  11  23  41  70 102 141 186 239 288 350 412
#     4  11  27  46  71 101 140 184 237 290 356 411
#     4   9  22  43  69  97 133 185 227 289 348 414
#
# _framework density 22.624213999999998
#
# number of rings (size 3 to 8) (size 9 to 14) (size 15 to 20)
#    0.000    1.250    1.250    2.625    8.750    1.500 
#    4.500    0.000    0.000    0.000    0.000    0.000 
#    0.000    0.000    0.000    0.000    0.000    0.000 
#
# Total GULP energy -198360.119042 kJ/mol
# GULP energy per Si atom -12397.507440 kJ/mol
# Density = 2.257272 g / cm^3
# Si number density = 22.624214 Si / 1000 Ang^3
#
#
#
# Elastic Constant Matrix: (Units=GPa)
#
#
# Indices 1 2 3 4 5 6 
#
# 1 119.2837 28.8883 34.4251 -9.6504 15.9881 8.4745
# 2 28.8883 94.0399 40.3588 -2.2383 1.0456 5.5316
# 3 34.4251 40.3588 104.2420 6.3983 6.1576 12.6012
# 4 -9.6504 -2.2383 6.3983 34.5823 4.9967 3.2336
# 5 15.9881 1.0456 6.1576 4.9967 28.1532 -3.6196
# 6 8.4745 5.5316 12.6012 3.2336 -3.6196 42.3912
#
#
#
# Elastic Compliance Matrix: (Units=1/GPa)
#
#
# Indices 1 2 3 4 5 6 
#
# 1 0.011007 -0.002006 -0.002486 0.004571 -0.006717 -0.002122
# 2 -0.002006 0.013231 -0.004619 0.000923 0.001508 0.000106
# 3 -0.002486 -0.004619 0.012752 -0.002968 -0.001007 -0.002551
# 4 0.004571 0.000923 -0.002968 0.032286 -0.008136 -0.003309
# 5 -0.006717 0.001508 -0.001007 -0.008136 0.041666 0.005624
# 6 -0.002122 0.000106 -0.002551 -0.003309 0.005624 0.025491
#
#
# Mechanical properties :
#
#
# Convention : Reuss Voigt Hill
#
# Bulk Modulus (GPa) = 53.27755 58.32335 55.80045
# Shear Modulus (GPa) = 31.07301 35.28489 33.17895
#
# Velocity S-wave (km/s) = 3.71002 3.95347 3.83368
# Velocity P-wave (km/s) = 6.47706 6.83191 6.65685
#
# Compressibility (1/GPa) = 0.01876963
#
# Stress axis : x y z
#
# Youngs Moduli (GPa) = 90.84749 75.57858 78.41865
#
# Poissons Ratio (x) = 0.15164 0.19492
# Poissons Ratio (y) = 0.18228 0.36219
# Poissons Ratio (z) = 0.22581 0.34907
#
# Static dielectric constant tensor:
#      x y z
#    x 4.197080 -0.072860 0.064070 
#    y -0.072860 4.091570 -0.093570 
#    z 0.064070 -0.093570 4.230730 
# 
# 
# High freq. dielectric constant tensor:
#      x y z
#    x 1.897650 0.001160 0.007790 
#    y 0.001160 1.892880 -0.002320 
#    z 0.007790 -0.002320 1.902170 
# 
# From -- ./inp_files/574399.got.cif
#   From: 2010.06.25/outbox.cif.g09.slc.cpg/sg2_288_cif.got.tgz:574399.got - 2010.06.27 13:26:56.
