data_PCOD8019082
_publ_section_title
;
Structure prediction by ZEFSAII (Michael W. Deem and Ramdas Pophale) SiO2 
 PCOD8019082
Probable space group: P -1
;
_chemical_formula_sum "Si O2"
_cell_formula_units_Z 16
_cell_length_a 9.678546
_cell_length_b 9.261592
_cell_length_c 11.120665
_cell_angle_alpha 107.891195
_cell_angle_beta 58.770134
_cell_angle_gamma 127.221125
_cell_volume 678.737275
_symmetry_space_group_name_H-M "P -1"
_symmetry_group_IT_number 2
_symmetry_cell_setting 'triclinic'
loop_
_space_group_symop_operation_xyz
x,y,z
-x,-y,-z
loop_
_atom_site_type_symbol
_atom_site_label
_atom_site_fract_x
_atom_site_fract_y
_atom_site_fract_z
Si Si1 0.367409 0.161997 0.751490
Si Si2 0.250953 0.109986 0.527375
Si Si3 0.732036 0.548860 0.674467
Si Si4 0.142510 0.335133 0.908338
Si Si5 0.741981 0.167202 0.127652
Si Si6 0.990500 0.238295 0.605588
Si Si7 0.934260 0.528616 0.801664
Si Si8 0.468085 0.660630 0.736242
O O1 0.300393 0.073032 0.627163
O O2 0.584066 0.333580 0.687538
O O3 0.216839 0.208870 0.880858
O O4 0.365825 0.030992 0.818022
O O5 0.087549 0.157789 0.624678
O O6 0.440855 0.279828 0.422610
O O7 0.179081 0.930396 0.435987
O O8 0.856609 0.605034 0.512162
O O9 0.872357 0.602848 0.737561
O O10 0.617968 0.651739 0.755413
O O11 0.266715 0.458153 0.768181
O O12 0.193306 0.483483 0.028842
O O13 0.908530 0.209831 0.964571
O O14 0.579652 0.195960 0.153055
O O15 0.843335 0.313590 0.228828
O O16 0.904630 0.332961 0.746300
#
# Coordination Sequence:
#
# PCOD8019082 Si02
#       8
#     2   2   2   2   2   2   2   2
#     4  11  23  39  67  99 127 160 217 265 315 363
#     4  10  24  40  67  94 133 163 208 271 314 374
#     4  10  23  39  66  93 130 168 205 266 316 375
#     4   9  23  41  68  89 129 171 212 254 317 377
#     4  10  23  40  66  93 127 166 210 261 309 380
#     4  10  22  43  63  95 129 173 208 251 330 379
#     4  10  23  40  67  88 127 174 209 252 316 384
#     4  10  22  41  64  95 125 163 218 260 310 368
#
# _framework density 23.573186
#
# number of rings (size 3 to 8) (size 9 to 14) (size 15 to 20)
#    0.750    1.250    0.000    1.875    7.000    5.000 
#    0.000    0.625    2.750    0.000    0.000    0.000 
#    0.000    0.000    0.000    0.000    0.000    0.000 
#
# Total GULP energy -198275.104873 kJ/mol
# GULP energy per Si atom -12392.194055 kJ/mol
# Density = 2.351953 g / cm^3
# Si number density = 23.573186 Si / 1000 Ang^3
#
#
#
# Elastic Constant Matrix: (Units=GPa)
#
#
# Indices 1 2 3 4 5 6 
#
# 1 64.5330 28.8478 9.8110 -3.3926 -9.5890 -16.3406
# 2 28.8478 122.8965 30.8332 -5.7703 -9.1520 -13.7757
# 3 9.8110 30.8332 59.9335 -4.6611 -10.9489 2.7836
# 4 -3.3926 -5.7703 -4.6611 41.8966 -1.9872 -1.9908
# 5 -9.5890 -9.1520 -10.9489 -1.9872 13.6061 3.4612
# 6 -16.3406 -13.7757 2.7836 -1.9908 3.4612 37.2533
#
#
#
# Elastic Compliance Matrix: (Units=1/GPa)
#
#
# Indices 1 2 3 4 5 6 
#
# 1 0.020338 -0.003125 0.000108 0.002070 0.010876 0.006857
# 2 -0.003125 0.010483 -0.004901 0.000796 0.000286 0.002888
# 3 0.000108 -0.004901 0.022631 0.002407 0.016580 -0.004868
# 4 0.002070 0.000796 0.002407 0.024832 0.007129 0.001687
# 5 0.010876 0.000286 0.016580 0.007129 0.097008 -0.004994
# 6 0.006857 0.002888 -0.004868 0.001687 -0.004994 0.031837
#
#
# Mechanical properties :
#
#
# Convention : Reuss Voigt Hill
#
# Bulk Modulus (GPa) = 26.58544 42.92746 34.75645
# Shear Modulus (GPa) = 21.23115 30.40926 25.82020
#
# Velocity S-wave (km/s) = 3.00434 3.59554 3.31315
# Velocity P-wave (km/s) = 4.83084 5.95710 5.42329
#
# Compressibility (1/GPa) = 0.03761457
#
# Stress axis : x y z
#
# Youngs Moduli (GPa) = 49.16934 95.39676 44.18687
#
# Poissons Ratio (x) = 0.29814 -0.00477
# Poissons Ratio (y) = 0.15367 0.21657
# Poissons Ratio (z) = -0.00531 0.46755
#
# Static dielectric constant tensor:
#      x y z
#    x 4.273770 -0.167590 -0.281640 
#    y -0.167590 4.096340 -0.089120 
#    z -0.281640 -0.089120 4.009660 
# 
# 
# High freq. dielectric constant tensor:
#      x y z
#    x 1.930020 -0.018450 -0.019990 
#    y -0.018450 1.929250 -0.012770 
#    z -0.019990 -0.012770 1.916240 
# 
# From -- ./inp_files/419597.got.cif
#   From: 2010.06.25/outbox.cif.g09.slc.cpg/sg2_210_cif.got.tgz:419597.got - 2010.06.27 13:26:56.
