data_PCOD8019016
_publ_section_title
;
Structure prediction by ZEFSAII (Michael W. Deem and Ramdas Pophale) SiO2 
 PCOD8019016
Probable space group: P -1
;
_chemical_formula_sum "Si O2"
_cell_formula_units_Z 16
_cell_length_a 8.799880
_cell_length_b 12.509833
_cell_length_c 15.300077
_cell_angle_alpha 45.274524
_cell_angle_beta 63.123484
_cell_angle_gamma 39.248274
_cell_volume 740.774711
_symmetry_space_group_name_H-M "P -1"
_symmetry_group_IT_number 2
_symmetry_cell_setting 'triclinic'
loop_
_space_group_symop_operation_xyz
x,y,z
-x,-y,-z
loop_
_atom_site_type_symbol
_atom_site_label
_atom_site_fract_x
_atom_site_fract_y
_atom_site_fract_z
Si Si1 0.024714 0.323976 0.637325
Si Si2 0.506799 0.423053 0.408520
Si Si3 0.129065 0.951648 0.767238
Si Si4 0.617864 0.209531 0.674991
Si Si5 0.533088 0.444340 0.200380
Si Si6 0.628864 0.935556 0.154124
Si Si7 0.069195 0.739890 0.042397
Si Si8 0.237584 0.424911 0.022117
O O1 0.149981 0.272403 0.726640
O O2 0.000000 0.500000 0.500000
O O3 0.762405 0.413010 0.657596
O O4 0.180036 0.097852 0.676394
O O5 0.568995 0.247788 0.560153
O O6 0.545845 0.556923 0.370699
O O7 0.643254 0.331667 0.332746
O O8 0.380892 0.738194 0.783009
O O9 0.086754 0.893026 0.904356
O O10 0.904303 0.055336 0.701983
O O11 0.546554 0.095456 0.802272
O O12 0.239557 0.640641 0.142795
O O13 0.671377 0.510205 0.106803
O O14 0.779095 0.900025 0.050387
O O15 0.464489 0.162344 0.118315
O O16 0.166663 0.545583 0.064041
O O17 0.000000 0.500000 0.000000
#
# Coordination Sequence:
#
# PCOD8019016 Si02
#       8
#     2   2   2   2   2   2   2   2
#     4  11  21  40  64  94 124 166 222 269 313 378
#     4  10  22  41  64  88 125 170 217 262 318 381
#     4  10  23  41  64  89 133 170 210 266 329 385
#     4  10  23  41  60  92 127 168 217 263 317 389
#     4  11  22  43  65  92 129 172 213 267 324 387
#     4  12  23  39  70  96 129 174 212 268 328 378
#     4  11  24  42  66 101 131 170 216 266 324 390
#     4  11  26  42  63 100 138 167 213 270 322 390
#
# _framework density 21.59901
#
# number of rings (size 3 to 8) (size 9 to 14) (size 15 to 20)
#    0.000    1.250    2.500    4.500    5.250    2.500 
#    0.000    1.875    0.000    0.000    0.000    0.000 
#    0.000    0.000    0.000    0.000    0.000    0.000 
#
# Total GULP energy -198212.032157 kJ/mol
# GULP energy per Si atom -12388.252010 kJ/mol
# Density = 2.154985 g / cm^3
# Si number density = 21.599010 Si / 1000 Ang^3
#
#
#
# Elastic Constant Matrix: (Units=GPa)
#
#
# Indices 1 2 3 4 5 6 
#
# 1 90.5457 27.1855 29.6363 3.7748 -10.6005 7.1274
# 2 27.1855 79.0620 43.7984 -3.8350 -15.1963 -1.6810
# 3 29.6363 43.7984 116.9989 4.7548 -2.8265 14.1937
# 4 3.7748 -3.8350 4.7548 32.6276 7.9377 -0.7221
# 5 -10.6005 -15.1963 -2.8265 7.9377 48.2398 -8.2330
# 6 7.1274 -1.6810 14.1937 -0.7221 -8.2330 25.6018
#
#
#
# Elastic Compliance Matrix: (Units=1/GPa)
#
#
# Indices 1 2 3 4 5 6 
#
# 1 0.013081 -0.003471 -0.001581 -0.002138 0.001607 -0.002537
# 2 -0.003471 0.019323 -0.007315 0.002487 0.005896 0.008256
# 3 -0.001581 -0.007315 0.012674 -0.001982 -0.002961 -0.008075
# 4 -0.002138 0.002487 -0.001982 0.032716 -0.004985 0.001177
# 5 0.001607 0.005896 -0.002961 -0.004985 0.025217 0.009550
# 6 -0.002537 0.008256 -0.008075 0.001177 0.009550 0.047889
#
#
# Mechanical properties :
#
#
# Convention : Reuss Voigt Hill
#
# Bulk Modulus (GPa) = 49.15004 54.20523 51.67763
# Shear Modulus (GPa) = 27.41006 33.69293 30.55150
#
# Velocity S-wave (km/s) = 3.56623 3.95388 3.76505
# Velocity P-wave (km/s) = 6.30574 6.78195 6.54818
#
# Compressibility (1/GPa) = 0.02034586
#
# Stress axis : x y z
#
# Youngs Moduli (GPa) = 76.44928 51.75095 78.89935
#
# Poissons Ratio (x) = 0.17962 0.12471
# Poissons Ratio (y) = 0.26534 0.57713
# Poissons Ratio (z) = 0.12084 0.37855
#
# Static dielectric constant tensor:
#      x y z
#    x 4.113930 0.067740 0.008060 
#    y 0.067740 4.073940 -0.137210 
#    z 0.008060 -0.137210 3.894740 
# 
# 
# High freq. dielectric constant tensor:
#      x y z
#    x 1.856880 0.000370 0.007880 
#    y 0.000370 1.833650 -0.008320 
#    z 0.007880 -0.008320 1.849410 
# 
# From -- ./inp_files/244049.got.cif
#   From: 2010.06.25/outbox.cif.g09.slc.cpg/sg2_123_cif.got.tgz:244049.got - 2010.06.27 13:26:56.
