data_PCOD8019613
_publ_section_title
;
Structure prediction by ZEFSAII (Michael W. Deem and Ramdas Pophale) SiO2 
 PCOD8019613
Probable space group: P -1
;
_chemical_formula_sum "Si O2"
_cell_formula_units_Z 16
_cell_length_a 21.440895
_cell_length_b 8.687418
_cell_length_c 12.152484
_cell_angle_alpha 64.949968
_cell_angle_beta 140.395363
_cell_angle_gamma 144.142769
_cell_volume 712.320967
_symmetry_space_group_name_H-M "P -1"
_symmetry_group_IT_number 2
_symmetry_cell_setting 'triclinic'
loop_
_space_group_symop_operation_xyz
x,y,z
-x,-y,-z
loop_
_atom_site_type_symbol
_atom_site_label
_atom_site_fract_x
_atom_site_fract_y
_atom_site_fract_z
Si Si1 0.810836 0.205982 0.112660
Si Si2 0.501299 0.618074 0.572363
Si Si3 0.505377 0.884544 0.941334
Si Si4 0.049833 0.104191 0.716742
Si Si5 0.176102 0.669429 0.148822
Si Si6 0.613449 0.597775 0.941291
Si Si7 0.120038 0.417657 0.514294
Si Si8 0.125521 0.214154 0.210031
O O1 0.018075 0.452937 0.350993
O O2 0.813880 0.319373 0.972185
O O3 0.698418 0.164080 0.056574
O O4 0.697405 0.869902 0.045315
O O5 0.500000 0.500000 0.500000
O O6 0.491656 0.494648 0.709151
O O7 0.320370 0.454023 0.363423
O O8 0.659084 0.988600 0.675682
O O9 0.335172 0.712480 0.692096
O O10 0.487133 0.664861 0.026849
O O11 0.500000 0.000000 0.000000
O O12 0.079762 0.312689 0.618752
O O13 0.238866 0.300096 0.952464
O O14 0.956482 0.826189 0.601269
O O15 0.942474 0.996515 0.714271
O O16 0.147126 0.435595 0.219537
O O17 0.000000 0.500000 0.000000
O O18 0.000000 0.000000 0.000000
#
# Coordination Sequence:
#
# PCOD8019613 Si02
#       8
#     2   2   2   2   2   2   2   2
#     4  10  22  41  69  90 127 175 218 271 332 399
#     4  11  24  42  66  97 130 180 225 276 336 399
#     4  11  24  39  60  98 136 166 215 274 331 400
#     4   9  19  38  67  91 124 164 216 269 324 395
#     4  11  24  46  67  98 134 175 229 282 340 405
#     4   9  20  41  62  91 125 167 215 270 325 399
#     4   9  20  39  64  95 124 169 215 265 331 400
#     4  12  25  42  67  99 134 177 225 279 336 404
#
# _framework density 22.461784000000002
#
# number of rings (size 3 to 8) (size 9 to 14) (size 15 to 20)
#    0.000    1.750    0.000    5.250    5.250    3.500 
#    9.000    0.000    0.000    0.000    0.000    0.000 
#    0.000    0.000    0.000    0.000    0.000    0.000 
#
# Total GULP energy -198210.737105 kJ/mol
# GULP energy per Si atom -12388.171069 kJ/mol
# Density = 2.241066 g / cm^3
# Si number density = 22.461784 Si / 1000 Ang^3
#
#
#
# Elastic Constant Matrix: (Units=GPa)
#
#
# Indices 1 2 3 4 5 6 
#
# 1 118.2164 7.2521 34.0106 6.4282 10.4319 11.5812
# 2 7.2521 35.8725 12.5689 2.7842 -4.3432 9.1185
# 3 34.0106 12.5689 135.8727 12.4223 14.8920 0.2488
# 4 6.4282 2.7842 12.4223 24.0368 8.1186 4.8553
# 5 10.4319 -4.3432 14.8920 8.1186 43.1816 -0.1666
# 6 11.5812 9.1185 0.2488 4.8553 -0.1666 31.7865
#
#
#
# Elastic Compliance Matrix: (Units=1/GPa)
#
#
# Indices 1 2 3 4 5 6 
#
# 1 0.009586 -0.000524 -0.002153 -0.000181 -0.001605 -0.003306
# 2 -0.000524 0.032009 -0.003171 -0.001779 0.004740 -0.008670
# 3 -0.002153 -0.003171 0.008725 -0.003254 -0.002188 0.002111
# 4 -0.000181 -0.001779 -0.003254 0.047592 -0.007987 -0.006710
# 5 -0.001605 0.004740 -0.002188 -0.007987 0.026281 0.000600
# 6 -0.003306 -0.008670 0.002111 -0.006710 0.000600 0.036163
#
#
# Mechanical properties :
#
#
# Convention : Reuss Voigt Hill
#
# Bulk Modulus (GPa) = 25.88913 44.18052 35.03483
# Shear Modulus (GPa) = 27.03778 35.54297 31.29037
#
# Velocity S-wave (km/s) = 3.47324 3.98222 3.73641
# Velocity P-wave (km/s) = 5.25694 6.39187 5.85198
#
# Compressibility (1/GPa) = 0.03862625
#
# Stress axis : x y z
#
# Youngs Moduli (GPa) = 104.32078 31.24090 114.60769
#
# Poissons Ratio (x) = 0.01636 0.24670
# Poissons Ratio (y) = 0.05462 0.36343
# Poissons Ratio (z) = 0.22456 0.09907
#
# Static dielectric constant tensor:
#      x y z
#    x 3.823040 0.000370 0.127210 
#    y 0.000370 3.864880 0.136620 
#    z 0.127210 0.136620 4.308880 
# 
# 
# High freq. dielectric constant tensor:
#      x y z
#    x 1.888950 0.005960 0.005030 
#    y 0.005960 1.871680 -0.000760 
#    z 0.005030 -0.000760 1.893830 
# 
# From -- ./inp_files/307819.got.cif
#   From: 2010.06.25/outbox.cif.g09.slc.cpg/sg2_154_cif.got.tgz:307819.got - 2010.06.27 13:26:56.
