data_PCOD8019166
_publ_section_title
;
Structure prediction by ZEFSAII (Michael W. Deem and Ramdas Pophale) SiO2 
 PCOD8019166
Probable space group: P -1
;
_chemical_formula_sum "Si O2"
_cell_formula_units_Z 14
_cell_length_a 5.165058
_cell_length_b 18.317800
_cell_length_c 8.299740
_cell_angle_alpha 60.526798
_cell_angle_beta 86.230848
_cell_angle_gamma 66.095060
_cell_volume 616.119477
_symmetry_space_group_name_H-M "P -1"
_symmetry_group_IT_number 2
_symmetry_cell_setting 'triclinic'
loop_
_space_group_symop_operation_xyz
x,y,z
-x,-y,-z
loop_
_atom_site_type_symbol
_atom_site_label
_atom_site_fract_x
_atom_site_fract_y
_atom_site_fract_z
Si Si1 0.393773 0.096205 0.308541
Si Si2 0.959056 0.709691 0.741466
Si Si3 0.423274 0.365050 0.346310
Si Si4 0.738313 0.906099 0.022679
Si Si5 0.476626 0.374607 0.712712
Si Si6 0.891791 0.430557 0.824797
Si Si7 0.350854 0.829043 0.034146
O O1 0.203084 0.087554 0.177764
O O2 0.651691 0.114657 0.192122
O O3 0.210236 0.180249 0.343422
O O4 0.500000 0.000000 0.500000
O O5 0.274629 0.690278 0.691762
O O6 0.790722 0.679664 0.646874
O O7 0.986844 0.655464 0.965778
O O8 0.474442 0.359552 0.539962
O O9 0.284777 0.472927 0.178449
O O10 0.611137 0.829307 0.136345
O O11 0.060910 0.875366 0.107769
O O12 0.500000 0.000000 0.000000
O O13 0.688213 0.419982 0.705865
O O14 0.157322 0.439308 0.716731
O O15 0.589866 0.274647 0.903503
#
# Coordination Sequence:
#
# PCOD8019166 Si02
#       7
#     2   2   2   2   2   2   2
#     4  10  25  43  68  94 130 177 222 271 336 399
#     4  12  25  46  65 101 141 178 223 279 339 405
#     4  12  27  42  68 106 138 174 229 282 334 394
#     4  10  22  41  65  93 123 166 228 272 328 388
#     4  12  23  43  71  98 139 176 230 275 332 404
#     4  12  23  45  73  96 136 186 224 275 339 405
#     4  10  22  41  65  94 127 175 216 264 342 384
#
# _framework density 22.722866
#
# number of rings (size 3 to 8) (size 9 to 14) (size 15 to 20)
#    0.857    0.000    1.429    6.429    2.000    2.857 
#    0.000    0.000    0.000    0.000    0.000    0.000 
#    0.000    0.000    0.000    0.000    0.000    0.000 
#
# Total GULP energy -173501.348567 kJ/mol
# GULP energy per Si atom -12392.953469 kJ/mol
# Density = 2.267115 g / cm^3
# Si number density = 22.722866 Si / 1000 Ang^3
#
#
#
# Elastic Constant Matrix: (Units=GPa)
#
#
# Indices 1 2 3 4 5 6 
#
# 1 142.3640 37.6633 7.0357 0.6884 -3.2964 -23.4295
# 2 37.6633 148.3203 23.7476 -17.8581 -1.2092 -12.8283
# 3 7.0357 23.7476 69.7301 -7.6313 7.3835 0.3971
# 4 0.6884 -17.8581 -7.6313 41.1735 3.5441 2.1605
# 5 -3.2964 -1.2092 7.3835 3.5441 25.8918 11.4798
# 6 -23.4295 -12.8283 0.3971 2.1605 11.4798 41.0863
#
#
#
# Elastic Compliance Matrix: (Units=1/GPa)
#
#
# Indices 1 2 3 4 5 6 
#
# 1 0.008229 -0.001807 -0.000285 -0.001140 -0.000750 0.004401
# 2 -0.001807 0.008042 -0.002201 0.003060 -0.000274 0.001418
# 3 -0.000285 -0.002201 0.015929 0.002430 -0.005150 0.000307
# 4 -0.001140 0.003060 0.002430 0.026454 -0.004365 0.000110
# 5 -0.000750 -0.000274 -0.005150 -0.004365 0.046437 -0.013209
# 6 0.004401 0.001418 0.000307 0.000110 -0.013209 0.030973
#
#
# Mechanical properties :
#
#
# Convention : Reuss Voigt Hill
#
# Bulk Modulus (GPa) = 42.34772 55.25639 48.80205
# Shear Modulus (GPa) = 32.78256 41.09484 36.93870
#
# Velocity S-wave (km/s) = 3.80243 4.25729 4.03627
# Velocity P-wave (km/s) = 6.16076 6.96680 6.57614
#
# Compressibility (1/GPa) = 0.02361402
#
# Stress axis : x y z
#
# Youngs Moduli (GPa) = 121.52591 124.34636 62.77931
#
# Poissons Ratio (x) = 0.22465 0.01792
# Poissons Ratio (y) = 0.21955 0.13816
# Poissons Ratio (z) = 0.03468 0.27365
#
# Static dielectric constant tensor:
#      x y z
#    x 4.585610 0.093630 -0.000810 
#    y 0.093630 4.131640 -0.032480 
#    z -0.000810 -0.032480 3.859860 
# 
# 
# High freq. dielectric constant tensor:
#      x y z
#    x 1.912210 -0.003030 -0.007190 
#    y -0.003030 1.906510 -0.003150 
#    z -0.007190 -0.003150 1.871870 
# 
# From -- ./inp_files/137336.got.cif
#   From: 2010.06.25/outbox.cif.g09.slc.cpg/sg2_69_cif.got.tgz:137336.got - 2010.06.27 13:26:56.
