data_PCOD8019408
_publ_section_title
;
Structure prediction by ZEFSAII (Michael W. Deem and Ramdas Pophale) SiO2 
 PCOD8019408
Probable space group: P -1
;
_chemical_formula_sum "Si O2"
_cell_formula_units_Z 16
_cell_length_a 11.115001
_cell_length_b 19.951206
_cell_length_c 8.177004
_cell_angle_alpha 145.381742
_cell_angle_beta 137.465380
_cell_angle_gamma 50.928529
_cell_volume 695.073516
_symmetry_space_group_name_H-M "P -1"
_symmetry_group_IT_number 2
_symmetry_cell_setting 'triclinic'
loop_
_space_group_symop_operation_xyz
x,y,z
-x,-y,-z
loop_
_atom_site_type_symbol
_atom_site_label
_atom_site_fract_x
_atom_site_fract_y
_atom_site_fract_z
Si Si1 0.922042 0.784632 0.199517
Si Si2 0.430787 0.992061 0.098009
Si Si3 0.860108 0.546154 0.751240
Si Si4 0.438673 0.605738 0.766093
Si Si5 0.173329 0.378462 0.758850
Si Si6 0.220276 0.978145 0.337538
Si Si7 0.725829 0.190622 0.225625
Si Si8 0.074676 0.145357 0.027370
O O1 0.115897 0.749815 0.401679
O O2 0.817516 0.879937 0.404742
O O3 0.821208 0.662302 0.832863
O O4 0.937248 0.837241 0.142057
O O5 0.572529 0.053467 0.477057
O O6 0.242488 0.060095 0.069743
O O7 0.500000 0.000000 0.000000
O O8 0.410637 0.856962 0.870648
O O9 0.718262 0.444547 0.380011
O O10 0.057103 0.489560 0.787403
O O11 0.852729 0.605112 0.041339
O O12 0.500000 0.500000 0.500000
O O13 0.369059 0.717557 0.812498
O O14 0.615922 0.631623 0.100849
O O15 0.081797 0.263077 0.376213
O O16 0.189625 0.925444 0.020967
O O17 0.103521 0.916250 0.230538
#
# Coordination Sequence:
#
# PCOD8019408 Si02
#       8
#     2   2   2   2   2   2   2   2
#     4  12  24  41  68  96 137 178 215 272 339 393
#     4  12  26  43  64  98 139 175 218 268 335 401
#     4  10  22  42  66 100 129 170 224 278 327 387
#     4  10  22  41  67  95 128 165 221 280 324 383
#     4  10  22  42  69  92 131 170 222 276 329 391
#     4  12  25  44  67  98 136 175 227 278 323 402
#     4  12  25  43  70 100 130 179 228 276 332 393
#     4  12  25  45  67  97 138 183 216 272 342 398
#
# _framework density 23.019145999999999
#
# number of rings (size 3 to 8) (size 9 to 14) (size 15 to 20)
#    0.000    0.750    2.500    6.375    5.250    0.500 
#    0.000    0.625    0.000    0.000    0.000    2.625 
#    0.000    0.000    0.000    0.000    0.000    0.000 
#
# Total GULP energy -198329.209282 kJ/mol
# GULP energy per Si atom -12395.575580 kJ/mol
# Density = 2.296675 g / cm^3
# Si number density = 23.019146 Si / 1000 Ang^3
#
#
#
# Elastic Constant Matrix: (Units=GPa)
#
#
# Indices 1 2 3 4 5 6 
#
# 1 79.2905 48.1455 30.0332 7.9296 24.7118 6.3870
# 2 48.1455 123.1592 56.4206 12.0906 29.7131 -6.3301
# 3 30.0332 56.4206 96.6035 8.3909 28.1341 -6.3643
# 4 7.9296 12.0906 8.3909 42.6117 -1.7366 12.3067
# 5 24.7118 29.7131 28.1341 -1.7366 35.7552 2.6587
# 6 6.3870 -6.3301 -6.3643 12.3067 2.6587 28.1063
#
#
#
# Elastic Compliance Matrix: (Units=1/GPa)
#
#
# Indices 1 2 3 4 5 6 
#
# 1 0.019046 -0.005373 -0.000730 -0.000872 -0.007825 -0.004582
# 2 -0.005373 0.014167 -0.004350 -0.004019 -0.005255 0.005683
# 3 -0.000730 -0.004350 0.016604 -0.003892 -0.009547 0.005553
# 4 -0.000872 -0.004019 -0.003892 0.030512 0.009666 -0.015863
# 5 -0.007825 -0.005255 -0.009547 0.009666 0.046483 -0.010196
# 6 -0.004582 0.005683 0.005553 -0.015863 -0.010196 0.047068
#
#
# Mechanical properties :
#
#
# Convention : Reuss Voigt Hill
#
# Bulk Modulus (GPa) = 34.58979 63.13909 48.86444
# Shear Modulus (GPa) = 24.45910 32.25823 28.35866
#
# Velocity S-wave (km/s) = 3.26322 3.74754 3.51374
# Velocity P-wave (km/s) = 5.40900 6.79808 6.14293
#
# Compressibility (1/GPa) = 0.02891027
#
# Stress axis : x y z
#
# Youngs Moduli (GPa) = 52.50431 70.58609 60.22826
#
# Poissons Ratio (x) = 0.37925 0.04399
# Poissons Ratio (y) = 0.28210 0.26199
# Poissons Ratio (z) = 0.03835 0.30705
#
# Static dielectric constant tensor:
#      x y z
#    x 4.413110 -0.427690 0.477280 
#    y -0.427690 4.575670 -0.067780 
#    z 0.477280 -0.067780 4.622240 
# 
# 
# High freq. dielectric constant tensor:
#      x y z
#    x 1.895610 -0.011610 0.020840 
#    y -0.011610 1.914040 0.007820 
#    z 0.020840 0.007820 1.915290 
# 
# From -- ./inp_files/283537.got.cif
#   From: 2010.06.25/outbox.cif.g09.slc.cpg/sg2_142_cif.got.tgz:283537.got - 2010.06.27 13:26:56.
