data_PCOD8019998
_publ_section_title
;
Structure prediction by ZEFSAII (Michael W. Deem and Ramdas Pophale) SiO2 
 PCOD8019998
Probable space group: P -1
;
_chemical_formula_sum "Si O2"
_cell_formula_units_Z 16
_cell_length_a 8.495837
_cell_length_b 8.492580
_cell_length_c 13.470141
_cell_angle_alpha 125.926615
_cell_angle_beta 103.353810
_cell_angle_gamma 72.552597
_cell_volume 748.891930
_symmetry_space_group_name_H-M "P -1"
_symmetry_group_IT_number 2
_symmetry_cell_setting 'triclinic'
loop_
_space_group_symop_operation_xyz
x,y,z
-x,-y,-z
loop_
_atom_site_type_symbol
_atom_site_label
_atom_site_fract_x
_atom_site_fract_y
_atom_site_fract_z
Si Si1 0.906385 0.373850 0.870211
Si Si2 0.716813 0.056850 0.773286
Si Si3 0.568831 0.767036 0.336749
Si Si4 0.831153 0.330435 0.500110
Si Si5 0.359292 0.479903 0.265809
Si Si6 0.194967 0.281127 0.475763
Si Si7 0.503918 0.035782 0.129848
Si Si8 0.214293 0.093273 0.733796
O O1 0.809528 0.236751 0.868810
O O2 0.780457 0.527099 0.840250
O O3 0.029251 0.212992 0.763556
O O4 0.000000 0.500000 0.000000
O O5 0.592062 0.080452 0.669977
O O6 0.829144 0.845004 0.674943
O O7 0.630177 0.061502 0.868736
O O8 0.509530 0.561699 0.268867
O O9 0.648201 0.822920 0.472170
O O10 0.705388 0.760546 0.269080
O O11 0.733911 0.390452 0.610057
O O12 0.775079 0.502290 0.472804
O O13 0.030266 0.301026 0.527108
O O14 0.781009 0.123551 0.390415
O O15 0.447772 0.264888 0.236266
O O16 0.687559 0.941569 0.160328
O O17 0.500000 0.000000 0.000000
#
# Coordination Sequence:
#
# PCOD8019998 Si02
#       8
#     2   2   2   2   2   2   2   2
#     4  11  24  44  66  90 127 170 218 263 307 369
#     4  10  22  42  64  93 122 165 217 256 313 372
#     4  10  24  36  64  93 132 163 203 256 318 385
#     4  11  24  37  66  92 136 161 204 261 320 384
#     4  11  24  42  64  97 127 170 210 258 320 375
#     4  11  21  40  59  97 132 163 201 257 322 381
#     4  11  24  44  66  90 127 170 218 263 307 369
#     4  11  24  42  64  97 127 170 210 258 320 375
#
# _framework density 21.364898
#
# number of rings (size 3 to 8) (size 9 to 14) (size 15 to 20)
#    0.000    1.250    2.500    2.625    7.000    3.000 
#    0.000    8.750    0.000    0.000    0.000    0.000 
#    0.000    0.000    0.000    0.000    0.000    0.000 
#
# Total GULP energy -198265.979100 kJ/mol
# GULP energy per Si atom -12391.623694 kJ/mol
# Density = 2.131627 g / cm^3
# Si number density = 21.364898 Si / 1000 Ang^3
#
#
#
# Elastic Constant Matrix: (Units=GPa)
#
#
# Indices 1 2 3 4 5 6 
#
# 1 102.6248 54.5818 36.5446 -13.8267 -3.9773 26.0599
# 2 54.5818 82.8955 32.1703 2.6122 14.4020 23.1142
# 3 36.5446 32.1703 100.6976 -5.7259 8.6194 7.6130
# 4 -13.8267 2.6122 -5.7259 7.6377 -31.4670 0.5049
# 5 -3.9773 14.4020 8.6194 -31.4670 -1.9858 -0.1513
# 6 26.0599 23.1142 7.6130 0.5049 -0.1513 28.9259
#
#
#
# Elastic Compliance Matrix: (Units=1/GPa)
#
#
# Indices 1 2 3 4 5 6 
#
# 1 0.014536 -0.004689 -0.002731 -0.004220 -0.007442 -0.008596
# 2 -0.004689 0.017769 -0.003352 0.007484 0.005814 -0.009192
# 3 -0.002731 -0.003352 0.012030 0.002142 -0.000717 0.001931
# 4 -0.004220 0.007484 0.002142 0.006340 -0.028203 -0.003000
# 5 -0.007442 0.005814 -0.000717 -0.028203 -0.002919 0.002724
# 6 -0.008596 -0.009192 0.001931 -0.003000 0.002724 0.049219
#
#
# Mechanical properties :
#
#
# Convention : Reuss Voigt Hill
#
# Bulk Modulus (GPa) = 43.87583 59.20125 51.53854
# Shear Modulus (GPa) = 39.64642 17.77698 28.71170
#
# Velocity S-wave (km/s) = 4.31243 2.88768 3.66986
# Velocity P-wave (km/s) = 6.73625 6.23603 6.49096
#
# Compressibility (1/GPa) = 0.02279159
#
# Stress axis : x y z
#
# Youngs Moduli (GPa) = 68.79444 56.27854 83.12740
#
# Poissons Ratio (x) = 0.26388 0.22698
# Poissons Ratio (y) = 0.32256 0.27866
# Poissons Ratio (z) = 0.18784 0.18866
#
# Static dielectric constant tensor:
#      x y z
#    x 4.717030 0.550850 0.019190 
#    y 0.550850 4.539690 -0.019200 
#    z 0.019190 -0.019200 3.446570 
# 
# 
# High freq. dielectric constant tensor:
#      x y z
#    x 1.850920 0.004850 -0.000320 
#    y 0.004850 1.849340 -0.000580 
#    z -0.000320 -0.000580 1.817230 
# 
# From -- ./inp_files/184105.got.cif
#   From: 2010.06.25/outbox.cif.g09.slc.cpg/sg2_93_cif.got.tgz:184105.got - 2010.06.27 13:26:56.
