data_PCOD8019145
_publ_section_title
;
Structure prediction by ZEFSAII (Michael W. Deem and Ramdas Pophale) SiO2 
 PCOD8019145
Probable space group: P -1
;
_chemical_formula_sum "Si O2"
_cell_formula_units_Z 14
_cell_length_a 17.061177
_cell_length_b 7.565574
_cell_length_c 8.477090
_cell_angle_alpha 90.573446
_cell_angle_beta 62.210332
_cell_angle_gamma 49.308369
_cell_volume 648.595004
_symmetry_space_group_name_H-M "P -1"
_symmetry_group_IT_number 2
_symmetry_cell_setting 'triclinic'
loop_
_space_group_symop_operation_xyz
x,y,z
-x,-y,-z
loop_
_atom_site_type_symbol
_atom_site_label
_atom_site_fract_x
_atom_site_fract_y
_atom_site_fract_z
Si Si1 0.782334 0.336129 0.284836
Si Si2 0.385917 0.048166 0.046096
Si Si3 0.171722 0.452153 0.021861
Si Si4 0.717895 0.040294 0.599898
Si Si5 0.063706 0.014990 0.582826
Si Si6 0.483147 0.395893 0.322855
Si Si7 0.757139 0.993859 0.218212
O O1 0.803459 0.472008 0.156937
O O2 0.631241 0.554875 0.490340
O O3 0.818344 0.101204 0.153535
O O4 0.881234 0.204188 0.340405
O O5 0.299052 0.100937 0.272144
O O6 0.292619 0.306112 0.026147
O O7 0.500000 0.000000 0.000000
O O8 0.450029 0.794107 0.890260
O O9 0.170277 0.245796 0.973169
O O10 0.039238 0.699216 0.237029
O O11 0.576751 0.336505 0.691576
O O12 0.779184 0.885998 0.373733
O O13 0.814922 0.041655 0.590996
O O14 0.000000 0.000000 0.500000
O O15 0.599442 0.254625 0.339784
#
# Coordination Sequence:
#
# PCOD8019145 Si02
#       7
#     2   2   2   2   2   2   2
#     4  10  22  41  68  93 125 171 210 265 319 373
#     4  11  26  36  61 101 129 168 208 259 329 378
#     4  11  25  40  65  94 128 169 214 263 312 382
#     4  10  22  41  65  90 129 171 209 266 317 374
#     4  10  24  44  67  94 124 171 220 258 320 376
#     4   9  20  39  62  91 127 166 209 259 325 378
#     4   9  21  39  64  95 125 166 212 261 327 372
#
# _framework density 21.58512
#
# number of rings (size 3 to 8) (size 9 to 14) (size 15 to 20)
#    0.000    2.286    0.000    2.571   10.000    6.286 
#    0.000    1.429    0.000    0.000    0.000    0.000 
#    0.000    0.000    0.000    0.000    0.000    0.000 
#
# Total GULP energy -173553.582436 kJ/mol
# GULP energy per Si atom -12396.684460 kJ/mol
# Density = 2.153599 g / cm^3
# Si number density = 21.585120 Si / 1000 Ang^3
#
#
#
# Elastic Constant Matrix: (Units=GPa)
#
#
# Indices 1 2 3 4 5 6 
#
# 1 107.9201 47.9969 14.7554 -17.2792 -0.1831 -32.1537
# 2 47.9969 112.9071 32.9187 -10.9558 -0.9907 -17.0639
# 3 14.7554 32.9187 52.1661 2.4712 -0.1969 -3.2401
# 4 -17.2792 -10.9558 2.4712 34.9949 2.5961 0.5491
# 5 -0.1831 -0.9907 -0.1969 2.5961 18.6889 -7.0658
# 6 -32.1537 -17.0639 -3.2401 0.5491 -7.0658 34.9828
#
#
#
# Elastic Compliance Matrix: (Units=1/GPa)
#
#
# Indices 1 2 3 4 5 6 
#
# 1 0.016283 -0.003671 -0.001724 0.006481 0.004254 0.013773
# 2 -0.003671 0.013195 -0.007251 0.002701 0.001190 0.002588
# 3 -0.001724 -0.007251 0.024274 -0.004746 -0.000590 -0.002918
# 4 0.006481 0.002701 -0.004746 0.033028 -0.002212 0.005869
# 5 0.004254 0.001190 -0.000590 -0.002212 0.060201 0.016630
# 6 0.013773 0.002588 -0.002918 0.005869 0.016630 0.045504
#
#
# Mechanical properties :
#
#
# Convention : Reuss Voigt Hill
#
# Bulk Modulus (GPa) = 35.13814 51.59280 43.36547
# Shear Modulus (GPa) = 22.00061 29.55481 25.77771
#
# Velocity S-wave (km/s) = 3.19603 3.70431 3.45952
# Velocity P-wave (km/s) = 5.47117 6.49999 6.00764
#
# Compressibility (1/GPa) = 0.02845910
#
# Stress axis : x y z
#
# Youngs Moduli (GPa) = 61.41289 75.78399 41.19590
#
# Poissons Ratio (x) = 0.27824 0.07104
# Poissons Ratio (y) = 0.22548 0.29871
# Poissons Ratio (z) = 0.10590 0.54951
#
# Static dielectric constant tensor:
#      x y z
#    x 3.516840 -0.138020 -0.056470 
#    y -0.138020 3.959350 0.126680 
#    z -0.056470 0.126680 3.684150 
# 
# 
# High freq. dielectric constant tensor:
#      x y z
#    x 1.846320 -0.019660 0.011770 
#    y -0.019660 1.851280 0.005410 
#    z 0.011770 0.005410 1.840390 
# 
# From -- ./inp_files/265757.got.cif
#   From: 2010.06.25/outbox.cif.g09.slc.cpg/sg2_133_cif.got.tgz:265757.got - 2010.06.27 13:26:56.
