data_PCOD8019970
_publ_section_title
;
Structure prediction by ZEFSAII (Michael W. Deem and Ramdas Pophale) SiO2 
 PCOD8019970
Probable space group: P -1
;
_chemical_formula_sum "Si O2"
_cell_formula_units_Z 16
_cell_length_a 14.260007
_cell_length_b 11.284378
_cell_length_c 12.326432
_cell_angle_alpha 78.949866
_cell_angle_beta 62.557369
_cell_angle_gamma 29.879859
_cell_volume 773.920640
_symmetry_space_group_name_H-M "P -1"
_symmetry_group_IT_number 2
_symmetry_cell_setting 'triclinic'
loop_
_space_group_symop_operation_xyz
x,y,z
-x,-y,-z
loop_
_atom_site_type_symbol
_atom_site_label
_atom_site_fract_x
_atom_site_fract_y
_atom_site_fract_z
Si Si1 0.619182 0.908783 0.633072
Si Si2 0.305139 0.705766 0.974590
Si Si3 0.081885 0.755896 0.602834
Si Si4 0.888367 0.663146 0.141549
Si Si5 0.933851 0.262750 0.006781
Si Si6 0.658557 0.335161 0.665972
Si Si7 0.018089 0.547423 0.645771
Si Si8 0.415659 0.372229 0.685896
O O1 0.803154 0.705004 0.669093
O O2 0.733219 0.745843 0.488513
O O3 0.393914 0.059356 0.758997
O O4 0.550063 0.118473 0.613270
O O5 0.430698 0.598544 0.811199
O O6 0.124447 0.002171 0.030136
O O7 0.500000 0.500000 0.000000
O O8 0.154537 0.735563 0.042896
O O9 0.258022 0.626257 0.439846
O O10 0.210914 0.620097 0.671275
O O11 0.987383 0.722331 0.622545
O O12 0.863763 0.070389 0.679018
O O13 0.951925 0.738035 0.110686
O O14 0.992004 0.481165 0.218539
O O15 0.000000 0.500000 0.000000
O O16 0.707801 0.534592 0.150261
O O17 0.596957 0.297913 0.613991
#
# Coordination Sequence:
#
# PCOD8019970 Si02
#       8
#     2   2   2   2   2   2   2   2
#     4  11  24  42  63  92 130 171 211 259 322 376
#     4  10  22  42  64  86 126 164 196 265 315 363
#     4  11  21  38  61  89 119 159 206 254 307 372
#     4  12  24  43  67  98 128 171 216 262 320 385
#     4  10  23  40  61  96 121 156 218 251 312 387
#     4  10  23  37  61  92 118 157 213 249 313 377
#     4  11  25  42  64  92 133 171 210 265 319 378
#     4  11  20  41  63  86 125 160 200 266 315 367
#
# _framework density 20.673953999999998
#
# number of rings (size 3 to 8) (size 9 to 14) (size 15 to 20)
#    0.000    1.250    3.750    1.500    1.750    1.500 
#    2.250    1.250    0.000    0.000    0.000    0.000 
#    0.000    0.000    0.000    0.000    0.000    0.000 
#
# Total GULP energy -198468.828525 kJ/mol
# GULP energy per Si atom -12404.301783 kJ/mol
# Density = 2.062690 g / cm^3
# Si number density = 20.673954 Si / 1000 Ang^3
#
#
#
# Elastic Constant Matrix: (Units=GPa)
#
#
# Indices 1 2 3 4 5 6 
#
# 1 89.9735 41.4836 33.7199 -17.8605 -23.3209 3.2579
# 2 41.4836 59.8961 26.8240 -2.6731 -5.5091 -3.2101
# 3 33.7199 26.8240 93.2030 -4.0734 -8.8738 9.4764
# 4 -17.8605 -2.6731 -4.0734 29.2849 0.6646 -2.5657
# 5 -23.3209 -5.5091 -8.8738 0.6646 36.6066 -0.7418
# 6 3.2579 -3.2101 9.4764 -2.5657 -0.7418 42.5115
#
#
#
# Elastic Compliance Matrix: (Units=1/GPa)
#
#
# Indices 1 2 3 4 5 6 
#
# 1 0.024537 -0.014010 -0.002957 0.012878 0.012547 -0.001283
# 2 -0.014010 0.027616 -0.004043 -0.006145 -0.005565 0.003592
# 3 -0.002957 -0.004043 0.013314 -0.000605 0.000684 -0.003071
# 4 0.012878 -0.006145 -0.000605 0.041324 0.006408 0.001290
# 5 0.012547 -0.005565 0.000684 0.006408 0.034511 -0.000545
# 6 -0.001283 0.003592 -0.003071 0.001290 -0.000545 0.024646
#
#
# Mechanical properties :
#
#
# Convention : Reuss Voigt Hill
#
# Bulk Modulus (GPa) = 42.65075 49.68085 46.16580
# Shear Modulus (GPa) = 23.17154 31.08362 27.12758
#
# Velocity S-wave (km/s) = 3.35148 3.88173 3.62631
# Velocity P-wave (km/s) = 5.97089 6.64629 6.31762
#
# Compressibility (1/GPa) = 0.02344625
#
# Stress axis : x y z
#
# Youngs Moduli (GPa) = 40.75490 36.21140 75.11089
#
# Poissons Ratio (x) = 0.50731 0.22213
# Poissons Ratio (y) = 0.57096 0.30366
# Poissons Ratio (z) = 0.12053 0.14640
#
# Static dielectric constant tensor:
#      x y z
#    x 3.912440 -0.049750 -0.139860 
#    y -0.049750 3.666760 0.158410 
#    z -0.139860 0.158410 3.658150 
# 
# 
# High freq. dielectric constant tensor:
#      x y z
#    x 1.819200 -0.005740 -0.007050 
#    y -0.005740 1.811300 0.012570 
#    z -0.007050 0.012570 1.802110 
# 
# From -- ./inp_files/308802.got.cif
#   From: 2010.06.25/outbox.cif.g09.slc.cpg/sg2_155_cif.got.tgz:308802.got - 2010.06.27 13:26:56.
