data_PCOD8019815
_publ_section_title
;
Structure prediction by ZEFSAII (Michael W. Deem and Ramdas Pophale) SiO2 
 PCOD8019815
Probable space group: P -1
;
_chemical_formula_sum "Si O2"
_cell_formula_units_Z 16
_cell_length_a 20.924737
_cell_length_b 12.024999
_cell_length_c 9.285817
_cell_angle_alpha 131.721780
_cell_angle_beta 139.991561
_cell_angle_gamma 27.550687
_cell_volume 694.062363
_symmetry_space_group_name_H-M "P -1"
_symmetry_group_IT_number 2
_symmetry_cell_setting 'triclinic'
loop_
_space_group_symop_operation_xyz
x,y,z
-x,-y,-z
loop_
_atom_site_type_symbol
_atom_site_label
_atom_site_fract_x
_atom_site_fract_y
_atom_site_fract_z
Si Si1 0.822891 0.318526 0.355042
Si Si2 0.936260 0.017811 0.753911
Si Si3 0.339809 0.563083 0.528985
Si Si4 0.850631 0.777422 0.433899
Si Si5 0.507681 0.365594 0.020671
Si Si6 0.844253 0.605586 0.756894
Si Si7 0.651064 0.902669 0.930734
Si Si8 0.385936 0.994097 0.528700
O O1 0.949422 0.078700 0.269312
O O2 0.774351 0.299927 0.406836
O O3 0.892051 0.402126 0.576403
O O4 0.664528 0.508598 0.145184
O O5 0.913874 0.866613 0.582680
O O6 0.774357 0.304254 0.693616
O O7 0.000000 0.000000 0.000000
O O8 0.431492 0.614857 0.718711
O O9 0.474643 0.279044 0.521656
O O10 0.765139 0.792268 0.168426
O O11 0.000000 0.500000 0.500000
O O12 0.716953 0.956081 0.479181
O O13 0.630132 0.084444 0.966687
O O14 0.500000 0.500000 0.000000
O O15 0.738141 0.833736 0.666485
O O16 0.736713 0.689049 0.782029
O O17 0.000000 0.500000 0.000000
O O18 0.477339 0.034719 0.780536
#
# Coordination Sequence:
#
# PCOD8019815 Si02
#       8
#     2   2   2   2   2   2   2   2
#     4  11  23  47  73 105 141 184 239 300 362 429
#     4  12  29  48  70 103 148 196 237 295 368 436
#     4  11  25  48  73 106 139 188 246 301 362 424
#     4  12  29  50  70 105 151 196 243 295 368 438
#     4  10  22  41  74 105 141 177 233 304 360 421
#     4  12  24  42  75 109 141 184 243 304 361 423
#     4  12  23  47  74 107 142 191 246 297 364 428
#     4  12  26  46  75 107 145 191 246 300 359 434
#
# _framework density 23.052685
#
# number of rings (size 3 to 8) (size 9 to 14) (size 15 to 20)
#    0.000    0.500    3.750    4.875    3.500    2.500 
#    0.000    0.000    0.000    0.000    0.000    0.000 
#    0.000    0.000    0.000    0.000    0.000    0.000 
#
# Total GULP energy -198245.285559 kJ/mol
# GULP energy per Si atom -12390.330347 kJ/mol
# Density = 2.300022 g / cm^3
# Si number density = 23.052685 Si / 1000 Ang^3
#
#
#
# Elastic Constant Matrix: (Units=GPa)
#
#
# Indices 1 2 3 4 5 6 
#
# 1 74.1355 23.5939 37.4373 -4.7825 -4.4440 -13.5141
# 2 23.5939 112.6944 61.9560 -22.8337 -6.3004 4.7205
# 3 37.4373 61.9560 176.1378 -23.2166 -0.9462 -2.7135
# 4 -4.7825 -22.8337 -23.2166 43.3833 2.8132 -6.1237
# 5 -4.4440 -6.3004 -0.9462 2.8132 40.3572 3.7196
# 6 -13.5141 4.7205 -2.7135 -6.1237 3.7196 29.8645
#
#
#
# Elastic Compliance Matrix: (Units=1/GPa)
#
#
# Indices 1 2 3 4 5 6 
#
# 1 0.017055 -0.002351 -0.002635 0.000290 0.000708 0.007821
# 2 -0.002351 0.012168 -0.003299 0.003902 0.001538 -0.002678
# 3 -0.002635 -0.003299 0.007696 0.002229 -0.000835 0.000589
# 4 0.000290 0.003902 0.002229 0.027218 -0.001712 0.005511
# 5 0.000708 0.001538 -0.000835 -0.001712 0.025522 -0.003528
# 6 0.007821 -0.002678 0.000589 0.005511 -0.003528 0.039070
#
#
# Mechanical properties :
#
#
# Convention : Reuss Voigt Hill
#
# Bulk Modulus (GPa) = 49.14381 67.66023 58.40202
# Shear Modulus (GPa) = 32.87677 38.71970 35.79824
#
# Velocity S-wave (km/s) = 3.78055 4.10276 3.94495
# Velocity P-wave (km/s) = 6.35775 7.20122 6.79259
#
# Compressibility (1/GPa) = 0.02034844
#
# Stress axis : x y z
#
# Youngs Moduli (GPa) = 58.63480 82.18057 129.93089
#
# Poissons Ratio (x) = 0.19320 0.34242
# Poissons Ratio (y) = 0.13785 0.42867
# Poissons Ratio (z) = 0.15453 0.27113
#
# Static dielectric constant tensor:
#      x y z
#    x 4.118780 -0.082070 0.216640 
#    y -0.082070 4.155760 -0.218600 
#    z 0.216640 -0.218600 4.766700 
# 
# 
# High freq. dielectric constant tensor:
#      x y z
#    x 1.895920 0.000660 0.010500 
#    y 0.000660 1.914350 -0.014230 
#    z 0.010500 -0.014230 1.934150 
# 
# From -- ./inp_files/346402.got.cif
#   From: 2010.06.25/outbox.cif.g09.slc.cpg/sg2_174_cif.got.tgz:346402.got - 2010.06.27 13:26:56.
