data_PCOD8019587
_publ_section_title
;
Structure prediction by ZEFSAII (Michael W. Deem and Ramdas Pophale) SiO2 
 PCOD8019587
Probable space group: P -1
;
_chemical_formula_sum "Si O2"
_cell_formula_units_Z 16
_cell_length_a 16.015722
_cell_length_b 10.980407
_cell_length_c 10.612614
_cell_angle_alpha 72.069115
_cell_angle_beta 24.056980
_cell_angle_gamma 70.300159
_cell_volume 716.269669
_symmetry_space_group_name_H-M "P -1"
_symmetry_group_IT_number 2
_symmetry_cell_setting 'triclinic'
loop_
_space_group_symop_operation_xyz
x,y,z
-x,-y,-z
loop_
_atom_site_type_symbol
_atom_site_label
_atom_site_fract_x
_atom_site_fract_y
_atom_site_fract_z
Si Si1 0.521640 0.682626 0.281304
Si Si2 0.515262 0.343389 0.001939
Si Si3 0.371338 0.894699 0.265586
Si Si4 0.130758 0.364892 0.388631
Si Si5 0.247513 0.528619 0.552371
Si Si6 0.064228 0.085178 0.218903
Si Si7 0.150933 0.811768 0.264654
Si Si8 0.202863 0.329351 0.865463
O O1 0.444398 0.839239 0.321244
O O2 0.334379 0.603461 0.527414
O O3 0.603673 0.648452 0.319567
O O4 0.714736 0.648773 0.935494
O O5 0.602580 0.234235 0.814223
O O6 0.600867 0.473855 0.781013
O O7 0.634408 0.288275 0.981466
O O8 0.263775 0.358102 0.339181
O O9 0.130927 0.953636 0.577226
O O10 0.500000 0.000000 0.000000
O O11 0.000000 0.500000 0.500000
O O12 0.985373 0.253101 0.628620
O O13 0.246681 0.381427 0.648470
O O14 0.018087 0.593596 0.807755
O O15 0.990532 0.162087 0.423812
O O16 0.208142 0.948848 0.093023
O O17 0.188048 0.176237 0.934040
#
# Coordination Sequence:
#
# PCOD8019587 Si02
#       8
#     2   2   2   2   2   2   2   2
#     4  10  18  30  42  64  92 120 154 180 226 263
#     4   9  18  31  43  66  91 120 151 184 229 262
#     4   9  16  25  40  62  91 122 145 171 213 276
#     4  10  19  31  47  64  89 123 156 192 224 262
#     4   9  18  29  41  64  95 121 153 184 213 267
#     4  10  17  28  45  67  94 128 144 173 230 278
#     4  10  18  30  44  67  96 121 146 180 227 277
#     4  11  17  28  45  64  94 126 149 178 217 274
#
# _framework density 22.337955999999998
#
# number of rings (size 3 to 8) (size 9 to 14) (size 15 to 20)
#    0.000    2.500    5.000    1.875    3.500    0.500 
#    0.000    0.000    0.000    0.000    0.000    3.500 
#    0.000   13.000    0.000    0.000    0.000    0.000 
#
# Total GULP energy -198226.482869 kJ/mol
# GULP energy per Si atom -12389.155179 kJ/mol
# Density = 2.228711 g / cm^3
# Si number density = 22.337956 Si / 1000 Ang^3
#
#
#
# Elastic Constant Matrix: (Units=GPa)
#
#
# Indices 1 2 3 4 5 6 
#
# 1 83.8492 44.7874 41.6460 -3.8528 -35.1107 -24.8493
# 2 44.7874 138.7690 43.0496 -25.9475 -15.6540 -40.1596
# 3 41.6460 43.0496 75.1016 -9.3621 -25.8089 -16.2708
# 4 -3.8528 -25.9475 -9.3621 37.7755 -8.1851 -1.9452
# 5 -35.1107 -15.6540 -25.8089 -8.1851 43.5014 0.3224
# 6 -24.8493 -40.1596 -16.2708 -1.9452 0.3224 38.2712
#
#
#
# Elastic Compliance Matrix: (Units=1/GPa)
#
#
# Indices 1 2 3 4 5 6 
#
# 1 0.028562 0.001788 -0.003598 0.009255 0.023161 0.019167
# 2 0.001788 0.015612 -0.001589 0.013250 0.008482 0.017470
# 3 -0.003598 -0.001589 0.021941 0.006593 0.010741 0.005569
# 4 0.009255 0.013250 0.006593 0.044710 0.024378 0.024783
# 5 0.023161 0.008482 0.010741 0.024378 0.055476 0.029277
# 6 0.019167 0.017470 0.005569 0.024783 0.029277 0.060287
#
#
# Mechanical properties :
#
#
# Convention : Reuss Voigt Hill
#
# Bulk Modulus (GPa) = 16.85845 61.85397 39.35621
# Shear Modulus (GPa) = 19.75044 35.12541 27.43793
#
# Velocity S-wave (km/s) = 2.97672 3.96972 3.50853
# Velocity P-wave (km/s) = 4.40203 6.98296 5.83693
#
# Compressibility (1/GPa) = 0.05931745
#
# Stress axis : x y z
#
# Youngs Moduli (GPa) = 35.01140 64.05231 45.57688
#
# Poissons Ratio (x) = -0.11453 0.16397
# Poissons Ratio (y) = -0.06260 0.07244
# Poissons Ratio (z) = 0.12596 0.10180
#
# Static dielectric constant tensor:
#      x y z
#    x 4.444410 -0.528440 -0.815040 
#    y -0.528440 4.695110 0.034240 
#    z -0.815040 0.034240 4.000370 
# 
# 
# High freq. dielectric constant tensor:
#      x y z
#    x 1.856690 -0.029240 -0.053270 
#    y -0.029240 1.894170 -0.012640 
#    z -0.053270 -0.012640 1.851250 
# 
# From -- ./inp_files/540836.got.cif
#   From: 2010.06.25/outbox.cif.g09.slc.cpg/sg2_271_cif.got.tgz:540836.got - 2010.06.27 13:26:56.
