data_PCOD8019500
_publ_section_title
;
Structure prediction by ZEFSAII (Michael W. Deem and Ramdas Pophale) SiO2 
 PCOD8019500
Probable space group: P -1
;
_chemical_formula_sum "Si O2"
_cell_formula_units_Z 16
_cell_length_a 21.587853
_cell_length_b 8.921600
_cell_length_c 8.017384
_cell_angle_alpha 103.501296
_cell_angle_beta 145.759815
_cell_angle_gamma 64.425255
_cell_volume 760.183758
_symmetry_space_group_name_H-M "P -1"
_symmetry_group_IT_number 2
_symmetry_cell_setting 'triclinic'
loop_
_space_group_symop_operation_xyz
x,y,z
-x,-y,-z
loop_
_atom_site_type_symbol
_atom_site_label
_atom_site_fract_x
_atom_site_fract_y
_atom_site_fract_z
Si Si1 0.362769 0.770737 0.212432
Si Si2 0.893109 0.459395 0.689776
Si Si3 0.875616 0.214487 0.185860
Si Si4 0.136623 0.448746 0.734520
Si Si5 0.063967 0.125910 0.858958
Si Si6 0.353062 0.398826 0.624764
Si Si7 0.289848 0.147960 0.226234
Si Si8 0.514488 0.457629 0.260236
O O1 0.424033 0.656580 0.155996
O O2 0.437031 0.663457 0.506825
O O3 0.367891 0.955047 0.278926
O O4 0.222896 0.799857 0.909959
O O5 0.848561 0.543367 0.429973
O O6 0.784861 0.516283 0.594222
O O7 0.959255 0.252227 0.780640
O O8 0.000000 0.500000 0.000000
O O9 0.827164 0.408620 0.061767
O O10 0.005328 0.162456 0.552325
O O11 0.898521 0.071955 0.055588
O O12 0.000000 0.500000 0.500000
O O13 0.230475 0.264968 0.962066
O O14 0.185381 0.157446 0.127198
O O15 0.374283 0.221387 0.531430
O O16 0.371772 0.533978 0.579948
O O17 0.447769 0.366689 0.978527
#
# Coordination Sequence:
#
# PCOD8019500 Si02
#       8
#     2   2   2   2   2   2   2   2
#     4  10  22  41  68  89 116 164 220 259 302 361
#     4  11  20  36  62  91 129 163 195 251 320 371
#     4   9  17  31  58  87 117 151 197 254 296 359
#     4  11  19  34  59  90 124 166 202 245 304 376
#     4   9  17  32  56  88 120 155 197 242 309 367
#     4  11  23  40  64  90 130 163 201 258 318 371
#     4  11  21  38  64  94 123 159 210 261 303 370
#     4  10  23  44  64  89 120 169 211 257 313 360
#
# _framework density 21.047540999999999
#
# number of rings (size 3 to 8) (size 9 to 14) (size 15 to 20)
#    0.000    1.750    3.750    2.250    0.000    2.000 
#    0.000    2.500    2.750    3.000    0.000    0.000 
#    0.000    0.000    0.000    0.000    0.000    0.000 
#
# Total GULP energy -198235.126080 kJ/mol
# GULP energy per Si atom -12389.695380 kJ/mol
# Density = 2.099964 g / cm^3
# Si number density = 21.047541 Si / 1000 Ang^3
#
#
#
# Elastic Constant Matrix: (Units=GPa)
#
#
# Indices 1 2 3 4 5 6 
#
# 1 71.7757 41.4621 23.4114 2.0505 9.0654 -4.8810
# 2 41.4621 170.9050 48.8437 6.3363 -5.4646 3.5564
# 3 23.4114 48.8437 92.8729 20.9553 5.6844 0.1191
# 4 2.0505 6.3363 20.9553 36.9607 4.0618 4.1736
# 5 9.0654 -5.4646 5.6844 4.0618 28.0528 2.9492
# 6 -4.8810 3.5564 0.1191 4.1736 2.9492 24.2066
#
#
#
# Elastic Compliance Matrix: (Units=1/GPa)
#
#
# Indices 1 2 3 4 5 6 
#
# 1 0.018246 -0.004147 -0.002269 0.001189 -0.006936 0.004939
# 2 -0.004147 0.008026 -0.003575 0.000757 0.003791 -0.002590
# 3 -0.002269 -0.003575 0.015098 -0.007773 -0.002064 0.001585
# 4 0.001189 0.000757 -0.007773 0.032142 -0.002786 -0.005035
# 5 -0.006936 0.003791 -0.002064 -0.002786 0.040116 -0.006352
# 6 0.004939 -0.002590 0.001585 -0.005035 -0.006352 0.044322
#
#
# Mechanical properties :
#
#
# Convention : Reuss Voigt Hill
#
# Bulk Modulus (GPa) = 46.75499 62.55421 54.65460
# Shear Modulus (GPa) = 27.01829 32.63312 29.82571
#
# Velocity S-wave (km/s) = 3.58673 3.94185 3.76847
# Velocity P-wave (km/s) = 6.27814 7.10651 6.70513
#
# Compressibility (1/GPa) = 0.02138809
#
# Stress axis : x y z
#
# Youngs Moduli (GPa) = 54.80783 124.59472 66.23486
#
# Poissons Ratio (x) = 0.51666 0.15027
# Poissons Ratio (y) = 0.22727 0.23681
# Poissons Ratio (z) = 0.12434 0.44546
#
# Static dielectric constant tensor:
#      x y z
#    x 3.902940 -0.214890 0.307130 
#    y -0.214890 4.330640 -0.044350 
#    z 0.307130 -0.044350 3.719320 
# 
# 
# High freq. dielectric constant tensor:
#      x y z
#    x 1.796010 -0.002460 0.018840 
#    y -0.002460 1.838650 0.017290 
#    z 0.018840 0.017290 1.821780 
# 
# From -- ./inp_files/351842.got.cif
#   From: 2010.06.25/outbox.cif.g09.slc.cpg/sg2_176_cif.got.tgz:351842.got - 2010.06.27 13:26:56.
