data_PCOD8019641
_publ_section_title
;
Structure prediction by ZEFSAII (Michael W. Deem and Ramdas Pophale) SiO2 
 PCOD8019641
Probable space group: P -1
;
_chemical_formula_sum "Si O2"
_cell_formula_units_Z 14
_cell_length_a 27.883338
_cell_length_b 5.212627
_cell_length_c 8.720987
_cell_angle_alpha 59.441888
_cell_angle_beta 141.718746
_cell_angle_gamma 118.490926
_cell_volume 668.961471
_symmetry_space_group_name_H-M "P -1"
_symmetry_group_IT_number 2
_symmetry_cell_setting 'triclinic'
loop_
_space_group_symop_operation_xyz
x,y,z
-x,-y,-z
loop_
_atom_site_type_symbol
_atom_site_label
_atom_site_fract_x
_atom_site_fract_y
_atom_site_fract_z
Si Si1 0.238938 0.331153 0.104848
Si Si2 0.816395 0.876498 0.658189
Si Si3 0.339437 0.939992 0.277212
Si Si4 0.551267 0.255883 0.146510
Si Si5 0.168718 0.474336 0.591261
Si Si6 0.947737 0.735776 0.859819
Si Si7 0.316562 0.344110 0.828284
O O1 0.192620 0.130599 0.180701
O O2 0.288996 0.618895 0.219272
O O3 0.293028 0.129928 0.215050
O O4 0.172934 0.429446 0.797329
O O5 0.874734 0.636197 0.825910
O O6 0.731092 0.824146 0.381267
O O7 0.859606 0.207135 0.616141
O O8 0.417938 0.890442 0.578140
O O9 0.357779 0.112084 0.108106
O O10 0.619626 0.399701 0.160091
O O11 0.500000 0.500000 0.000000
O O12 0.500000 0.000000 0.000000
O O13 0.104689 0.204135 0.441566
O O14 0.256259 0.487693 0.740312
O O15 0.000000 0.500000 0.000000
O O16 0.000000 0.000000 0.000000
#
# Coordination Sequence:
#
# PCOD8019641 Si02
#       7
#     2   2   2   2   2   2   2
#     4  11  23  38  68 101 121 156 226 267 308 364
#     4  11  21  40  71  93 124 169 214 266 310 368
#     4  11  23  42  64  93 128 163 210 273 310 374
#     4  12  27  42  63  93 133 169 207 261 321 384
#     4  10  22  41  69  96 124 168 214 267 310 371
#     4  11  23  41  64  94 135 173 205 251 322 382
#     4  10  23  40  67  93 124 167 219 262 317 370
#
# _framework density 20.927959999999999
#
# number of rings (size 3 to 8) (size 9 to 14) (size 15 to 20)
#    0.000    1.143    4.286    1.714    4.000    1.143 
#    0.000    1.429    0.000    0.000    0.000    0.000 
#    0.000    0.000    0.000    0.000    0.000    0.000 
#
# Total GULP energy -173439.215118 kJ/mol
# GULP energy per Si atom -12388.515366 kJ/mol
# Density = 2.088033 g / cm^3
# Si number density = 20.927960 Si / 1000 Ang^3
#
#
#
# Elastic Constant Matrix: (Units=GPa)
#
#
# Indices 1 2 3 4 5 6 
#
# 1 103.2086 40.4798 76.3027 -5.2685 -15.0538 -8.7776
# 2 40.4798 120.6916 71.7223 17.4273 -8.1177 -16.6926
# 3 76.3027 71.7223 160.8018 17.7657 -15.3582 9.9253
# 4 -5.2685 17.4273 17.7657 45.4622 -4.1613 -5.2715
# 5 -15.0538 -8.1177 -15.3582 -4.1613 39.7095 -6.5433
# 6 -8.7776 -16.6926 9.9253 -5.2715 -6.5433 37.1989
#
#
#
# Elastic Compliance Matrix: (Units=1/GPa)
#
#
# Indices 1 2 3 4 5 6 
#
# 1 0.019006 0.000086 -0.009928 0.007645 0.005710 0.009260
# 2 0.000086 0.013285 -0.006113 -0.001675 0.001467 0.007634
# 3 -0.009928 -0.006113 0.014783 -0.005906 -0.001586 -0.010146
# 4 0.007645 -0.001675 -0.005906 0.027063 0.004297 0.007219
# 5 0.005710 0.001467 -0.001586 0.004297 0.028820 0.008107
# 6 0.009260 0.007634 -0.010146 0.007219 0.008107 0.037649
#
#
# Mechanical properties :
#
#
# Convention : Reuss Voigt Hill
#
# Bulk Modulus (GPa) = 65.93752 84.63462 75.28607
# Shear Modulus (GPa) = 28.15787 37.55392 32.85589
#
# Velocity S-wave (km/s) = 3.67204 4.24068 3.96656
# Velocity P-wave (km/s) = 7.03945 8.03159 7.55183
#
# Compressibility (1/GPa) = 0.01516587
#
# Stress axis : x y z
#
# Youngs Moduli (GPa) = 52.61602 75.27007 67.64388
#
# Poissons Ratio (x) = -0.00647 0.67155
# Poissons Ratio (y) = -0.00452 0.41348
# Poissons Ratio (z) = 0.52235 0.46009
#
# Static dielectric constant tensor:
#      x y z
#    x 2.750720 -2.054130 -0.591320 
#    y -2.054130 0.489130 -0.819630 
#    z -0.591320 -0.819630 4.113040 
# 
# 
# High freq. dielectric constant tensor:
#      x y z
#    x 1.815990 -0.025340 -0.007470 
#    y -0.025340 1.812120 0.011000 
#    z -0.007470 0.011000 1.835270 
# 
# From -- ./inp_files/44754.got.cif
#   From: 2010.06.25/outbox.cif.g09.slc.cpg/sg2_23_cif.got.tgz:44754.got - 2010.06.27 13:26:56.
