data_PCOD8019281
_publ_section_title
;
Structure prediction by ZEFSAII (Michael W. Deem and Ramdas Pophale) SiO2 
 PCOD8019281
Probable space group: P -1
;
_chemical_formula_sum "Si O2"
_cell_formula_units_Z 16
_cell_length_a 14.679818
_cell_length_b 15.018937
_cell_length_c 15.212649
_cell_angle_alpha 128.710432
_cell_angle_beta 31.016919
_cell_angle_gamma 150.389420
_cell_volume 753.680757
_symmetry_space_group_name_H-M "P -1"
_symmetry_group_IT_number 2
_symmetry_cell_setting 'triclinic'
loop_
_space_group_symop_operation_xyz
x,y,z
-x,-y,-z
loop_
_atom_site_type_symbol
_atom_site_label
_atom_site_fract_x
_atom_site_fract_y
_atom_site_fract_z
Si Si1 0.596820 0.911529 0.140739
Si Si2 0.614279 0.662410 0.746897
Si Si3 0.877896 0.583561 0.550842
Si Si4 0.799200 0.663946 0.414174
Si Si5 0.962262 0.305389 0.149319
Si Si6 0.926826 0.054114 0.784011
Si Si7 0.349672 0.543742 0.149255
Si Si8 0.621063 0.350901 0.451139
O O1 0.617172 0.785897 0.065388
O O2 0.232857 0.748860 0.330406
O O3 0.765644 0.081148 0.179740
O O4 0.782184 0.043113 0.979555
O O5 0.807130 0.679812 0.660917
O O6 0.720328 0.706015 0.585761
O O7 0.681424 0.824316 0.823133
O O8 0.240917 0.440068 0.930686
O O9 0.828493 0.520238 0.653068
O O10 0.638203 0.385107 0.562908
O O11 0.500000 0.500000 0.500000
O O12 0.865526 0.571928 0.339257
O O13 0.076643 0.863247 0.246716
O O14 0.724907 0.278398 0.297461
O O15 0.095066 0.410698 0.199752
O O16 0.269755 0.185095 0.603605
O O17 0.500000 0.500000 0.000000
#
# Coordination Sequence:
#
# PCOD8019281 Si02
#       8
#     2   2   2   2   2   2   2   2
#     4  12  25  42  68  95 131 168 217 261 324 378
#     4  11  21  42  64  94 135 167 213 269 319 373
#     4  11  22  44  64  93 129 170 209 271 316 377
#     4   9  20  38  65  93 127 171 215 260 317 383
#     4  12  24  43  65  96 131 172 211 267 319 379
#     4  11  21  42  64  97 128 173 214 261 324 379
#     4  12  25  45  66  94 131 166 217 263 320 384
#     4  10  22  41  66  93 133 167 214 267 318 378
#
# _framework density 21.229147000000001
#
# number of rings (size 3 to 8) (size 9 to 14) (size 15 to 20)
#    0.000    1.000    3.750    3.750    0.000    1.000 
#    2.250   12.500    0.000    0.000    0.000    0.000 
#    0.000    0.000    0.000    0.000    0.000    0.000 
#
# Total GULP energy -198368.684644 kJ/mol
# GULP energy per Si atom -12398.042790 kJ/mol
# Density = 2.118083 g / cm^3
# Si number density = 21.229147 Si / 1000 Ang^3
#
#
#
# Elastic Constant Matrix: (Units=GPa)
#
#
# Indices 1 2 3 4 5 6 
#
# 1 85.2261 36.1602 46.4876 1.2704 22.0497 -2.2618
# 2 36.1602 142.8810 20.7534 8.3759 -0.2046 -7.2890
# 3 46.4876 20.7534 103.6148 -2.2908 8.6490 -15.9253
# 4 1.2704 8.3759 -2.2908 28.3485 -2.7719 -4.9590
# 5 22.0497 -0.2046 8.6490 -2.7719 40.4850 2.7042
# 6 -2.2618 -7.2890 -15.9253 -4.9590 2.7042 28.2807
#
#
#
# Elastic Compliance Matrix: (Units=1/GPa)
#
#
# Indices 1 2 3 4 5 6 
#
# 1 0.020115 -0.004003 -0.008020 -0.001855 -0.009163 -0.003388
# 2 -0.004003 0.008165 0.000168 -0.001786 0.001971 0.001377
# 3 -0.008020 0.000168 0.014423 0.002960 0.000959 0.007951
# 4 -0.001855 -0.001786 0.002960 0.037664 0.002452 0.007428
# 5 -0.009163 0.001971 0.000959 0.002452 0.029804 -0.002105
# 6 -0.003388 0.001377 0.007951 0.007428 -0.002105 0.041425
#
#
# Mechanical properties :
#
#
# Convention : Reuss Voigt Hill
#
# Bulk Modulus (GPa) = 52.64852 59.83603 56.24227
# Shear Modulus (GPa) = 27.52740 34.64424 31.08582
#
# Velocity S-wave (km/s) = 3.60485 4.04408 3.83077
# Velocity P-wave (km/s) = 6.49465 7.07482 6.79094
#
# Compressibility (1/GPa) = 0.01899389
#
# Stress axis : x y z
#
# Youngs Moduli (GPa) = 49.71472 122.47029 69.33356
#
# Poissons Ratio (x) = 0.49024 0.55604
# Poissons Ratio (y) = 0.19901 -0.01166
# Poissons Ratio (z) = 0.39870 -0.02060
#
# Static dielectric constant tensor:
#      x y z
#    x 4.054090 -0.305480 0.047420 
#    y -0.305480 4.118910 0.042420 
#    z 0.047420 0.042420 3.587460 
# 
# 
# High freq. dielectric constant tensor:
#      x y z
#    x 1.829260 -0.001880 0.009580 
#    y -0.001880 1.842940 0.010220 
#    z 0.009580 0.010220 1.827600 
# 
# From -- ./inp_files/214238.got.cif
#   From: 2010.06.25/outbox.cif.g09.slc.cpg/sg2_108_cif.got.tgz:214238.got - 2010.06.27 13:26:56.
