data_PCOD8019625
_publ_section_title
;
Structure prediction by ZEFSAII (Michael W. Deem and Ramdas Pophale) SiO2 
 PCOD8019625
Probable space group: P -1
;
_chemical_formula_sum "Si O2"
_cell_formula_units_Z 16
_cell_length_a 14.724200
_cell_length_b 14.722963
_cell_length_c 15.003470
_cell_angle_alpha 152.773402
_cell_angle_beta 46.672431
_cell_angle_gamma 149.011493
_cell_volume 725.045258
_symmetry_space_group_name_H-M "P -1"
_symmetry_group_IT_number 2
_symmetry_cell_setting 'triclinic'
loop_
_space_group_symop_operation_xyz
x,y,z
-x,-y,-z
loop_
_atom_site_type_symbol
_atom_site_label
_atom_site_fract_x
_atom_site_fract_y
_atom_site_fract_z
Si Si1 0.366920 0.196082 0.598794
Si Si2 0.946105 0.329163 0.296858
Si Si3 0.188453 0.648465 0.771761
Si Si4 0.262529 0.089943 0.234148
Si Si5 0.334063 0.765223 0.337884
Si Si6 0.022096 0.952984 0.543733
Si Si7 0.445529 0.314894 0.962464
Si Si8 0.515516 0.745141 0.613066
O O1 0.451149 0.168304 0.436782
O O2 0.273131 0.911993 0.472920
O O3 0.232525 0.205522 0.656207
O O4 0.515462 0.499876 0.817833
O O5 0.868529 0.387398 0.324108
O O6 0.000000 0.500000 0.500000
O O7 0.138754 0.449453 0.236330
O O8 0.775997 0.984512 0.139529
O O9 0.375499 0.744284 0.741566
O O10 0.035760 0.345451 0.665703
O O11 0.219440 0.895674 0.012267
O O12 0.445467 0.434442 0.391001
O O13 0.300481 0.023528 0.245483
O O14 0.088755 0.032535 0.304271
O O15 0.421516 0.724475 0.166994
O O16 0.500000 0.000000 0.500000
O O17 0.000000 0.000000 0.500000
O O18 0.500000 0.500000 0.000000
#
# Coordination Sequence:
#
# PCOD8019625 Si02
#       8
#     2   2   2   2   2   2   2   2
#     4  12  24  46  70 101 143 184 236 295 358 425
#     4  12  25  46  73 103 144 187 236 295 363 425
#     4  11  24  43  68 100 134 186 237 284 361 430
#     4  10  22  43  64  99 133 178 235 284 352 429
#     4  12  25  49  72 102 146 186 236 300 360 431
#     4  11  24  44  67  98 144 184 232 296 353 417
#     4  12  27  47  73 108 141 190 244 297 363 434
#     4  10  22  41  69  93 137 177 224 298 350 414
#
# _framework density 22.067588000000001
#
# number of rings (size 3 to 8) (size 9 to 14) (size 15 to 20)
#    0.000    0.750    5.000    1.875    1.750    1.000 
#    4.500    0.000    0.000    0.000    0.000    0.000 
#    0.000    0.000    0.000    0.000    0.000    0.000 
#
# Total GULP energy -198275.034627 kJ/mol
# GULP energy per Si atom -12392.189664 kJ/mol
# Density = 2.201736 g / cm^3
# Si number density = 22.067588 Si / 1000 Ang^3
#
#
#
# Elastic Constant Matrix: (Units=GPa)
#
#
# Indices 1 2 3 4 5 6 
#
# 1 126.7572 29.4349 46.7427 6.9628 10.8909 -11.3357
# 2 29.4349 121.5988 44.3439 16.8016 6.4733 3.3695
# 3 46.7427 44.3439 115.0909 -5.0221 6.3806 -3.8387
# 4 6.9628 16.8016 -5.0221 36.5047 -0.7891 -0.3291
# 5 10.8909 6.4733 6.3806 -0.7891 32.3097 -4.7498
# 6 -11.3357 3.3695 -3.8387 -0.3291 -4.7498 41.7354
#
#
#
# Elastic Compliance Matrix: (Units=1/GPa)
#
#
# Indices 1 2 3 4 5 6 
#
# 1 0.009894 -0.000723 -0.003637 -0.002083 -0.002208 0.002143
# 2 -0.000723 0.010752 -0.004058 -0.005416 -0.001484 -0.001649
# 3 -0.003637 -0.004058 0.011936 0.004204 -0.000149 0.000454
# 4 -0.002083 -0.005416 0.004204 0.030908 0.001816 0.000709
# 5 -0.002208 -0.001484 -0.000149 0.001816 0.032540 0.003224
# 6 0.002143 -0.001649 0.000454 0.000709 0.003224 0.025090
#
#
# Mechanical properties :
#
#
# Convention : Reuss Voigt Hill
#
# Bulk Modulus (GPa) = 63.50636 67.16553 65.33595
# Shear Modulus (GPa) = 34.91542 38.30500 36.61021
#
# Velocity S-wave (km/s) = 3.98201 4.17082 4.07751
# Velocity P-wave (km/s) = 7.06983 7.32780 7.19997
#
# Compressibility (1/GPa) = 0.01574645
#
# Stress axis : x y z
#
# Youngs Moduli (GPa) = 101.07312 93.00943 83.77856
#
# Poissons Ratio (x) = 0.06722 0.30469
# Poissons Ratio (y) = 0.07305 0.33998
# Poissons Ratio (z) = 0.36758 0.37744
#
# Static dielectric constant tensor:
#      x y z
#    x 4.476550 -0.116700 0.179250 
#    y -0.116700 4.473790 -0.012950 
#    z 0.179250 -0.012950 4.027990 
# 
# 
# High freq. dielectric constant tensor:
#      x y z
#    x 1.879800 0.000920 0.007990 
#    y 0.000920 1.874820 -0.001270 
#    z 0.007990 -0.001270 1.857460 
# 
# From -- ./inp_files/529957.got.cif
#   From: 2010.06.25/outbox.cif.g09.slc.cpg/sg2_265_cif.got.tgz:529957.got - 2010.06.27 13:26:56.
