data_PCOD8019978
_publ_section_title
;
Structure prediction by ZEFSAII (Michael W. Deem and Ramdas Pophale) SiO2 
 PCOD8019978
Probable space group: P -1
;
_chemical_formula_sum "Si O2"
_cell_formula_units_Z 16
_cell_length_a 16.019360
_cell_length_b 30.726863
_cell_length_c 8.852879
_cell_angle_alpha 47.142701
_cell_angle_beta 36.630717
_cell_angle_gamma 19.195811
_cell_volume 784.951487
_symmetry_space_group_name_H-M "P -1"
_symmetry_group_IT_number 2
_symmetry_cell_setting 'triclinic'
loop_
_space_group_symop_operation_xyz
x,y,z
-x,-y,-z
loop_
_atom_site_type_symbol
_atom_site_label
_atom_site_fract_x
_atom_site_fract_y
_atom_site_fract_z
Si Si1 0.191188 0.275652 0.820269
Si Si2 0.136877 0.383037 0.215641
Si Si3 0.274960 0.345235 0.771907
Si Si4 0.585610 0.930676 0.892151
Si Si5 0.363192 0.886299 0.712247
Si Si6 0.277759 0.040352 0.627715
Si Si7 0.880666 0.186859 0.136336
Si Si8 0.626599 0.514022 0.823766
O O1 0.176746 0.331328 0.835726
O O2 0.548833 0.135847 0.539098
O O3 0.873580 0.411958 0.850465
O O4 0.180336 0.216690 0.061473
O O5 0.406202 0.258364 0.239718
O O6 0.040826 0.487367 0.153028
O O7 0.804245 0.471279 0.515847
O O8 0.310383 0.306636 0.981049
O O9 0.626248 0.238097 0.459007
O O10 0.819002 0.882992 0.559477
O O11 0.500000 0.000000 0.000000
O O12 0.226510 0.053236 0.046050
O O13 0.452751 0.911570 0.617892
O O14 0.000000 0.000000 0.000000
O O15 0.500000 0.000000 0.500000
O O16 0.966299 0.137628 0.953500
O O17 0.706117 0.318191 0.060464
O O18 0.500000 0.500000 0.000000
#
# Coordination Sequence:
#
# PCOD8019978 Si02
#       8
#     2   2   2   2   2   2   2   2
#     4  11  24  39  66  93 126 162 209 271 310 373
#     4   9  23  40  65  87 129 166 203 266 316 374
#     4  10  22  43  62  94 124 161 214 264 317 373
#     4  11  22  40  61  93 128 161 207 262 313 366
#     4  11  23  39  62  94 126 170 209 258 320 383
#     4  10  23  39  60  90 129 166 207 256 318 382
#     4  10  23  39  64  88 122 175 203 253 316 385
#     4  10  22  42  64  89 125 168 213 252 318 381
#
# _framework density 20.383424999999999
#
# number of rings (size 3 to 8) (size 9 to 14) (size 15 to 20)
#    0.000    1.750    1.250    1.500   10.500    6.000 
#    0.000    5.000    0.000    0.000    0.000    0.000 
#    0.000    0.000    0.000    0.000    0.000    0.000 
#
# Total GULP energy -198225.213246 kJ/mol
# GULP energy per Si atom -12389.075828 kJ/mol
# Density = 2.033703 g / cm^3
# Si number density = 20.383425 Si / 1000 Ang^3
#
#
#
# Elastic Constant Matrix: (Units=GPa)
#
#
# Indices 1 2 3 4 5 6 
#
# 1 108.0851 31.9356 43.3722 -8.7399 15.8633 28.2806
# 2 31.9356 85.9834 22.6736 -15.2861 5.4474 4.1129
# 3 43.3722 22.6736 100.7957 -9.0368 32.7876 8.8528
# 4 -8.7399 -15.2861 -9.0368 32.9791 1.0356 2.1193
# 5 15.8633 5.4474 32.7876 1.0356 37.5377 -0.3930
# 6 28.2806 4.1129 8.8528 2.1193 -0.3930 31.4479
#
#
#
# Elastic Compliance Matrix: (Units=1/GPa)
#
#
# Indices 1 2 3 4 5 6 
#
# 1 0.015839 -0.003680 -0.003576 0.002447 -0.003239 -0.012961
# 2 -0.003680 0.014178 -0.001515 0.005060 0.000698 0.001549
# 3 -0.003576 -0.001515 0.016357 0.003331 -0.012664 -0.001573
# 4 0.002447 0.005060 0.003331 0.034807 -0.005703 -0.006216
# 5 -0.003239 0.000698 -0.012664 -0.005703 0.039203 0.007261
# 6 -0.012961 0.001549 -0.001573 -0.006216 0.007261 0.044204
#
#
# Mechanical properties :
#
#
# Convention : Reuss Voigt Hill
#
# Bulk Modulus (GPa) = 34.68504 54.53634 44.61069
# Shear Modulus (GPa) = 26.07701 33.51846 29.79773
#
# Velocity S-wave (km/s) = 3.58064 4.05952 3.82758
# Velocity P-wave (km/s) = 5.84362 6.98471 6.43949
#
# Compressibility (1/GPa) = 0.02883087
#
# Stress axis : x y z
#
# Youngs Moduli (GPa) = 63.13654 70.53392 61.13511
#
# Poissons Ratio (x) = 0.25953 0.21865
# Poissons Ratio (y) = 0.23231 0.09264
# Poissons Ratio (z) = 0.22581 0.10688
#
# Static dielectric constant tensor:
#      x y z
#    x 5.236830 -1.883470 0.912130 
#    y -1.883470 6.499290 -0.735880 
#    z 0.912130 -0.735880 4.519800 
# 
# 
# High freq. dielectric constant tensor:
#      x y z
#    x 1.788320 0.013770 0.016770 
#    y 0.013770 1.802260 -0.013160 
#    z 0.016770 -0.013160 1.811620 
# 
# From -- ./inp_files/277255.got.cif
#   From: 2010.06.25/outbox.cif.g09.slc.cpg/sg2_139_cif.got.tgz:277255.got - 2010.06.27 13:26:56.
