data_PCOD8019019
_publ_section_title
;
Structure prediction by ZEFSAII (Michael W. Deem and Ramdas Pophale) SiO2 
 PCOD8019019
Probable space group: P -1
;
_chemical_formula_sum "Si O2"
_cell_formula_units_Z 14
_cell_length_a 13.969300
_cell_length_b 15.148542
_cell_length_c 11.647095
_cell_angle_alpha 38.085825
_cell_angle_beta 149.827578
_cell_angle_gamma 144.121221
_cell_volume 693.917293
_symmetry_space_group_name_H-M "P -1"
_symmetry_group_IT_number 2
_symmetry_cell_setting 'triclinic'
loop_
_space_group_symop_operation_xyz
x,y,z
-x,-y,-z
loop_
_atom_site_type_symbol
_atom_site_label
_atom_site_fract_x
_atom_site_fract_y
_atom_site_fract_z
Si Si1 0.614019 0.144367 0.128523
Si Si2 0.954869 0.409434 0.323799
Si Si3 0.721402 0.692647 0.140195
Si Si4 0.287306 0.437711 0.983466
Si Si5 0.079874 0.740916 0.074475
Si Si6 0.602366 0.981856 0.742338
Si Si7 0.205113 0.975692 0.760741
O O1 0.784610 0.324047 0.133510
O O2 0.578484 0.071173 0.294432
O O3 0.705222 0.047722 0.243142
O O4 0.388541 0.125061 0.862307
O O5 0.068283 0.298355 0.590143
O O6 0.118887 0.580905 0.270884
O O7 0.831225 0.443701 0.269253
O O8 0.529008 0.548039 0.148952
O O9 0.731078 0.659428 0.050639
O O10 0.705933 0.857436 0.969192
O O11 0.167449 0.314209 0.089111
O O12 0.217359 0.850151 0.207931
O O13 0.137631 0.822736 0.927772
O O14 0.500000 0.000000 0.500000
O O15 0.000000 0.000000 0.500000
#
# Coordination Sequence:
#
# PCOD8019019 Si02
#       7
#     2   2   2   2   2   2   2
#     4  10  23  43  65  90 129 162 210 259 319 367
#     4  10  22  41  64  89 131 163 210 268 305 378
#     4  11  22  38  65  88 132 182 200 243 335 371
#     4   9  22  39  59  93 129 162 221 250 305 377
#     4   9  23  42  60  95 129 155 218 267 306 357
#     4  11  24  39  63 100 133 165 209 261 309 385
#     4  10  23  45  68  90 122 170 207 263 319 377
#
# _framework density 20.175315999999999
#
# number of rings (size 3 to 8) (size 9 to 14) (size 15 to 20)
#    0.857    1.143    1.429    0.429   10.000    2.286 
#    5.143    0.714    0.000    0.000    0.000    0.000 
#    0.000    0.000    0.000    0.000    0.000    0.000 
#
# Total GULP energy -173433.082455 kJ/mol
# GULP energy per Si atom -12388.077318 kJ/mol
# Density = 2.012940 g / cm^3
# Si number density = 20.175316 Si / 1000 Ang^3
#
#
#
# Elastic Constant Matrix: (Units=GPa)
#
#
# Indices 1 2 3 4 5 6 
#
# 1 108.5433 32.8696 47.9393 1.2711 2.8841 -4.7518
# 2 32.8696 153.6228 60.4044 9.4804 -1.0137 -8.2854
# 3 47.9393 60.4044 107.7291 4.6728 11.2362 -9.0761
# 4 1.2711 9.4804 4.6728 26.2835 0.8904 2.8773
# 5 2.8841 -1.0137 11.2362 0.8904 25.6973 4.5979
# 6 -4.7518 -8.2854 -9.0761 2.8773 4.5979 25.9343
#
#
#
# Elastic Compliance Matrix: (Units=1/GPa)
#
#
# Indices 1 2 3 4 5 6 
#
# 1 0.011529 -0.000554 -0.004925 0.000489 0.000819 0.000012
# 2 -0.000554 0.008688 -0.004693 -0.002450 0.002384 0.000881
# 3 -0.004925 -0.004693 0.015244 -0.001011 -0.007031 0.004292
# 4 0.000489 -0.002450 -0.001011 0.039685 -0.000113 -0.005430
# 5 0.000819 0.002384 -0.007031 -0.000113 0.043655 -0.009276
# 6 0.000012 0.000881 0.004292 -0.005430 -0.009276 0.042592
#
#
# Mechanical properties :
#
#
# Convention : Reuss Voigt Hill
#
# Bulk Modulus (GPa) = 66.15281 72.48020 69.31651
# Shear Modulus (GPa) = 26.77013 30.82848 28.79930
#
# Velocity S-wave (km/s) = 3.64658 3.91324 3.78226
# Velocity P-wave (km/s) = 7.11268 7.51140 7.31476
#
# Compressibility (1/GPa) = 0.01511652
#
# Stress axis : x y z
#
# Youngs Moduli (GPa) = 86.73715 115.10583 65.59842
#
# Poissons Ratio (x) = 0.06381 0.32308
# Poissons Ratio (y) = 0.04808 0.30784
# Poissons Ratio (z) = 0.42719 0.54016
#
# Static dielectric constant tensor:
#      x y z
#    x 3.806080 0.044990 0.128160 
#    y 0.044990 3.895440 0.184090 
#    z 0.128160 0.184090 3.377470 
# 
# 
# High freq. dielectric constant tensor:
#      x y z
#    x 1.792950 0.000040 0.014270 
#    y 0.000040 1.802310 0.016160 
#    z 0.014270 0.016160 1.752380 
# 
# From -- ./inp_files/454566.got.cif
#   From: 2010.06.25/outbox.cif.g09.slc.cpg/sg2_228_cif.got.tgz:454566.got - 2010.06.27 13:26:56.
