data_PCOD8019403
_publ_section_title
;
Structure prediction by ZEFSAII (Michael W. Deem and Ramdas Pophale) SiO2 
 PCOD8019403
Probable space group: P -1
;
_chemical_formula_sum "Si O2"
_cell_formula_units_Z 14
_cell_length_a 14.871671
_cell_length_b 18.541110
_cell_length_c 7.627688
_cell_angle_alpha 127.187046
_cell_angle_beta 50.808373
_cell_angle_gamma 157.521561
_cell_volume 621.745285
_symmetry_space_group_name_H-M "P -1"
_symmetry_group_IT_number 2
_symmetry_cell_setting 'triclinic'
loop_
_space_group_symop_operation_xyz
x,y,z
-x,-y,-z
loop_
_atom_site_type_symbol
_atom_site_label
_atom_site_fract_x
_atom_site_fract_y
_atom_site_fract_z
Si Si1 0.939004 0.197851 0.993922
Si Si2 0.873612 0.364278 0.797037
Si Si3 0.525347 0.787797 0.875938
Si Si4 0.328025 0.462641 0.609241
Si Si5 0.667420 0.529048 0.791566
Si Si6 0.511937 0.034904 0.336981
Si Si7 0.378304 0.698086 0.531927
O O1 0.088538 0.297188 0.776653
O O2 0.100984 0.313695 0.137890
O O3 0.795809 0.004807 0.907038
O O4 0.755301 0.156519 0.136526
O O5 0.082219 0.488577 0.578958
O O6 0.734848 0.176580 0.753877
O O7 0.665428 0.290751 0.875427
O O8 0.000000 0.500000 0.000000
O O9 0.496154 0.661799 0.749702
O O10 0.467918 0.778713 0.735337
O O11 0.500000 0.500000 0.500000
O O12 0.250137 0.409772 0.423756
O O13 0.527957 0.336215 0.704721
O O14 0.500000 0.500000 0.000000
O O15 0.519107 0.148317 0.480897
O O16 0.500000 0.000000 0.500000
#
# Coordination Sequence:
#
# PCOD8019403 Si02
#       7
#     2   2   2   2   2   2   2
#     4  11  24  43  71  98 139 172 226 280 337 399
#     4   9  19  38  63  92 129 166 213 266 334 402
#     4   9  22  39  66 102 130 170 225 273 338 407
#     4  11  23  45  70  93 132 179 227 279 336 394
#     4  11  24  46  69  97 133 182 232 279 336 400
#     4  11  24  40  65 105 139 174 223 275 340 412
#     4  10  22  41  67  94 139 180 219 278 340 398
#
# _framework density 22.51726
#
# number of rings (size 3 to 8) (size 9 to 14) (size 15 to 20)
#    0.000    1.714    1.429    1.714    0.000   16.000 
#    0.000    2.143    0.000    0.000    0.000    0.000 
#    0.000    0.000    0.000    0.000    0.000    0.000 
#
# Total GULP energy -173495.353997 kJ/mol
# GULP energy per Si atom -12392.525286 kJ/mol
# Density = 2.246601 g / cm^3
# Si number density = 22.517260 Si / 1000 Ang^3
#
#
#
# Elastic Constant Matrix: (Units=GPa)
#
#
# Indices 1 2 3 4 5 6 
#
# 1 88.3928 53.2190 40.1245 13.4281 -21.0405 -18.4364
# 2 53.2190 146.7493 60.6447 25.1187 -12.1651 -13.6261
# 3 40.1245 60.6447 120.9412 9.0514 -20.5651 -14.1857
# 4 13.4281 25.1187 9.0514 37.7439 -9.0709 3.7596
# 5 -21.0405 -12.1651 -20.5651 -9.0709 38.2360 20.2782
# 6 -18.4364 -13.6261 -14.1857 3.7596 20.2782 29.2729
#
#
#
# Elastic Compliance Matrix: (Units=1/GPa)
#
#
# Indices 1 2 3 4 5 6 
#
# 1 0.017164 -0.004004 -0.002242 -0.002768 0.003085 0.006078
# 2 -0.004004 0.011142 -0.004024 -0.006784 -0.005174 0.005170
# 3 -0.002242 -0.004024 0.011554 0.002009 0.004879 -0.001324
# 4 -0.002768 -0.006784 0.002009 0.037773 0.017413 -0.020841
# 5 0.003085 -0.005174 0.004879 0.017413 0.052384 -0.036626
# 6 0.006078 0.005170 -0.001324 -0.020841 -0.036626 0.067803
#
#
# Mechanical properties :
#
#
# Convention : Reuss Voigt Hill
#
# Bulk Modulus (GPa) = 51.76129 73.78440 62.77284
# Shear Modulus (GPa) = 22.24195 34.52355 28.38275
#
# Velocity S-wave (km/s) = 3.14630 3.91986 3.55419
# Velocity P-wave (km/s) = 6.01965 7.30248 6.69187
#
# Compressibility (1/GPa) = 0.01931946
#
# Stress axis : x y z
#
# Youngs Moduli (GPa) = 58.26028 89.75260 86.54895
#
# Poissons Ratio (x) = 0.35939 0.19404
# Poissons Ratio (y) = 0.23329 0.34829
# Poissons Ratio (z) = 0.13062 0.36118
#
# Static dielectric constant tensor:
#      x y z
#    x 3.965720 -0.020620 -0.135190 
#    y -0.020620 4.865990 0.172540 
#    z -0.135190 0.172540 4.397570 
# 
# 
# High freq. dielectric constant tensor:
#      x y z
#    x 1.871760 -0.001110 -0.002970 
#    y -0.001110 1.888680 0.017940 
#    z -0.002970 0.017940 1.902140 
# 
# From -- ./inp_files/318095.got.cif
#   From: 2010.06.25/outbox.cif.g09.slc.cpg/sg2_160_cif.got.tgz:318095.got - 2010.06.27 13:26:56.
