data_PCOD8019215
_publ_section_title
;
Structure prediction by ZEFSAII (Michael W. Deem and Ramdas Pophale) SiO2 
 PCOD8019215
Probable space group: P -1
;
_chemical_formula_sum "Si O2"
_cell_formula_units_Z 16
_cell_length_a 11.389543
_cell_length_b 15.719360
_cell_length_c 6.411485
_cell_angle_alpha 129.486443
_cell_angle_beta 69.993232
_cell_angle_gamma 123.826572
_cell_volume 735.824463
_symmetry_space_group_name_H-M "P -1"
_symmetry_group_IT_number 2
_symmetry_cell_setting 'triclinic'
loop_
_space_group_symop_operation_xyz
x,y,z
-x,-y,-z
loop_
_atom_site_type_symbol
_atom_site_label
_atom_site_fract_x
_atom_site_fract_y
_atom_site_fract_z
Si Si1 0.153358 0.539305 0.045971
Si Si2 0.821192 0.034333 0.196707
Si Si3 0.359743 0.692107 0.809191
Si Si4 0.294291 0.780605 0.599953
Si Si5 0.546319 0.487075 0.678566
Si Si6 0.741487 0.634055 0.108545
Si Si7 0.921548 0.908165 0.595231
Si Si8 0.461497 0.109240 0.666123
O O1 0.191989 0.650629 0.355765
O O2 0.251363 0.582235 0.849754
O O3 0.153828 0.421925 0.980721
O O4 0.000000 0.500000 0.000000
O O5 0.765464 0.124491 0.272509
O O6 0.966688 0.110037 0.353277
O O7 0.708090 0.944145 0.299659
O O8 0.838679 0.959551 0.873374
O O9 0.288696 0.760705 0.821924
O O10 0.423301 0.630921 0.511766
O O11 0.482847 0.795507 0.029396
O O12 0.457579 0.825132 0.494603
O O13 0.500000 0.500000 0.500000
O O14 0.408741 0.459714 0.849986
O O15 0.690777 0.612029 0.860504
O O16 0.809262 0.776979 0.359714
O O17 0.000000 0.000000 0.500000
O O18 0.500000 0.000000 0.500000
#
# Coordination Sequence:
#
# PCOD8019215 Si02
#       8
#     2   2   2   2   2   2   2   2
#     4  11  23  41  63  97 136 172 216 269 333 406
#     4  10  23  44  64  95 132 182 221 269 337 397
#     4  11  22  40  64  98 130 171 222 271 340 394
#     4  10  22  41  65  97 132 165 221 275 333 397
#     4  11  23  42  68  98 130 172 225 281 336 389
#     4  11  24  43  68  98 133 175 224 282 334 392
#     4  11  26  45  66  96 134 180 230 272 331 403
#     4   9  21  38  64  93 129 169 215 274 324 391
#
# _framework density 21.744318
#
# number of rings (size 3 to 8) (size 9 to 14) (size 15 to 20)
#    0.000    1.500    2.500    1.500    0.000   11.500 
#    2.250    0.000    0.000    0.000    0.000    0.000 
#    0.000    0.000    0.000    0.000    0.000    0.000 
#
# Total GULP energy -198261.508268 kJ/mol
# GULP energy per Si atom -12391.344267 kJ/mol
# Density = 2.169483 g / cm^3
# Si number density = 21.744318 Si / 1000 Ang^3
#
#
#
# Elastic Constant Matrix: (Units=GPa)
#
#
# Indices 1 2 3 4 5 6 
#
# 1 110.2307 33.3453 41.5157 0.9914 6.8109 -5.0072
# 2 33.3453 72.4726 36.0937 13.7041 11.2879 -0.7560
# 3 41.5157 36.0937 112.3599 17.8608 4.2676 0.8116
# 4 0.9914 13.7041 17.8608 35.2286 -2.8689 4.6073
# 5 6.8109 11.2879 4.2676 -2.8689 37.6001 -4.6548
# 6 -5.0072 -0.7560 0.8116 4.6073 -4.6548 35.4903
#
#
#
# Elastic Compliance Matrix: (Units=1/GPa)
#
#
# Indices 1 2 3 4 5 6 
#
# 1 0.011662 -0.004171 -0.003429 0.002861 -0.000098 0.001251
# 2 -0.004171 0.019428 -0.003541 -0.006066 -0.005135 0.000020
# 3 -0.003429 -0.003541 0.012041 -0.004604 -0.000064 -0.000245
# 4 0.002861 -0.006066 -0.004604 0.033778 0.003971 -0.003484
# 5 -0.000098 -0.005135 -0.000064 0.003971 0.028855 0.003147
# 6 0.001251 0.000020 -0.000245 -0.003484 0.003147 0.029224
#
#
# Mechanical properties :
#
#
# Convention : Reuss Voigt Hill
#
# Bulk Modulus (GPa) = 47.96420 57.44140 52.70280
# Shear Modulus (GPa) = 30.44703 33.93769 32.19236
#
# Velocity S-wave (km/s) = 3.74602 3.95493 3.85189
# Velocity P-wave (km/s) = 6.38877 6.87964 6.63874
#
# Compressibility (1/GPa) = 0.02084888
#
# Stress axis : x y z
#
# Youngs Moduli (GPa) = 85.74637 51.47273 83.05286
#
# Poissons Ratio (x) = 0.21468 0.28483
# Poissons Ratio (y) = 0.35762 0.29406
# Poissons Ratio (z) = 0.29407 0.18225
#
# Static dielectric constant tensor:
#      x y z
#    x 4.515980 0.128490 0.697010 
#    y 0.128490 4.061330 0.400450 
#    z 0.697010 0.400450 4.610640 
# 
# 
# High freq. dielectric constant tensor:
#      x y z
#    x 1.861550 -0.001630 0.002400 
#    y -0.001630 1.845990 0.004580 
#    z 0.002400 0.004580 1.868090 
# 
# From -- ./inp_files/81692.got.cif
#   From: 2010.06.25/outbox.cif.g09.slc.cpg/sg2_41_cif.got.tgz:81692.got - 2010.06.27 13:26:56.
