data_PCOD8019225
_publ_section_title
;
Structure prediction by ZEFSAII (Michael W. Deem and Ramdas Pophale) SiO2 
 PCOD8019225
Probable space group: P -1
;
_chemical_formula_sum "Si O2"
_cell_formula_units_Z 16
_cell_length_a 15.628311
_cell_length_b 18.324313
_cell_length_c 23.580415
_cell_angle_alpha 18.810268
_cell_angle_beta 19.879343
_cell_angle_gamma 29.895065
_cell_volume 723.565442
_symmetry_space_group_name_H-M "P -1"
_symmetry_group_IT_number 2
_symmetry_cell_setting 'triclinic'
loop_
_space_group_symop_operation_xyz
x,y,z
-x,-y,-z
loop_
_atom_site_type_symbol
_atom_site_label
_atom_site_fract_x
_atom_site_fract_y
_atom_site_fract_z
Si Si1 0.455456 0.728038 0.738200
Si Si2 0.104242 0.877638 0.360293
Si Si3 0.437682 0.165142 0.742194
Si Si4 0.810054 0.114330 0.997304
Si Si5 0.465937 0.114749 0.307435
Si Si6 0.896393 0.482198 0.275976
Si Si7 0.694443 0.668993 0.524048
Si Si8 0.571121 0.199589 0.887042
O O1 0.493636 0.698472 0.803641
O O2 0.649314 0.623968 0.653177
O O3 0.500000 0.000000 0.500000
O O4 0.173407 0.586845 0.999745
O O5 0.088009 0.667697 0.567999
O O6 0.182925 0.794266 0.311265
O O7 0.833702 0.954446 0.469669
O O8 0.311110 0.103233 0.085064
O O9 0.721635 0.329598 0.448955
O O10 0.219342 0.301957 0.792571
O O11 0.393186 0.074858 0.772301
O O12 0.405083 0.952950 0.961201
O O13 0.996577 0.286611 0.711454
O O14 0.635207 0.235502 0.059137
O O15 0.000000 0.000000 0.000000
O O16 0.565618 0.882871 0.430417
O O17 0.558184 0.454077 0.728983
#
# Coordination Sequence:
#
# PCOD8019225 Si02
#       8
#     2   2   2   2   2   2   2   2
#     4  10  22  41  65  98 132 168 218 275 319 392
#     4  10  24  43  65  99 136 171 222 272 323 396
#     4  10  22  41  67  93 130 180 219 265 330 391
#     4  10  22  41  65  98 132 168 218 275 319 392
#     4  10  23  41  66  94 132 175 214 274 331 383
#     4  10  22  41  67  93 130 180 219 265 330 391
#     4  10  23  41  66  94 132 175 214 274 331 383
#     4  10  24  43  65  99 136 171 222 272 323 396
#
# _framework density 22.112718999999998
#
# number of rings (size 3 to 8) (size 9 to 14) (size 15 to 20)
#    0.000    2.000    0.000    2.250   10.500    3.500 
#    0.000    2.500    0.000    0.000    0.000    0.000 
#    0.000    0.000    0.000    0.000    0.000    0.000 
#
# Total GULP energy -198371.033301 kJ/mol
# GULP energy per Si atom -12398.189581 kJ/mol
# Density = 2.206239 g / cm^3
# Si number density = 22.112719 Si / 1000 Ang^3
#
#
#
# Elastic Constant Matrix: (Units=GPa)
#
#
# Indices 1 2 3 4 5 6 
#
# 1 119.9521 49.1800 46.8834 20.2249 -20.2698 38.7376
# 2 49.1800 99.0439 54.5305 22.9344 -12.5731 23.0661
# 3 46.8834 54.5305 127.6046 29.1313 -8.0543 27.4604
# 4 20.2249 22.9344 29.1313 42.3057 8.6720 3.5724
# 5 -20.2698 -12.5731 -8.0543 8.6720 24.0860 1.9644
# 6 38.7376 23.0661 27.4604 3.5724 1.9644 40.0070
#
#
#
# Elastic Compliance Matrix: (Units=1/GPa)
#
#
# Indices 1 2 3 4 5 6 
#
# 1 0.021867 0.000320 0.001908 -0.015492 0.026628 -0.022592
# 2 0.000320 0.017040 -0.002781 -0.009309 0.012238 -0.007995
# 3 0.001908 -0.002781 0.012830 -0.009247 0.008478 -0.008641
# 4 -0.015492 -0.009309 -0.009247 0.048705 -0.040511 0.024355
# 5 0.026628 0.012238 0.008478 -0.040511 0.090958 -0.039507
# 6 -0.022592 -0.007995 -0.008641 0.024355 -0.039507 0.057176
#
#
# Mechanical properties :
#
#
# Convention : Reuss Voigt Hill
#
# Bulk Modulus (GPa) = 19.75074 71.97650 45.86362
# Shear Modulus (GPa) = 18.75755 34.34685 26.55220
#
# Velocity S-wave (km/s) = 2.91567 3.94542 3.46897
# Velocity P-wave (km/s) = 4.50400 7.30586 6.06884
#
# Compressibility (1/GPa) = 0.05063101
#
# Stress axis : x y z
#
# Youngs Moduli (GPa) = 45.73080 58.68582 77.94264
#
# Poissons Ratio (x) = -0.01880 -0.14872
# Poissons Ratio (y) = -0.01465 0.21679
# Poissons Ratio (z) = -0.08726 0.16323
#
# Static dielectric constant tensor:
#      x y z
#    x 4.305530 0.397240 0.183440 
#    y 0.397240 3.979060 0.319090 
#    z 0.183440 0.319090 4.293350 
# 
# 
# High freq. dielectric constant tensor:
#      x y z
#    x 1.878140 0.010350 -0.001290 
#    y 0.010350 1.860360 0.006750 
#    z -0.001290 0.006750 1.878650 
# 
# From -- ./inp_files/263095.got.cif
#   From: 2010.06.25/outbox.cif.g09.slc.cpg/sg2_132_cif.got.tgz:263095.got - 2010.06.27 13:26:56.
