data_PCOD8019660
_publ_section_title
;
Structure prediction by ZEFSAII (Michael W. Deem and Ramdas Pophale) SiO2 
 PCOD8019660
Probable space group: P -1
;
_chemical_formula_sum "Si O2"
_cell_formula_units_Z 16
_cell_length_a 22.493869
_cell_length_b 8.666619
_cell_length_c 14.333530
_cell_angle_alpha 53.518027
_cell_angle_beta 148.401240
_cell_angle_gamma 146.444827
_cell_volume 742.456384
_symmetry_space_group_name_H-M "P -1"
_symmetry_group_IT_number 2
_symmetry_cell_setting 'triclinic'
loop_
_space_group_symop_operation_xyz
x,y,z
-x,-y,-z
loop_
_atom_site_type_symbol
_atom_site_label
_atom_site_fract_x
_atom_site_fract_y
_atom_site_fract_z
Si Si1 0.066781 0.260459 0.097327
Si Si2 0.990288 0.786041 0.615779
Si Si3 0.836737 0.017903 0.702073
Si Si4 0.596544 0.245477 0.962617
Si Si5 0.051507 0.526894 0.665189
Si Si6 0.776643 0.873043 0.008350
Si Si7 0.619447 0.076917 0.394899
Si Si8 0.380825 0.930119 0.285642
O O1 0.180321 0.592370 0.160644
O O2 0.002478 0.223518 0.920705
O O3 0.204586 0.257516 0.280756
O O4 0.900065 0.006531 0.034196
O O5 0.090651 0.774068 0.683964
O O6 0.785825 0.446057 0.482475
O O7 0.000000 0.000000 0.500000
O O8 0.096024 0.934221 0.801243
O O9 0.678701 0.943062 0.562848
O O10 0.886678 0.198228 0.610071
O O11 0.646901 0.520266 0.971377
O O12 0.457534 0.072421 0.755133
O O13 0.776725 0.377849 0.125902
O O14 0.500000 0.000000 0.000000
O O15 0.000000 0.500000 0.500000
O O16 0.636852 0.864191 0.812311
O O17 0.459970 0.959744 0.283407
O O18 0.500000 0.000000 0.500000
#
# Coordination Sequence:
#
# PCOD8019660 Si02
#       8
#     2   2   2   2   2   2   2   2
#     4  11  23  42  70  93 135 177 232 270 333 412
#     4  11  24  44  70  98 132 182 230 272 342 417
#     4  10  22  41  69  98 123 180 229 272 326 410
#     4  12  25  43  68 103 134 174 228 288 338 394
#     4  11  22  44  69  97 133 182 229 276 327 416
#     4  12  25  45  69  99 139 182 228 275 348 415
#     4  11  24  43  66  97 139 167 227 279 340 391
#     4  12  26  42  65 100 139 175 219 289 349 397
#
# _framework density 21.550087000000001
#
# number of rings (size 3 to 8) (size 9 to 14) (size 15 to 20)
#    0.000    0.750    1.250    7.875    3.500    1.500 
#    0.000    2.500    0.000    0.000    0.000    0.000 
#    0.000    0.000    0.000    0.000    0.000    0.000 
#
# Total GULP energy -198379.502501 kJ/mol
# GULP energy per Si atom -12398.718906 kJ/mol
# Density = 2.150104 g / cm^3
# Si number density = 21.550087 Si / 1000 Ang^3
#
#
#
# Elastic Constant Matrix: (Units=GPa)
#
#
# Indices 1 2 3 4 5 6 
#
# 1 104.8472 51.0104 36.4013 -8.4086 0.9940 -12.3535
# 2 51.0104 132.6279 51.7478 -9.0588 1.3908 -19.5915
# 3 36.4013 51.7478 116.9321 -11.4448 -6.4297 -14.3236
# 4 -8.4086 -9.0588 -11.4448 41.1948 -11.4167 2.8851
# 5 0.9940 1.3908 -6.4297 -11.4167 54.1133 -8.1160
# 6 -12.3535 -19.5915 -14.3236 2.8851 -8.1160 35.9401
#
#
#
# Elastic Compliance Matrix: (Units=1/GPa)
#
#
# Indices 1 2 3 4 5 6 
#
# 1 0.012240 -0.003692 -0.001899 0.001085 0.000079 0.001369
# 2 -0.003692 0.010701 -0.003135 0.000504 0.000019 0.003279
# 3 -0.001899 -0.003135 0.011203 0.002514 0.002341 0.002430
# 4 0.001085 0.000504 0.002514 0.026930 0.006076 0.000860
# 5 0.000079 0.000019 0.002341 0.006076 0.020815 0.005183
# 6 0.001369 0.003279 0.002430 0.000860 0.005183 0.032152
#
#
# Mechanical properties :
#
#
# Convention : Reuss Voigt Hill
#
# Bulk Modulus (GPa) = 59.89768 70.30291 65.10029
# Shear Modulus (GPa) = 36.48143 40.59951 38.54047
#
# Velocity S-wave (km/s) = 4.11891 4.34517 4.23355
# Velocity P-wave (km/s) = 7.10461 7.60709 7.36014
#
# Compressibility (1/GPa) = 0.01669514
#
# Stress axis : x y z
#
# Youngs Moduli (GPa) = 81.69642 93.44607 89.26374
#
# Poissons Ratio (x) = 0.34496 0.16947
# Poissons Ratio (y) = 0.30158 0.27981
# Poissons Ratio (z) = 0.15511 0.29292
#
# Static dielectric constant tensor:
#      x y z
#    x 3.446840 -0.614890 -0.157510 
#    y -0.614890 3.628480 -0.437500 
#    z -0.157510 -0.437500 3.850060 
# 
# 
# High freq. dielectric constant tensor:
#      x y z
#    x 1.857130 -0.008470 0.000380 
#    y -0.008470 1.851040 -0.014280 
#    z 0.000380 -0.014280 1.857800 
# 
# From -- ./inp_files/542657.got.cif
#   From: 2010.06.25/outbox.cif.g09.slc.cpg/sg2_272_cif.got.tgz:542657.got - 2010.06.27 13:26:56.
