data_PCOD8019043
_publ_section_title
;
Structure prediction by ZEFSAII (Michael W. Deem and Ramdas Pophale) SiO2 
 PCOD8019043
Probable space group: P -1
;
_chemical_formula_sum "Si O2"
_cell_formula_units_Z 14
_cell_length_a 17.632474
_cell_length_b 9.152894
_cell_length_c 7.071258
_cell_angle_alpha 111.154870
_cell_angle_beta 93.084311
_cell_angle_gamma 36.856189
_cell_volume 579.338120
_symmetry_space_group_name_H-M "P -1"
_symmetry_group_IT_number 2
_symmetry_cell_setting 'triclinic'
loop_
_space_group_symop_operation_xyz
x,y,z
-x,-y,-z
loop_
_atom_site_type_symbol
_atom_site_label
_atom_site_fract_x
_atom_site_fract_y
_atom_site_fract_z
Si Si1 0.413978 0.140823 0.361179
Si Si2 0.603967 0.568837 0.991316
Si Si3 0.280667 0.702093 0.569595
Si Si4 0.885495 0.071629 0.969901
Si Si5 0.785731 0.781858 0.700987
Si Si6 0.080949 0.190445 0.482179
Si Si7 0.568495 0.359655 0.182374
O O1 0.364145 0.395905 0.401271
O O2 0.279308 0.263142 0.417141
O O3 0.500000 0.000000 0.500000
O O4 0.516934 0.879004 0.102330
O O5 0.543768 0.561957 0.151227
O O6 0.762136 0.347493 0.942371
O O7 0.574831 0.502959 0.771975
O O8 0.386362 0.665309 0.611850
O O9 0.169760 0.915668 0.488309
O O10 0.187030 0.861055 0.819912
O O11 0.953809 0.815009 0.737054
O O12 0.000000 0.000000 0.000000
O O13 0.824712 0.819315 0.541287
O O14 0.930336 0.487775 0.693309
O O15 0.685978 0.046375 0.956024
#
# Coordination Sequence:
#
# PCOD8019043 Si02
#       7
#     2   2   2   2   2   2   2
#     4  11  20  37  67  95 126 170 210 258 321 371
#     4   9  18  35  63  88 125 166 204 253 316 371
#     4  11  23  41  69  96 124 169 212 262 316 370
#     4  11  22  39  63  92 128 166 203 260 322 368
#     4  10  22  41  64  91 130 169 208 263 315 372
#     4  11  24  42  65  95 130 165 217 260 309 383
#     4   9  17  37  65  87 120 171 206 250 314 371
#
# _framework density 24.165509
#
# number of rings (size 3 to 8) (size 9 to 14) (size 15 to 20)
#    0.000    1.714    5.714    0.857    0.000    2.857 
#    0.000    3.571    6.286    0.000    0.000    0.000 
#    0.000    0.000    0.000    0.000    0.000    0.000 
#
# Total GULP energy -173459.900668 kJ/mol
# GULP energy per Si atom -12389.992905 kJ/mol
# Density = 2.411051 g / cm^3
# Si number density = 24.165509 Si / 1000 Ang^3
#
#
#
# Elastic Constant Matrix: (Units=GPa)
#
#
# Indices 1 2 3 4 5 6 
#
# 1 150.7724 59.9413 32.4069 4.0056 32.1651 -34.0448
# 2 59.9413 163.0533 53.4415 19.0542 20.1522 -8.4088
# 3 32.4069 53.4415 97.8903 5.7524 30.6461 -9.2463
# 4 4.0056 19.0542 5.7524 44.3412 -8.0430 5.7284
# 5 32.1651 20.1522 30.6461 -8.0430 33.6452 0.1546
# 6 -34.0448 -8.4088 -9.2463 5.7284 0.1546 38.9510
#
#
#
# Elastic Compliance Matrix: (Units=1/GPa)
#
#
# Indices 1 2 3 4 5 6 
#
# 1 0.013274 -0.002914 0.003451 -0.004791 -0.015292 0.012558
# 2 -0.002914 0.008670 -0.003870 -0.002721 0.000472 -0.001195
# 3 0.003451 -0.003870 0.018058 -0.005337 -0.018739 0.007327
# 4 -0.004791 -0.002721 -0.005337 0.029493 0.018169 -0.010451
# 5 -0.015292 0.000472 -0.018739 0.018169 0.065565 -0.020644
# 6 0.012558 -0.001195 0.007327 -0.010451 -0.020644 0.039750
#
#
# Mechanical properties :
#
#
# Convention : Reuss Voigt Hill
#
# Bulk Modulus (GPa) = 29.99569 78.14394 54.06982
# Shear Modulus (GPa) = 25.96235 41.11589 33.53912
#
# Velocity S-wave (km/s) = 3.28129 4.12931 3.72948
# Velocity P-wave (km/s) = 5.17643 7.42578 6.40068
#
# Compressibility (1/GPa) = 0.03333812
#
# Stress axis : x y z
#
# Youngs Moduli (GPa) = 75.33465 115.33681 55.37731
#
# Poissons Ratio (x) = 0.33604 -0.19111
# Poissons Ratio (y) = 0.21949 0.21429
# Poissons Ratio (z) = -0.25998 0.44631
#
# Static dielectric constant tensor:
#      x y z
#    x 4.967080 -0.724880 0.424600 
#    y -0.724880 4.884100 -0.182110 
#    z 0.424600 -0.182110 4.959990 
# 
# 
# High freq. dielectric constant tensor:
#      x y z
#    x 1.966130 -0.023920 0.008570 
#    y -0.023920 1.953100 0.012400 
#    z 0.008570 0.012400 1.975630 
# 
# From -- ./inp_files/329454.got.cif
#   From: 2010.06.25/outbox.cif.g09.slc.cpg/sg2_165_cif.got.tgz:329454.got - 2010.06.27 13:26:56.
