data_PCOD8019083
_publ_section_title
;
Structure prediction by ZEFSAII (Michael W. Deem and Ramdas Pophale) SiO2 
 PCOD8019083
Probable space group: P -1
;
_chemical_formula_sum "Si O2"
_cell_formula_units_Z 14
_cell_length_a 18.493436
_cell_length_b 12.556211
_cell_length_c 8.445130
_cell_angle_alpha 114.393376
_cell_angle_beta 132.298704
_cell_angle_gamma 29.479605
_cell_volume 628.160065
_symmetry_space_group_name_H-M "P -1"
_symmetry_group_IT_number 2
_symmetry_cell_setting 'triclinic'
loop_
_space_group_symop_operation_xyz
x,y,z
-x,-y,-z
loop_
_atom_site_type_symbol
_atom_site_label
_atom_site_fract_x
_atom_site_fract_y
_atom_site_fract_z
Si Si1 0.025485 0.944168 0.818479
Si Si2 0.440031 0.883243 0.060034
Si Si3 0.260612 0.486344 0.986708
Si Si4 0.283944 0.280609 0.405689
Si Si5 0.383817 0.532873 0.459612
Si Si6 0.633103 0.265605 0.961274
Si Si7 0.110075 0.437708 0.922306
O O1 0.799914 0.196423 0.566354
O O2 0.120753 0.713958 0.803882
O O3 0.156269 0.899746 0.886468
O O4 0.000000 0.000000 0.000000
O O5 0.647391 0.692163 0.352095
O O6 0.324983 0.890544 0.963433
O O7 0.524121 0.769716 0.938318
O O8 0.270563 0.162469 0.973054
O O9 0.308737 0.501403 0.229889
O O10 0.138124 0.496935 0.854289
O O11 0.127625 0.353812 0.305952
O O12 0.500000 0.000000 0.500000
O O13 0.160269 0.452304 0.171457
O O14 0.500000 0.500000 0.500000
O O15 0.520137 0.339165 0.682131
O O16 0.500000 0.500000 0.000000
#
# Coordination Sequence:
#
# PCOD8019083 Si02
#       7
#     2   2   2   2   2   2   2
#     4  10  22  41  64  95 126 168 217 259 318 383
#     4  11  23  41  63  96 132 163 215 265 321 383
#     4  11  22  43  63  96 134 166 214 267 315 393
#     4   9  21  42  62  89 125 166 218 260 314 375
#     4  11  22  43  65  93 127 173 213 261 326 375
#     4  12  23  43  66  95 132 167 214 274 318 380
#     4  10  22  42  66  92 126 172 211 260 325 379
#
# _framework density 22.287310999999999
#
# number of rings (size 3 to 8) (size 9 to 14) (size 15 to 20)
#    0.000    1.429    4.286    1.286    0.000    9.143 
#   10.286    0.000    0.000    0.000    0.000    0.000 
#    0.000    0.000    0.000    0.000    0.000    0.000 
#
# Total GULP energy -173523.036925 kJ/mol
# GULP energy per Si atom -12394.502638 kJ/mol
# Density = 2.223658 g / cm^3
# Si number density = 22.287311 Si / 1000 Ang^3
#
#
#
# Elastic Constant Matrix: (Units=GPa)
#
#
# Indices 1 2 3 4 5 6 
#
# 1 200.7887 53.9402 31.6823 -16.3018 34.2873 3.9890
# 2 53.9402 104.9857 29.7191 -9.4382 16.4572 -2.6578
# 3 31.6823 29.7191 58.8010 -16.3251 19.8629 -1.0030
# 4 -16.3018 -9.4382 -16.3251 28.0231 -11.2142 5.1557
# 5 34.2873 16.4572 19.8629 -11.2142 31.1085 -3.7429
# 6 3.9890 -2.6578 -1.0030 5.1557 -3.7429 41.0073
#
#
#
# Elastic Compliance Matrix: (Units=1/GPa)
#
#
# Indices 1 2 3 4 5 6 
#
# 1 0.006783 -0.002462 -0.000187 0.000918 -0.005901 -0.001478
# 2 -0.002462 0.012228 -0.004710 -0.000562 -0.000841 0.000911
# 3 -0.000187 -0.004710 0.025597 0.009348 -0.010491 -0.001794
# 4 0.000918 -0.000562 0.009348 0.046110 0.009357 -0.004840
# 5 -0.005901 -0.000841 -0.010491 0.009357 0.049601 0.003614
# 6 -0.001478 0.000911 -0.001794 -0.004840 0.003614 0.025483
#
#
# Mechanical properties :
#
#
# Convention : Reuss Voigt Hill
#
# Bulk Modulus (GPa) = 33.45758 66.13986 49.79872
# Shear Modulus (GPa) = 26.24918 36.64337 31.44627
#
# Velocity S-wave (km/s) = 3.43558 4.05919 3.76034
# Velocity P-wave (km/s) = 5.54816 7.19096 6.42230
#
# Compressibility (1/GPa) = 0.02988859
#
# Stress axis : x y z
#
# Youngs Moduli (GPa) = 147.43186 81.78233 39.06771
#
# Poissons Ratio (x) = 0.20133 0.00733
# Poissons Ratio (y) = 0.36294 0.18401
# Poissons Ratio (z) = 0.02764 0.38519
#
# Static dielectric constant tensor:
#      x y z
#    x 4.191770 -0.179510 -0.016020 
#    y -0.179510 4.387220 0.067750 
#    z -0.016020 0.067750 4.416200 
# 
# 
# High freq. dielectric constant tensor:
#      x y z
#    x 1.891080 -0.013420 0.009020 
#    y -0.013420 1.876590 -0.004810 
#    z 0.009020 -0.004810 1.861340 
# 
# From -- ./inp_files/333492.got.cif
#   From: 2010.06.25/outbox.cif.g09.slc.cpg/sg2_167_cif.got.tgz:333492.got - 2010.06.27 13:26:56.
