data_PCOD8019248
_publ_section_title
;
Structure prediction by ZEFSAII (Michael W. Deem and Ramdas Pophale) SiO2 
 PCOD8019248
Probable space group: P -1
;
_chemical_formula_sum "Si O2"
_cell_formula_units_Z 14
_cell_length_a 21.391375
_cell_length_b 14.689070
_cell_length_c 11.486915
_cell_angle_alpha 30.990341
_cell_angle_beta 33.528284
_cell_angle_gamma 19.490129
_cell_volume 613.207210
_symmetry_space_group_name_H-M "P -1"
_symmetry_group_IT_number 2
_symmetry_cell_setting 'triclinic'
loop_
_space_group_symop_operation_xyz
x,y,z
-x,-y,-z
loop_
_atom_site_type_symbol
_atom_site_label
_atom_site_fract_x
_atom_site_fract_y
_atom_site_fract_z
Si Si1 0.261782 0.538509 0.069427
Si Si2 0.284274 0.816405 0.563965
Si Si3 0.895117 0.810784 0.343569
Si Si4 0.584711 0.719725 0.230446
Si Si5 0.539148 0.085388 0.532416
Si Si6 0.958180 0.079079 0.342712
Si Si7 0.323449 0.594607 0.160563
O O1 0.257945 0.664297 0.052671
O O2 0.043618 0.774572 0.114059
O O3 0.387885 0.207351 0.261348
O O4 0.341487 0.557145 0.820369
O O5 0.479269 0.678028 0.384734
O O6 0.150225 0.956443 0.505237
O O7 0.161085 0.092547 0.540185
O O8 0.000000 0.500000 0.500000
O O9 0.705413 0.026436 0.323961
O O10 0.563420 0.748683 0.369393
O O11 0.809001 0.427938 0.175470
O O12 0.500000 0.000000 0.000000
O O13 0.387528 0.318347 0.410964
O O14 0.000000 0.000000 0.500000
O O15 0.150151 0.884604 0.189564
O O16 0.500000 0.500000 0.000000
#
# Coordination Sequence:
#
# PCOD8019248 Si02
#       7
#     2   2   2   2   2   2   2
#     4  11  22  41  71 103 134 182 238 298 349 412
#     4  11  23  43  73 101 135 180 245 287 349 425
#     4   9  19  36  64  99 133 169 225 290 348 401
#     4  11  24  48  70 101 139 186 239 290 349 426
#     4  10  22  41  66 101 140 178 233 296 350 414
#     4  12  26  46  72  99 148 191 233 288 353 423
#     4  12  25  44  69 103 145 184 235 293 356 415
#
# _framework density 22.830781000000002
#
# number of rings (size 3 to 8) (size 9 to 14) (size 15 to 20)
#    0.000    1.143    2.857    3.857    2.000    0.000 
#    5.143    0.714    0.000    0.000    0.000    0.000 
#    0.000    0.000    0.000    0.000    0.000    0.000 
#
# Total GULP energy -173521.861717 kJ/mol
# GULP energy per Si atom -12394.418694 kJ/mol
# Density = 2.277882 g / cm^3
# Si number density = 22.830781 Si / 1000 Ang^3
#
#
#
# Elastic Constant Matrix: (Units=GPa)
#
#
# Indices 1 2 3 4 5 6 
#
# 1 120.7624 37.3768 42.8832 0.2185 8.6705 -7.8207
# 2 37.3768 172.6940 63.1258 6.2740 1.1287 -4.9632
# 3 42.8832 63.1258 120.4257 3.7433 -6.2903 -16.1313
# 4 0.2185 6.2740 3.7433 46.2223 0.8193 2.9205
# 5 8.6705 1.1287 -6.2903 0.8193 36.9079 -3.7590
# 6 -7.8207 -4.9632 -16.1313 2.9205 -3.7590 26.9077
#
#
#
# Elastic Compliance Matrix: (Units=1/GPa)
#
#
# Indices 1 2 3 4 5 6 
#
# 1 0.009921 -0.000991 -0.003117 0.000364 -0.002799 0.000402
# 2 -0.000991 0.007340 -0.003670 -0.000608 -0.000723 -0.001169
# 3 -0.003117 -0.003670 0.012426 -0.000967 0.003644 0.006481
# 4 0.000364 -0.000608 -0.000967 0.022009 -0.001038 -0.003120
# 5 -0.002799 -0.000723 0.003644 -0.001038 0.028968 0.005397
# 6 0.000402 -0.001169 0.006481 -0.003120 0.005397 0.042043
#
#
# Mechanical properties :
#
#
# Convention : Reuss Voigt Hill
#
# Bulk Modulus (GPa) = 70.76959 77.85041 74.31000
# Shear Modulus (GPa) = 34.97174 40.04067 37.50620
#
# Velocity S-wave (km/s) = 3.91804 4.19239 4.05753
# Velocity P-wave (km/s) = 7.17864 7.58997 7.38717
#
# Compressibility (1/GPa) = 0.01413036
#
# Stress axis : x y z
#
# Youngs Moduli (GPa) = 100.80038 136.24291 80.47623
#
# Poissons Ratio (x) = 0.13505 0.25083
# Poissons Ratio (y) = 0.09992 0.29535
# Poissons Ratio (z) = 0.31418 0.50001
#
# Static dielectric constant tensor:
#      x y z
#    x 4.244970 -0.017200 0.242720 
#    y -0.017200 4.675550 -0.086900 
#    z 0.242720 -0.086900 3.754950 
# 
# 
# High freq. dielectric constant tensor:
#      x y z
#    x 1.910100 0.010360 0.000240 
#    y 0.010360 1.928350 -0.001660 
#    z 0.000240 -0.001660 1.887530 
# 
# From -- ./inp_files/471833.got.cif
#   From: 2010.06.25/outbox.cif.g09.slc.cpg/sg2_236_cif.got.tgz:471833.got - 2010.06.27 13:26:56.
