data_PCOD8019214
_publ_section_title
;
Structure prediction by ZEFSAII (Michael W. Deem and Ramdas Pophale) SiO2 
 PCOD8019214
Probable space group: P -1
;
_chemical_formula_sum "Si O2"
_cell_formula_units_Z 16
_cell_length_a 10.611655
_cell_length_b 8.711781
_cell_length_c 9.329059
_cell_angle_alpha 79.765356
_cell_angle_beta 74.110113
_cell_angle_gamma 64.212068
_cell_volume 745.165917
_symmetry_space_group_name_H-M "P -1"
_symmetry_group_IT_number 2
_symmetry_cell_setting 'triclinic'
loop_
_space_group_symop_operation_xyz
x,y,z
-x,-y,-z
loop_
_atom_site_type_symbol
_atom_site_label
_atom_site_fract_x
_atom_site_fract_y
_atom_site_fract_z
Si Si1 0.516808 0.671342 0.435558
Si Si2 0.148232 0.255235 0.328053
Si Si3 0.792362 0.715389 0.373805
Si Si4 0.157136 0.847334 0.010499
Si Si5 0.286368 0.861778 0.276545
Si Si6 0.894973 0.175019 0.436821
Si Si7 0.061167 0.549103 0.113820
Si Si8 0.302176 0.894979 0.695347
O O1 0.500000 0.500000 0.500000
O O2 0.685663 0.626707 0.381238
O O3 0.454372 0.758987 0.283449
O O4 0.445150 0.789320 0.577842
O O5 0.172558 0.315862 0.465025
O O6 0.977846 0.295258 0.360583
O O7 0.175705 0.374330 0.179989
O O8 0.246256 0.056655 0.304800
O O9 0.936087 0.643973 0.249600
O O10 0.710885 0.914381 0.333202
O O11 0.222139 0.863195 0.141320
O O12 0.143036 0.668485 0.031459
O O13 0.289989 0.841348 0.871444
O O14 0.000000 0.000000 0.000000
O O15 0.229079 0.751160 0.418381
O O16 0.836645 0.128029 0.318229
O O17 0.000000 0.000000 0.500000
O O18 0.000000 0.500000 0.000000
#
# Coordination Sequence:
#
# PCOD8019214 Si02
#       8
#     2   2   2   2   2   2   2   2
#     4  11  27  45  70  93 133 180 238 279 320 384
#     4  11  22  39  67  99 135 169 222 287 330 399
#     4  12  24  44  69  98 130 180 229 274 332 391
#     4  12  23  42  69 101 140 176 213 267 361 402
#     4  10  22  41  65  97 131 177 221 273 335 400
#     4   9  15  33  62  91 125 158 213 269 330 372
#     4  12  27  40  65 104 143 171 213 283 343 406
#     4  11  22  42  69  93 130 180 222 274 322 412
#
# _framework density 21.471726
#
# number of rings (size 3 to 8) (size 9 to 14) (size 15 to 20)
#    0.000    1.000    5.000    4.500    7.000    0.000 
#    0.000    2.500    0.000    0.000    0.000    0.000 
#    0.000    0.000    0.000    0.000    0.000    0.000 
#
# Total GULP energy -198245.067390 kJ/mol
# GULP energy per Si atom -12390.316712 kJ/mol
# Density = 2.142286 g / cm^3
# Si number density = 21.471726 Si / 1000 Ang^3
#
#
#
# Elastic Constant Matrix: (Units=GPa)
#
#
# Indices 1 2 3 4 5 6 
#
# 1 73.0654 6.0087 6.7321 -4.4689 11.9630 11.5724
# 2 6.0087 66.8484 27.2280 -16.7393 4.3216 6.1401
# 3 6.7321 27.2280 107.4480 -6.7706 22.5799 9.7973
# 4 -4.4689 -16.7393 -6.7706 31.8238 11.1393 -3.8059
# 5 11.9630 4.3216 22.5799 11.1393 37.1402 -0.7466
# 6 11.5724 6.1401 9.7973 -3.8059 -0.7466 30.1925
#
#
#
# Elastic Compliance Matrix: (Units=1/GPa)
#
#
# Indices 1 2 3 4 5 6 
#
# 1 0.016040 0.000189 0.001381 0.004528 -0.007512 -0.006250
# 2 0.000189 0.019313 -0.003373 0.010469 -0.003431 -0.001671
# 3 0.001381 -0.003373 0.012503 0.003741 -0.008849 -0.003648
# 4 0.004528 0.010469 0.003741 0.044812 -0.018389 0.000116
# 5 -0.007512 -0.003431 -0.008849 -0.018389 0.040742 0.005138
# 6 -0.006250 -0.001671 -0.003648 0.000116 0.005138 0.037181
#
#
# Mechanical properties :
#
#
# Convention : Reuss Voigt Hill
#
# Bulk Modulus (GPa) = 22.59874 36.36660 29.48267
# Shear Modulus (GPa) = 26.46250 33.65749 30.05999
#
# Velocity S-wave (km/s) = 3.51441 3.96349 3.74569
# Velocity P-wave (km/s) = 5.19768 6.15788 5.69804
#
# Compressibility (1/GPa) = 0.04425025
#
# Stress axis : x y z
#
# Youngs Moduli (GPa) = 62.34324 51.77945 79.98129
#
# Poissons Ratio (x) = -0.00980 -0.11044
# Poissons Ratio (y) = -0.01180 0.26976
# Poissons Ratio (z) = -0.08608 0.17464
#
# Static dielectric constant tensor:
#      x y z
#    x -22.492010 3.403530 4.745370 
#    y 3.403530 3.696230 -0.789830 
#    z 4.745370 -0.789830 3.167550 
# 
# 
# High freq. dielectric constant tensor:
#      x y z
#    x 1.834030 0.013340 0.010170 
#    y 0.013340 1.846560 -0.013030 
#    z 0.010170 -0.013030 1.844120 
# 
# From -- ./inp_files/238377.got.cif
#   From: 2010.06.25/outbox.cif.g09.slc.cpg/sg2_120_cif.got.tgz:238377.got - 2010.06.27 13:26:56.
