data_PCOD8019952
_publ_section_title
;
Structure prediction by ZEFSAII (Michael W. Deem and Ramdas Pophale) SiO2 
 PCOD8019952
Probable space group: P -1
;
_chemical_formula_sum "Si O2"
_cell_formula_units_Z 14
_cell_length_a 7.892540
_cell_length_b 16.686442
_cell_length_c 6.410491
_cell_angle_alpha 84.980222
_cell_angle_beta 58.419211
_cell_angle_gamma 61.515425
_cell_volume 617.133183
_symmetry_space_group_name_H-M "P -1"
_symmetry_group_IT_number 2
_symmetry_cell_setting 'triclinic'
loop_
_space_group_symop_operation_xyz
x,y,z
-x,-y,-z
loop_
_atom_site_type_symbol
_atom_site_label
_atom_site_fract_x
_atom_site_fract_y
_atom_site_fract_z
Si Si1 0.651311 0.040163 0.293197
Si Si2 0.396971 0.604721 0.974672
Si Si3 0.902315 0.226398 0.600307
Si Si4 0.846914 0.607377 0.637930
Si Si5 0.728503 0.775563 0.394318
Si Si6 0.880673 0.059038 0.768280
Si Si7 0.966119 0.310377 0.161177
O O1 0.544328 0.145891 0.433170
O O2 0.500000 0.000000 0.500000
O O3 0.678229 0.047743 0.017715
O O4 0.912818 0.970079 0.198823
O O5 0.593123 0.630819 0.851540
O O6 0.265338 0.621489 0.834973
O O7 0.500000 0.500000 0.000000
O O8 0.216624 0.670422 0.247843
O O9 0.777080 0.168121 0.747733
O O10 0.911233 0.241001 0.344478
O O11 0.159265 0.176365 0.545795
O O12 0.803968 0.673169 0.453264
O O13 0.000000 0.500000 0.500000
O O14 0.964589 0.628282 0.752843
O O15 0.815995 0.759782 0.104418
O O16 0.000000 0.000000 0.500000
#
# Coordination Sequence:
#
# PCOD8019952 Si02
#       7
#     2   2   2   2   2   2   2
#     4  11  24  44  67  93 138 178 224 289 343 403
#     4  11  24  42  67  96 133 174 224 286 342 413
#     4  10  22  42  63  95 136 168 226 284 335 418
#     4  11  24  42  65  98 135 172 230 281 337 423
#     4  10  22  42  67  94 130 179 222 280 346 407
#     4  11  26  41  66 102 134 180 234 279 351 420
#     4  10  24  42  68  95 133 182 220 276 359 400
#
# _framework density 22.685541000000001
#
# number of rings (size 3 to 8) (size 9 to 14) (size 15 to 20)
#    0.000    1.429    1.429    3.429    2.000   12.000 
#    0.000    0.000    0.000    0.000    0.000    0.000 
#    0.000    0.000    0.000    0.000    0.000    0.000 
#
# Total GULP energy -173435.966994 kJ/mol
# GULP energy per Si atom -12388.283357 kJ/mol
# Density = 2.263391 g / cm^3
# Si number density = 22.685541 Si / 1000 Ang^3
#
#
#
# Elastic Constant Matrix: (Units=GPa)
#
#
# Indices 1 2 3 4 5 6 
#
# 1 82.9223 24.2825 38.9697 -16.2280 0.4346 -0.9950
# 2 24.2825 153.2012 79.2060 -7.2491 6.5160 3.5981
# 3 38.9697 79.2060 178.6328 -34.0268 4.6747 6.0844
# 4 -16.2280 -7.2491 -34.0268 38.1021 2.7661 -9.7857
# 5 0.4346 6.5160 4.6747 2.7661 37.8901 -2.5641
# 6 -0.9950 3.5981 6.0844 -9.7857 -2.5641 27.5349
#
#
#
# Elastic Compliance Matrix: (Units=1/GPa)
#
#
# Indices 1 2 3 4 5 6 
#
# 1 0.014235 -0.001203 -0.001713 0.005029 0.000080 0.002845
# 2 -0.001203 0.008768 -0.004085 -0.002776 -0.000879 -0.001355
# 3 -0.001713 -0.004085 0.009088 0.006884 -0.000845 0.000832
# 4 0.005029 -0.002776 0.006884 0.037271 -0.002335 0.012052
# 5 0.000080 -0.000879 -0.000845 -0.002335 0.026951 0.001985
# 6 0.002845 -0.001355 0.000832 0.012052 0.001985 0.040882
#
#
# Mechanical properties :
#
#
# Convention : Reuss Voigt Hill
#
# Bulk Modulus (GPa) = 55.28264 77.74143 66.51203
# Shear Modulus (GPa) = 31.80123 38.85864 35.32993
#
# Velocity S-wave (km/s) = 3.74816 4.14324 3.95064
# Velocity P-wave (km/s) = 6.56914 7.56519 7.08469
#
# Compressibility (1/GPa) = 0.01808886
#
# Stress axis : x y z
#
# Youngs Moduli (GPa) = 70.25120 114.05370 110.03223
#
# Poissons Ratio (x) = 0.13718 0.18850
# Poissons Ratio (y) = 0.08450 0.44948
# Poissons Ratio (z) = 0.12035 0.46591
#
# Static dielectric constant tensor:
#      x y z
#    x 3.939850 0.477570 -0.427470 
#    y 0.477570 6.704530 -1.370380 
#    z -0.427470 -1.370380 5.017200 
# 
# 
# High freq. dielectric constant tensor:
#      x y z
#    x 1.874090 -0.009220 -0.010040 
#    y -0.009220 1.908310 -0.008680 
#    z -0.010040 -0.008680 1.912640 
# 
# From -- ./inp_files/47257.got.cif
#   From: 2010.06.25/outbox.cif.g09.slc.cpg/sg2_24_cif.got.tgz:47257.got - 2010.06.27 13:26:56.
