data_PCOD8019268
_publ_section_title
;
Structure prediction by ZEFSAII (Michael W. Deem and Ramdas Pophale) SiO2 
 PCOD8019268
Probable space group: P -1
;
_chemical_formula_sum "Si O2"
_cell_formula_units_Z 14
_cell_length_a 15.422645
_cell_length_b 24.645959
_cell_length_c 6.350004
_cell_angle_alpha 86.375361
_cell_angle_beta 74.092251
_cell_angle_gamma 20.183218
_cell_volume 649.664109
_symmetry_space_group_name_H-M "P -1"
_symmetry_group_IT_number 2
_symmetry_cell_setting 'triclinic'
loop_
_space_group_symop_operation_xyz
x,y,z
-x,-y,-z
loop_
_atom_site_type_symbol
_atom_site_label
_atom_site_fract_x
_atom_site_fract_y
_atom_site_fract_z
Si Si1 0.299809 0.545497 0.704911
Si Si2 0.864567 0.560997 0.856193
Si Si3 0.904591 0.015399 0.246857
Si Si4 0.518359 0.826398 0.713659
Si Si5 0.473512 0.696427 0.249570
Si Si6 0.252556 0.639643 0.320166
Si Si7 0.271680 0.082789 0.704678
O O1 0.316385 0.471766 0.739913
O O2 0.268814 0.575772 0.469091
O O3 0.646999 0.369028 0.591112
O O4 0.994516 0.744346 0.991272
O O5 0.590831 0.763761 0.918719
O O6 0.166182 0.379265 0.552429
O O7 0.698440 0.598477 0.964068
O O8 0.000000 0.500000 0.000000
O O9 0.790770 0.024307 0.219594
O O10 0.630824 0.203107 0.518907
O O11 0.189767 0.835704 0.262230
O O12 0.000000 0.000000 0.000000
O O13 0.479694 0.913924 0.712038
O O14 0.895555 0.846452 0.409286
O O15 0.500000 0.500000 0.000000
O O16 0.500000 0.000000 0.500000
#
# Coordination Sequence:
#
# PCOD8019268 Si02
#       7
#     2   2   2   2   2   2   2
#     4  10  22  41  66  92 126 167 209 263 315 375
#     4  11  23  42  63  91 125 169 205 254 322 372
#     4  11  23  40  63  96 127 164 209 262 313 367
#     4  11  24  42  64  92 129 164 210 263 309 378
#     4  11  23  40  64  96 125 163 214 255 315 381
#     4   9  21  42  61  91 122 168 212 253 320 364
#     4  11  24  41  64  96 127 166 212 259 318 378
#
# _framework density 21.549596999999999
#
# number of rings (size 3 to 8) (size 9 to 14) (size 15 to 20)
#    0.000    1.429    2.857    1.714    0.000    8.571 
#    0.000    0.000    0.000    0.000    0.000    0.000 
#    0.000    0.000    0.000    0.000    0.000    0.000 
#
# Total GULP energy -173508.213481 kJ/mol
# GULP energy per Si atom -12393.443820 kJ/mol
# Density = 2.150055 g / cm^3
# Si number density = 21.549597 Si / 1000 Ang^3
#
#
#
# Elastic Constant Matrix: (Units=GPa)
#
#
# Indices 1 2 3 4 5 6 
#
# 1 100.1064 61.5324 25.2330 -7.7833 -23.9644 8.9831
# 2 61.5324 132.4474 37.4026 -22.4430 -9.7684 13.3872
# 3 25.2330 37.4026 76.3171 -19.5794 -18.1586 -2.5315
# 4 -7.7833 -22.4430 -19.5794 35.1439 0.7200 -10.3673
# 5 -23.9644 -9.7684 -18.1586 0.7200 37.3296 -7.6047
# 6 8.9831 13.3872 -2.5315 -10.3673 -7.6047 42.9920
#
#
#
# Elastic Compliance Matrix: (Units=1/GPa)
#
#
# Indices 1 2 3 4 5 6 
#
# 1 0.016378 -0.007128 -0.000187 -0.001200 0.008585 0.000016
# 2 -0.007128 0.012527 -0.003804 0.003668 -0.003709 -0.002407
# 3 -0.000187 -0.003804 0.020357 0.010659 0.009958 0.006754
# 4 -0.001200 0.003668 0.010659 0.039409 0.006739 0.010432
# 5 0.008585 -0.003709 0.009958 0.006739 0.037722 0.008245
# 6 0.000016 -0.002407 0.006754 0.010432 0.008245 0.028378
#
#
# Mechanical properties :
#
#
# Convention : Reuss Voigt Hill
#
# Bulk Modulus (GPa) = 37.00268 61.91190 49.45729
# Shear Modulus (GPa) = 26.87916 35.40661 31.14289
#
# Velocity S-wave (km/s) = 3.53557 4.05783 3.80567
# Velocity P-wave (km/s) = 5.82024 7.12369 6.50470
#
# Compressibility (1/GPa) = 0.02702507
#
# Stress axis : x y z
#
# Youngs Moduli (GPa) = 61.05704 79.82614 49.12235
#
# Poissons Ratio (x) = 0.56900 0.00916
# Poissons Ratio (y) = 0.43522 0.18687
# Poissons Ratio (z) = 0.01139 0.30368
#
# Static dielectric constant tensor:
#      x y z
#    x 3.951590 -0.244800 -0.415610 
#    y -0.244800 4.029000 -0.021200 
#    z -0.415610 -0.021200 3.802410 
# 
# 
# High freq. dielectric constant tensor:
#      x y z
#    x 1.837010 -0.007510 -0.018780 
#    y -0.007510 1.854890 -0.016820 
#    z -0.018780 -0.016820 1.851380 
# 
# From -- ./inp_files/36747.got.cif
#   From: 2010.06.25/outbox.cif.g09.slc.cpg/sg2_19_cif.got.tgz:36747.got - 2010.06.27 13:26:56.
