data_PCOD8019665
_publ_section_title
;
Structure prediction by ZEFSAII (Michael W. Deem and Ramdas Pophale) SiO2 
 PCOD8019665
Probable space group: P -1
;
_chemical_formula_sum "Si O2"
_cell_formula_units_Z 16
_cell_length_a 9.076209
_cell_length_b 12.666476
_cell_length_c 12.897606
_cell_angle_alpha 133.618489
_cell_angle_beta 133.748991
_cell_angle_gamma 54.782806
_cell_volume 761.221259
_symmetry_space_group_name_H-M "P -1"
_symmetry_group_IT_number 2
_symmetry_cell_setting 'triclinic'
loop_
_space_group_symop_operation_xyz
x,y,z
-x,-y,-z
loop_
_atom_site_type_symbol
_atom_site_label
_atom_site_fract_x
_atom_site_fract_y
_atom_site_fract_z
Si Si1 0.539484 0.074289 0.175057
Si Si2 0.143899 0.867140 0.116909
Si Si3 0.638644 0.382841 0.416426
Si Si4 0.000981 0.929648 0.316970
Si Si5 0.572038 0.646420 0.175632
Si Si6 0.190024 0.148596 0.212975
Si Si7 0.762903 0.575053 0.444259
Si Si8 0.048641 0.228238 0.617890
O O1 0.523198 0.246225 0.257488
O O2 0.372829 0.055360 0.168625
O O3 0.762773 0.998852 0.273816
O O4 0.500000 0.000000 0.000000
O O5 0.377682 0.780533 0.171977
O O6 0.044187 0.861604 0.178288
O O7 0.131174 0.039186 0.197855
O O8 0.008748 0.792783 0.918082
O O9 0.500000 0.500000 0.500000
O O10 0.644105 0.453786 0.353388
O O11 0.873382 0.336590 0.541283
O O12 0.053057 0.796222 0.335645
O O13 0.121051 0.066716 0.487313
O O14 0.659496 0.624947 0.319124
O O15 0.751713 0.692399 0.222034
O O16 0.500000 0.500000 0.000000
O O17 0.262890 0.284963 0.396319
O O18 0.000000 0.500000 0.500000
#
# Coordination Sequence:
#
# PCOD8019665 Si02
#       8
#     2   2   2   2   2   2   2   2
#     4  11  22  41  68  98 136 174 226 281 341 400
#     4  11  25  41  68 102 134 168 233 277 343 397
#     4  11  24  41  67 100 131 180 231 274 337 414
#     4  10  22  41  69  99 127 177 218 287 339 393
#     4  12  27  46  65  99 137 181 223 284 341 406
#     4  11  24  44  70 100 136 178 225 285 337 415
#     4  12  25  44  71  94 137 184 226 276 342 410
#     4  10  23  43  66  94 138 170 225 275 341 403
#
# _framework density 21.018857000000001
#
# number of rings (size 3 to 8) (size 9 to 14) (size 15 to 20)
#    0.000    1.000    3.750    2.250    3.500    5.000 
#    0.000    0.625    0.000    0.000    0.000    0.000 
#    0.000    0.000    0.000    0.000    0.000    0.000 
#
# Total GULP energy -198439.449843 kJ/mol
# GULP energy per Si atom -12402.465615 kJ/mol
# Density = 2.097102 g / cm^3
# Si number density = 21.018857 Si / 1000 Ang^3
#
#
#
# Elastic Constant Matrix: (Units=GPa)
#
#
# Indices 1 2 3 4 5 6 
#
# 1 105.9359 31.9470 34.4748 -4.1288 -2.5054 5.2279
# 2 31.9470 88.4921 42.5598 -7.5159 -2.2551 4.7183
# 3 34.4748 42.5598 124.9889 -0.4174 -3.1063 5.3884
# 4 -4.1288 -7.5159 -0.4174 31.7841 3.1604 -0.0945
# 5 -2.5054 -2.2551 -3.1063 3.1604 39.5426 -1.8347
# 6 5.2279 4.7183 5.3884 -0.0945 -1.8347 40.2854
#
#
#
# Elastic Compliance Matrix: (Units=1/GPa)
#
#
# Indices 1 2 3 4 5 6 
#
# 1 0.011046 -0.002912 -0.002011 0.000689 0.000283 -0.000809
# 2 -0.002912 0.014641 -0.004138 0.003022 0.000048 -0.000774
# 3 -0.002011 -0.004138 0.009997 -0.001159 0.000488 -0.000572
# 4 0.000689 0.003022 -0.001159 0.032498 -0.002487 -0.000326
# 5 0.000283 0.000048 0.000488 -0.002487 0.025596 0.001052
# 6 -0.000809 -0.000774 -0.000572 -0.000326 0.001052 0.025142
#
#
# Mechanical properties :
#
#
# Convention : Reuss Voigt Hill
#
# Bulk Modulus (GPa) = 56.93697 59.70889 58.32293
# Shear Modulus (GPa) = 34.99099 36.35142 35.67120
#
# Velocity S-wave (km/s) = 4.08455 4.16320 4.12406
# Velocity P-wave (km/s) = 7.02795 7.18182 7.10530
#
# Compressibility (1/GPa) = 0.01756328
#
# Stress axis : x y z
#
# Youngs Moduli (GPa) = 90.53344 68.30282 100.02818
#
# Poissons Ratio (x) = 0.19887 0.20116
# Poissons Ratio (y) = 0.26359 0.41387
# Poissons Ratio (z) = 0.18206 0.28261
#
# Static dielectric constant tensor:
#      x y z
#    x 3.729010 -0.027840 0.093420 
#    y -0.027840 3.708090 -0.080160 
#    z 0.093420 -0.080160 4.013800 
# 
# 
# High freq. dielectric constant tensor:
#      x y z
#    x 1.832700 0.008660 0.003770 
#    y 0.008660 1.830800 -0.006080 
#    z 0.003770 -0.006080 1.821410 
# 
# From -- ./inp_files/224096.got.cif
#   From: 2010.06.25/outbox.cif.g09.slc.cpg/sg2_113_cif.got.tgz:224096.got - 2010.06.27 13:26:56.
