data_PCOD8019232
_publ_section_title
;
Structure prediction by ZEFSAII (Michael W. Deem and Ramdas Pophale) SiO2 
 PCOD8019232
Probable space group: P -1
;
_chemical_formula_sum "Si O2"
_cell_formula_units_Z 16
_cell_length_a 10.010201
_cell_length_b 14.769060
_cell_length_c 12.088361
_cell_angle_alpha 93.203490
_cell_angle_beta 98.413157
_cell_angle_gamma 152.198468
_cell_volume 755.154981
_symmetry_space_group_name_H-M "P -1"
_symmetry_group_IT_number 2
_symmetry_cell_setting 'triclinic'
loop_
_space_group_symop_operation_xyz
x,y,z
-x,-y,-z
loop_
_atom_site_type_symbol
_atom_site_label
_atom_site_fract_x
_atom_site_fract_y
_atom_site_fract_z
Si Si1 0.116615 0.517314 0.717371
Si Si2 0.449251 0.691467 0.368250
Si Si3 0.208194 0.380220 0.993228
Si Si4 0.139613 0.004782 0.759919
Si Si5 0.683629 0.588051 0.757945
Si Si6 0.006833 0.250163 0.726998
Si Si7 0.689638 0.355069 0.004081
Si Si8 0.325063 0.129950 0.359378
O O1 0.941021 0.312687 0.681978
O O2 0.357015 0.668028 0.656412
O O3 0.870741 0.447662 0.662364
O O4 0.307227 0.649807 0.863403
O O5 0.657539 0.873726 0.318694
O O6 0.373577 0.544645 0.309456
O O7 0.635372 0.796927 0.513057
O O8 0.954448 0.217784 0.852614
O O9 0.500000 0.500000 0.000000
O O10 0.096833 0.282933 0.095558
O O11 0.326819 0.553557 0.034413
O O12 0.366175 0.117888 0.899075
O O13 0.871579 0.764120 0.705236
O O14 0.963470 0.995564 0.748469
O O15 0.355271 0.435471 0.740806
O O16 0.755191 0.024543 0.636939
O O17 0.000000 0.500000 0.000000
#
# Coordination Sequence:
#
# PCOD8019232 Si02
#       8
#     2   2   2   2   2   2   2   2
#     4  11  25  45  68 101 135 176 218 283 340 389
#     4  12  26  47  66  97 143 173 228 281 321 398
#     4   9  18  37  61  91 133 167 206 275 327 384
#     4  12  24  41  71 101 128 182 222 270 342 386
#     4  11  22  41  67  99 132 177 225 274 328 400
#     4  10  22  41  65  99 137 168 223 280 329 397
#     4  11  21  43  69  96 142 165 214 287 336 392
#     4  12  26  44  71  97 132 188 227 265 333 402
#
# _framework density 21.187705000000001
#
# number of rings (size 3 to 8) (size 9 to 14) (size 15 to 20)
#    0.000    1.000    5.000    1.500    1.750    3.500 
#    0.000    1.250    0.000    0.000    0.000    0.000 
#    0.000    0.000    0.000    0.000    0.000    0.000 
#
# Total GULP energy -198349.913282 kJ/mol
# GULP energy per Si atom -12396.869580 kJ/mol
# Density = 2.113948 g / cm^3
# Si number density = 21.187705 Si / 1000 Ang^3
#
#
#
# Elastic Constant Matrix: (Units=GPa)
#
#
# Indices 1 2 3 4 5 6 
#
# 1 86.7487 16.9856 26.7564 7.9824 -12.2229 -9.9740
# 2 16.9856 89.3010 40.6651 -10.5863 -11.6742 -16.4418
# 3 26.7564 40.6651 91.1744 -3.5772 -15.2675 -8.9333
# 4 7.9824 -10.5863 -3.5772 20.2821 5.1442 0.7011
# 5 -12.2229 -11.6742 -15.2675 5.1442 30.0015 1.5251
# 6 -9.9740 -16.4418 -8.9333 0.7011 1.5251 28.4419
#
#
#
# Elastic Compliance Matrix: (Units=1/GPa)
#
#
# Indices 1 2 3 4 5 6 
#
# 1 0.014532 -0.001107 -0.002873 -0.008260 0.005268 0.003475
# 2 -0.001107 0.016384 -0.005778 0.007380 0.001362 0.007013
# 3 -0.002873 -0.005778 0.015116 -0.000321 0.004320 0.000177
# 4 -0.008260 0.007380 -0.000321 0.059078 -0.010806 0.000392
# 5 0.005268 0.001362 0.004320 -0.010806 0.039952 0.002116
# 6 0.003475 0.007013 0.000177 0.000392 0.002116 0.040365
#
#
# Mechanical properties :
#
#
# Convention : Reuss Voigt Hill
#
# Bulk Modulus (GPa) = 37.71030 48.44869 43.07950
# Shear Modulus (GPa) = 23.38853 27.93291 25.66072
#
# Velocity S-wave (km/s) = 3.32606 3.63485 3.48388
# Velocity P-wave (km/s) = 5.70851 6.36650 6.04646
#
# Compressibility (1/GPa) = 0.02651795
#
# Stress axis : x y z
#
# Youngs Moduli (GPa) = 68.81336 61.03552 66.15474
#
# Poissons Ratio (x) = 0.06755 0.19003
# Poissons Ratio (y) = 0.07616 0.38223
# Poissons Ratio (z) = 0.19767 0.35265
#
# Static dielectric constant tensor:
#      x y z
#    x 3.967550 -0.030910 0.032400 
#    y -0.030910 3.638850 -0.138090 
#    z 0.032400 -0.138090 4.134830 
# 
# 
# High freq. dielectric constant tensor:
#      x y z
#    x 1.840290 -0.003320 -0.002980 
#    y -0.003320 1.817840 -0.010720 
#    z -0.002980 -0.010720 1.832010 
# 
# From -- ./inp_files/271374.got.cif
#   From: 2010.06.25/outbox.cif.g09.slc.cpg/sg2_136_cif.got.tgz:271374.got - 2010.06.27 13:26:56.
