data_PCOD8019186
_publ_section_title
;
Structure prediction by ZEFSAII (Michael W. Deem and Ramdas Pophale) SiO2 
 PCOD8019186
Probable space group: P -1
;
_chemical_formula_sum "Si O2"
_cell_formula_units_Z 16
_cell_length_a 16.268294
_cell_length_b 16.289889
_cell_length_c 16.646204
_cell_angle_alpha 34.696237
_cell_angle_beta 24.646874
_cell_angle_gamma 25.088244
_cell_volume 780.028111
_symmetry_space_group_name_H-M "P -1"
_symmetry_group_IT_number 2
_symmetry_cell_setting 'triclinic'
loop_
_space_group_symop_operation_xyz
x,y,z
-x,-y,-z
loop_
_atom_site_type_symbol
_atom_site_label
_atom_site_fract_x
_atom_site_fract_y
_atom_site_fract_z
Si Si1 0.064008 0.452579 0.668437
Si Si2 0.922175 0.844371 0.504483
Si Si3 0.565100 0.360395 0.273307
Si Si4 0.130377 0.959371 0.104524
Si Si5 0.666437 0.843647 0.193297
Si Si6 0.271040 0.403718 0.794667
Si Si7 0.647105 0.396802 0.571000
Si Si8 0.552227 0.575332 0.967795
O O1 0.346071 0.343176 0.462861
O O2 0.112552 0.334461 0.801096
O O3 0.929702 0.668452 0.637352
O O4 0.858000 0.478117 0.769905
O O5 0.079738 0.840880 0.295401
O O6 0.084053 0.808508 0.469871
O O7 0.623983 0.045158 0.602635
O O8 0.520089 0.438475 0.342505
O O9 0.514057 0.516381 0.133876
O O10 0.851006 0.155653 0.163279
O O11 0.334752 0.812103 0.970332
O O12 0.271349 0.017390 0.983675
O O13 0.654881 0.781672 0.165120
O O14 0.477110 0.349473 0.723833
O O15 0.259937 0.535027 0.633101
O O16 0.000000 0.500000 0.000000
O O17 0.500000 0.500000 0.000000
#
# Coordination Sequence:
#
# PCOD8019186 Si02
#       8
#     2   2   2   2   2   2   2   2
#     4  11  22  44  70  93 132 175 218 269 336 398
#     4  11  22  41  70  96 129 180 231 261 332 400
#     4  11  22  44  71  92 136 182 219 268 337 393
#     4  12  23  40  71 101 128 176 227 270 331 404
#     4  12  23  40  69  99 129 179 228 270 326 397
#     4  11  23  38  64  99 135 175 225 276 327 380
#     4  10  22  41  65  94 137 179 221 274 327 387
#     4  12  27  44  69 105 136 168 219 285 339 400
#
# _framework density 20.512080999999998
#
# number of rings (size 3 to 8) (size 9 to 14) (size 15 to 20)
#    0.000    0.750    8.750    0.750    0.000    3.500 
#    0.000    1.875    0.000    0.000    0.000    0.000 
#    0.000    0.000    0.000    0.000    0.000    0.000 
#
# Total GULP energy -198281.099725 kJ/mol
# GULP energy per Si atom -12392.568733 kJ/mol
# Density = 2.046540 g / cm^3
# Si number density = 20.512081 Si / 1000 Ang^3
#
#
#
# Elastic Constant Matrix: (Units=GPa)
#
#
# Indices 1 2 3 4 5 6 
#
# 1 116.2883 55.7479 41.2120 14.1482 -42.0619 8.9594
# 2 55.7479 116.4624 36.4492 15.9691 -17.3938 4.1091
# 3 41.2120 36.4492 90.8063 15.6400 -26.5867 7.4225
# 4 14.1482 15.9691 15.6400 31.3118 -9.1056 -6.3010
# 5 -42.0619 -17.3938 -26.5867 -9.1056 34.3961 -1.4385
# 6 8.9594 4.1091 7.4225 -6.3010 -1.4385 28.1265
#
#
#
# Elastic Compliance Matrix: (Units=1/GPa)
#
#
# Indices 1 2 3 4 5 6 
#
# 1 0.019069 -0.005908 0.000048 -0.000686 0.020005 -0.004355
# 2 -0.005908 0.012139 -0.002825 -0.003342 -0.004158 -0.000108
# 3 0.000048 -0.002825 0.016127 -0.004716 0.009663 -0.004421
# 4 -0.000686 -0.003342 -0.004716 0.039969 0.004873 0.011154
# 5 0.020005 -0.004158 0.009663 0.004873 0.060020 -0.004154
# 6 -0.004355 -0.000108 -0.004421 0.011154 -0.004154 0.040410
#
#
# Mechanical properties :
#
#
# Convention : Reuss Voigt Hill
#
# Bulk Modulus (GPa) = 33.36912 65.59724 49.48318
# Shear Modulus (GPa) = 23.24602 31.44340 27.34471
#
# Velocity S-wave (km/s) = 3.37008 3.91950 3.65513
# Velocity P-wave (km/s) = 5.60773 7.24793 6.47994
#
# Compressibility (1/GPa) = 0.02996783
#
# Stress axis : x y z
#
# Youngs Moduli (GPa) = 52.44036 82.37708 62.00728
#
# Poissons Ratio (x) = 0.48665 -0.00299
# Poissons Ratio (y) = 0.30979 0.17514
# Poissons Ratio (z) = -0.00253 0.23268
#
# Static dielectric constant tensor:
#      x y z
#    x 3.730560 -0.094490 -0.319440 
#    y -0.094490 5.075010 -0.027320 
#    z -0.319440 -0.027320 3.904960 
# 
# 
# High freq. dielectric constant tensor:
#      x y z
#    x 1.780670 -0.012190 -0.023910 
#    y -0.012190 1.802890 0.002000 
#    z -0.023910 0.002000 1.817300 
# 
# From -- ./inp_files/533666.got.cif
#   From: 2010.06.25/outbox.cif.g09.slc.cpg/sg2_267_cif.got.tgz:533666.got - 2010.06.27 13:26:56.
