data_PCOD8019108
_publ_section_title
;
Structure prediction by ZEFSAII (Michael W. Deem and Ramdas Pophale) SiO2 
 PCOD8019108
Probable space group: P -1
;
_chemical_formula_sum "Si O2"
_cell_formula_units_Z 16
_cell_length_a 8.045075
_cell_length_b 20.948053
_cell_length_c 5.218502
_cell_angle_alpha 91.884687
_cell_angle_beta 87.855186
_cell_angle_gamma 52.072139
_cell_volume 691.479782
_symmetry_space_group_name_H-M "P -1"
_symmetry_group_IT_number 2
_symmetry_cell_setting 'triclinic'
loop_
_space_group_symop_operation_xyz
x,y,z
-x,-y,-z
loop_
_atom_site_type_symbol
_atom_site_label
_atom_site_fract_x
_atom_site_fract_y
_atom_site_fract_z
Si Si1 0.616743 0.800922 0.325964
Si Si2 0.096299 0.591695 0.582006
Si Si3 0.296157 0.323765 0.071958
Si Si4 0.363345 0.417350 0.736696
Si Si5 0.017900 0.204321 0.642929
Si Si6 0.629600 0.252450 0.407888
Si Si7 0.765797 0.369845 0.919634
Si Si8 0.580135 0.945623 0.238286
O O1 0.814206 0.782743 0.484931
O O2 0.448618 0.796068 0.474668
O O3 0.494245 0.892334 0.232781
O O4 0.736355 0.734454 0.084015
O O5 0.204060 0.497130 0.590169
O O6 0.132161 0.606828 0.294265
O O7 0.844115 0.643920 0.655345
O O8 0.191233 0.617218 0.792884
O O9 0.548064 0.269610 0.120594
O O10 0.227309 0.400660 0.915827
O O11 0.517149 0.341639 0.534860
O O12 0.512106 0.427695 0.904422
O O13 0.880945 0.201939 0.426399
O O14 0.862752 0.275811 0.863854
O O15 0.161376 0.117782 0.773178
O O16 0.500000 0.000000 0.500000
O O17 0.500000 0.000000 0.000000
#
# Coordination Sequence:
#
# PCOD8019108 Si02
#       8
#     2   2   2   2   2   2   2   2
#     4   9  21  42  65  96 133 173 216 273 323 409
#     4  12  24  40  65  92 131 180 227 284 346 380
#     4  11  23  40  67  92 133 177 232 277 336 393
#     4  10  25  40  57  95 133 171 230 291 330 388
#     4   9  21  43  69  92 134 174 222 266 330 402
#     4  10  22  41  64  99 127 181 229 270 329 397
#     4  11  24  41  65  94 126 180 230 273 338 403
#     4  10  23  43  72 103 133 169 213 267 335 399
#
# _framework density 23.138781000000002
#
# number of rings (size 3 to 8) (size 9 to 14) (size 15 to 20)
#    0.750    1.000    1.250    1.875    8.750    1.500 
#    4.500    1.250    0.000    0.000    0.000    0.000 
#    0.000    0.000    0.000    0.000    0.000    0.000 
#
# Total GULP energy -198240.877693 kJ/mol
# GULP energy per Si atom -12390.054856 kJ/mol
# Density = 2.308612 g / cm^3
# Si number density = 23.138781 Si / 1000 Ang^3
#
#
#
# Elastic Constant Matrix: (Units=GPa)
#
#
# Indices 1 2 3 4 5 6 
#
# 1 130.3779 40.9248 20.3531 -8.8836 21.7735 -1.3452
# 2 40.9248 132.3782 27.0721 -19.7142 3.0205 8.1985
# 3 20.3531 27.0721 59.6113 -10.7067 1.4845 4.7697
# 4 -8.8836 -19.7142 -10.7067 21.8618 -7.6081 5.5675
# 5 21.7735 3.0205 1.4845 -7.6081 33.9085 -9.3159
# 6 -1.3452 8.1985 4.7697 5.5675 -9.3159 32.8540
#
#
#
# Elastic Compliance Matrix: (Units=1/GPa)
#
#
# Indices 1 2 3 4 5 6 
#
# 1 0.009811 -0.002672 -0.002279 -0.001730 -0.006383 -0.000117
# 2 -0.002672 0.010237 -0.001957 0.008702 0.001934 -0.003306
# 3 -0.002279 -0.001957 0.020250 0.008731 0.001740 -0.003531
# 4 -0.001730 0.008702 0.008731 0.063911 0.011228 -0.011157
# 5 -0.006383 0.001934 0.001740 0.011228 0.038026 0.007883
# 6 -0.000117 -0.003306 -0.003531 -0.011157 0.007883 0.035897
#
#
# Mechanical properties :
#
#
# Convention : Reuss Voigt Hill
#
# Bulk Modulus (GPa) = 37.76208 55.45194 46.60701
# Shear Modulus (GPa) = 24.90350 33.32600 29.11475
#
# Velocity S-wave (km/s) = 3.28421 3.79920 3.55105
# Velocity P-wave (km/s) = 5.54406 6.57740 6.08271
#
# Compressibility (1/GPa) = 0.02648159
#
# Stress axis : x y z
#
# Youngs Moduli (GPa) = 101.92347 97.68510 49.38347
#
# Poissons Ratio (x) = 0.26100 0.11254
# Poissons Ratio (y) = 0.27232 0.09667
# Poissons Ratio (z) = 0.23227 0.19122
#
# Static dielectric constant tensor:
#      x y z
#    x 4.407440 0.009410 0.283060 
#    y 0.009410 4.206090 -0.072650 
#    z 0.283060 -0.072650 3.751400 
# 
# 
# High freq. dielectric constant tensor:
#      x y z
#    x 1.921160 0.007250 0.016710 
#    y 0.007250 1.902180 -0.011900 
#    z 0.016710 -0.011900 1.895630 
# 
# From -- ./inp_files/53089.got.cif
#   From: 2010.06.25/outbox.cif.g09.slc.cpg/sg2_27_cif.got.tgz:53089.got - 2010.06.27 13:26:56.
