data_PCOD8019914
_publ_section_title
;
Structure prediction by ZEFSAII (Michael W. Deem and Ramdas Pophale) SiO2 
 PCOD8019914
Probable space group: P -1
;
_chemical_formula_sum "Si O2"
_cell_formula_units_Z 16
_cell_length_a 21.271155
_cell_length_b 5.999460
_cell_length_c 6.908285
_cell_angle_alpha 103.988883
_cell_angle_beta 93.783086
_cell_angle_gamma 57.435059
_cell_volume 718.743811
_symmetry_space_group_name_H-M "P -1"
_symmetry_group_IT_number 2
_symmetry_cell_setting 'triclinic'
loop_
_space_group_symop_operation_xyz
x,y,z
-x,-y,-z
loop_
_atom_site_type_symbol
_atom_site_label
_atom_site_fract_x
_atom_site_fract_y
_atom_site_fract_z
Si Si1 0.908057 0.174194 0.819743
Si Si2 0.289755 0.552607 0.443422
Si Si3 0.586487 0.712106 0.291674
Si Si4 0.553336 0.226868 0.565828
Si Si5 0.205870 0.285789 0.268649
Si Si6 0.335581 0.701873 0.130795
Si Si7 0.048511 0.190511 0.886357
Si Si8 0.146903 0.083761 0.529657
O O1 0.844877 0.501312 0.867931
O O2 0.891894 0.057207 0.605040
O O3 0.991676 0.103555 0.789707
O O4 0.901227 0.026564 0.979469
O O5 0.365713 0.462195 0.550863
O O6 0.256513 0.363707 0.419363
O O7 0.305741 0.549431 0.218862
O O8 0.230934 0.859583 0.565722
O O9 0.499293 0.818631 0.310887
O O10 0.591523 0.982507 0.360212
O O11 0.620817 0.513340 0.074693
O O12 0.500000 0.500000 0.500000
O O13 0.612215 0.235603 0.717127
O O14 0.261937 0.993078 0.114696
O O15 0.149776 0.287702 0.419699
O O16 0.099324 0.213320 0.739862
O O17 0.000000 0.500000 0.000000
#
# Coordination Sequence:
#
# PCOD8019914 Si02
#       8
#     2   2   2   2   2   2   2   2
#     4  10  23  42  65  96 131 173 223 277 335 405
#     4  10  22  42  62  95 131 168 230 277 328 412
#     4  11  24  41  67  96 132 178 223 280 339 400
#     4  11  23  43  67  97 138 171 226 281 336 409
#     4  10  22  43  68  92 135 177 224 285 335 402
#     4  11  23  43  68  97 133 179 227 276 345 403
#     4  11  24  41  66  98 134 171 227 276 337 406
#     4  10  23  42  66  92 134 177 217 276 344 390
#
# _framework density 22.261060000000001
#
# number of rings (size 3 to 8) (size 9 to 14) (size 15 to 20)
#    0.000    1.500    2.500    1.500    0.000   11.500 
#    0.000    3.750    0.000    0.000    0.000    0.000 
#    0.000    0.000    0.000    0.000    0.000    0.000 
#
# Total GULP energy -198229.601536 kJ/mol
# GULP energy per Si atom -12389.350096 kJ/mol
# Density = 2.221039 g / cm^3
# Si number density = 22.261060 Si / 1000 Ang^3
#
#
#
# Elastic Constant Matrix: (Units=GPa)
#
#
# Indices 1 2 3 4 5 6 
#
# 1 79.2872 32.5473 31.4061 -0.6517 -11.6780 -1.5368
# 2 32.5473 159.8067 73.9778 -4.7147 -7.4641 -9.1594
# 3 31.4061 73.9778 101.3124 19.0978 -18.5705 -5.8038
# 4 -0.6517 -4.7147 19.0978 31.5402 -6.7868 4.9091
# 5 -11.6780 -7.4641 -18.5705 -6.7868 34.5279 -3.2680
# 6 -1.5368 -9.1594 -5.8038 4.9091 -3.2680 34.3796
#
#
#
# Elastic Compliance Matrix: (Units=1/GPa)
#
#
# Indices 1 2 3 4 5 6 
#
# 1 0.015123 -0.000992 -0.004008 0.003383 0.003369 -0.000428
# 2 -0.000992 0.010838 -0.009162 0.006782 -0.001571 0.000179
# 3 -0.004008 -0.009162 0.021718 -0.013880 0.005956 0.003594
# 4 0.003383 0.006782 -0.013880 0.042800 0.002969 -0.006214
# 5 0.003369 -0.001571 0.005956 0.002969 0.033884 0.003535
# 6 -0.000428 0.000179 0.003594 -0.006214 0.003535 0.030946
#
#
# Mechanical properties :
#
#
# Convention : Reuss Voigt Hill
#
# Bulk Modulus (GPa) = 51.67111 68.47432 60.07271
# Shear Modulus (GPa) = 26.30410 33.58787 29.94599
#
# Velocity S-wave (km/s) = 3.44120 3.88856 3.67170
# Velocity P-wave (km/s) = 6.24908 7.14057 6.70964
#
# Compressibility (1/GPa) = 0.01935317
#
# Stress axis : x y z
#
# Youngs Moduli (GPa) = 66.12436 92.26784 46.04562
#
# Poissons Ratio (x) = 0.09151 0.18457
# Poissons Ratio (y) = 0.06558 0.42189
# Poissons Ratio (z) = 0.26506 0.84540
#
# Static dielectric constant tensor:
#      x y z
#    x 4.532630 -0.039400 -0.035130 
#    y -0.039400 4.353510 -0.010030 
#    z -0.035130 -0.010030 3.696530 
# 
# 
# High freq. dielectric constant tensor:
#      x y z
#    x 1.896400 -0.002120 0.008030 
#    y -0.002120 1.891890 0.000500 
#    z 0.008030 0.000500 1.845050 
# 
# From -- ./inp_files/11143.got.cif
#   From: 2010.06.25/outbox.cif.g09.slc.cpg/sg2_6_cif.got.tgz:11143.got - 2010.06.27 13:26:56.
