data_PCOD8019889
_publ_section_title
;
Structure prediction by ZEFSAII (Michael W. Deem and Ramdas Pophale) SiO2 
 PCOD8019889
Probable space group: P -1
;
_chemical_formula_sum "Si O2"
_cell_formula_units_Z 16
_cell_length_a 16.909829
_cell_length_b 12.423221
_cell_length_c 8.659019
_cell_angle_alpha 87.246405
_cell_angle_beta 55.693348
_cell_angle_gamma 42.716475
_cell_volume 771.747331
_symmetry_space_group_name_H-M "P -1"
_symmetry_group_IT_number 2
_symmetry_cell_setting 'triclinic'
loop_
_space_group_symop_operation_xyz
x,y,z
-x,-y,-z
loop_
_atom_site_type_symbol
_atom_site_label
_atom_site_fract_x
_atom_site_fract_y
_atom_site_fract_z
Si Si1 0.926712 0.146217 0.701351
Si Si2 0.662761 0.563874 0.798339
Si Si3 0.041486 0.574549 0.381064
Si Si4 0.013567 0.606956 0.042085
Si Si5 0.317761 0.464725 0.581402
Si Si6 0.731300 0.034724 0.655992
Si Si7 0.327587 0.913057 0.620943
Si Si8 0.205785 0.794071 0.840526
O O1 0.766803 0.375836 0.797159
O O2 0.812274 0.194513 0.955394
O O3 0.000000 0.000000 0.500000
O O4 0.116451 0.021369 0.558084
O O5 0.765041 0.575513 0.739087
O O6 0.694608 0.506003 0.589053
O O7 0.438736 0.774101 0.055155
O O8 0.000000 0.500000 0.500000
O O9 0.058129 0.561500 0.178186
O O10 0.858411 0.820784 0.611373
O O11 0.167426 0.523817 0.790007
O O12 0.000000 0.500000 0.000000
O O13 0.834881 0.848616 0.172459
O O14 0.502690 0.222676 0.445105
O O15 0.303194 0.594336 0.674496
O O16 0.627024 0.105499 0.606885
O O17 0.304052 0.807979 0.680671
O O18 0.000000 0.000000 0.000000
#
# Coordination Sequence:
#
# PCOD8019889 Si02
#       8
#     2   2   2   2   2   2   2   2
#     4  11  24  40  62  90 129 167 209 259 314 375
#     4  11  25  40  62  95 131 166 210 261 316 380
#     4  10  22  44  68  92 126 166 207 265 326 375
#     4  11  24  44  71  95 126 167 218 271 319 382
#     4  12  25  41  66  98 130 169 218 262 317 386
#     4  10  22  42  62  90 125 168 208 257 317 373
#     4  11  24  42  68  92 130 171 216 264 321 378
#     4  12  21  43  67  93 131 175 212 264 320 381
#
# _framework density 20.732174000000001
#
# number of rings (size 3 to 8) (size 9 to 14) (size 15 to 20)
#    0.000    1.000    2.500    4.875    1.750    3.500 
#    0.000    0.000    0.000    0.000    0.000    0.000 
#    0.000    0.000    0.000    0.000    0.000    0.000 
#
# Total GULP energy -198237.872925 kJ/mol
# GULP energy per Si atom -12389.867058 kJ/mol
# Density = 2.068499 g / cm^3
# Si number density = 20.732174 Si / 1000 Ang^3
#
#
#
# Elastic Constant Matrix: (Units=GPa)
#
#
# Indices 1 2 3 4 5 6 
#
# 1 115.0297 28.5262 31.6716 -9.2256 -27.7956 -3.3750
# 2 28.5262 87.7191 45.2064 4.8241 -2.6754 2.4752
# 3 31.6716 45.2064 124.7082 6.8245 4.9712 -0.6621
# 4 -9.2256 4.8241 6.8245 47.3221 15.9254 4.0425
# 5 -27.7956 -2.6754 4.9712 15.9254 74.5234 7.3738
# 6 -3.3750 2.4752 -0.6621 4.0425 7.3738 50.4066
#
#
#
# Elastic Compliance Matrix: (Units=1/GPa)
#
#
# Indices 1 2 3 4 5 6 
#
# 1 0.010915 -0.002420 -0.002122 0.001384 0.003815 0.000153
# 2 -0.002420 0.014694 -0.004656 -0.001326 0.000306 -0.000883
# 3 -0.002122 -0.004656 0.010361 -0.000975 -0.001493 0.000519
# 4 0.001384 -0.001326 -0.000975 0.023225 -0.004322 -0.001085
# 5 0.003815 0.000306 -0.001493 -0.004322 0.016052 -0.001781
# 6 0.000153 -0.000883 0.000519 -0.001085 -0.001781 0.020247
#
#
# Mechanical properties :
#
#
# Convention : Reuss Voigt Hill
#
# Bulk Modulus (GPa) = 56.90304 59.80727 58.35516
# Shear Modulus (GPa) = 41.75471 49.25395 45.50433
#
# Velocity S-wave (km/s) = 4.49264 4.87943 4.69002
# Velocity P-wave (km/s) = 7.37686 7.78815 7.58529
#
# Compressibility (1/GPa) = 0.01757376
#
# Stress axis : x y z
#
# Youngs Moduli (GPa) = 91.61653 68.05588 96.51545
#
# Poissons Ratio (x) = 0.16471 0.20478
# Poissons Ratio (y) = 0.22173 0.44939
# Poissons Ratio (z) = 0.19438 0.31688
#
# Static dielectric constant tensor:
#      x y z
#    x 3.918100 0.136640 -0.238420 
#    y 0.136640 4.078030 -0.082520 
#    z -0.238420 -0.082520 3.877540 
# 
# 
# High freq. dielectric constant tensor:
#      x y z
#    x 1.806990 -0.011630 -0.002200 
#    y -0.011630 1.827810 0.000930 
#    z -0.002200 0.000930 1.820280 
# 
# From -- ./inp_files/272792.got.cif
#   From: 2010.06.25/outbox.cif.g09.slc.cpg/sg2_137_cif.got.tgz:272792.got - 2010.06.27 13:26:56.
