data_PCOD8019573
_publ_section_title
;
Structure prediction by ZEFSAII (Michael W. Deem and Ramdas Pophale) SiO2 
 PCOD8019573
Probable space group: P -1
;
_chemical_formula_sum "Si O2"
_cell_formula_units_Z 14
_cell_length_a 10.134450
_cell_length_b 6.791246
_cell_length_c 13.066094
_cell_angle_alpha 138.186406
_cell_angle_beta 100.336641
_cell_angle_gamma 75.634523
_cell_volume 580.791565
_symmetry_space_group_name_H-M "P -1"
_symmetry_group_IT_number 2
_symmetry_cell_setting 'triclinic'
loop_
_space_group_symop_operation_xyz
x,y,z
-x,-y,-z
loop_
_atom_site_type_symbol
_atom_site_label
_atom_site_fract_x
_atom_site_fract_y
_atom_site_fract_z
Si Si1 0.194880 0.382757 0.441634
Si Si2 0.854340 0.203844 0.080247
Si Si3 0.298620 0.893583 0.781162
Si Si4 0.014531 0.649167 0.350241
Si Si5 0.250680 0.763414 0.306918
Si Si6 0.659423 0.470972 0.989930
Si Si7 0.427064 0.426951 0.359606
O O1 0.230422 0.679807 0.614560
O O2 0.052616 0.475433 0.396768
O O3 0.307325 0.260133 0.321515
O O4 0.191288 0.119089 0.421628
O O5 0.776060 0.065125 0.104998
O O6 0.755571 0.224833 0.976805
O O7 0.881032 0.534559 0.246018
O O8 0.000000 0.000000 0.000000
O O9 0.460810 0.773905 0.773871
O O10 0.288048 0.220404 0.856933
O O11 0.132563 0.580178 0.253423
O O12 0.000000 0.000000 0.500000
O O13 0.362488 0.720987 0.397961
O O14 0.319173 0.613852 0.157624
O O15 0.500000 0.500000 0.000000
O O16 0.500000 0.500000 0.500000
#
# Coordination Sequence:
#
# PCOD8019573 Si02
#       7
#     2   2   2   2   2   2   2
#     4  10  22  41  68  99 130 171 222 279 339 398
#     4  12  27  44  66  98 136 179 226 272 328 401
#     4  11  24  42  67  95 133 174 218 274 335 392
#     4  11  24  42  66  98 133 172 226 278 331 400
#     4  11  23  41  67  95 134 177 218 277 338 392
#     4  12  27  45  68  98 134 178 226 274 333 401
#     4   9  21  40  65  97 129 166 221 277 332 396
#
# _framework density 24.105034
#
# number of rings (size 3 to 8) (size 9 to 14) (size 15 to 20)
#    0.000    1.143    0.000    5.143    0.000   16.000 
#    0.000    0.000    0.000    0.000    0.000    0.000 
#    0.000    0.000    0.000    0.000    0.000    0.000 
#
# Total GULP energy -173544.336516 kJ/mol
# GULP energy per Si atom -12396.024037 kJ/mol
# Density = 2.405017 g / cm^3
# Si number density = 24.105034 Si / 1000 Ang^3
#
#
#
# Elastic Constant Matrix: (Units=GPa)
#
#
# Indices 1 2 3 4 5 6 
#
# 1 68.3422 58.2100 19.1478 -16.7541 0.1139 -8.3956
# 2 58.2100 160.9525 35.4050 -20.6827 3.7234 -12.7742
# 3 19.1478 35.4050 77.7327 -8.2121 3.9894 1.5165
# 4 -16.7541 -20.6827 -8.2121 40.5557 5.0555 3.1002
# 5 0.1139 3.7234 3.9894 5.0555 41.8633 -0.7472
# 6 -8.3956 -12.7742 1.5165 3.1002 -0.7472 47.5597
#
#
#
# Elastic Compliance Matrix: (Units=1/GPa)
#
#
# Indices 1 2 3 4 5 6 
#
# 1 0.022581 -0.006932 -0.001893 0.005252 0.000134 0.001844
# 2 -0.006932 0.009583 -0.002484 0.001514 -0.000756 0.001319
# 3 -0.001893 -0.002484 0.014690 0.001214 -0.001348 -0.001570
# 4 0.005252 0.001514 0.001214 0.028353 -0.003700 -0.000611
# 5 0.000134 -0.000756 -0.001348 -0.003700 0.024538 0.000490
# 6 0.001844 0.001319 -0.001570 -0.000611 0.000490 0.021804
#
#
# Mechanical properties :
#
#
# Convention : Reuss Voigt Hill
#
# Bulk Modulus (GPa) = 41.26096 59.17253 50.21675
# Shear Modulus (GPa) = 32.84150 38.94673 35.89412
#
# Velocity S-wave (km/s) = 3.69512 4.02395 3.86304
# Velocity P-wave (km/s) = 5.94639 6.79637 6.38554
#
# Compressibility (1/GPa) = 0.02423598
#
# Stress axis : x y z
#
# Youngs Moduli (GPa) = 44.28548 104.34912 68.07122
#
# Poissons Ratio (x) = 0.72334 0.12886
# Poissons Ratio (y) = 0.30698 0.16911
# Poissons Ratio (z) = 0.08383 0.25924
#
# Static dielectric constant tensor:
#      x y z
#    x 5.131990 0.074630 -0.320290 
#    y 0.074630 4.490080 -0.040350 
#    z -0.320290 -0.040350 4.229600 
# 
# 
# High freq. dielectric constant tensor:
#      x y z
#    x 1.973170 0.006440 -0.014300 
#    y 0.006440 1.962620 -0.006370 
#    z -0.014300 -0.006370 1.952130 
# 
# From -- ./inp_files/84356.got.cif
#   From: 2010.06.25/outbox.cif.g09.slc.cpg/sg2_43_cif.got.tgz:84356.got - 2010.06.27 13:26:56.
