data_PCOD8019407
_publ_section_title
;
Structure prediction by ZEFSAII (Michael W. Deem and Ramdas Pophale) SiO2 
 PCOD8019407
Probable space group: P -1
;
_chemical_formula_sum "Si O2"
_cell_formula_units_Z 16
_cell_length_a 9.566773
_cell_length_b 8.556279
_cell_length_c 12.385392
_cell_angle_alpha 59.818298
_cell_angle_beta 121.932241
_cell_angle_gamma 113.424853
_cell_volume 731.690360
_symmetry_space_group_name_H-M "P -1"
_symmetry_group_IT_number 2
_symmetry_cell_setting 'triclinic'
loop_
_space_group_symop_operation_xyz
x,y,z
-x,-y,-z
loop_
_atom_site_type_symbol
_atom_site_label
_atom_site_fract_x
_atom_site_fract_y
_atom_site_fract_z
Si Si1 0.450106 0.416504 0.284164
Si Si2 0.397979 0.083106 0.518214
Si Si3 0.180239 0.480184 0.983006
Si Si4 0.194413 0.152357 0.782388
Si Si5 0.874359 0.207270 0.002391
Si Si6 0.748108 0.448925 0.244318
Si Si7 0.493508 0.817641 0.231276
Si Si8 0.941663 0.151190 0.497713
O O1 0.389643 0.287139 0.405078
O O2 0.594502 0.352923 0.290400
O O3 0.516994 0.607100 0.305830
O O4 0.294151 0.415868 0.143409
O O5 0.469082 0.092376 0.666470
O O6 0.500000 0.000000 0.500000
O O7 0.222443 0.953657 0.477023
O O8 0.290657 0.555339 0.897733
O O9 0.026684 0.309294 0.952313
O O10 0.113412 0.658007 0.937030
O O11 0.222687 0.334120 0.801211
O O12 0.364331 0.086156 0.829520
O O13 0.087526 0.211559 0.620584
O O14 0.094046 0.988044 0.871668
O O15 0.695715 0.167545 0.882228
O O16 0.903857 0.340344 0.362132
O O17 0.000000 0.000000 0.500000
#
# Coordination Sequence:
#
# PCOD8019407 Si02
#       8
#     2   2   2   2   2   2   2   2
#     4  10  22  43  64  95 133 168 218 264 329 386
#     4  12  24  41  66  97 129 171 218 270 317 384
#     4  10  22  41  67  95 127 171 216 270 323 388
#     4  11  23  42  65  96 132 170 218 269 329 386
#     4  10  22  42  66  95 128 170 220 265 326 391
#     4  11  24  41  64  98 130 169 215 275 327 385
#     4  10  23  41  64  97 131 176 209 266 329 388
#     4  12  24  43  66  94 130 174 219 267 323 387
#
# _framework density 21.867173000000001
#
# number of rings (size 3 to 8) (size 9 to 14) (size 15 to 20)
#    0.000    1.250    2.500    3.000    0.000    4.500 
#    4.500    0.000    0.000    0.000    0.000    0.000 
#    0.000    0.000    0.000    0.000    0.000    0.000 
#
# Total GULP energy -198259.061455 kJ/mol
# GULP energy per Si atom -12391.191341 kJ/mol
# Density = 2.181740 g / cm^3
# Si number density = 21.867173 Si / 1000 Ang^3
#
#
#
# Elastic Constant Matrix: (Units=GPa)
#
#
# Indices 1 2 3 4 5 6 
#
# 1 86.7465 27.8329 14.2103 1.6198 2.4710 -5.6268
# 2 27.8329 67.6831 23.2599 -5.9871 -1.9646 2.2164
# 3 14.2103 23.2599 72.4427 -3.9476 0.0186 -2.4404
# 4 1.6198 -5.9871 -3.9476 40.4625 3.2915 0.5927
# 5 2.4710 -1.9646 0.0186 3.2915 35.9359 1.5924
# 6 -5.6268 2.2164 -2.4404 0.5927 1.5924 40.8144
#
#
#
# Elastic Compliance Matrix: (Units=1/GPa)
#
#
# Indices 1 2 3 4 5 6 
#
# 1 0.013654 -0.005535 -0.000903 -0.001387 -0.001211 0.002196
# 2 -0.005535 0.019092 -0.004983 0.002487 0.001296 -0.002184
# 3 -0.000903 -0.004983 0.015663 0.000839 -0.000343 0.001084
# 4 -0.001387 0.002487 0.000839 0.025396 -0.002070 -0.000564
# 5 -0.001211 0.001296 -0.000343 -0.002070 0.028230 -0.001329
# 6 0.002196 -0.002184 0.001084 -0.000564 -0.001329 0.025047
#
#
# Mechanical properties :
#
#
# Convention : Reuss Voigt Hill
#
# Bulk Modulus (GPa) = 39.10886 39.71983 39.41434
# Shear Modulus (GPa) = 31.55624 34.21385 32.88505
#
# Velocity S-wave (km/s) = 3.80292 3.95982 3.88216
# Velocity P-wave (km/s) = 6.09971 6.25384 6.17726
#
# Compressibility (1/GPa) = 0.02556965
#
# Stress axis : x y z
#
# Youngs Moduli (GPa) = 73.23655 52.37733 63.84350
#
# Poissons Ratio (x) = 0.28989 0.05763
# Poissons Ratio (y) = 0.40533 0.31812
# Poissons Ratio (z) = 0.06611 0.26099
#
# Static dielectric constant tensor:
#      x y z
#    x 4.004620 0.260280 -0.000460 
#    y 0.260280 3.935880 -0.363930 
#    z -0.000460 -0.363930 3.732290 
# 
# 
# High freq. dielectric constant tensor:
#      x y z
#    x 1.863230 0.002110 -0.002190 
#    y 0.002110 1.869520 -0.006660 
#    z -0.002190 -0.006660 1.854130 
# 
# From -- ./inp_files/381476.got.cif
#   From: 2010.06.25/outbox.cif.g09.slc.cpg/sg2_191_cif.got.tgz:381476.got - 2010.06.27 13:26:56.
