data_PCOD8019827
_publ_section_title
;
Structure prediction by ZEFSAII (Michael W. Deem and Ramdas Pophale) SiO2 
 PCOD8019827
Probable space group: P -1
;
_chemical_formula_sum "Si O2"
_cell_formula_units_Z 16
_cell_length_a 9.293250
_cell_length_b 19.870103
_cell_length_c 8.702972
_cell_angle_alpha 130.916966
_cell_angle_beta 66.773992
_cell_angle_gamma 143.654426
_cell_volume 687.154614
_symmetry_space_group_name_H-M "P -1"
_symmetry_group_IT_number 2
_symmetry_cell_setting 'triclinic'
loop_
_space_group_symop_operation_xyz
x,y,z
-x,-y,-z
loop_
_atom_site_type_symbol
_atom_site_label
_atom_site_fract_x
_atom_site_fract_y
_atom_site_fract_z
Si Si1 0.114196 0.721331 0.355468
Si Si2 0.303969 0.368575 0.766237
Si Si3 0.229951 0.490855 0.359916
Si Si4 0.509868 0.841107 0.151538
Si Si5 0.929357 0.469862 0.231979
Si Si6 0.954577 0.929915 0.571321
Si Si7 0.392623 0.090279 0.142479
Si Si8 0.143629 0.800366 0.778227
O O1 0.371786 0.849546 0.337698
O O2 0.111493 0.795612 0.600532
O O3 0.867673 0.627327 0.214217
O O4 0.089916 0.613685 0.284138
O O5 0.473670 0.399236 0.609338
O O6 0.118217 0.203588 0.647118
O O7 0.500000 0.500000 0.000000
O O8 0.206433 0.553602 0.594626
O O9 0.117061 0.475405 0.221071
O O10 0.105359 0.341462 0.238664
O O11 0.299611 0.667455 0.985084
O O12 0.542631 0.884013 0.026279
O O13 0.786832 0.943822 0.252356
O O14 0.733316 0.876514 0.688887
O O15 0.000000 0.000000 0.500000
O O16 0.654839 0.190159 0.269744
O O17 0.212691 0.925682 0.009485
#
# Coordination Sequence:
#
# PCOD8019827 Si02
#       8
#     2   2   2   2   2   2   2   2
#     4  11  26  44  70 106 144 192 241 295 353 423
#     4  12  29  46  70 104 148 186 241 298 357 422
#     4  10  22  43  72 103 145 182 242 292 358 418
#     4  12  24  44  72 101 145 189 242 289 359 427
#     4  10  22  41  75 104 138 193 239 295 355 427
#     4  12  30  46  72 105 146 187 239 303 359 425
#     4  11  24  44  72 104 144 184 238 287 368 423
#     4  10  23  43  73 104 140 191 232 294 351 433
#
# _framework density 23.284426
#
# number of rings (size 3 to 8) (size 9 to 14) (size 15 to 20)
#    0.000    1.000    1.250    3.750    8.750    6.000 
#    0.000    0.000    0.000    0.000    0.000    0.000 
#    0.000    0.000    0.000    0.000    0.000    0.000 
#
# Total GULP energy -198318.980601 kJ/mol
# GULP energy per Si atom -12394.936288 kJ/mol
# Density = 2.323143 g / cm^3
# Si number density = 23.284426 Si / 1000 Ang^3
#
#
#
# Elastic Constant Matrix: (Units=GPa)
#
#
# Indices 1 2 3 4 5 6 
#
# 1 76.2008 28.1637 18.0533 -16.3741 10.4848 5.3614
# 2 28.1637 98.3338 17.9626 -17.5619 1.6179 -1.8207
# 3 18.0533 17.9626 84.2681 2.7811 13.8209 -13.4954
# 4 -16.3741 -17.5619 2.7811 34.2064 0.3195 3.3633
# 5 10.4848 1.6179 13.8209 0.3195 32.0687 2.3154
# 6 5.3614 -1.8207 -13.4954 3.3633 2.3154 33.7055
#
#
#
# Elastic Compliance Matrix: (Units=1/GPa)
#
#
# Indices 1 2 3 4 5 6 
#
# 1 0.017602 -0.003056 -0.003530 0.007659 -0.003803 -0.004881
# 2 -0.003056 0.012376 -0.002454 0.005120 0.001413 -0.000436
# 3 -0.003530 -0.002454 0.015477 -0.004892 -0.005886 0.007519
# 4 0.007659 0.005120 -0.004892 0.036573 -0.000548 -0.006512
# 5 -0.003803 0.001413 -0.005886 -0.000548 0.035189 -0.004038
# 6 -0.004881 -0.000436 0.007519 -0.006512 -0.004038 0.034359
#
#
# Mechanical properties :
#
#
# Convention : Reuss Voigt Hill
#
# Bulk Modulus (GPa) = 36.53057 43.01799 39.77428
# Shear Modulus (GPa) = 27.96706 32.97097 30.46902
#
# Velocity S-wave (km/s) = 3.46946 3.76707 3.62132
# Velocity P-wave (km/s) = 5.63670 6.11852 5.88254
#
# Compressibility (1/GPa) = 0.02737434
#
# Stress axis : x y z
#
# Youngs Moduli (GPa) = 56.81264 80.80042 64.61101
#
# Poissons Ratio (x) = 0.24696 0.22809
# Poissons Ratio (y) = 0.17364 0.15854
# Poissons Ratio (z) = 0.20056 0.19827
#
# Static dielectric constant tensor:
#      x y z
#    x 4.621500 -0.014020 0.476050 
#    y -0.014020 4.307030 -0.070020 
#    z 0.476050 -0.070020 4.769330 
# 
# 
# High freq. dielectric constant tensor:
#      x y z
#    x 1.906570 0.001560 0.002890 
#    y 0.001560 1.933240 0.002930 
#    z 0.002890 0.002930 1.936320 
# 
# From -- ./inp_files/218274.got.cif
#   From: 2010.06.25/outbox.cif.g09.slc.cpg/sg2_110_cif.got.tgz:218274.got - 2010.06.27 13:26:56.
