data_PCOD8019287
_publ_section_title
;
Structure prediction by ZEFSAII (Michael W. Deem and Ramdas Pophale) SiO2 
 PCOD8019287
Probable space group: P -1
;
_chemical_formula_sum "Si O2"
_cell_formula_units_Z 12
_cell_length_a 6.898332
_cell_length_b 30.689081
_cell_length_c 5.169168
_cell_angle_alpha 53.334443
_cell_angle_beta 73.476276
_cell_angle_gamma 43.821898
_cell_volume 586.304043
_symmetry_space_group_name_H-M "P -1"
_symmetry_group_IT_number 2
_symmetry_cell_setting 'triclinic'
loop_
_space_group_symop_operation_xyz
x,y,z
-x,-y,-z
loop_
_atom_site_type_symbol
_atom_site_label
_atom_site_fract_x
_atom_site_fract_y
_atom_site_fract_z
Si Si1 0.796352 0.951685 0.216189
Si Si2 0.127200 0.446722 0.891174
Si Si3 0.349959 0.912359 0.015771
Si Si4 0.786165 0.338418 0.964053
Si Si5 0.729656 0.843122 0.636027
Si Si6 0.206671 0.591404 0.793186
O O1 0.867705 0.875960 0.537070
O O2 0.071741 0.925677 0.053285
O O3 0.500000 0.000000 0.000000
O O4 0.741228 0.005943 0.278616
O O5 0.466644 0.378676 0.978940
O O6 0.000000 0.500000 0.500000
O O7 0.000000 0.500000 0.000000
O O8 0.060071 0.397179 0.128374
O O9 0.506075 0.881481 0.346067
O O10 0.564067 0.853354 0.916196
O O11 0.817745 0.366785 0.593886
O O12 0.845454 0.364045 0.092849
O O13 0.999009 0.246807 0.206267
O O14 0.500000 0.500000 0.000000
#
# Coordination Sequence:
#
# PCOD8019287 Si02
#       6
#     2   2   2   2   2   2
#     4   9  21  41  68  95 126 168 212 255 301 368
#     4  12  23  40  66  91 115 158 211 259 312 372
#     4  10  22  41  66  94 125 170 214 248 305 373
#     4  12  25  41  61  96 126 165 207 264 319 371
#     4  11  24  40  61  92 135 164 206 258 317 367
#     4  12  23  42  67  86 123 160 212 262 315 371
#
# _framework density 20.467196000000001
#
# number of rings (size 3 to 8) (size 9 to 14) (size 15 to 20)
#    0.000    1.000    3.333    3.000    0.000   11.333 
#    0.000    0.000    0.000    0.000    0.000    0.000 
#    0.000    0.000    0.000    0.000    0.000    0.000 
#
# Total GULP energy -148689.072690 kJ/mol
# GULP energy per Si atom -12390.756058 kJ/mol
# Density = 2.042061 g / cm^3
# Si number density = 20.467196 Si / 1000 Ang^3
#
#
#
# Elastic Constant Matrix: (Units=GPa)
#
#
# Indices 1 2 3 4 5 6 
#
# 1 168.0381 79.9442 58.6488 4.8495 -17.2125 -23.5969
# 2 79.9442 173.9707 61.7685 0.3601 -3.9650 -1.6333
# 3 58.6488 61.7685 102.5019 5.4165 -7.8195 1.2579
# 4 4.8495 0.3601 5.4165 46.5314 6.7503 -0.0027
# 5 -17.2125 -3.9650 -7.8195 6.7503 31.4036 7.2056
# 6 -23.5969 -1.6333 1.2579 -0.0027 7.2056 37.6707
#
#
#
# Elastic Compliance Matrix: (Units=1/GPa)
#
#
# Indices 1 2 3 4 5 6 
#
# 1 0.009774 -0.003130 -0.003487 -0.001031 0.003049 0.005520
# 2 -0.003130 0.008338 -0.003372 0.000858 -0.001408 -0.001217
# 3 -0.003487 -0.003372 0.014077 -0.001575 0.002248 -0.003231
# 4 -0.001031 0.000858 -0.001575 0.022622 -0.005841 0.000563
# 5 0.003049 -0.001408 0.002248 -0.005841 0.036340 -0.005178
# 6 0.005520 -0.001217 -0.003231 0.000563 -0.005178 0.031049
#
#
# Mechanical properties :
#
#
# Convention : Reuss Voigt Hill
#
# Bulk Modulus (GPa) = 81.88376 93.91485 87.89930
# Shear Modulus (GPa) = 34.18800 39.39775 36.79287
#
# Velocity S-wave (km/s) = 4.09146 4.39215 4.24447
# Velocity P-wave (km/s) = 7.90027 8.46797 8.18904
#
# Compressibility (1/GPa) = 0.01221243
#
# Stress axis : x y z
#
# Youngs Moduli (GPa) = 102.30727 119.92964 71.03635
#
# Poissons Ratio (x) = 0.37539 0.24772
# Poissons Ratio (y) = 0.32023 0.23950
# Poissons Ratio (z) = 0.35677 0.40435
#
# Static dielectric constant tensor:
#      x y z
#    x 4.216300 0.010400 -0.231510 
#    y 0.010400 3.880970 -0.025390 
#    z -0.231510 -0.025390 3.811290 
# 
# 
# High freq. dielectric constant tensor:
#      x y z
#    x 1.820020 -0.001540 -0.008300 
#    y -0.001540 1.815720 0.005080 
#    z -0.008300 0.005080 1.791360 
# 
# From -- ./inp_files/6478.got.cif
#   From: 2010.06.25/outbox.cif.g09.slc.cpg/sg2_4_cif.got.tgz:6478.got - 2010.06.27 13:26:56.
