data_PCOD8019123
_publ_section_title
;
Structure prediction by ZEFSAII (Michael W. Deem and Ramdas Pophale) SiO2 
 PCOD8019123
Probable space group: P -1
;
_chemical_formula_sum "Si O2"
_cell_formula_units_Z 16
_cell_length_a 10.888047
_cell_length_b 8.900754
_cell_length_c 13.686261
_cell_angle_alpha 94.388159
_cell_angle_beta 146.353095
_cell_angle_gamma 98.721252
_cell_volume 674.798667
_symmetry_space_group_name_H-M "P -1"
_symmetry_group_IT_number 2
_symmetry_cell_setting 'triclinic'
loop_
_space_group_symop_operation_xyz
x,y,z
-x,-y,-z
loop_
_atom_site_type_symbol
_atom_site_label
_atom_site_fract_x
_atom_site_fract_y
_atom_site_fract_z
Si Si1 0.312680 0.164431 0.127884
Si Si2 0.304068 0.227300 0.686912
Si Si3 0.950428 0.120167 0.188896
Si Si4 0.967821 0.299506 0.798531
Si Si5 0.452216 0.158722 0.445783
Si Si6 0.718299 0.445056 0.302405
Si Si7 0.950844 0.071053 0.607617
Si Si8 0.250967 0.626109 0.897917
O O1 0.370839 0.166384 0.280177
O O2 0.561844 0.276629 0.244989
O O3 0.095886 0.227155 0.961382
O O4 0.215316 0.974507 0.017737
O O5 0.351908 0.410980 0.691588
O O6 0.059333 0.167601 0.585580
O O7 0.278918 0.096690 0.578646
O O8 0.520016 0.230743 0.897733
O O9 0.940236 0.289192 0.228244
O O10 0.234593 0.167897 0.364209
O O11 0.863374 0.988666 0.213768
O O12 0.159738 0.474556 0.903940
O O13 0.708562 0.305482 0.655779
O O14 0.877295 0.185917 0.636140
O O15 0.500000 0.000000 0.500000
O O16 0.665591 0.424757 0.150907
O O17 0.000000 0.500000 0.500000
#
# Coordination Sequence:
#
# PCOD8019123 Si02
#       8
#     2   2   2   2   2   2   2   2
#     4  11  25  44  73 106 133 187 244 277 357 425
#     4  11  23  39  69 101 143 183 226 281 352 421
#     4  11  26  43  68 104 139 183 241 291 340 417
#     4  11  23  46  73 101 141 188 231 290 350 419
#     4  12  25  46  76  98 137 186 239 299 349 409
#     4  12  24  41  70 103 146 184 228 285 352 425
#     4  10  22  41  65 102 136 180 237 273 343 423
#     4  12  24  43  68 105 146 183 223 293 353 411
#
# _framework density 23.710777
#
# number of rings (size 3 to 8) (size 9 to 14) (size 15 to 20)
#    0.000    0.750    5.000    3.750    1.750    3.500 
#    0.000    0.625    0.000    0.000    0.000    0.000 
#    0.000    0.000    0.000    0.000    0.000    0.000 
#
# Total GULP energy -198232.624348 kJ/mol
# GULP energy per Si atom -12389.539022 kJ/mol
# Density = 2.365681 g / cm^3
# Si number density = 23.710777 Si / 1000 Ang^3
#
#
#
# Elastic Constant Matrix: (Units=GPa)
#
#
# Indices 1 2 3 4 5 6 
#
# 1 53.8620 26.7020 30.8660 2.1316 8.3986 12.2588
# 2 26.7020 90.0222 12.8057 6.0697 -0.9859 -1.5801
# 3 30.8660 12.8057 129.2589 10.6603 2.1689 1.1195
# 4 2.1316 6.0697 10.6603 33.4730 8.3752 -1.6011
# 5 8.3986 -0.9859 2.1689 8.3752 32.6805 -3.6041
# 6 12.2588 -1.5801 1.1195 -1.6011 -3.6041 36.2567
#
#
#
# Elastic Compliance Matrix: (Units=1/GPa)
#
#
# Indices 1 2 3 4 5 6 
#
# 1 0.030558 -0.008694 -0.006470 0.003617 -0.009862 -0.011332
# 2 -0.008694 0.013876 0.000853 -0.003000 0.003780 0.003761
# 3 -0.006470 0.000853 0.009406 -0.003167 0.002097 0.002003
# 4 0.003617 -0.003000 -0.003167 0.033536 -0.009483 -0.000718
# 5 -0.009862 0.003780 0.002097 -0.009483 0.036269 0.006621
# 6 -0.011332 0.003761 0.002003 -0.000718 0.006621 0.032141
#
#
# Mechanical properties :
#
#
# Convention : Reuss Voigt Hill
#
# Bulk Modulus (GPa) = 39.65799 45.98784 42.82292
# Shear Modulus (GPa) = 25.93184 34.00000 29.96592
#
# Velocity S-wave (km/s) = 3.31066 3.79086 3.55887
# Velocity P-wave (km/s) = 5.60143 6.21275 5.91499
#
# Compressibility (1/GPa) = 0.02521560
#
# Stress axis : x y z
#
# Youngs Moduli (GPa) = 32.72498 72.06903 106.31945
#
# Poissons Ratio (x) = 0.62659 0.68791
# Poissons Ratio (y) = 0.28452 -0.09068
# Poissons Ratio (z) = 0.21174 -0.06147
#
# Static dielectric constant tensor:
#      x y z
#    x 4.691200 -0.001310 0.024880 
#    y -0.001310 4.309880 0.100410 
#    z 0.024880 0.100410 4.686720 
# 
# 
# High freq. dielectric constant tensor:
#      x y z
#    x 1.916690 0.013040 0.002280 
#    y 0.013040 1.936460 0.001750 
#    z 0.002280 0.001750 1.958290 
# 
# From -- ./inp_files/515713.got.cif
#   From: 2010.06.25/outbox.cif.g09.slc.cpg/sg2_258_cif.got.tgz:515713.got - 2010.06.27 13:26:56.
