data_PCOD8019520
_publ_section_title
;
Structure prediction by ZEFSAII (Michael W. Deem and Ramdas Pophale) SiO2 
 PCOD8019520
Probable space group: P -1
;
_chemical_formula_sum "Si O2"
_cell_formula_units_Z 14
_cell_length_a 14.860800
_cell_length_b 9.680733
_cell_length_c 12.554119
_cell_angle_alpha 53.341856
_cell_angle_beta 48.510771
_cell_angle_gamma 26.542262
_cell_volume 604.501194
_symmetry_space_group_name_H-M "P -1"
_symmetry_group_IT_number 2
_symmetry_cell_setting 'triclinic'
loop_
_space_group_symop_operation_xyz
x,y,z
-x,-y,-z
loop_
_atom_site_type_symbol
_atom_site_label
_atom_site_fract_x
_atom_site_fract_y
_atom_site_fract_z
Si Si1 0.721950 0.694760 0.327167
Si Si2 0.893216 0.855096 0.431166
Si Si3 0.652107 0.270244 0.890336
Si Si4 0.379304 0.308153 0.990622
Si Si5 0.066053 0.461716 0.293368
Si Si6 0.846129 0.300515 0.221739
Si Si7 0.632683 0.642580 0.639870
O O1 0.741840 0.557409 0.268844
O O2 0.620872 0.698439 0.498327
O O3 0.957024 0.491012 0.266516
O O4 0.557440 0.049839 0.279507
O O5 0.795894 0.847310 0.604769
O O6 0.872796 0.780489 0.368115
O O7 0.148408 0.549644 0.392448
O O8 0.799526 0.160102 0.363675
O O9 0.571688 0.188248 0.944274
O O10 0.623853 0.447521 0.740244
O O11 0.500000 0.500000 0.000000
O O12 0.901387 0.960721 0.871909
O O13 0.261834 0.549930 0.877034
O O14 0.209270 0.450921 0.147215
O O15 0.500000 0.000000 0.000000
#
# Coordination Sequence:
#
# PCOD8019520 Si02
#       7
#     2   2   2   2   2   2   2
#     4  10  22  41  71  94 131 175 224 280 336 395
#     4   9  21  43  69  96 127 175 225 281 331 391
#     4  11  26  45  70  97 138 181 225 273 333 411
#     4  12  28  43  65 105 141 175 220 281 341 398
#     4  10  22  41  68  93 134 173 224 273 335 399
#     4  11  26  45  70 100 136 180 225 280 338 396
#     4   9  21  42  68  97 128 173 229 275 334 398
#
# _framework density 23.159592
#
# number of rings (size 3 to 8) (size 9 to 14) (size 15 to 20)
#    0.000    1.714    0.000    2.571    8.000    8.571 
#    0.000    1.429    0.000    0.000    0.000    0.000 
#    0.000    0.000    0.000    0.000    0.000    0.000 
#
# Total GULP energy -173575.420669 kJ/mol
# GULP energy per Si atom -12398.244334 kJ/mol
# Density = 2.310688 g / cm^3
# Si number density = 23.159592 Si / 1000 Ang^3
#
#
#
# Elastic Constant Matrix: (Units=GPa)
#
#
# Indices 1 2 3 4 5 6 
#
# 1 79.3713 10.7940 20.2093 -11.6765 -3.3938 18.4165
# 2 10.7940 88.0346 14.8778 -6.7579 2.3142 5.6138
# 3 20.2093 14.8778 77.4902 -8.7795 -4.3226 -1.4860
# 4 -11.6765 -6.7579 -8.7795 37.1471 7.0245 1.5499
# 5 -3.3938 2.3142 -4.3226 7.0245 34.6752 -4.3200
# 6 18.4165 5.6138 -1.4860 1.5499 -4.3200 33.9811
#
#
#
# Elastic Compliance Matrix: (Units=1/GPa)
#
#
# Indices 1 2 3 4 5 6 
#
# 1 0.016485 -0.000368 -0.003924 0.004766 -0.000986 -0.009388
# 2 -0.000368 0.012109 -0.002144 0.002013 -0.001795 -0.002215
# 3 -0.003924 -0.002144 0.014655 0.001379 0.001715 0.003277
# 4 0.004766 0.002013 0.001379 0.030513 -0.006306 -0.005048
# 5 -0.000986 -0.001795 0.001715 -0.006306 0.030993 0.005134
# 6 -0.009388 -0.002215 0.003277 -0.005048 0.005134 0.035908
#
#
# Mechanical properties :
#
#
# Convention : Reuss Voigt Hill
#
# Bulk Modulus (GPa) = 32.91760 37.40649 35.16205
# Shear Modulus (GPa) = 30.55100 34.42834 32.48967
#
# Velocity S-wave (km/s) = 3.63595 3.85979 3.74954
# Velocity P-wave (km/s) = 5.64545 6.00422 5.82760
#
# Compressibility (1/GPa) = 0.03037889
#
# Stress axis : x y z
#
# Youngs Moduli (GPa) = 60.65995 82.58002 68.23840
#
# Poissons Ratio (x) = 0.03037 0.26776
# Poissons Ratio (y) = 0.02231 0.14628
# Poissons Ratio (z) = 0.23802 0.17702
#
# Static dielectric constant tensor:
#      x y z
#    x 3.789430 0.075970 -0.269800 
#    y 0.075970 4.120710 -0.221220 
#    z -0.269800 -0.221220 3.880030 
# 
# 
# High freq. dielectric constant tensor:
#      x y z
#    x 1.921770 0.005790 -0.008200 
#    y 0.005790 1.909080 -0.012650 
#    z -0.008200 -0.012650 1.919060 
# 
# From -- ./inp_files/446920.got.cif
#   From: 2010.06.25/outbox.cif.g09.slc.cpg/sg2_224_cif.got.tgz:446920.got - 2010.06.27 13:26:56.
