data_PCOD8019678
_publ_section_title
;
Structure prediction by ZEFSAII (Michael W. Deem and Ramdas Pophale) SiO2 
 PCOD8019678
Probable space group: P -1
;
_chemical_formula_sum "Si O2"
_cell_formula_units_Z 14
_cell_length_a 11.901039
_cell_length_b 9.418461
_cell_length_c 9.097856
_cell_angle_alpha 127.553648
_cell_angle_beta 83.905210
_cell_angle_gamma 64.950147
_cell_volume 631.238171
_symmetry_space_group_name_H-M "P -1"
_symmetry_group_IT_number 2
_symmetry_cell_setting 'triclinic'
loop_
_space_group_symop_operation_xyz
x,y,z
-x,-y,-z
loop_
_atom_site_type_symbol
_atom_site_label
_atom_site_fract_x
_atom_site_fract_y
_atom_site_fract_z
Si Si1 0.334054 0.548313 0.947248
Si Si2 0.105219 0.359210 0.200715
Si Si3 0.649478 0.134956 0.664104
Si Si4 0.802835 0.019469 0.278284
Si Si5 0.933649 0.378495 0.879084
Si Si6 0.215741 0.328242 0.477621
Si Si7 0.646894 0.435294 0.375161
O O1 0.478400 0.302878 0.820556
O O2 0.346016 0.627894 0.836181
O O3 0.288699 0.745484 0.194111
O O4 0.210544 0.519432 0.945694
O O5 0.097147 0.565910 0.256158
O O6 0.199352 0.273706 0.279871
O O7 0.941720 0.449947 0.306982
O O8 0.190865 0.147556 0.944381
O O9 0.674204 0.113759 0.471777
O O10 0.724780 0.888249 0.566011
O O11 0.778160 0.222940 0.316367
O O12 0.950043 0.891165 0.272424
O O13 0.000000 0.500000 0.000000
O O14 0.334403 0.369200 0.491223
O O15 0.500000 0.500000 0.500000
#
# Coordination Sequence:
#
# PCOD8019678 Si02
#       7
#     2   2   2   2   2   2   2
#     4  11  26  45  71  98 144 178 227 284 338 411
#     4  10  23  43  69 104 138 172 230 282 338 401
#     4  11  25  46  71 102 134 185 229 275 350 402
#     4  11  23  44  71  99 139 177 229 277 340 405
#     4  10  22  41  70 101 133 177 228 275 335 399
#     4  11  25  44  71 101 139 179 226 282 342 404
#     4  12  26  44  67 102 138 178 227 279 339 405
#
# _framework density 22.178633000000001
#
# number of rings (size 3 to 8) (size 9 to 14) (size 15 to 20)
#    0.000    1.143    2.857    2.571    4.000    8.000 
#    0.000    2.143    0.000    0.000    0.000    0.000 
#    0.000    0.000    0.000    0.000    0.000    0.000 
#
# Total GULP energy -173590.483460 kJ/mol
# GULP energy per Si atom -12399.320247 kJ/mol
# Density = 2.212815 g / cm^3
# Si number density = 22.178633 Si / 1000 Ang^3
#
#
#
# Elastic Constant Matrix: (Units=GPa)
#
#
# Indices 1 2 3 4 5 6 
#
# 1 111.1733 22.3113 46.6437 -3.6216 -11.6965 11.3502
# 2 22.3113 136.1094 30.9931 -9.6198 7.5910 -3.3645
# 3 46.6437 30.9931 126.2346 -13.7962 5.8624 10.4079
# 4 -3.6216 -9.6198 -13.7962 40.8157 0.2691 -2.3755
# 5 -11.6965 7.5910 5.8624 0.2691 32.3731 -6.2765
# 6 11.3502 -3.3645 10.4079 -2.3755 -6.2765 23.6178
#
#
#
# Elastic Compliance Matrix: (Units=1/GPa)
#
#
# Indices 1 2 3 4 5 6 
#
# 1 0.011752 -0.001395 -0.004079 -0.000863 0.004763 -0.002870
# 2 -0.001395 0.008153 -0.001422 0.001453 -0.001756 0.002138
# 3 -0.004079 -0.001422 0.010545 0.002681 -0.003774 -0.003623
# 4 -0.000863 0.001453 0.002681 0.025782 -0.001010 0.001765
# 5 0.004763 -0.001756 -0.003774 -0.001010 0.035346 0.008416
# 6 -0.002870 0.002138 -0.003623 0.001765 0.008416 0.048036
#
#
# Mechanical properties :
#
#
# Convention : Reuss Voigt Hill
#
# Bulk Modulus (GPa) = 60.03095 63.71261 61.87178
# Shear Modulus (GPa) = 31.45471 37.59928 34.52699
#
# Velocity S-wave (km/s) = 3.77004 4.12186 3.94987
# Velocity P-wave (km/s) = 6.78799 7.17233 6.98280
#
# Compressibility (1/GPa) = 0.01665807
#
# Stress axis : x y z
#
# Youngs Moduli (GPa) = 85.09005 122.65337 94.83134
#
# Poissons Ratio (x) = 0.17113 0.38679
# Poissons Ratio (y) = 0.11872 0.13486
# Poissons Ratio (z) = 0.34706 0.17443
#
# Static dielectric constant tensor:
#      x y z
#    x 3.744600 -0.214030 -0.060730 
#    y -0.214030 4.783450 -0.186300 
#    z -0.060730 -0.186300 3.986360 
# 
# 
# High freq. dielectric constant tensor:
#      x y z
#    x 1.855050 -0.013250 -0.006470 
#    y -0.013250 1.896000 -0.012750 
#    z -0.006470 -0.012750 1.873730 
# 
# From -- ./inp_files/189570.got.cif
#   From: 2010.06.25/outbox.cif.g09.slc.cpg/sg2_95_cif.got.tgz:189570.got - 2010.06.27 13:26:56.
