data_PCOD8019414
_publ_section_title
;
Structure prediction by ZEFSAII (Michael W. Deem and Ramdas Pophale) SiO2 
 PCOD8019414
Probable space group: P -1
;
_chemical_formula_sum "Si O2"
_cell_formula_units_Z 16
_cell_length_a 17.614512
_cell_length_b 16.377667
_cell_length_c 5.148294
_cell_angle_alpha 85.988926
_cell_angle_beta 94.080152
_cell_angle_gamma 155.779172
_cell_volume 607.720790
_symmetry_space_group_name_H-M "P -1"
_symmetry_group_IT_number 2
_symmetry_cell_setting 'triclinic'
loop_
_space_group_symop_operation_xyz
x,y,z
-x,-y,-z
loop_
_atom_site_type_symbol
_atom_site_label
_atom_site_fract_x
_atom_site_fract_y
_atom_site_fract_z
Si Si1 0.308545 0.714068 0.511853
Si Si2 0.865560 0.584287 0.788084
Si Si3 0.155189 0.305601 0.638839
Si Si4 0.874987 0.955738 0.968304
Si Si5 0.442055 0.693416 0.869990
Si Si6 0.707700 0.732099 0.475210
Si Si7 0.193352 0.869007 0.143075
Si Si8 0.704738 0.128156 0.331717
O O1 0.221232 0.707280 0.636381
O O2 0.147143 0.515492 0.340534
O O3 0.482149 0.911587 0.334866
O O4 0.382971 0.723073 0.737110
O O5 0.944416 0.731263 0.581625
O O6 0.655905 0.407021 0.849904
O O7 0.986435 0.694442 0.056488
O O8 0.164743 0.224672 0.530842
O O9 0.361171 0.539248 0.712766
O O10 0.020256 0.172288 0.892460
O O11 0.740614 0.815924 0.721693
O O12 0.748338 0.835151 0.223484
O O13 0.000000 0.000000 0.000000
O O14 0.666189 0.914131 0.897717
O O15 0.500000 0.500000 0.500000
O O16 0.202204 0.842469 0.442145
O O17 0.246355 0.851679 0.950463
#
# Coordination Sequence:
#
# PCOD8019414 Si02
#       8
#     2   2   2   2   2   2   2   2
#     4   9  21  40  66  93 131 179 223 284 345 394
#     4  11  24  42  66  93 137 180 225 274 340 404
#     4  10  24  44  68  96 135 187 218 274 342 407
#     4  10  22  44  72  97 134 174 219 265 333 400
#     4  10  23  44  64  93 138 177 228 271 340 408
#     4  11  24  46  73 107 138 167 225 284 328 396
#     4  11  25  43  65  95 134 172 232 284 328 404
#     4  10  22  41  67  95 129 176 228 286 343 390
#
# _framework density 26.327883
#
# number of rings (size 3 to 8) (size 9 to 14) (size 15 to 20)
#    0.000    1.750    1.250    1.875   10.500    2.500 
#    4.500    0.000    0.000    0.000    0.000    0.000 
#    0.000    0.000    0.000    0.000    0.000    0.000 
#
# Total GULP energy -198358.270064 kJ/mol
# GULP energy per Si atom -12397.391879 kJ/mol
# Density = 2.626796 g / cm^3
# Si number density = 26.327883 Si / 1000 Ang^3
#
#
#
# Elastic Constant Matrix: (Units=GPa)
#
#
# Indices 1 2 3 4 5 6 
#
# 1 30.9981 9.4114 -10.7990 3.9941 -1.6072 -20.2683
# 2 9.4114 119.9507 20.2264 6.1585 17.1327 0.7945
# 3 -10.7990 20.2264 89.5907 6.5291 9.6045 -2.8529
# 4 3.9941 6.1585 6.5291 46.5558 -4.1099 -3.3565
# 5 -1.6072 17.1327 9.6045 -4.1099 27.1470 -1.4612
# 6 -20.2683 0.7945 -2.8529 -3.3565 -1.4612 42.3533
#
#
#
# Elastic Compliance Matrix: (Units=1/GPa)
#
#
# Indices 1 2 3 4 5 6 
#
# 1 0.055908 -0.006691 0.008727 -0.002669 0.005518 0.027447
# 2 -0.006691 0.010287 -0.002471 -0.001287 -0.006418 -0.003885
# 3 0.008727 -0.002471 0.013378 -0.002189 -0.002727 0.004856
# 4 -0.002669 -0.001287 -0.002189 0.022658 0.004889 0.000564
# 5 0.005518 -0.006418 -0.002727 0.004889 0.043158 0.004454
# 6 0.027447 -0.003885 0.004856 0.000564 0.004454 0.037344
#
#
# Mechanical properties :
#
#
# Convention : Reuss Voigt Hill
#
# Bulk Modulus (GPa) = 12.70609 30.91301 21.80955
# Shear Modulus (GPa) = 23.82786 37.99127 30.90957
#
# Velocity S-wave (km/s) = 3.01166 3.80281 3.43012
# Velocity P-wave (km/s) = 4.11461 5.57215 4.89790
#
# Compressibility (1/GPa) = 0.07870244
#
# Stress axis : x y z
#
# Youngs Moduli (GPa) = 17.88649 97.21127 74.74919
#
# Poissons Ratio (x) = 0.65045 -0.65230
# Poissons Ratio (y) = 0.11968 0.18469
# Poissons Ratio (z) = -0.15609 0.24019
#
# Static dielectric constant tensor:
#      x y z
#    x 4.470170 -0.209190 -0.135570 
#    y -0.209190 5.268640 -0.150900 
#    z -0.135570 -0.150900 5.039910 
# 
# 
# High freq. dielectric constant tensor:
#      x y z
#    x 2.038890 -0.015440 -0.008810 
#    y -0.015440 2.070480 -0.003940 
#    z -0.008810 -0.003940 2.054830 
# 
# From -- ./inp_files/120055.got.cif
#   From: 2010.06.25/outbox.cif.g09.slc.cpg/sg2_61_cif.got.tgz:120055.got - 2010.06.27 13:26:56.
