data_PCOD8019898
_publ_section_title
;
Structure prediction by ZEFSAII (Michael W. Deem and Ramdas Pophale) SiO2 
 PCOD8019898
Probable space group: P -1
;
_chemical_formula_sum "Si O2"
_cell_formula_units_Z 16
_cell_length_a 27.721711
_cell_length_b 14.958198
_cell_length_c 18.122288
_cell_angle_alpha 20.290750
_cell_angle_beta 19.209436
_cell_angle_gamma 19.421589
_cell_volume 741.136023
_symmetry_space_group_name_H-M "P -1"
_symmetry_group_IT_number 2
_symmetry_cell_setting 'triclinic'
loop_
_space_group_symop_operation_xyz
x,y,z
-x,-y,-z
loop_
_atom_site_type_symbol
_atom_site_label
_atom_site_fract_x
_atom_site_fract_y
_atom_site_fract_z
Si Si1 0.574533 0.615570 0.596306
Si Si2 0.141839 0.788194 0.400564
Si Si3 0.384214 0.420159 0.777094
Si Si4 0.623729 0.137787 0.096078
Si Si5 0.030539 0.804858 0.035666
Si Si6 0.637519 0.143471 0.751397
Si Si7 0.227182 0.856472 0.978217
Si Si8 0.011813 0.251437 0.498108
O O1 0.719915 0.519618 0.522562
O O2 0.649092 0.353777 0.632414
O O3 0.529383 0.942583 0.375486
O O4 0.409217 0.619909 0.864713
O O5 0.062639 0.702763 0.512722
O O6 0.245180 0.943956 0.097951
O O7 0.000000 0.000000 0.500000
O O8 0.500000 0.500000 0.500000
O O9 0.205649 0.728771 0.801693
O O10 0.464810 0.327084 0.813792
O O11 0.358867 0.150138 0.991063
O O12 0.500000 0.500000 0.000000
O O13 0.734463 0.000602 0.116806
O O14 0.054518 0.500156 0.267891
O O15 0.878136 0.925036 0.104581
O O16 0.000000 0.000000 0.000000
O O17 0.804822 0.051532 0.530692
O O18 0.119130 0.714967 0.275506
#
# Coordination Sequence:
#
# PCOD8019898 Si02
#       8
#     2   2   2   2   2   2   2   2
#     4  12  24  40  65  96 129 170 219 260 319 391
#     4  11  23  43  65  96 130 172 210 266 321 387
#     4  10  22  42  65  87 127 164 211 267 329 374
#     4  11  25  43  64  96 132 173 214 263 324 385
#     4  11  24  41  64  95 126 168 214 268 319 381
#     4  10  22  42  62  92 124 165 211 271 316 383
#     4  11  24  40  67  91 128 173 209 261 324 377
#     4  10  23  42  64  93 133 163 215 264 319 381
#
# _framework density 21.588480000000001
#
# number of rings (size 3 to 8) (size 9 to 14) (size 15 to 20)
#    0.000    1.250    2.500    2.625    3.500    3.000 
#    2.250    0.000    0.000    0.000    0.000    0.000 
#    0.000    0.000    0.000    0.000    0.000    0.000 
#
# Total GULP energy -198249.896827 kJ/mol
# GULP energy per Si atom -12390.618552 kJ/mol
# Density = 2.153934 g / cm^3
# Si number density = 21.588480 Si / 1000 Ang^3
#
#
#
# Elastic Constant Matrix: (Units=GPa)
#
#
# Indices 1 2 3 4 5 6 
#
# 1 69.0180 37.2432 26.9213 -6.6892 1.3813 4.4887
# 2 37.2432 132.7117 59.7701 19.3987 4.1442 7.3217
# 3 26.9213 59.7701 131.6607 16.1135 5.2406 29.6862
# 4 -6.6892 19.3987 16.1135 40.7577 5.5568 -3.4391
# 5 1.3813 4.1442 5.2406 5.5568 28.9327 8.4935
# 6 4.4887 7.3217 29.6862 -3.4391 8.4935 39.3027
#
#
#
# Elastic Compliance Matrix: (Units=1/GPa)
#
#
# Indices 1 2 3 4 5 6 
#
# 1 0.018930 -0.005157 -0.002734 0.007006 -0.001547 0.001811
# 2 -0.005157 0.011281 -0.003691 -0.004674 -0.000062 0.000879
# 3 -0.002734 -0.003691 0.012392 -0.004641 0.002007 -0.009200
# 4 0.007006 -0.004674 -0.004641 0.031385 -0.007163 0.007870
# 5 -0.001547 -0.000062 0.002007 -0.007163 0.038686 -0.010315
# 6 0.001811 0.000879 -0.009200 0.007870 -0.010315 0.034940
#
#
# Mechanical properties :
#
#
# Convention : Reuss Voigt Hill
#
# Bulk Modulus (GPa) = 51.43783 64.58441 58.01112
# Shear Modulus (GPa) = 28.20757 35.76235 31.98496
#
# Velocity S-wave (km/s) = 3.61862 4.07449 3.85330
# Velocity P-wave (km/s) = 6.42942 7.21917 6.83571
#
# Compressibility (1/GPa) = 0.01944094
#
# Stress axis : x y z
#
# Youngs Moduli (GPa) = 52.82548 88.64397 80.69512
#
# Poissons Ratio (x) = 0.45712 0.22061
# Poissons Ratio (y) = 0.27241 0.29782
# Poissons Ratio (z) = 0.14442 0.32715
#
# Static dielectric constant tensor:
#      x y z
#    x 3.871450 -0.229200 0.021180 
#    y -0.229200 4.073700 0.227690 
#    z 0.021180 0.227690 4.037320 
# 
# 
# High freq. dielectric constant tensor:
#      x y z
#    x 1.840280 -0.009510 -0.002600 
#    y -0.009510 1.850920 0.020070 
#    z -0.002600 0.020070 1.851800 
# 
# From -- ./inp_files/139082.got.cif
#   From: 2010.06.25/outbox.cif.g09.slc.cpg/sg2_70_cif.got.tgz:139082.got - 2010.06.27 13:26:56.
