data_PCOD8019053
_publ_section_title
;
Structure prediction by ZEFSAII (Michael W. Deem and Ramdas Pophale) SiO2 
 PCOD8019053
Probable space group: P -1
;
_chemical_formula_sum "Si O2"
_cell_formula_units_Z 12
_cell_length_a 8.268873
_cell_length_b 9.842611
_cell_length_c 12.440552
_cell_angle_alpha 143.092566
_cell_angle_beta 85.963272
_cell_angle_gamma 77.347989
_cell_volume 538.668560
_symmetry_space_group_name_H-M "P -1"
_symmetry_group_IT_number 2
_symmetry_cell_setting 'triclinic'
loop_
_space_group_symop_operation_xyz
x,y,z
-x,-y,-z
loop_
_atom_site_type_symbol
_atom_site_label
_atom_site_fract_x
_atom_site_fract_y
_atom_site_fract_z
Si Si1 0.186787 0.759427 0.052563
Si Si2 0.825867 0.239352 0.705303
Si Si3 0.473642 0.271573 0.643156
Si Si4 0.303145 0.105575 0.131000
Si Si5 0.825191 0.763778 0.004885
Si Si6 0.466378 0.272701 0.398410
O O1 0.210561 0.836101 0.221320
O O2 0.262726 0.885334 0.040892
O O3 0.309700 0.458541 0.844176
O O4 0.977390 0.832021 0.088209
O O5 0.655639 0.300629 0.674118
O O6 0.854607 0.490483 0.872890
O O7 0.000000 0.000000 0.500000
O O8 0.410428 0.328877 0.559658
O O9 0.500000 0.000000 0.500000
O O10 0.158456 0.252546 0.136570
O O11 0.295509 0.287340 0.345533
O O12 0.500000 0.000000 0.000000
O O13 0.635197 0.991753 0.198513
O O14 0.500000 0.500000 0.500000
#
# Coordination Sequence:
#
# PCOD8019053 Si02
#       6
#     2   2   2   2   2   2
#     4  12  24  42  66  96 129 170 216 266 321 383
#     4  12  25  44  66  95 131 172 215 266 321 381
#     4  12  23  39  63  95 128 168 214 262 316 381
#     4  10  22  41  64  92 127 167 210 261 316 375
#     4  11  23  43  65  94 131 170 213 267 319 379
#     4  11  22  41  65  92 126 169 211 260 319 379
#
# _framework density 22.277151
#
# number of rings (size 3 to 8) (size 9 to 14) (size 15 to 20)
#    0.000    0.667    0.000   10.500    0.000    0.000 
#    0.000    2.500    0.000    0.000    0.000    0.000 
#    0.000    0.000    0.000    0.000    0.000    0.000 
#
# Total GULP energy -148830.624603 kJ/mol
# GULP energy per Si atom -12402.552050 kJ/mol
# Density = 2.222645 g / cm^3
# Si number density = 22.277151 Si / 1000 Ang^3
#
#
#
# Elastic Constant Matrix: (Units=GPa)
#
#
# Indices 1 2 3 4 5 6 
#
# 1 62.1241 11.4451 13.3427 -9.2462 15.8006 -0.3779
# 2 11.4451 114.3048 26.5044 -19.9718 4.1326 7.8294
# 3 13.3427 26.5044 112.0396 -6.6059 -5.2844 1.7702
# 4 -9.2462 -19.9718 -6.6059 51.5356 0.8475 16.0013
# 5 15.8006 4.1326 -5.2844 0.8475 40.8059 0.0323
# 6 -0.3779 7.8294 1.7702 16.0013 0.0323 46.7021
#
#
#
# Elastic Compliance Matrix: (Units=1/GPa)
#
#
# Indices 1 2 3 4 5 6 
#
# 1 0.019140 -0.000458 -0.002326 0.003340 -0.007735 -0.000819
# 2 -0.000458 0.010380 -0.002131 0.004704 -0.001245 -0.003274
# 3 -0.002326 -0.002131 0.009819 -0.000014 0.002388 -0.000031
# 4 0.003340 0.004704 -0.000014 0.024728 -0.002278 -0.009232
# 5 -0.007735 -0.001245 0.002388 -0.002278 0.027983 0.000817
# 6 -0.000819 -0.003274 -0.000031 -0.009232 0.000817 0.025118
#
#
# Mechanical properties :
#
#
# Convention : Reuss Voigt Hill
#
# Bulk Modulus (GPa) = 33.88712 43.45033 38.66873
# Shear Modulus (GPa) = 36.54068 43.62048 40.08058
#
# Velocity S-wave (km/s) = 4.05443 4.42982 4.24627
# Velocity P-wave (km/s) = 6.09610 6.76101 6.43715
#
# Compressibility (1/GPa) = 0.02950973
#
# Stress axis : x y z
#
# Youngs Moduli (GPa) = 52.24624 96.34283 101.84627
#
# Poissons Ratio (x) = 0.04410 0.23690
# Poissons Ratio (y) = 0.02392 0.21699
# Poissons Ratio (z) = 0.12153 0.20526
#
# Static dielectric constant tensor:
#      x y z
#    x 3.356850 -1.205840 0.449990 
#    y -1.205840 3.274470 -0.094360 
#    z 0.449990 -0.094360 4.137000 
# 
# 
# High freq. dielectric constant tensor:
#      x y z
#    x 1.874410 -0.003440 0.018530 
#    y -0.003440 1.898080 -0.009480 
#    z 0.018530 -0.009480 1.879670 
# 
# From -- ./inp_files/28051.got.cif
#   From: 2010.06.25/outbox.cif.g09.slc.cpg/sg2_15_cif.got.tgz:28051.got - 2010.06.27 13:26:56.
