data_PCOD8019073
_publ_section_title
;
Structure prediction by ZEFSAII (Michael W. Deem and Ramdas Pophale) SiO2 
 PCOD8019073
Probable space group: P -1
;
_chemical_formula_sum "Si O2"
_cell_formula_units_Z 16
_cell_length_a 17.673958
_cell_length_b 20.185340
_cell_length_c 11.837387
_cell_angle_alpha 21.621308
_cell_angle_beta 147.265996
_cell_angle_gamma 149.488991
_cell_volume 771.494341
_symmetry_space_group_name_H-M "P -1"
_symmetry_group_IT_number 2
_symmetry_cell_setting 'triclinic'
loop_
_space_group_symop_operation_xyz
x,y,z
-x,-y,-z
loop_
_atom_site_type_symbol
_atom_site_label
_atom_site_fract_x
_atom_site_fract_y
_atom_site_fract_z
Si Si1 0.598523 0.500488 0.477903
Si Si2 0.130954 0.316833 0.856879
Si Si3 0.671177 0.763305 0.951492
Si Si4 0.200747 0.824354 0.423879
Si Si5 0.584156 0.941381 0.100102
Si Si6 0.654051 0.246678 0.503292
Si Si7 0.864190 0.846645 0.641762
Si Si8 0.296187 0.520382 0.128674
O O1 0.525700 0.266038 0.759378
O O2 0.473719 0.589415 0.208606
O O3 0.726185 0.561417 0.640942
O O4 0.671720 0.587184 0.312038
O O5 0.215539 0.544548 0.632458
O O6 0.979931 0.284408 0.648550
O O7 0.240489 0.242373 0.041811
O O8 0.081075 0.185633 0.114932
O O9 0.499961 0.726881 0.760992
O O10 0.759053 0.962334 0.813598
O O11 0.293219 0.842726 0.395474
O O12 0.250886 0.704909 0.769695
O O13 0.733064 0.927051 0.362986
O O14 0.500000 0.000000 0.000000
O O15 0.630051 0.101125 0.806948
O O16 0.808227 0.642472 0.829780
O O17 0.000000 0.000000 0.500000
#
# Coordination Sequence:
#
# PCOD8019073 Si02
#       8
#     2   2   2   2   2   2   2   2
#     4  10  22  41  65  95 131 163 217 269 324 375
#     4  12  26  45  65  98 141 169 213 278 337 387
#     4  12  25  43  69  98 132 177 216 272 335 386
#     4  12  25  42  66 101 130 171 225 269 325 393
#     4  11  23  40  65  98 128 165 215 272 325 381
#     4  12  23  42  73  95 127 176 230 265 315 396
#     4  11  24  42  65  92 129 173 215 260 325 389
#     4  10  22  41  64  94 127 165 217 276 308 381
#
# _framework density 20.738973000000001
#
# number of rings (size 3 to 8) (size 9 to 14) (size 15 to 20)
#    0.000    0.750    2.500    5.250    8.750    0.000 
#    0.000    0.625    0.000    0.000    0.000    0.000 
#    0.000    0.000    0.000    0.000    0.000    0.000 
#
# Total GULP energy -198491.828017 kJ/mol
# GULP energy per Si atom -12405.739251 kJ/mol
# Density = 2.069177 g / cm^3
# Si number density = 20.738973 Si / 1000 Ang^3
#
#
#
# Elastic Constant Matrix: (Units=GPa)
#
#
# Indices 1 2 3 4 5 6 
#
# 1 68.6642 22.1005 30.6982 -15.3389 -4.5569 0.9962
# 2 22.1005 89.9787 33.7831 0.6077 -9.8070 0.5629
# 3 30.6982 33.7831 112.0582 -8.8737 -24.4560 -1.6010
# 4 -15.3389 0.6077 -8.8737 31.5445 0.4234 -1.7698
# 5 -4.5569 -9.8070 -24.4560 0.4234 36.3598 -0.4680
# 6 0.9962 0.5629 -1.6010 -1.7698 -0.4680 26.0711
#
#
#
# Elastic Compliance Matrix: (Units=1/GPa)
#
#
# Indices 1 2 3 4 5 6 
#
# 1 0.019165 -0.003459 -0.003816 0.008309 -0.001199 -0.000349
# 2 -0.003459 0.013247 -0.003032 -0.002834 0.001127 -0.000512
# 3 -0.003816 -0.003032 0.012604 0.001721 0.007177 0.001231
# 4 0.008309 -0.002834 0.001721 0.036397 0.001041 0.002339
# 5 -0.001199 0.001127 0.007177 0.001041 0.032486 0.001116
# 6 -0.000349 -0.000512 0.001231 0.002339 0.001116 0.038635
#
#
# Mechanical properties :
#
#
# Convention : Reuss Voigt Hill
#
# Bulk Modulus (GPa) = 40.98178 49.31830 45.15004
# Shear Modulus (GPa) = 27.58139 31.06970 29.32554
#
# Velocity S-wave (km/s) = 3.65078 3.87477 3.76444
# Velocity P-wave (km/s) = 6.12981 6.62198 6.38064
#
# Compressibility (1/GPa) = 0.02440109
#
# Stress axis : x y z
#
# Youngs Moduli (GPa) = 52.17957 75.48971 79.34235
#
# Poissons Ratio (x) = 0.26112 0.30277
# Poissons Ratio (y) = 0.18049 0.24056
# Poissons Ratio (z) = 0.19912 0.22888
#
# Static dielectric constant tensor:
#      x y z
#    x 3.261280 0.594870 0.021170 
#    y 0.594870 3.079770 -0.029710 
#    z 0.021170 -0.029710 3.899030 
# 
# 
# High freq. dielectric constant tensor:
#      x y z
#    x 1.812950 -0.009650 -0.007460 
#    y -0.009650 1.814740 0.001890 
#    z -0.007460 0.001890 1.827020 
# 
# From -- ./inp_files/190024.got.cif
#   From: 2010.06.25/outbox.cif.g09.slc.cpg/sg2_96_cif.got.tgz:190024.got - 2010.06.27 13:26:56.
