data_PCOD8019151
_publ_section_title
;
Structure prediction by ZEFSAII (Michael W. Deem and Ramdas Pophale) SiO2 
 PCOD8019151
Probable space group: P -1
;
_chemical_formula_sum "Si O2"
_cell_formula_units_Z 16
_cell_length_a 8.602469
_cell_length_b 21.943542
_cell_length_c 9.317531
_cell_angle_alpha 53.765634
_cell_angle_beta 148.161558
_cell_angle_gamma 123.828421
_cell_volume 742.227076
_symmetry_space_group_name_H-M "P -1"
_symmetry_group_IT_number 2
_symmetry_cell_setting 'triclinic'
loop_
_space_group_symop_operation_xyz
x,y,z
-x,-y,-z
loop_
_atom_site_type_symbol
_atom_site_label
_atom_site_fract_x
_atom_site_fract_y
_atom_site_fract_z
Si Si1 0.584181 0.796804 0.243772
Si Si2 0.787330 0.203194 0.337388
Si Si3 0.889513 0.449326 0.790259
Si Si4 0.169923 0.688492 0.278635
Si Si5 0.559813 0.449326 0.811069
Si Si6 0.481202 0.311506 0.155415
Si Si7 0.794267 0.964173 0.267428
Si Si8 0.169906 0.964173 0.304218
O O1 0.369612 0.748360 0.253281
O O2 0.714057 0.873193 0.323766
O O3 0.877747 0.755437 0.494572
O O4 0.406918 0.813741 0.936270
O O5 0.621262 0.251630 0.250108
O O6 0.840847 0.126805 0.570159
O O7 0.901824 0.388974 0.758663
O O8 0.706507 0.413059 0.836904
O O9 0.746089 0.522015 0.517837
O O10 0.224067 0.477986 0.061855
O O11 0.336607 0.672560 0.577648
O O12 0.860073 0.719808 0.030439
O O13 0.487191 0.388961 0.963384
O O14 0.998225 0.996457 0.253536
O O15 0.000000 0.000000 0.500000
O O16 0.500000 0.000000 0.000000
O O17 0.500000 0.000000 0.500000
O O18 0.000000 0.000000 0.000000
#
# Coordination Sequence:
#
# PCOD8019151 Si02
#       8
#     2   2   2   2   2   2   2   2
#     4  11  24  45  67  90 127 175 217 255 313 391
#     4  11  24  45  67  90 127 175 217 255 313 391
#     4  10  22  41  65  91 125 173 219 257 311 387
#     4  12  26  41  64 100 133 166 212 272 330 369
#     4  10  22  41  65  91 125 173 219 257 311 387
#     4  12  26  41  64 100 133 166 212 272 330 369
#     4  11  23  41  65  94 124 162 207 258 316 376
#     4  11  23  41  65  94 124 162 207 258 316 376
#
# _framework density 21.556747000000001
#
# number of rings (size 3 to 8) (size 9 to 14) (size 15 to 20)
#    0.000    1.000    0.000    7.500    0.000    9.000 
#    0.000    0.000    0.000    0.000    0.000    0.000 
#    0.000    0.000    0.000    0.000    0.000    0.000 
#
# Total GULP energy -198326.813411 kJ/mol
# GULP energy per Si atom -12395.425838 kJ/mol
# Density = 2.150768 g / cm^3
# Si number density = 21.556747 Si / 1000 Ang^3
#
#
#
# Elastic Constant Matrix: (Units=GPa)
#
#
# Indices 1 2 3 4 5 6 
#
# 1 184.5410 68.9253 70.1646 -0.6117 15.2892 0.7134
# 2 68.9253 76.6828 39.4176 4.4066 -7.3877 -4.5297
# 3 70.1646 39.4176 148.9604 11.7954 -0.0426 -1.6939
# 4 -0.6117 4.4066 11.7954 29.3543 -0.1205 0.3588
# 5 15.2892 -7.3877 -0.0426 -0.1205 58.8392 4.2652
# 6 0.7134 -4.5297 -1.6939 0.3588 4.2652 33.5231
#
#
#
# Elastic Compliance Matrix: (Units=1/GPa)
#
#
# Indices 1 2 3 4 5 6 
#
# 1 0.009660 -0.007832 -0.002684 0.002454 -0.003418 -0.000991
# 2 -0.007832 0.021761 -0.001826 -0.002708 0.004582 0.002461
# 3 -0.002684 -0.001826 0.008724 -0.003288 0.000451 0.000229
# 4 0.002454 -0.002708 -0.003288 0.035853 -0.000844 -0.000861
# 5 -0.003418 0.004582 0.000451 -0.000844 0.018577 -0.001640
# 6 -0.000991 0.002461 0.000229 -0.000861 -0.001640 0.030413
#
#
# Mechanical properties :
#
#
# Convention : Reuss Voigt Hill
#
# Bulk Modulus (GPa) = 64.67717 85.24435 74.96076
# Shear Modulus (GPa) = 32.29494 39.78844 36.04169
#
# Velocity S-wave (km/s) = 3.87478 4.30088 4.09338
# Velocity P-wave (km/s) = 7.07721 8.01832 7.56242
#
# Compressibility (1/GPa) = 0.01546141
#
# Stress axis : x y z
#
# Youngs Moduli (GPa) = 103.52396 45.95402 114.62991
#
# Poissons Ratio (x) = 0.35989 0.30768
# Poissons Ratio (y) = 0.81075 0.20929
# Poissons Ratio (z) = 0.27787 0.08390
#
# Static dielectric constant tensor:
#      x y z
#    x 4.375980 -0.003640 0.115700 
#    y -0.003640 3.851600 0.074990 
#    z 0.115700 0.074990 4.222940 
# 
# 
# High freq. dielectric constant tensor:
#      x y z
#    x 1.871620 -0.000890 0.005610 
#    y -0.000890 1.833290 0.008100 
#    z 0.005610 0.008100 1.871720 
# 
# From -- ./inp_files/223550.got.cif
#   From: 2010.06.25/outbox.cif.g09.slc.cpg/sg2_112_cif.got.tgz:223550.got - 2010.06.27 13:26:56.
