data_PCOD8019807
_publ_section_title
;
Structure prediction by ZEFSAII (Michael W. Deem and Ramdas Pophale) SiO2 
 PCOD8019807
Probable space group: P -1
;
_chemical_formula_sum "Si O2"
_cell_formula_units_Z 16
_cell_length_a 8.880641
_cell_length_b 8.752711
_cell_length_c 16.933305
_cell_angle_alpha 36.505962
_cell_angle_beta 86.264715
_cell_angle_gamma 92.283297
_cell_volume 771.882004
_symmetry_space_group_name_H-M "P -1"
_symmetry_group_IT_number 2
_symmetry_cell_setting 'triclinic'
loop_
_space_group_symop_operation_xyz
x,y,z
-x,-y,-z
loop_
_atom_site_type_symbol
_atom_site_label
_atom_site_fract_x
_atom_site_fract_y
_atom_site_fract_z
Si Si1 0.233846 0.010993 0.778623
Si Si2 0.933735 0.201778 0.473145
Si Si3 0.795906 0.388228 0.680706
Si Si4 0.594794 0.701830 0.469881
Si Si5 0.105173 0.038397 0.250895
Si Si6 0.460377 0.698558 0.142166
Si Si7 0.664418 0.468381 0.344058
Si Si8 0.643038 0.463976 0.955076
O O1 0.343560 0.029443 0.689254
O O2 0.260091 0.296248 0.699367
O O3 0.058944 0.926221 0.793700
O O4 0.292602 0.803161 0.919616
O O5 0.780538 0.265635 0.410379
O O6 0.040707 0.479466 0.348844
O O7 0.907442 0.095502 0.607126
O O8 0.000000 0.000000 0.500000
O O9 0.746459 0.593169 0.535938
O O10 0.676523 0.333751 0.777677
O O11 0.808843 0.124578 0.744794
O O12 0.500000 0.500000 0.500000
O O13 0.482556 0.725636 0.536409
O O14 0.212262 0.313777 0.134081
O O15 0.610468 0.592430 0.214183
O O16 0.412187 0.537737 0.132141
O O17 0.500000 0.000000 0.000000
O O18 0.500000 0.500000 0.000000
#
# Coordination Sequence:
#
# PCOD8019807 Si02
#       8
#     2   2   2   2   2   2   2   2
#     4  11  21  43  67 101 136 176 234 273 346 407
#     4  12  25  43  67 107 140 173 225 289 348 402
#     4  11  22  43  70  99 130 180 222 279 342 405
#     4   9  19  35  67 100 126 166 223 279 323 406
#     4  12  24  43  70  99 142 177 229 280 348 409
#     4  11  23  47  69  98 139 180 232 278 337 412
#     4  10  22  41  73  99 134 178 232 278 346 398
#     4  12  28  43  67 102 138 184 228 284 339 410
#
# _framework density 20.728556999999999
#
# number of rings (size 3 to 8) (size 9 to 14) (size 15 to 20)
#    0.000    1.000    3.750    3.750    5.250    1.000 
#    0.000    6.875    0.000    0.000    0.000    0.000 
#    0.000    0.000    0.000    0.000    0.000    0.000 
#
# Total GULP energy -198349.263156 kJ/mol
# GULP energy per Si atom -12396.828947 kJ/mol
# Density = 2.068138 g / cm^3
# Si number density = 20.728557 Si / 1000 Ang^3
#
#
#
# Elastic Constant Matrix: (Units=GPa)
#
#
# Indices 1 2 3 4 5 6 
#
# 1 142.1085 46.0539 56.9719 6.1467 13.1531 1.4283
# 2 46.0539 112.8305 38.7625 7.0578 5.3853 -5.8863
# 3 56.9719 38.7625 108.1668 10.2226 4.4292 -4.2028
# 4 6.1467 7.0578 10.2226 32.4831 6.0241 4.4944
# 5 13.1531 5.3853 4.4292 6.0241 45.8071 -5.0629
# 6 1.4283 -5.8863 -4.2028 4.4944 -5.0629 32.9322
#
#
#
# Elastic Compliance Matrix: (Units=1/GPa)
#
#
# Indices 1 2 3 4 5 6 
#
# 1 0.009794 -0.002556 -0.004290 0.000762 -0.002408 -0.001903
# 2 -0.002556 0.010902 -0.002352 -0.001433 0.000086 0.001968
# 3 -0.004290 -0.002352 0.012680 -0.003105 0.000906 0.001947
# 4 0.000762 -0.001433 -0.003105 0.033661 -0.004843 -0.006024
# 5 -0.002408 0.000086 0.000906 -0.004843 0.023561 0.004518
# 6 -0.001903 0.001968 0.001947 -0.006024 0.004518 0.032565
#
#
# Mechanical properties :
#
#
# Convention : Reuss Voigt Hill
#
# Bulk Modulus (GPa) = 66.75806 71.85361 69.30584
# Shear Modulus (GPa) = 34.11753 36.99901 35.55827
#
# Velocity S-wave (km/s) = 4.06139 4.22943 4.14626
# Velocity P-wave (km/s) = 7.36675 7.65441 7.51196
#
# Compressibility (1/GPa) = 0.01497946
#
# Stress axis : x y z
#
# Youngs Moduli (GPa) = 102.10270 91.72243 78.86727
#
# Poissons Ratio (x) = 0.23443 0.33834
# Poissons Ratio (y) = 0.26096 0.18553
# Poissons Ratio (z) = 0.43802 0.21577
#
# Static dielectric constant tensor:
#      x y z
#    x 4.110550 0.142240 -0.045650 
#    y 0.142240 3.778100 0.197160 
#    z -0.045650 0.197160 3.837280 
# 
# 
# High freq. dielectric constant tensor:
#      x y z
#    x 1.831840 0.006410 -0.002760 
#    y 0.006410 1.802300 0.007180 
#    z -0.002760 0.007180 1.815980 
# 
# From -- ./inp_files/190777.got.cif
#   From: 2010.06.25/outbox.cif.g09.slc.cpg/sg2_96_cif.got.tgz:190777.got - 2010.06.27 13:26:56.
