data_PCOD8019541
_publ_section_title
;
Structure prediction by ZEFSAII (Michael W. Deem and Ramdas Pophale) SiO2 
 PCOD8019541
Probable space group: P -1
;
_chemical_formula_sum "Si O2"
_cell_formula_units_Z 14
_cell_length_a 7.669751
_cell_length_b 17.729121
_cell_length_c 5.044244
_cell_angle_alpha 117.162783
_cell_angle_beta 57.575806
_cell_angle_gamma 124.217393
_cell_volume 466.805006
_symmetry_space_group_name_H-M "P -1"
_symmetry_group_IT_number 2
_symmetry_cell_setting 'triclinic'
loop_
_space_group_symop_operation_xyz
x,y,z
-x,-y,-z
loop_
_atom_site_type_symbol
_atom_site_label
_atom_site_fract_x
_atom_site_fract_y
_atom_site_fract_z
Si Si1 0.546784 0.380150 0.136507
Si Si2 0.271213 0.924493 0.438193
Si Si3 0.189290 0.749376 0.513737
Si Si4 0.449371 0.207256 0.262257
Si Si5 0.135227 0.418089 0.758319
Si Si6 0.826028 0.003161 0.870479
Si Si7 0.193330 0.294792 0.888394
O O1 0.576935 0.286530 0.058087
O O2 0.360799 0.399641 0.486286
O O3 0.793555 0.470506 0.108339
O O4 0.451490 0.360694 0.884651
O O5 0.251532 0.818482 0.315830
O O6 0.275984 0.939028 0.140229
O O7 0.500000 0.000000 0.500000
O O8 0.089533 0.943713 0.821480
O O9 0.405213 0.774025 0.560315
O O10 0.078902 0.637266 0.350698
O O11 0.981678 0.767119 0.844021
O O12 0.217775 0.221063 0.543534
O O13 0.368734 0.100440 0.065946
O O14 0.075908 0.363087 0.997394
O O15 0.000000 0.000000 0.500000
#
# Coordination Sequence:
#
# PCOD8019541 Si02
#       7
#     2   2   2   2   2   2   2
#     4   9  20  39  66  97 134 173 228 286 347 421
#     4  12  27  48  72 104 146 188 240 295 365 426
#     4  11  25  42  68  97 137 181 230 288 351 424
#     4  11  25  42  66 101 137 176 234 288 350 422
#     4   9  20  40  66  96 132 178 225 283 354 418
#     4  12  28  47  75 106 144 190 242 299 360 429
#     4  10  22  41  68  95 136 179 228 284 354 417
#
# _framework density 29.991109999999999
#
# number of rings (size 3 to 8) (size 9 to 14) (size 15 to 20)
#    0.000    1.429    1.429    2.143   10.000    2.857 
#    0.000    1.429    0.000    0.000    0.000    0.000 
#    0.000    0.000    0.000    0.000    0.000    0.000 
#
# Total GULP energy -173463.887006 kJ/mol
# GULP energy per Si atom -12390.277643 kJ/mol
# Density = 2.992285 g / cm^3
# Si number density = 29.991110 Si / 1000 Ang^3
#
#
#
# Elastic Constant Matrix: (Units=GPa)
#
#
# Indices 1 2 3 4 5 6 
#
# 1 32.7665 45.0444 2.3748 5.9425 13.5968 3.2298
# 2 45.0444 203.8487 40.5379 28.1087 9.5597 -19.9888
# 3 2.3748 40.5379 88.0353 14.6578 12.4525 -3.5010
# 4 5.9425 28.1087 14.6578 52.9905 -5.9677 -7.2553
# 5 13.5968 9.5597 12.4525 -5.9677 48.7894 -4.2196
# 6 3.2298 -19.9888 -3.5010 -7.2553 -4.2196 42.8004
#
#
#
# Elastic Compliance Matrix: (Units=1/GPa)
#
#
# Indices 1 2 3 4 5 6 
#
# 1 0.059173 -0.014421 0.007798 -0.004896 -0.017388 -0.013107
# 2 -0.014421 0.009407 -0.004042 -0.001131 0.003528 0.005307
# 3 0.007798 -0.004042 0.014330 -0.003677 -0.005704 -0.002490
# 4 -0.004896 -0.001131 -0.003677 0.022192 0.005572 0.003852
# 5 -0.017388 0.003528 -0.005704 0.005572 0.027318 0.006131
# 6 -0.013107 0.005307 -0.002490 0.003852 0.006131 0.027886
#
#
# Mechanical properties :
#
#
# Convention : Reuss Voigt Hill
#
# Bulk Modulus (GPa) = 16.23924 55.61830 35.92877
# Shear Modulus (GPa) = 24.73241 44.69560 34.71400
#
# Velocity S-wave (km/s) = 2.87480 3.86462 3.40586
# Velocity P-wave (km/s) = 4.05534 6.20475 5.24141
#
# Compressibility (1/GPa) = 0.06157923
#
# Stress axis : x y z
#
# Youngs Moduli (GPa) = 16.89951 106.30527 69.78275
#
# Poissons Ratio (x) = 1.53301 -0.54414
# Poissons Ratio (y) = 0.24371 0.28209
# Poissons Ratio (z) = -0.13178 0.42973
#
# Static dielectric constant tensor:
#      x y z
#    x 6.066340 -0.473700 0.410980 
#    y -0.473700 5.978820 -0.640350 
#    z 0.410980 -0.640350 7.519780 
# 
# 
# High freq. dielectric constant tensor:
#      x y z
#    x 2.233790 -0.000180 -0.030630 
#    y -0.000180 2.231290 -0.001270 
#    z -0.030630 -0.001270 2.258620 
# 
# From -- ./inp_files/43144.got.cif
#   From: 2010.06.25/outbox.cif.g09.slc.cpg/sg2_22_cif.got.tgz:43144.got - 2010.06.27 13:26:56.
