data_PCOD8019009
_publ_section_title
;
Structure prediction by ZEFSAII (Michael W. Deem and Ramdas Pophale) SiO2 
 PCOD8019009
Probable space group: P -1
;
_chemical_formula_sum "Si O2"
_cell_formula_units_Z 14
_cell_length_a 6.294673
_cell_length_b 14.720582
_cell_length_c 8.982536
_cell_angle_alpha 57.699329
_cell_angle_beta 84.183028
_cell_angle_gamma 58.249492
_cell_volume 579.219039
_symmetry_space_group_name_H-M "P -1"
_symmetry_group_IT_number 2
_symmetry_cell_setting 'triclinic'
loop_
_space_group_symop_operation_xyz
x,y,z
-x,-y,-z
loop_
_atom_site_type_symbol
_atom_site_label
_atom_site_fract_x
_atom_site_fract_y
_atom_site_fract_z
Si Si1 0.953656 0.355227 0.617016
Si Si2 0.338729 0.960660 0.896672
Si Si3 0.720877 0.106773 0.364781
Si Si4 0.479067 0.132642 0.642327
Si Si5 0.411672 0.400289 0.091948
Si Si6 0.937820 0.534332 0.223279
Si Si7 0.774837 0.185250 0.771740
O O1 0.188895 0.243191 0.603091
O O2 0.849647 0.479466 0.410698
O O3 0.026400 0.365149 0.773532
O O4 0.732486 0.324905 0.668751
O O5 0.299742 0.945299 0.742993
O O6 0.542447 0.003666 0.845017
O O7 0.421135 0.829123 0.094460
O O8 0.069568 0.076881 0.885039
O O9 0.507241 0.110623 0.482773
O O10 0.659364 0.252667 0.226756
O O11 0.000000 0.000000 0.500000
O O12 0.685641 0.169002 0.630587
O O13 0.210590 0.433233 0.211430
O O14 0.500000 0.500000 0.000000
O O15 0.283960 0.402243 0.941352
#
# Coordination Sequence:
#
# PCOD8019009 Si02
#       7
#     2   2   2   2   2   2   2
#     4  10  23  42  73  99 137 183 238 290 352 415
#     4  10  23  41  62  98 137 180 231 280 349 417
#     4  12  25  46  70 103 141 189 233 284 362 423
#     4  11  22  42  66  99 139 180 232 290 347 422
#     4  11  27  47  73 105 143 183 241 296 351 419
#     4  10  24  48  68 104 138 187 238 291 349 422
#     4  10  22  41  64 101 137 178 229 287 348 416
#
# _framework density 24.170473999999999
#
# number of rings (size 3 to 8) (size 9 to 14) (size 15 to 20)
#    0.000    1.429    2.857    0.857    6.000    0.000 
#    5.143    2.857    0.000    0.000    0.000    0.000 
#    0.000    0.000    0.000    0.000    0.000    0.000 
#
# Total GULP energy -173437.440596 kJ/mol
# GULP energy per Si atom -12388.388614 kJ/mol
# Density = 2.411546 g / cm^3
# Si number density = 24.170474 Si / 1000 Ang^3
#
#
#
# Elastic Constant Matrix: (Units=GPa)
#
#
# Indices 1 2 3 4 5 6 
#
# 1 103.3540 46.1902 37.5164 -13.5408 -12.5032 36.6174
# 2 46.1902 91.4536 43.1400 1.0761 -9.0913 12.9589
# 3 37.5164 43.1400 107.6033 1.3289 -13.3709 14.7517
# 4 -13.5408 1.0761 1.3289 44.6638 4.1371 -3.5538
# 5 -12.5032 -9.0913 -13.3709 4.1371 38.0755 -15.6665
# 6 36.6174 12.9589 14.7517 -3.5538 -15.6665 47.3734
#
#
#
# Elastic Compliance Matrix: (Units=1/GPa)
#
#
# Indices 1 2 3 4 5 6 
#
# 1 0.018010 -0.006587 -0.002329 0.004930 -0.001792 -0.011616
# 2 -0.006587 0.016118 -0.004284 -0.002201 0.001368 0.002304
# 3 -0.002329 -0.004284 0.012167 -0.001209 0.002596 -0.000049
# 4 0.004930 -0.002201 -0.001209 0.024073 -0.002742 -0.001933
# 5 -0.001792 0.001368 0.002596 -0.002742 0.031496 0.010412
# 6 -0.011616 0.002304 -0.000049 -0.001933 0.010412 0.032771
#
#
# Mechanical properties :
#
#
# Convention : Reuss Voigt Hill
#
# Bulk Modulus (GPa) = 50.26751 61.78934 56.02843
# Shear Modulus (GPa) = 29.82109 37.72684 33.77396
#
# Velocity S-wave (km/s) = 3.51633 3.95506 3.74213
# Velocity P-wave (km/s) = 6.10969 6.81734 6.47320
#
# Compressibility (1/GPa) = 0.01989357
#
# Stress axis : x y z
#
# Youngs Moduli (GPa) = 55.52621 62.04331 82.18852
#
# Poissons Ratio (x) = 0.40871 0.19143
# Poissons Ratio (y) = 0.36578 0.35208
# Poissons Ratio (z) = 0.12933 0.26578
#
# Static dielectric constant tensor:
#      x y z
#    x 4.607670 0.391290 -0.454800 
#    y 0.391290 4.541770 0.104100 
#    z -0.454800 0.104100 4.815320 
# 
# 
# High freq. dielectric constant tensor:
#      x y z
#    x 1.948540 0.014520 -0.014180 
#    y 0.014520 1.963190 0.013380 
#    z -0.014180 0.013380 1.971130 
# 
# From -- ./inp_files/134826.got.cif
#   From: 2010.06.25/outbox.cif.g09.slc.cpg/sg2_68_cif.got.tgz:134826.got - 2010.06.27 13:26:56.
