data_PCOD8019798
_publ_section_title
;
Structure prediction by ZEFSAII (Michael W. Deem and Ramdas Pophale) SiO2 
 PCOD8019798
Probable space group: P -1
;
_chemical_formula_sum "Si O2"
_cell_formula_units_Z 12
_cell_length_a 11.850772
_cell_length_b 14.750380
_cell_length_c 9.132139
_cell_angle_alpha 138.505220
_cell_angle_beta 51.877581
_cell_angle_gamma 151.237608
_cell_volume 505.044763
_symmetry_space_group_name_H-M "P -1"
_symmetry_group_IT_number 2
_symmetry_cell_setting 'triclinic'
loop_
_space_group_symop_operation_xyz
x,y,z
-x,-y,-z
loop_
_atom_site_type_symbol
_atom_site_label
_atom_site_fract_x
_atom_site_fract_y
_atom_site_fract_z
Si Si1 0.887898 0.939684 0.173121
Si Si2 0.869288 0.661859 0.016168
Si Si3 0.356408 0.062501 0.230712
Si Si4 0.526967 0.179794 0.723210
Si Si5 0.722450 0.262171 0.958917
Si Si6 0.274684 0.299646 0.535516
O O1 0.783116 0.714519 0.037590
O O2 0.693967 0.907666 0.266671
O O3 0.061129 0.127981 0.385702
O O4 0.000000 0.000000 0.000000
O O5 0.776370 0.623798 0.210488
O O6 0.758732 0.432477 0.775628
O O7 0.153755 0.864708 0.035132
O O8 0.620404 0.244055 0.172241
O O9 0.309771 0.184378 0.458887
O O10 0.325137 0.938869 0.246567
O O11 0.500000 0.000000 0.500000
O O12 0.561780 0.216582 0.914030
O O13 0.000000 0.500000 0.000000
O O14 0.500000 0.500000 0.500000
#
# Coordination Sequence:
#
# PCOD8019798 Si02
#       6
#     2   2   2   2   2   2
#     4  11  24  46  70 104 146 181 237 300 360 421
#     4  11  23  47  73  98 141 189 245 292 348 439
#     4  10  22  41  73 102 130 183 240 291 339 420
#     4  12  27  41  68 102 142 187 228 301 369 411
#     4  11  23  44  70  97 146 183 236 287 356 429
#     4  11  24  42  78 104 135 189 251 284 351 425
#
# _framework density 23.760269000000001
#
# number of rings (size 3 to 8) (size 9 to 14) (size 15 to 20)
#    0.000    1.000    1.667    6.500    4.667    0.000 
#    0.000    1.667    0.000    0.000    0.000    0.000 
#    0.000    0.000    0.000    0.000    0.000    0.000 
#
# Total GULP energy -148699.217163 kJ/mol
# GULP energy per Si atom -12391.601430 kJ/mol
# Density = 2.370619 g / cm^3
# Si number density = 23.760269 Si / 1000 Ang^3
#
#
#
# Elastic Constant Matrix: (Units=GPa)
#
#
# Indices 1 2 3 4 5 6 
#
# 1 168.3725 41.6394 25.1141 14.6787 -18.8620 -12.8567
# 2 41.6394 152.4256 42.0315 11.4381 -6.7065 -2.8282
# 3 25.1141 42.0315 80.4537 18.3217 -16.0483 -10.7867
# 4 14.6787 11.4381 18.3217 40.2871 -14.5796 -8.4142
# 5 -18.8620 -6.7065 -16.0483 -14.5796 29.9284 -4.1330
# 6 -12.8567 -2.8282 -10.7867 -8.4142 -4.1330 40.8330
#
#
#
# Elastic Compliance Matrix: (Units=1/GPa)
#
#
# Indices 1 2 3 4 5 6 
#
# 1 0.007046 -0.001652 -0.000142 0.000080 0.004382 0.002527
# 2 -0.001652 0.008096 -0.004119 -0.000867 -0.002056 -0.001434
# 3 -0.000142 -0.004119 0.017396 -0.003093 0.007414 0.004379
# 4 0.000080 -0.000867 -0.003093 0.033729 0.015690 0.007687
# 5 0.004382 -0.002056 0.007414 0.015690 0.048905 0.011379
# 6 0.002527 -0.001434 0.004379 0.007687 0.011379 0.029079
#
#
# Mechanical properties :
#
#
# Convention : Reuss Voigt Hill
#
# Bulk Modulus (GPa) = 48.28024 68.75799 58.51912
# Shear Modulus (GPa) = 30.67902 41.70749 36.19326
#
# Velocity S-wave (km/s) = 3.59721 4.19423 3.90714
# Velocity P-wave (km/s) = 6.13328 7.24268 6.71094
#
# Compressibility (1/GPa) = 0.02071241
#
# Stress axis : x y z
#
# Youngs Moduli (GPa) = 141.92917 123.52422 57.48573
#
# Poissons Ratio (x) = 0.20406 0.00814
# Poissons Ratio (y) = 0.23447 0.23676
# Poissons Ratio (z) = 0.02010 0.50875
#
# Static dielectric constant tensor:
#      x y z
#    x 4.802670 -0.354630 -0.113080 
#    y -0.354630 4.511040 0.283670 
#    z -0.113080 0.283670 4.024130 
# 
# 
# High freq. dielectric constant tensor:
#      x y z
#    x 1.969400 -0.012490 -0.019280 
#    y -0.012490 1.952770 0.011520 
#    z -0.019280 0.011520 1.907840 
# 
# From -- ./inp_files/274574.got.cif
#   From: 2010.06.25/outbox.cif.g09.slc.cpg/sg2_138_cif.got.tgz:274574.got - 2010.06.27 13:26:56.
