data_PCOD8019447
_publ_section_title
;
Structure prediction by ZEFSAII (Michael W. Deem and Ramdas Pophale) SiO2 
 PCOD8019447
Probable space group: P -1
;
_chemical_formula_sum "Si O2"
_cell_formula_units_Z 16
_cell_length_a 23.952855
_cell_length_b 8.822612
_cell_length_c 20.867517
_cell_angle_alpha 148.391631
_cell_angle_beta 159.850740
_cell_angle_gamma 39.277701
_cell_volume 788.206380
_symmetry_space_group_name_H-M "P -1"
_symmetry_group_IT_number 2
_symmetry_cell_setting 'triclinic'
loop_
_space_group_symop_operation_xyz
x,y,z
-x,-y,-z
loop_
_atom_site_type_symbol
_atom_site_label
_atom_site_fract_x
_atom_site_fract_y
_atom_site_fract_z
Si Si1 0.460489 0.300932 0.591187
Si Si2 0.931303 0.692858 0.283731
Si Si3 0.175003 0.254641 0.060000
Si Si4 0.181261 0.897261 0.335147
Si Si5 0.681168 0.297861 0.947091
Si Si6 0.509168 0.250922 0.870873
Si Si7 0.687768 0.755157 0.931234
Si Si8 0.880065 0.789671 0.749033
O O1 0.524669 0.529828 0.687624
O O2 0.271038 0.316105 0.405205
O O3 0.500000 0.000000 0.500000
O O4 0.553716 0.359968 0.779045
O O5 0.852808 0.492470 0.185530
O O6 0.054910 0.503152 0.312525
O O7 0.802128 0.771736 0.121810
O O8 0.000000 0.000000 0.500000
O O9 0.209306 0.559406 0.244162
O O10 0.213136 0.331744 0.054870
O O11 0.989243 0.090997 0.807384
O O12 0.295491 0.043489 0.144147
O O13 0.330742 0.080832 0.599993
O O14 0.171768 0.019737 0.297158
O O15 0.603365 0.401474 0.965247
O O16 0.629370 0.061231 0.966669
O O17 0.500000 0.500000 0.000000
O O18 0.000000 0.000000 0.000000
#
# Coordination Sequence:
#
# PCOD8019447 Si02
#       8
#     2   2   2   2   2   2   2   2
#     4  11  23  39  68  98 136 170 220 278 343 401
#     4  11  25  44  69  96 136 181 228 278 338 404
#     4  10  22  41  67  97 134 165 223 276 344 399
#     4  11  23  40  68  99 130 173 223 283 335 399
#     4  10  22  43  64  96 133 177 215 280 332 406
#     4  11  26  43  66  94 136 181 230 270 338 406
#     4  10  25  42  62  99 129 173 220 268 334 398
#     4  12  24  43  69 100 135 174 230 282 342 405
#
# _framework density 20.299253
#
# number of rings (size 3 to 8) (size 9 to 14) (size 15 to 20)
#    0.000    1.250    2.500    3.000    3.500    5.000 
#    0.000    5.000    0.000    0.000    0.000    0.000 
#    0.000    0.000    0.000    0.000    0.000    0.000 
#
# Total GULP energy -198354.538394 kJ/mol
# GULP energy per Si atom -12397.158650 kJ/mol
# Density = 2.025305 g / cm^3
# Si number density = 20.299253 Si / 1000 Ang^3
#
#
#
# Elastic Constant Matrix: (Units=GPa)
#
#
# Indices 1 2 3 4 5 6 
#
# 1 138.5165 33.7489 56.3213 8.5432 24.7970 -13.0770
# 2 33.7489 60.7397 29.6591 5.1049 -7.6670 -12.3834
# 3 56.3213 29.6591 114.7763 5.1566 9.0058 -14.8167
# 4 8.5432 5.1049 5.1566 30.8167 -5.0043 -1.9439
# 5 24.7970 -7.6670 9.0058 -5.0043 39.9534 1.1056
# 6 -13.0770 -12.3834 -14.8167 -1.9439 1.1056 44.7379
#
#
#
# Elastic Compliance Matrix: (Units=1/GPa)
#
#
# Indices 1 2 3 4 5 6 
#
# 1 0.011582 -0.005317 -0.003454 -0.002970 -0.007825 0.000834
# 2 -0.005317 0.022901 -0.003519 -0.000156 0.008374 0.003406
# 3 -0.003454 -0.003519 0.011685 -0.000503 -0.001281 0.001896
# 4 -0.002970 -0.000156 -0.000503 0.034412 0.006230 0.000263
# 5 -0.007825 0.008374 -0.001281 0.006230 0.032587 -0.000928
# 6 0.000834 0.003406 0.001896 0.000263 -0.000928 0.024201
#
#
# Mechanical properties :
#
#
# Convention : Reuss Voigt Hill
#
# Bulk Modulus (GPa) = 46.32388 61.49899 53.91144
# Shear Modulus (GPa) = 29.56061 36.05515 32.80788
#
# Velocity S-wave (km/s) = 3.82021 4.21905 4.02457
# Velocity P-wave (km/s) = 6.50605 7.35498 6.94350
#
# Compressibility (1/GPa) = 0.02158714
#
# Stress axis : x y z
#
# Youngs Moduli (GPa) = 86.34024 43.66685 85.58042
#
# Poissons Ratio (x) = 0.23216 0.29563
# Poissons Ratio (y) = 0.45904 0.30117
# Poissons Ratio (z) = 0.29826 0.15367
#
# Static dielectric constant tensor:
#      x y z
#    x 3.998330 -0.063340 0.343260 
#    y -0.063340 3.973690 -0.012680 
#    z 0.343260 -0.012680 3.756070 
# 
# 
# High freq. dielectric constant tensor:
#      x y z
#    x 1.810570 0.005290 0.013630 
#    y 0.005290 1.801850 -0.006170 
#    z 0.013630 -0.006170 1.787040 
# 
# From -- ./inp_files/186723.got.cif
#   From: 2010.06.25/outbox.cif.g09.slc.cpg/sg2_94_cif.got.tgz:186723.got - 2010.06.27 13:26:56.
