data_PCOD8019034
_publ_section_title
;
Structure prediction by ZEFSAII (Michael W. Deem and Ramdas Pophale) SiO2 
 PCOD8019034
Probable space group: P -1
;
_chemical_formula_sum "Si O2"
_cell_formula_units_Z 14
_cell_length_a 11.587231
_cell_length_b 8.756929
_cell_length_c 8.535592
_cell_angle_alpha 128.844319
_cell_angle_beta 78.420863
_cell_angle_gamma 102.172966
_cell_volume 656.721263
_symmetry_space_group_name_H-M "P -1"
_symmetry_group_IT_number 2
_symmetry_cell_setting 'triclinic'
loop_
_space_group_symop_operation_xyz
x,y,z
-x,-y,-z
loop_
_atom_site_type_symbol
_atom_site_label
_atom_site_fract_x
_atom_site_fract_y
_atom_site_fract_z
Si Si1 0.740632 0.416629 0.876050
Si Si2 0.616456 0.650421 0.569229
Si Si3 0.446141 0.957393 0.317916
Si Si4 0.171797 0.533571 0.768620
Si Si5 0.657272 0.776832 0.991601
Si Si6 0.885156 0.082218 0.150773
Si Si7 0.951457 0.363538 0.568115
O O1 0.665779 0.205453 0.748287
O O2 0.654843 0.587519 0.984918
O O3 0.837698 0.442170 0.728478
O O4 0.807051 0.439275 0.036657
O O5 0.500000 0.500000 0.500000
O O6 0.716102 0.538692 0.391262
O O7 0.654057 0.706511 0.769874
O O8 0.599681 0.844996 0.603441
O O9 0.500000 0.000000 0.500000
O O10 0.543916 0.890094 0.129852
O O11 0.148753 0.742325 0.836754
O O12 0.058135 0.369252 0.668794
O O13 0.777009 0.914402 0.080283
O O14 0.913475 0.148694 0.365906
O O15 0.000000 0.000000 0.000000
O O16 0.000000 0.500000 0.500000
#
# Coordination Sequence:
#
# PCOD8019034 Si02
#       7
#     2   2   2   2   2   2   2
#     4  12  24  42  65  95 130 166 210 268 321 375
#     4  12  24  43  67  94 128 172 215 259 312 383
#     4  12  25  42  63  96 131 169 214 266 320 372
#     4  11  23  42  64  95 128 164 211 266 319 373
#     4  12  23  41  65  93 129 173 214 260 315 381
#     4  11  22  41  66  94 125 167 214 261 315 382
#     4  10  22  41  64  91 124 165 209 256 315 382
#
# _framework density 21.318024000000001
#
# number of rings (size 3 to 8) (size 9 to 14) (size 15 to 20)
#    0.000    0.571    0.000   10.714    0.000    0.000 
#    0.000    2.143    0.000    0.000    0.000    0.000 
#    0.000    0.000    0.000    0.000    0.000    0.000 
#
# Total GULP energy -173664.707201 kJ/mol
# GULP energy per Si atom -12404.621943 kJ/mol
# Density = 2.126950 g / cm^3
# Si number density = 21.318024 Si / 1000 Ang^3
#
#
#
# Elastic Constant Matrix: (Units=GPa)
#
#
# Indices 1 2 3 4 5 6 
#
# 1 141.2941 55.9369 72.0220 4.4142 2.4742 5.9420
# 2 55.9369 123.1081 56.6856 12.2269 7.3333 -14.3519
# 3 72.0220 56.6856 152.2107 -3.8524 12.3798 -1.0664
# 4 4.4142 12.2269 -3.8524 35.0735 -1.5153 -5.6680
# 5 2.4742 7.3333 12.3798 -1.5153 73.6180 1.0210
# 6 5.9420 -14.3519 -1.0664 -5.6680 1.0210 47.0625
#
#
#
# Elastic Compliance Matrix: (Units=1/GPa)
#
#
# Indices 1 2 3 4 5 6 
#
# 1 0.010426 -0.003203 -0.003834 -0.000996 0.000628 -0.002514
# 2 -0.003203 0.011677 -0.002839 -0.003444 -0.000698 0.003502
# 3 -0.003834 -0.002839 0.009600 0.002503 -0.001153 0.000162
# 4 -0.000996 -0.003444 0.002503 0.030589 0.000546 0.002804
# 5 0.000628 -0.000698 -0.001153 0.000546 0.013845 -0.000553
# 6 -0.002514 0.003502 0.000162 0.002804 -0.000553 0.022987
#
#
# Mechanical properties :
#
#
# Convention : Reuss Voigt Hill
#
# Bulk Modulus (GPa) = 83.68215 87.32244 85.50230
# Shear Modulus (GPa) = 40.69669 46.61537 43.65603
#
# Velocity S-wave (km/s) = 4.37398 4.68125 4.53022
# Velocity P-wave (km/s) = 8.05285 8.38269 8.21942
#
# Compressibility (1/GPa) = 0.01194998
#
# Stress axis : x y z
#
# Youngs Moduli (GPa) = 95.91617 85.63491 104.17052
#
# Poissons Ratio (x) = 0.27431 0.39940
# Poissons Ratio (y) = 0.30725 0.29575
# Poissons Ratio (z) = 0.36775 0.24312
#
# Static dielectric constant tensor:
#      x y z
#    x 4.230550 0.038240 0.251340 
#    y 0.038240 3.816020 0.061200 
#    z 0.251340 0.061200 4.356310 
# 
# 
# High freq. dielectric constant tensor:
#      x y z
#    x 1.859460 0.003320 0.006970 
#    y 0.003320 1.831370 -0.000310 
#    z 0.006970 -0.000310 1.862170 
# 
# From -- ./inp_files/186349.got.cif
#   From: 2010.06.25/outbox.cif.g09.slc.cpg/sg2_94_cif.got.tgz:186349.got - 2010.06.27 13:26:56.
