data_PCOD8019237
_publ_section_title
;
Structure prediction by ZEFSAII (Michael W. Deem and Ramdas Pophale) SiO2 
 PCOD8019237
Probable space group: P -1
;
_chemical_formula_sum "Si O2"
_cell_formula_units_Z 16
_cell_length_a 9.643918
_cell_length_b 15.213710
_cell_length_c 8.435752
_cell_angle_alpha 108.077984
_cell_angle_beta 69.774320
_cell_angle_gamma 141.545025
_cell_volume 720.594172
_symmetry_space_group_name_H-M "P -1"
_symmetry_group_IT_number 2
_symmetry_cell_setting 'triclinic'
loop_
_space_group_symop_operation_xyz
x,y,z
-x,-y,-z
loop_
_atom_site_type_symbol
_atom_site_label
_atom_site_fract_x
_atom_site_fract_y
_atom_site_fract_z
Si Si1 0.673429 0.395841 0.472191
Si Si2 0.126764 0.855900 0.658343
Si Si3 0.842411 0.321724 0.588463
Si Si4 0.398377 0.166632 0.192909
Si Si5 0.662848 0.679250 0.889672
Si Si6 0.131110 0.901877 0.326669
Si Si7 0.541203 0.106075 0.837423
Si Si8 0.342182 0.365669 0.772602
O O1 0.760783 0.376454 0.571933
O O2 0.589805 0.292365 0.305817
O O3 0.475605 0.369158 0.592292
O O4 0.888778 0.555898 0.415897
O O5 0.224188 0.799414 0.557212
O O6 0.092545 0.893265 0.525855
O O7 0.891887 0.735881 0.779224
O O8 0.306378 0.995175 0.771551
O O9 0.717373 0.258788 0.770076
O O10 0.328035 0.213690 0.125459
O O11 0.180877 0.026864 0.301687
O O12 0.498517 0.126224 0.038715
O O13 0.447989 0.518922 0.820882
O O14 0.646233 0.677596 0.084898
O O15 0.350757 0.944190 0.223966
O O16 0.915626 0.750907 0.247278
#
# Coordination Sequence:
#
# PCOD8019237 Si02
#       8
#     2   2   2   2   2   2   2   2
#     4  11  23  41  68  95 137 168 226 266 328 393
#     4  11  22  44  72  95 135 174 222 267 332 393
#     4  10  22  41  66 100 127 178 216 274 325 389
#     4  12  26  42  66 102 133 176 218 277 324 392
#     4  11  26  43  69  98 132 179 216 276 334 384
#     4  11  25  43  70  99 131 178 221 270 329 393
#     4  11  24  43  66  98 137 172 221 269 333 386
#     4  11  25  47  66  96 136 174 224 269 331 398
#
# _framework density 22.203897000000001
#
# number of rings (size 3 to 8) (size 9 to 14) (size 15 to 20)
#    0.000    1.000    1.250    5.625    3.500    7.500 
#    2.250    0.000    0.000    0.000    0.000    0.000 
#    0.000    0.000    0.000    0.000    0.000    0.000 
#
# Total GULP energy -198472.069404 kJ/mol
# GULP energy per Si atom -12404.504338 kJ/mol
# Density = 2.215336 g / cm^3
# Si number density = 22.203897 Si / 1000 Ang^3
#
#
#
# Elastic Constant Matrix: (Units=GPa)
#
#
# Indices 1 2 3 4 5 6 
#
# 1 57.3203 38.3918 3.9318 2.9490 14.4823 6.7967
# 2 38.3918 140.1839 54.7314 -3.0107 19.2243 2.9265
# 3 3.9318 54.7314 107.7432 13.5442 11.3914 17.3470
# 4 2.9490 -3.0107 13.5442 34.7713 2.1840 5.0535
# 5 14.4823 19.2243 11.3914 2.1840 24.6609 -1.5541
# 6 6.7967 2.9265 17.3470 5.0535 -1.5541 33.8510
#
#
#
# Elastic Compliance Matrix: (Units=1/GPa)
#
#
# Indices 1 2 3 4 5 6 
#
# 1 0.026493 -0.007794 0.005980 -0.003339 -0.012440 -0.007783
# 2 -0.007794 0.012178 -0.006722 0.003981 -0.001958 0.003273
# 3 0.005980 -0.006722 0.014953 -0.005469 -0.005180 -0.007704
# 4 -0.003339 0.003981 -0.005469 0.031861 -0.001545 -0.001699
# 5 -0.012440 -0.001958 -0.005180 -0.001545 0.052413 0.007959
# 6 -0.007783 0.003273 -0.007704 -0.001699 0.007959 0.035388
#
#
# Mechanical properties :
#
#
# Convention : Reuss Voigt Hill
#
# Bulk Modulus (GPa) = 27.35714 55.48416 41.42065
# Shear Modulus (GPa) = 24.68611 32.53614 28.61113
#
# Velocity S-wave (km/s) = 3.33797 3.83212 3.59355
# Velocity P-wave (km/s) = 5.21572 6.68004 5.99277
#
# Compressibility (1/GPa) = 0.03655353
#
# Stress axis : x y z
#
# Youngs Moduli (GPa) = 37.74525 82.11425 66.87440
#
# Poissons Ratio (x) = 0.63998 -0.39993
# Poissons Ratio (y) = 0.29418 0.44955
# Poissons Ratio (z) = -0.22573 0.55199
#
# Static dielectric constant tensor:
#      x y z
#    x 3.772070 -0.036160 0.067290 
#    y -0.036160 4.208460 -0.197300 
#    z 0.067290 -0.197300 3.989780 
# 
# 
# High freq. dielectric constant tensor:
#      x y z
#    x 1.865340 -0.002010 0.005500 
#    y -0.002010 1.892650 -0.010310 
#    z 0.005500 -0.010310 1.878050 
# 
# From -- ./inp_files/208238.got.cif
#   From: 2010.06.25/outbox.cif.g09.slc.cpg/sg2_105_cif.got.tgz:208238.got - 2010.06.27 13:26:56.
