data_PCOD8019471
_publ_section_title
;
Structure prediction by ZEFSAII (Michael W. Deem and Ramdas Pophale) SiO2 
 PCOD8019471
Probable space group: P -1
;
_chemical_formula_sum "Si O2"
_cell_formula_units_Z 16
_cell_length_a 7.932166
_cell_length_b 6.617211
_cell_length_c 19.978690
_cell_angle_alpha 58.534110
_cell_angle_beta 52.664944
_cell_angle_gamma 84.014108
_cell_volume 675.441104
_symmetry_space_group_name_H-M "P -1"
_symmetry_group_IT_number 2
_symmetry_cell_setting 'triclinic'
loop_
_space_group_symop_operation_xyz
x,y,z
-x,-y,-z
loop_
_atom_site_type_symbol
_atom_site_label
_atom_site_fract_x
_atom_site_fract_y
_atom_site_fract_z
Si Si1 0.195031 0.869684 0.470264
Si Si2 0.833539 0.154988 0.002909
Si Si3 0.859915 0.643082 0.358408
Si Si4 0.473432 0.665805 0.171301
Si Si5 0.953817 0.481216 0.788503
Si Si6 0.729562 0.166866 0.690980
Si Si7 0.681089 0.274724 0.153439
Si Si8 0.686504 0.060081 0.324841
O O1 0.165567 0.641120 0.567361
O O2 0.204608 0.748666 0.415856
O O3 0.435256 0.076838 0.393190
O O4 0.000000 0.000000 0.500000
O O5 0.834432 0.308527 0.044843
O O6 0.589889 0.960418 0.076871
O O7 0.910175 0.363128 0.892332
O O8 0.000000 0.000000 0.000000
O O9 0.928279 0.676034 0.258303
O O10 0.051661 0.835531 0.322141
O O11 0.660051 0.764035 0.394182
O O12 0.279099 0.531603 0.188849
O O13 0.378743 0.646578 0.274182
O O14 0.667034 0.535550 0.141383
O O15 0.129052 0.760987 0.701892
O O16 0.568760 0.885966 0.779362
O O17 0.766676 0.133114 0.216470
#
# Coordination Sequence:
#
# PCOD8019471 Si02
#       8
#     2   2   2   2   2   2   2   2
#     4  11  26  46  72 100 130 178 228 279 342 407
#     4  11  23  41  65 103 137 181 229 276 331 398
#     4  11  24  45  66  98 136 178 221 279 338 399
#     4  10  22  42  70  97 138 176 226 278 336 398
#     4  11  25  42  68  98 138 179 221 279 335 398
#     4   9  22  42  69  96 131 172 223 275 337 400
#     4  10  22  41  68 100 134 181 227 273 331 402
#     4  11  25  43  67  97 137 176 222 281 338 397
#
# _framework density 23.688222
#
# number of rings (size 3 to 8) (size 9 to 14) (size 15 to 20)
#    0.000    1.500    0.000    3.375    8.750    6.000 
#    2.250    0.000    0.000    0.000    0.000    0.000 
#    0.000    0.000    0.000    0.000    0.000    0.000 
#
# Total GULP energy -198253.489881 kJ/mol
# GULP energy per Si atom -12390.843118 kJ/mol
# Density = 2.363431 g / cm^3
# Si number density = 23.688222 Si / 1000 Ang^3
#
#
#
# Elastic Constant Matrix: (Units=GPa)
#
#
# Indices 1 2 3 4 5 6 
#
# 1 91.6542 61.1486 35.2127 1.0855 -5.6373 6.9909
# 2 61.1486 122.1706 50.2099 6.8894 5.6038 -15.7199
# 3 35.2127 50.2099 88.7838 14.1740 10.0075 -1.2640
# 4 1.0855 6.8894 14.1740 43.9065 3.7472 -7.0442
# 5 -5.6373 5.6038 10.0075 3.7472 32.2598 -3.8448
# 6 6.9909 -15.7199 -1.2640 -7.0442 -3.8448 45.3004
#
#
#
# Elastic Compliance Matrix: (Units=1/GPa)
#
#
# Indices 1 2 3 4 5 6 
#
# 1 0.019006 -0.009259 -0.003060 0.000619 0.005128 -0.005700
# 2 -0.009259 0.015813 -0.005041 0.000627 -0.002076 0.006697
# 3 -0.003060 -0.005041 0.016507 -0.004380 -0.004495 -0.001879
# 4 0.000619 0.000627 -0.004380 0.024771 -0.001071 0.003761
# 5 0.005128 -0.002076 -0.004495 -0.001071 0.033902 0.001074
# 6 -0.005700 0.006697 -0.001879 0.003761 0.001074 0.025902
#
#
# Mechanical properties :
#
#
# Convention : Reuss Voigt Hill
#
# Bulk Modulus (GPa) = 60.21825 66.19454 63.20640
# Shear Modulus (GPa) = 28.38396 34.69582 31.53989
#
# Velocity S-wave (km/s) = 3.46530 3.83127 3.65287
# Velocity P-wave (km/s) = 6.44108 6.89756 6.67322
#
# Compressibility (1/GPa) = 0.01660626
#
# Stress axis : x y z
#
# Youngs Moduli (GPa) = 52.61450 63.23931 60.58048
#
# Poissons Ratio (x) = 0.58553 0.18536
# Poissons Ratio (y) = 0.48715 0.30540
# Poissons Ratio (z) = 0.16099 0.31880
#
# Static dielectric constant tensor:
#      x y z
#    x 4.381530 0.230680 -0.102730 
#    y 0.230680 4.242980 0.138220 
#    z -0.102730 0.138220 4.398750 
# 
# 
# High freq. dielectric constant tensor:
#      x y z
#    x 1.941610 0.017360 -0.013110 
#    y 0.017360 1.938220 0.006180 
#    z -0.013110 0.006180 1.936680 
# 
# From -- ./inp_files/585531.got.cif
#   From: 2010.06.25/outbox.cif.g09.slc.cpg/sg2_293_cif.got.tgz:585531.got - 2010.06.27 13:26:56.
