data_PCOD8019146
_publ_section_title
;
Structure prediction by ZEFSAII (Michael W. Deem and Ramdas Pophale) SiO2 
 PCOD8019146
Probable space group: P -1
;
_chemical_formula_sum "Si O2"
_cell_formula_units_Z 16
_cell_length_a 15.810009
_cell_length_b 11.731267
_cell_length_c 8.415991
_cell_angle_alpha 97.881883
_cell_angle_beta 97.800928
_cell_angle_gamma 28.174807
_cell_volume 729.681136
_symmetry_space_group_name_H-M "P -1"
_symmetry_group_IT_number 2
_symmetry_cell_setting 'triclinic'
loop_
_space_group_symop_operation_xyz
x,y,z
-x,-y,-z
loop_
_atom_site_type_symbol
_atom_site_label
_atom_site_fract_x
_atom_site_fract_y
_atom_site_fract_z
Si Si1 0.077259 0.347054 0.646878
Si Si2 0.712162 0.815126 0.757500
Si Si3 0.675786 0.303037 0.798405
Si Si4 0.952873 0.133015 0.664132
Si Si5 0.288041 0.839226 0.872214
Si Si6 0.355873 0.015118 0.894455
Si Si7 0.367144 0.331755 0.346980
Si Si8 0.671758 0.075737 0.571226
O O1 0.239447 0.216650 0.762549
O O2 0.000000 0.500000 0.500000
O O3 0.917398 0.526146 0.766585
O O4 0.171139 0.119002 0.559848
O O5 0.616586 0.824506 0.638172
O O6 0.700677 0.950870 0.695985
O O7 0.631238 0.921020 0.934011
O O8 0.831420 0.206403 0.771802
O O9 0.480856 0.592137 0.791367
O O10 0.675586 0.199375 0.655154
O O11 0.716720 0.210272 0.965603
O O12 0.837046 0.383088 0.636114
O O13 0.000000 0.000000 0.500000
O O14 0.136826 0.954807 0.755248
O O15 0.253081 0.017360 0.910556
O O16 0.554794 0.751075 0.829317
O O17 0.479112 0.276014 0.486652
#
# Coordination Sequence:
#
# PCOD8019146 Si02
#       8
#     2   2   2   2   2   2   2   2
#     4   9  21  37  60  89 129 165 216 268 328 395
#     4  11  21  40  63  96 125 175 222 268 333 396
#     4  11  24  46  70  96 136 176 228 273 343 393
#     4  12  27  42  69 104 130 176 225 276 341 403
#     4  11  24  45  70  96 136 177 222 284 328 404
#     4  11  21  41  65  93 131 178 217 275 339 386
#     4  11  24  40  62  96 135 167 224 277 327 407
#     4  10  22  41  65  90 131 177 211 276 337 389
#
# _framework density 21.927387
#
# number of rings (size 3 to 8) (size 9 to 14) (size 15 to 20)
#    0.000    1.250    2.500    3.000    5.250    1.000 
#    0.000    0.000    0.000    0.000    0.000    0.000 
#    0.000    0.000    0.000    0.000    0.000    0.000 
#
# Total GULP energy -198275.500712 kJ/mol
# GULP energy per Si atom -12392.218794 kJ/mol
# Density = 2.187748 g / cm^3
# Si number density = 21.927387 Si / 1000 Ang^3
#
#
#
# Elastic Constant Matrix: (Units=GPa)
#
#
# Indices 1 2 3 4 5 6 
#
# 1 61.1006 7.7594 -7.0881 0.3647 9.2666 -0.3086
# 2 7.7594 107.5635 41.6874 1.8376 -0.7992 -11.7994
# 3 -7.0881 41.6874 86.8513 10.3898 9.4562 -1.2628
# 4 0.3647 1.8376 10.3898 36.2829 -5.1538 -0.7472
# 5 9.2666 -0.7992 9.4562 -5.1538 34.5520 8.3295
# 6 -0.3086 -11.7994 -1.2628 -0.7472 8.3295 33.5273
#
#
#
# Elastic Compliance Matrix: (Units=1/GPa)
#
#
# Indices 1 2 3 4 5 6 
#
# 1 0.018132 -0.002659 0.003714 -0.002010 -0.006466 0.000933
# 2 -0.002659 0.012412 -0.006558 0.001659 0.002176 0.003593
# 3 0.003714 -0.006558 0.016283 -0.005273 -0.006342 -0.000202
# 4 -0.002010 0.001659 -0.005273 0.029937 0.006634 -0.000614
# 5 -0.006466 0.002176 -0.006342 0.006634 0.035425 -0.008185
# 6 0.000933 0.003593 -0.000202 -0.000614 -0.008185 0.033112
#
#
# Mechanical properties :
#
#
# Convention : Reuss Voigt Hill
#
# Bulk Modulus (GPa) = 27.91568 37.80364 32.85966
# Shear Modulus (GPa) = 29.71821 35.08289 32.40055
#
# Velocity S-wave (km/s) = 3.68544 4.00429 3.84816
# Velocity P-wave (km/s) = 5.55594 6.21747 5.89599
#
# Compressibility (1/GPa) = 0.03582216
#
# Stress axis : x y z
#
# Youngs Moduli (GPa) = 55.15043 80.56607 61.41359
#
# Poissons Ratio (x) = 0.21421 -0.22809
# Poissons Ratio (y) = 0.14663 0.40274
# Poissons Ratio (z) = -0.20483 0.52834
#
# Static dielectric constant tensor:
#      x y z
#    x 3.923920 -0.076110 -0.080450 
#    y -0.076110 4.225740 0.170550 
#    z -0.080450 0.170550 3.997460 
# 
# 
# High freq. dielectric constant tensor:
#      x y z
#    x 1.859910 -0.004330 -0.000610 
#    y -0.004330 1.871100 0.010420 
#    z -0.000610 0.010420 1.865490 
# 
# From -- ./inp_files/269897.got.cif
#   From: 2010.06.25/outbox.cif.g09.slc.cpg/sg2_135_cif.got.tgz:269897.got - 2010.06.27 13:26:56.
