data_PCOD8019960
_publ_section_title
;
Structure prediction by ZEFSAII (Michael W. Deem and Ramdas Pophale) SiO2 
 PCOD8019960
Probable space group: P -1
;
_chemical_formula_sum "Si O2"
_cell_formula_units_Z 16
_cell_length_a 11.665734
_cell_length_b 12.303626
_cell_length_c 11.733779
_cell_angle_alpha 99.050632
_cell_angle_beta 104.233357
_cell_angle_gamma 144.759401
_cell_volume 723.531976
_symmetry_space_group_name_H-M "P -1"
_symmetry_group_IT_number 2
_symmetry_cell_setting 'triclinic'
loop_
_space_group_symop_operation_xyz
x,y,z
-x,-y,-z
loop_
_atom_site_type_symbol
_atom_site_label
_atom_site_fract_x
_atom_site_fract_y
_atom_site_fract_z
Si Si1 0.127697 0.905355 0.817705
Si Si2 0.609476 0.898307 0.709985
Si Si3 0.918415 0.377038 0.841978
Si Si4 0.756407 0.912342 0.348952
Si Si5 0.326545 0.640381 0.359606
Si Si6 0.736305 0.650898 0.311420
Si Si7 0.171635 0.143995 0.179985
Si Si8 0.632495 0.338374 0.154774
O O1 0.953338 0.651460 0.741851
O O2 0.950902 0.868717 0.766837
O O3 0.289301 0.043726 0.761361
O O4 0.332486 0.074716 0.998308
O O5 0.454836 0.772391 0.533375
O O6 0.811647 0.962948 0.776379
O O7 0.386124 0.709174 0.723761
O O8 0.787557 0.153656 0.805970
O O9 0.711392 0.278157 0.705124
O O10 0.172993 0.575814 0.855338
O O11 0.000000 0.500000 0.000000
O O12 0.516763 0.720447 0.346502
O O13 0.773631 0.801164 0.287854
O O14 0.025926 0.175092 0.515950
O O15 0.467688 0.428770 0.279019
O O16 0.727477 0.544763 0.198977
O O17 0.000000 0.000000 0.000000
#
# Coordination Sequence:
#
# PCOD8019960 Si02
#       8
#     2   2   2   2   2   2   2   2
#     4  12  24  40  71 103 139 186 222 286 347 410
#     4  11  26  46  72 102 139 187 226 290 342 411
#     4  12  28  48  75  99 137 187 236 292 339 405
#     4  11  25  40  65 104 141 180 229 279 346 414
#     4  12  27  47  70 103 145 184 233 281 345 410
#     4  10  22  42  63  99 144 179 224 285 338 415
#     4  11  22  42  70 103 145 178 226 280 354 412
#     4  11  25  46  68 104 136 178 239 283 341 413
#
# _framework density 22.113742999999999
#
# number of rings (size 3 to 8) (size 9 to 14) (size 15 to 20)
#    0.000    0.750    3.750    4.125    5.250    6.000 
#    0.000    0.000    0.000    0.000    0.000    0.000 
#    0.000    0.000    0.000    0.000    0.000    0.000 
#
# Total GULP energy -198433.971914 kJ/mol
# GULP energy per Si atom -12402.123245 kJ/mol
# Density = 2.206341 g / cm^3
# Si number density = 22.113743 Si / 1000 Ang^3
#
#
#
# Elastic Constant Matrix: (Units=GPa)
#
#
# Indices 1 2 3 4 5 6 
#
# 1 102.7564 30.5462 37.3749 -1.7193 -2.2393 2.2187
# 2 30.5462 99.4456 35.3865 -0.4708 -5.9100 -8.2511
# 3 37.3749 35.3865 118.0111 0.0036 0.7496 -13.3008
# 4 -1.7193 -0.4708 0.0036 40.4692 -5.9592 -11.5258
# 5 -2.2393 -5.9100 0.7496 -5.9592 33.2280 -5.4130
# 6 2.2187 -8.2511 -13.3008 -11.5258 -5.4130 37.6435
#
#
#
# Elastic Compliance Matrix: (Units=1/GPa)
#
#
# Indices 1 2 3 4 5 6 
#
# 1 0.011739 -0.002681 -0.003195 -0.000252 -0.000065 -0.002495
# 2 -0.002681 0.012162 -0.002512 0.001189 0.002690 0.002687
# 3 -0.003195 -0.002512 0.010650 0.000847 -0.000158 0.003637
# 4 -0.000252 0.001189 0.000847 0.028699 0.007012 0.010370
# 5 -0.000065 0.002690 -0.000158 0.007012 0.033042 0.007436
# 6 -0.002495 0.002687 0.003637 0.010370 0.007436 0.032831
#
#
# Mechanical properties :
#
#
# Convention : Reuss Voigt Hill
#
# Bulk Modulus (GPa) = 56.25903 58.53649 57.39776
# Shear Modulus (GPa) = 32.93337 36.72851 34.83094
#
# Velocity S-wave (km/s) = 3.86329 4.07982 3.97303
# Velocity P-wave (km/s) = 6.73766 6.98007 6.85994
#
# Compressibility (1/GPa) = 0.01777492
#
# Stress axis : x y z
#
# Youngs Moduli (GPa) = 85.18653 82.22621 93.89968
#
# Poissons Ratio (x) = 0.22046 0.29997
# Poissons Ratio (y) = 0.22840 0.23586
# Poissons Ratio (z) = 0.27214 0.20654
#
# Static dielectric constant tensor:
#      x y z
#    x 4.275130 -0.098710 -0.066640 
#    y -0.098710 3.978350 0.081880 
#    z -0.066640 0.081880 3.944990 
# 
# 
# High freq. dielectric constant tensor:
#      x y z
#    x 1.870410 -0.001310 -0.004970 
#    y -0.001310 1.879540 0.005900 
#    z -0.004970 0.005900 1.875720 
# 
# From -- ./inp_files/428417.got.cif
#   From: 2010.06.25/outbox.cif.g09.slc.cpg/sg2_215_cif.got.tgz:428417.got - 2010.06.27 13:26:56.
