data_PCOD8019637
_publ_section_title
;
Structure prediction by ZEFSAII (Michael W. Deem and Ramdas Pophale) SiO2 
 PCOD8019637
Probable space group: P -1
;
_chemical_formula_sum "Si O2"
_cell_formula_units_Z 16
_cell_length_a 22.159883
_cell_length_b 8.387022
_cell_length_c 9.980082
_cell_angle_alpha 90.284927
_cell_angle_beta 52.512744
_cell_angle_gamma 134.204958
_cell_volume 712.838288
_symmetry_space_group_name_H-M "P -1"
_symmetry_group_IT_number 2
_symmetry_cell_setting 'triclinic'
loop_
_space_group_symop_operation_xyz
x,y,z
-x,-y,-z
loop_
_atom_site_type_symbol
_atom_site_label
_atom_site_fract_x
_atom_site_fract_y
_atom_site_fract_z
Si Si1 0.943387 0.572914 0.108399
Si Si2 0.156128 0.016371 0.355188
Si Si3 0.980889 0.771302 0.338120
Si Si4 0.415420 0.003380 0.441195
Si Si5 0.291093 0.915238 0.159165
Si Si6 0.598391 0.035861 0.254496
Si Si7 0.547487 0.265606 0.985956
Si Si8 0.057294 0.252757 0.154560
O O1 0.757823 0.264156 0.372590
O O2 0.018657 0.742783 0.152340
O O3 0.000000 0.500000 0.000000
O O4 0.002131 0.797410 0.911404
O O5 0.125167 0.019276 0.246471
O O6 0.209772 0.934471 0.275059
O O7 0.996836 0.719971 0.657992
O O8 0.272567 0.352803 0.276218
O O9 0.822317 0.429615 0.629003
O O10 0.965330 0.923747 0.312916
O O11 0.452458 0.148423 0.538787
O O12 0.454495 0.884486 0.401711
O O13 0.526842 0.263266 0.172098
O O14 0.444514 0.203374 0.044758
O O15 0.351380 0.993652 0.927825
O O16 0.754286 0.421927 0.091350
O O17 0.500000 0.000000 0.000000
#
# Coordination Sequence:
#
# PCOD8019637 Si02
#       8
#     2   2   2   2   2   2   2   2
#     4  11  25  44  70 103 142 180 226 290 353 410
#     4  12  27  42  70 106 141 178 236 293 345 412
#     4  12  24  43  72 102 138 183 233 287 342 416
#     4  10  22  41  69  95 134 184 232 272 349 412
#     4  12  24  43  68 102 140 185 230 288 358 397
#     4  10  22  41  69  99 136 181 230 288 337 418
#     4  12  24  45  70  98 139 186 233 284 346 418
#     4  11  24  42  68 106 138 178 239 278 344 411
#
# _framework density 22.445482999999999
#
# number of rings (size 3 to 8) (size 9 to 14) (size 15 to 20)
#    0.000    0.750    3.750    3.750    3.500    0.000 
#    0.000    1.875    0.000    0.000    0.000    0.000 
#    0.000    0.000    0.000    0.000    0.000    0.000 
#
# Total GULP energy -198258.883471 kJ/mol
# GULP energy per Si atom -12391.180217 kJ/mol
# Density = 2.239440 g / cm^3
# Si number density = 22.445483 Si / 1000 Ang^3
#
#
#
# Elastic Constant Matrix: (Units=GPa)
#
#
# Indices 1 2 3 4 5 6 
#
# 1 108.1669 37.9469 51.7571 6.5293 -1.0660 8.8280
# 2 37.9469 70.6148 38.6148 10.5484 -4.5223 12.7637
# 3 51.7571 38.6148 113.8281 28.8634 -1.2323 2.1853
# 4 6.5293 10.5484 28.8634 44.5231 8.0951 2.1859
# 5 -1.0660 -4.5223 -1.2323 8.0951 47.8325 11.0006
# 6 8.8280 12.7637 2.1853 2.1859 11.0006 36.1488
#
#
#
# Elastic Compliance Matrix: (Units=1/GPa)
#
#
# Indices 1 2 3 4 5 6 
#
# 1 0.013216 -0.004456 -0.005129 0.002579 -0.000377 -0.001385
# 2 -0.004456 0.020704 -0.004386 -0.001728 0.003638 -0.006959
# 3 -0.005129 -0.004386 0.014570 -0.007885 0.000677 0.002191
# 4 0.002579 -0.001728 -0.007885 0.028535 -0.005211 0.000317
# 5 -0.000377 0.003638 0.000677 -0.005211 0.024035 -0.008232
# 6 -0.001385 -0.006959 0.002191 0.000317 -0.008232 0.032813
#
#
# Mechanical properties :
#
#
# Convention : Reuss Voigt Hill
#
# Bulk Modulus (GPa) = 48.66959 61.02751 54.84855
# Shear Modulus (GPa) = 29.64487 36.65361 33.14924
#
# Velocity S-wave (km/s) = 3.63816 4.04543 3.84719
# Velocity P-wave (km/s) = 6.27525 7.00492 6.65010
#
# Compressibility (1/GPa) = 0.02054671
#
# Stress axis : x y z
#
# Youngs Moduli (GPa) = 75.66449 48.30094 68.63510
#
# Poissons Ratio (x) = 0.21525 0.35204
# Poissons Ratio (y) = 0.33719 0.30103
# Poissons Ratio (z) = 0.38809 0.21185
#
# Static dielectric constant tensor:
#      x y z
#    x 4.270890 0.389000 0.166330 
#    y 0.389000 3.830300 0.298820 
#    z 0.166330 0.298820 4.347520 
# 
# 
# High freq. dielectric constant tensor:
#      x y z
#    x 1.897590 0.025090 -0.002430 
#    y 0.025090 1.855390 0.022920 
#    z -0.002430 0.022920 1.902150 
# 
# From -- ./inp_files/207380.got.cif
#   From: 2010.06.25/outbox.cif.g09.slc.cpg/sg2_104_cif.got.tgz:207380.got - 2010.06.27 13:26:56.
