data_PCOD8019737
_publ_section_title
;
Structure prediction by ZEFSAII (Michael W. Deem and Ramdas Pophale) SiO2 
 PCOD8019737
Probable space group: P -1
;
_chemical_formula_sum "Si O2"
_cell_formula_units_Z 16
_cell_length_a 8.873077
_cell_length_b 8.756807
_cell_length_c 11.989092
_cell_angle_alpha 120.576464
_cell_angle_beta 58.206384
_cell_angle_gamma 113.476811
_cell_volume 670.771828
_symmetry_space_group_name_H-M "P -1"
_symmetry_group_IT_number 2
_symmetry_cell_setting 'triclinic'
loop_
_space_group_symop_operation_xyz
x,y,z
-x,-y,-z
loop_
_atom_site_type_symbol
_atom_site_label
_atom_site_fract_x
_atom_site_fract_y
_atom_site_fract_z
Si Si1 0.802683 0.742120 0.672524
Si Si2 0.200219 0.086798 0.482106
Si Si3 0.217199 0.893170 0.608280
Si Si4 0.860051 0.569338 0.236488
Si Si5 0.234735 0.525955 0.000631
Si Si6 0.443584 0.159532 0.010716
Si Si7 0.672709 0.427020 0.454865
Si Si8 0.819444 0.889278 0.084811
O O1 0.718788 0.861991 0.653630
O O2 0.703448 0.756175 0.831732
O O3 0.758835 0.539665 0.569126
O O4 0.015417 0.786140 0.627002
O O5 0.206010 0.260148 0.621722
O O6 0.294197 0.958008 0.478468
O O7 0.000000 0.000000 0.500000
O O8 0.359162 0.777510 0.562114
O O9 0.198149 0.057813 0.759777
O O10 0.741103 0.491505 0.147939
O O11 0.819411 0.422168 0.296789
O O12 0.065975 0.618074 0.135238
O O13 0.404305 0.673839 0.027433
O O14 0.199108 0.328526 0.997257
O O15 0.349067 0.065143 0.902147
O O16 0.500000 0.000000 0.000000
O O17 0.500000 0.500000 0.500000
O O18 0.000000 0.000000 0.000000
#
# Coordination Sequence:
#
# PCOD8019737 Si02
#       8
#     2   2   2   2   2   2   2   2
#     4  10  23  45  70 101 147 189 242 292 369 439
#     4   9  20  40  69 101 137 181 248 292 349 442
#     4  11  22  43  74 105 137 192 246 296 368 441
#     4  10  22  41  71 103 142 193 233 292 379 431
#     4  11  25  44  73 106 151 189 243 303 364 433
#     4  12  29  45  73 112 149 192 243 312 366 429
#     4  11  24  43  70 107 144 186 243 309 368 435
#     4  12  25  46  75 105 149 192 248 300 366 448
#
# _framework density 23.853119
#
# number of rings (size 3 to 8) (size 9 to 14) (size 15 to 20)
#    0.000    1.250    2.500    2.250   10.500    0.000 
#    0.000    5.000    0.000    0.000    0.000    0.000 
#    0.000    0.000    0.000    0.000    0.000    0.000 
#
# Total GULP energy -198213.995315 kJ/mol
# GULP energy per Si atom -12388.374707 kJ/mol
# Density = 2.379883 g / cm^3
# Si number density = 23.853119 Si / 1000 Ang^3
#
#
#
# Elastic Constant Matrix: (Units=GPa)
#
#
# Indices 1 2 3 4 5 6 
#
# 1 107.6428 40.1311 19.7302 8.1003 11.9727 -1.5562
# 2 40.1311 134.0108 2.7039 -3.5115 0.4894 -4.3553
# 3 19.7302 2.7039 58.1258 -10.7668 14.5580 4.9258
# 4 8.1003 -3.5115 -10.7668 28.4359 -0.4664 7.7703
# 5 11.9727 0.4894 14.5580 -0.4664 31.5040 1.3579
# 6 -1.5562 -4.3553 4.9258 7.7703 1.3579 52.1173
#
#
#
# Elastic Compliance Matrix: (Units=1/GPa)
#
#
# Indices 1 2 3 4 5 6 
#
# 1 0.012286 -0.003690 -0.004601 -0.006145 -0.002641 0.001478
# 2 -0.003690 0.008611 0.001112 0.002519 0.000787 0.000108
# 3 -0.004601 0.001112 0.023263 0.011117 -0.008695 -0.003674
# 4 -0.006145 0.002519 0.011117 0.043443 -0.001877 -0.007452
# 5 -0.002641 0.000787 -0.008695 -0.001877 0.036718 0.000132
# 6 0.001478 0.000108 -0.003674 -0.007452 0.000132 0.020696
#
#
# Mechanical properties :
#
#
# Convention : Reuss Voigt Hill
#
# Bulk Modulus (GPa) = 33.55387 47.21220 40.38303
# Shear Modulus (GPa) = 29.53183 38.22571 33.87877
#
# Velocity S-wave (km/s) = 3.52244 4.00752 3.77279
# Velocity P-wave (km/s) = 5.53542 6.42258 5.99543
#
# Compressibility (1/GPa) = 0.02980282
#
# Stress axis : x y z
#
# Youngs Moduli (GPa) = 81.39048 116.12718 42.98746
#
# Poissons Ratio (x) = 0.42849 0.19779
# Poissons Ratio (y) = 0.30032 -0.04781
# Poissons Ratio (z) = 0.37448 -0.12915
#
# Static dielectric constant tensor:
#      x y z
#    x 4.265330 -0.088190 0.412490 
#    y -0.088190 4.410820 -0.215070 
#    z 0.412490 -0.215070 4.359460 
# 
# 
# High freq. dielectric constant tensor:
#      x y z
#    x 1.945120 0.003840 0.025100 
#    y 0.003840 1.956620 -0.008320 
#    z 0.025100 -0.008320 1.939600 
# 
# From -- ./inp_files/383133.got.cif
#   From: 2010.06.25/outbox.cif.g09.slc.cpg/sg2_192_cif.got.tgz:383133.got - 2010.06.27 13:26:56.
