data_PCOD8019165
_publ_section_title
;
Structure prediction by ZEFSAII (Michael W. Deem and Ramdas Pophale) SiO2 
 PCOD8019165
Probable space group: P -1
;
_chemical_formula_sum "Si O2"
_cell_formula_units_Z 16
_cell_length_a 23.581191
_cell_length_b 7.835917
_cell_length_c 29.433449
_cell_angle_alpha 127.403841
_cell_angle_beta 168.871833
_cell_angle_gamma 53.905258
_cell_volume 833.010212
_symmetry_space_group_name_H-M "P -1"
_symmetry_group_IT_number 2
_symmetry_cell_setting 'triclinic'
loop_
_space_group_symop_operation_xyz
x,y,z
-x,-y,-z
loop_
_atom_site_type_symbol
_atom_site_label
_atom_site_fract_x
_atom_site_fract_y
_atom_site_fract_z
Si Si1 0.707483 0.949994 0.113171
Si Si2 0.177464 0.196488 0.308136
Si Si3 0.877658 0.697645 0.860314
Si Si4 0.302449 0.671751 0.895083
Si Si5 0.246254 0.215703 0.561990
Si Si6 0.641084 0.252610 0.610435
Si Si7 0.721536 0.441434 0.038084
Si Si8 0.263933 0.927779 0.135458
O O1 0.704389 0.696509 0.061027
O O2 0.043848 0.038070 0.402172
O O3 0.500000 0.000000 0.000000
O O4 0.599841 0.084078 0.005669
O O5 0.499591 0.260086 0.551242
O O6 0.191811 0.962839 0.304671
O O7 0.048096 0.370216 0.268963
O O8 0.952756 0.183718 0.088448
O O9 0.892217 0.443689 0.838467
O O10 0.606126 0.731070 0.618855
O O11 0.801949 0.822294 0.867546
O O12 0.191484 0.794700 0.103799
O O13 0.334235 0.648563 0.970052
O O14 0.500000 0.500000 0.000000
O O15 0.967814 0.620783 0.605598
O O16 0.465876 0.338460 0.788766
O O17 0.407953 0.094301 0.628388
#
# Coordination Sequence:
#
# PCOD8019165 Si02
#       8
#     2   2   2   2   2   2   2   2
#     4  10  22  41  66  92 120 158 203 250 311 371
#     4   9  20  34  53  79 115 147 197 239 298 351
#     4   9  18  31  57  76 112 155 188 239 290 350
#     4  10  22  41  65  93 120 157 207 247 305 380
#     4   9  23  40  61  93 125 156 205 259 299 368
#     4   9  18  33  51  83 108 154 193 234 292 353
#     4  11  21  44  62  89 129 163 195 266 301 358
#     4   9  18  36  51  79 115 148 191 245 294 345
#
# _framework density 19.207446999999998
#
# number of rings (size 3 to 8) (size 9 to 14) (size 15 to 20)
#    0.750    1.750    1.250    0.000    3.500    2.500 
#    9.000    2.500    0.000    0.000    0.000    0.000 
#    0.000    0.000    0.000    0.000    0.000    0.000 
#
# Total GULP energy -198211.088303 kJ/mol
# GULP energy per Si atom -12388.193019 kJ/mol
# Density = 1.916373 g / cm^3
# Si number density = 19.207447 Si / 1000 Ang^3
#
#
#
# Elastic Constant Matrix: (Units=GPa)
#
#
# Indices 1 2 3 4 5 6 
#
# 1 101.5745 64.0870 34.1632 -8.8543 12.9676 -8.4117
# 2 64.0870 155.9847 36.5771 -4.6800 18.8662 -0.5196
# 3 34.1632 36.5771 74.8084 -3.1756 21.2901 -6.5905
# 4 -8.8543 -4.6800 -3.1756 32.6871 -1.2299 4.6996
# 5 12.9676 18.8662 21.2901 -1.2299 29.9586 -6.1275
# 6 -8.4117 -0.5196 -6.5905 4.6996 -6.1275 33.7223
#
#
#
# Elastic Compliance Matrix: (Units=1/GPa)
#
#
# Indices 1 2 3 4 5 6 
#
# 1 0.014802 -0.005087 -0.004020 0.002538 0.000274 0.002524
# 2 -0.005087 0.009202 -0.001520 -0.000038 -0.002912 -0.001948
# 3 -0.004020 -0.001520 0.019057 0.000034 -0.010690 0.000751
# 4 0.002538 -0.000038 0.000034 0.031817 -0.000591 -0.003902
# 5 0.000274 -0.002912 -0.010690 -0.000591 0.043893 0.005992
# 6 0.002524 -0.001948 0.000751 -0.003902 0.005992 0.032033
#
#
# Mechanical properties :
#
#
# Convention : Reuss Voigt Hill
#
# Bulk Modulus (GPa) = 45.86085 66.89136 56.37610
# Shear Modulus (GPa) = 27.88161 32.44295 30.16228
#
# Velocity S-wave (km/s) = 3.81413 4.11430 3.96705
# Velocity P-wave (km/s) = 6.58219 7.58098 7.09917
#
# Compressibility (1/GPa) = 0.02180509
#
# Stress axis : x y z
#
# Youngs Moduli (GPa) = 67.55698 108.66885 52.47465
#
# Poissons Ratio (x) = 0.55285 0.21096
# Poissons Ratio (y) = 0.34369 0.07978
# Poissons Ratio (z) = 0.27160 0.16522
#
# Static dielectric constant tensor:
#      x y z
#    x 3.851550 -0.005650 0.287880 
#    y -0.005650 3.581050 -0.069520 
#    z 0.287880 -0.069520 3.502480 
# 
# 
# High freq. dielectric constant tensor:
#      x y z
#    x 1.747040 -0.003030 0.010470 
#    y -0.003030 1.745310 -0.006380 
#    z 0.010470 -0.006380 1.733360 
# 
# From -- ./inp_files/293251.got.cif
#   From: 2010.06.25/outbox.cif.g09.slc.cpg/sg2_147_cif.got.tgz:293251.got - 2010.06.27 13:26:56.
