data_PCOD8019371
_publ_section_title
;
Structure prediction by ZEFSAII (Michael W. Deem and Ramdas Pophale) SiO2 
 PCOD8019371
Probable space group: P -1
;
_chemical_formula_sum "Si O2"
_cell_formula_units_Z 14
_cell_length_a 9.052078
_cell_length_b 7.770571
_cell_length_c 15.740659
_cell_angle_alpha 110.780865
_cell_angle_beta 133.279024
_cell_angle_gamma 98.016644
_cell_volume 623.231705
_symmetry_space_group_name_H-M "P -1"
_symmetry_group_IT_number 2
_symmetry_cell_setting 'triclinic'
loop_
_space_group_symop_operation_xyz
x,y,z
-x,-y,-z
loop_
_atom_site_type_symbol
_atom_site_label
_atom_site_fract_x
_atom_site_fract_y
_atom_site_fract_z
Si Si1 0.871952 0.810241 0.845747
Si Si2 0.857625 0.587165 0.216481
Si Si3 0.918778 0.438169 0.051905
Si Si4 0.048342 0.786881 0.494525
Si Si5 0.361600 0.156319 0.798748
Si Si6 0.700407 0.449430 0.419910
Si Si7 0.083502 0.781605 0.760752
O O1 0.587542 0.708797 0.706185
O O2 0.011139 0.892176 0.824479
O O3 0.892303 0.611137 0.846015
O O4 0.000000 0.000000 0.000000
O O5 0.636728 0.624525 0.140053
O O6 0.061881 0.769689 0.394759
O O7 0.785213 0.339511 0.171808
O O8 0.950646 0.629034 0.162284
O O9 0.635717 0.230698 0.901157
O O10 0.000000 0.500000 0.000000
O O11 0.216452 0.717287 0.594338
O O12 0.774187 0.611403 0.394529
O O13 0.178714 0.042523 0.623581
O O14 0.269504 0.982913 0.808801
O O15 0.834377 0.598554 0.582078
#
# Coordination Sequence:
#
# PCOD8019371 Si02
#       7
#     2   2   2   2   2   2   2
#     4  11  23  37  64  92 126 171 205 259 319 368
#     4  10  22  41  67  92 126 166 204 265 316 363
#     4  11  27  44  57  93 134 168 208 260 315 377
#     4   9  19  37  66  98 118 160 218 258 308 381
#     4  11  22  42  68  92 127 166 214 258 309 383
#     4   9  18  37  64  93 129 159 201 269 315 368
#     4   9  22  41  65  96 120 163 217 257 312 378
#
# _framework density 22.463557000000002
#
# number of rings (size 3 to 8) (size 9 to 14) (size 15 to 20)
#    0.000    2.000    0.000    3.000    4.000    3.429 
#    0.000    0.714    0.000    0.000    0.000    0.000 
#    0.000    0.000    0.000    0.000    0.000    0.000 
#
# Total GULP energy -173456.442621 kJ/mol
# GULP energy per Si atom -12389.745902 kJ/mol
# Density = 2.241243 g / cm^3
# Si number density = 22.463557 Si / 1000 Ang^3
#
#
#
# Elastic Constant Matrix: (Units=GPa)
#
#
# Indices 1 2 3 4 5 6 
#
# 1 138.8624 47.2285 54.2116 12.5838 -23.1645 19.8367
# 2 47.2285 65.5774 23.8872 4.6688 -0.5309 7.7397
# 3 54.2116 23.8872 91.7163 19.6515 -28.1707 17.2587
# 4 12.5838 4.6688 19.6515 22.1139 1.1077 -7.3550
# 5 -23.1645 -0.5309 -28.1707 1.1077 56.8289 -3.2633
# 6 19.8367 7.7397 17.2587 -7.3550 -3.2633 37.4947
#
#
#
# Elastic Compliance Matrix: (Units=1/GPa)
#
#
# Indices 1 2 3 4 5 6 
#
# 1 0.012222 -0.007015 -0.002313 -0.005145 0.003603 -0.004649
# 2 -0.007015 0.021232 -0.003805 0.003579 -0.004537 0.001387
# 3 -0.002313 -0.003805 0.024180 -0.024208 0.010737 -0.012935
# 4 -0.005145 0.003579 -0.024208 0.078702 -0.014028 0.027343
# 5 0.003603 -0.004537 0.010737 -0.014028 0.024243 -0.006554
# 6 -0.004649 0.001387 -0.012935 0.027343 -0.006554 0.039591
#
#
# Mechanical properties :
#
#
# Convention : Reuss Voigt Hill
#
# Bulk Modulus (GPa) = 31.88014 60.75674 46.31844
# Shear Modulus (GPa) = 21.10669 34.67609 27.89139
#
# Velocity S-wave (km/s) = 3.06861 3.93321 3.52750
# Velocity P-wave (km/s) = 5.17474 6.90886 6.10370
#
# Compressibility (1/GPa) = 0.03136749
#
# Stress axis : x y z
#
# Youngs Moduli (GPa) = 81.82165 47.09824 41.35591
#
# Poissons Ratio (x) = 0.33041 0.09566
# Poissons Ratio (y) = 0.57400 0.15736
# Poissons Ratio (z) = 0.18927 0.17920
#
# Static dielectric constant tensor:
#      x y z
#    x 3.773540 -0.336750 -0.110020 
#    y -0.336750 4.037420 -0.156650 
#    z -0.110020 -0.156650 4.091920 
# 
# 
# High freq. dielectric constant tensor:
#      x y z
#    x 1.887580 -0.020930 -0.026060 
#    y -0.020930 1.875870 -0.019140 
#    z -0.026060 -0.019140 1.894280 
# 
# From -- ./inp_files/493516.got.cif
#   From: 2010.06.25/outbox.cif.g09.slc.cpg/sg2_247_cif.got.tgz:493516.got - 2010.06.27 13:26:56.
