data_PCOD8019605
_publ_section_title
;
Structure prediction by ZEFSAII (Michael W. Deem and Ramdas Pophale) SiO2 
 PCOD8019605
Probable space group: P -1
;
_chemical_formula_sum "Si O2"
_cell_formula_units_Z 14
_cell_length_a 8.971667
_cell_length_b 10.247515
_cell_length_c 20.674170
_cell_angle_alpha 23.192211
_cell_angle_beta 55.209928
_cell_angle_gamma 63.594959
_cell_volume 595.754576
_symmetry_space_group_name_H-M "P -1"
_symmetry_group_IT_number 2
_symmetry_cell_setting 'triclinic'
loop_
_space_group_symop_operation_xyz
x,y,z
-x,-y,-z
loop_
_atom_site_type_symbol
_atom_site_label
_atom_site_fract_x
_atom_site_fract_y
_atom_site_fract_z
Si Si1 0.285882 0.328484 0.647406
Si Si2 0.053629 0.634837 0.066590
Si Si3 0.010335 0.619258 0.660147
Si Si4 0.314268 0.332109 0.937151
Si Si5 0.209864 0.512520 0.453170
Si Si6 0.668838 0.420983 0.740987
Si Si7 0.324113 0.287696 0.099894
O O1 0.500000 0.500000 0.500000
O O2 0.198659 0.602483 0.582851
O O3 0.201664 0.242918 0.635477
O O4 0.228190 0.971442 0.863216
O O5 0.131805 0.313506 0.171310
O O6 0.994071 0.587524 0.177660
O O7 0.877340 0.668941 0.051660
O O8 0.832227 0.451972 0.737930
O O9 0.000000 0.000000 0.500000
O O10 0.493751 0.551329 0.753268
O O11 0.317312 0.459562 0.952309
O O12 0.366954 0.969532 0.094456
O O13 0.285038 0.374566 0.431557
O O14 0.000000 0.500000 0.500000
O O15 0.327051 0.889912 0.275993
O O16 0.500000 0.500000 0.000000
#
# Coordination Sequence:
#
# PCOD8019605 Si02
#       7
#     2   2   2   2   2   2   2
#     4  12  26  43  70 107 143 185 236 300 358 421
#     4  12  25  44  73 103 145 182 244 302 351 424
#     4  12  26  48  71 103 144 191 241 294 364 432
#     4  10  22  41  69 105 134 182 237 292 354 419
#     4  11  22  44  70  96 141 188 236 283 361 430
#     4  10  22  42  70  97 137 185 234 285 360 425
#     4  11  23  43  69 102 140 189 234 292 357 433
#
# _framework density 23.499611999999999
#
# number of rings (size 3 to 8) (size 9 to 14) (size 15 to 20)
#    0.000    0.857    2.857    4.286    2.000    2.286 
#    0.000    0.714    0.000    0.000    0.000    0.000 
#    0.000    0.000    0.000    0.000    0.000    0.000 
#
# Total GULP energy -173486.376608 kJ/mol
# GULP energy per Si atom -12391.884043 kJ/mol
# Density = 2.344613 g / cm^3
# Si number density = 23.499612 Si / 1000 Ang^3
#
#
#
# Elastic Constant Matrix: (Units=GPa)
#
#
# Indices 1 2 3 4 5 6 
#
# 1 122.9362 53.1127 39.9990 25.2424 -12.9303 10.6058
# 2 53.1127 122.1083 31.3552 42.3357 -1.8993 4.2538
# 3 39.9990 31.3552 88.2690 27.3609 1.2341 9.3893
# 4 25.2424 42.3357 27.3609 51.2619 1.7074 2.0813
# 5 -12.9303 -1.8993 1.2341 1.7074 41.1208 10.7983
# 6 10.6058 4.2538 9.3893 2.0813 10.7983 50.6151
#
#
#
# Elastic Compliance Matrix: (Units=1/GPa)
#
#
# Indices 1 2 3 4 5 6 
#
# 1 0.011732 -0.003758 -0.003531 -0.000836 0.004277 -0.002366
# 2 -0.003758 0.012872 -0.000193 -0.008674 -0.000262 0.000154
# 3 -0.003531 -0.000193 0.015053 -0.006041 -0.000901 -0.001596
# 4 -0.000836 -0.008674 -0.006041 0.030327 -0.002061 0.001217
# 5 0.004277 -0.000262 -0.000901 -0.002061 0.027466 -0.006482
# 6 -0.002366 0.000154 -0.001596 0.001217 -0.006482 0.021869
#
#
# Mechanical properties :
#
#
# Convention : Reuss Voigt Hill
#
# Bulk Modulus (GPa) = 40.49821 64.69415 52.59618
# Shear Modulus (GPa) = 35.08470 42.52267 38.80368
#
# Velocity S-wave (km/s) = 3.86812 4.25844 4.06796
# Velocity P-wave (km/s) = 6.10088 7.19505 6.67044
#
# Compressibility (1/GPa) = 0.02469245
#
# Stress axis : x y z
#
# Youngs Moduli (GPa) = 85.23607 77.69059 66.43396
#
# Poissons Ratio (x) = 0.29194 0.23456
# Poissons Ratio (y) = 0.32030 0.01285
# Poissons Ratio (z) = 0.30094 0.01503
#
# Static dielectric constant tensor:
#      x y z
#    x 6.486330 3.524010 -1.436110 
#    y 3.524010 9.910900 -1.548740 
#    z -1.436110 -1.548740 5.187120 
# 
# 
# High freq. dielectric constant tensor:
#      x y z
#    x 1.935860 0.005950 0.000370 
#    y 0.005950 1.945510 0.026990 
#    z 0.000370 0.026990 1.919460 
# 
# From -- ./inp_files/328700.got.cif
#   From: 2010.06.25/outbox.cif.g09.slc.cpg/sg2_165_cif.got.tgz:328700.got - 2010.06.27 13:26:56.
