data_PCOD8019730
_publ_section_title
;
Structure prediction by ZEFSAII (Michael W. Deem and Ramdas Pophale) SiO2 
 PCOD8019730
Probable space group: P -1
;
_chemical_formula_sum "Si O2"
_cell_formula_units_Z 16
_cell_length_a 9.509123
_cell_length_b 9.350819
_cell_length_c 14.007367
_cell_angle_alpha 126.797741
_cell_angle_beta 80.551381
_cell_angle_gamma 65.448360
_cell_volume 747.191843
_symmetry_space_group_name_H-M "P -1"
_symmetry_group_IT_number 2
_symmetry_cell_setting 'triclinic'
loop_
_space_group_symop_operation_xyz
x,y,z
-x,-y,-z
loop_
_atom_site_type_symbol
_atom_site_label
_atom_site_fract_x
_atom_site_fract_y
_atom_site_fract_z
Si Si1 0.962637 0.739989 0.108004
Si Si2 0.704104 0.185736 0.426004
Si Si3 0.043592 0.451370 0.365370
Si Si4 0.167715 0.728949 0.377109
Si Si5 0.285799 0.536474 0.615873
Si Si6 0.605375 0.043960 0.937886
Si Si7 0.193803 0.910294 0.906737
Si Si8 0.339851 0.512674 0.067014
O O1 0.170340 0.651150 0.065408
O O2 0.838130 0.903134 0.280022
O O3 0.852350 0.897096 0.089007
O O4 0.000000 0.500000 0.000000
O O5 0.694512 0.282640 0.569786
O O6 0.492102 0.293578 0.468456
O O7 0.786244 0.279058 0.388415
O O8 0.088225 0.601784 0.369489
O O9 0.226605 0.179972 0.229002
O O10 0.000000 0.500000 0.500000
O O11 0.861417 0.502360 0.359563
O O12 0.269553 0.634605 0.226900
O O13 0.000000 0.000000 0.500000
O O14 0.307452 0.650697 0.748571
O O15 0.500000 0.000000 0.000000
O O16 0.684868 0.130741 0.033098
O O17 0.445714 0.237968 0.959297
O O18 0.000000 0.000000 0.000000
O O19 0.500000 0.500000 0.000000
#
# Coordination Sequence:
#
# PCOD8019730 Si02
#       8
#     2   2   2   2   2   2   2   2
#     4  11  25  44  66  99 141 181 225 286 353 412
#     4  10  22  44  68  99 135 180 224 287 347 412
#     4  12  26  43  73 105 139 179 239 293 341 419
#     4  12  25  46  72 100 144 183 228 290 357 417
#     4  10  22  41  71 101 132 174 235 284 348 402
#     4  12  25  44  71 106 136 182 244 290 338 417
#     4  11  22  41  71  95 133 178 230 288 342 406
#     4  12  27  45  70 102 142 188 229 284 358 418
#
# _framework density 21.413512000000001
#
# number of rings (size 3 to 8) (size 9 to 14) (size 15 to 20)
#    0.000    0.750    5.000    2.250    3.500    2.000 
#    0.000    0.625    0.000    0.000    0.000    0.000 
#    0.000    0.000    0.000    0.000    0.000    0.000 
#
# Total GULP energy -198255.899503 kJ/mol
# GULP energy per Si atom -12390.993719 kJ/mol
# Density = 2.136477 g / cm^3
# Si number density = 21.413512 Si / 1000 Ang^3
#
#
#
# Elastic Constant Matrix: (Units=GPa)
#
#
# Indices 1 2 3 4 5 6 
#
# 1 84.5657 15.9755 57.2477 12.2849 -12.9851 4.1500
# 2 15.9755 65.6373 38.9410 9.0975 -4.2782 6.7171
# 3 57.2477 38.9410 155.2048 8.6587 -7.7011 10.2707
# 4 12.2849 9.0975 8.6587 42.2300 -1.4574 -7.0699
# 5 -12.9851 -4.2782 -7.7011 -1.4574 40.8093 -1.1150
# 6 4.1500 6.7171 10.2707 -7.0699 -1.1150 34.9794
#
#
#
# Elastic Compliance Matrix: (Units=1/GPa)
#
#
# Indices 1 2 3 4 5 6 
#
# 1 0.016972 0.000230 -0.005834 -0.003812 0.004160 -0.000983
# 2 0.000230 0.018616 -0.004299 -0.003672 0.000999 -0.003050
# 3 -0.005834 -0.004299 0.009710 0.000403 -0.000495 -0.001268
# 4 -0.003812 -0.003672 0.000403 0.026554 -0.000399 0.006393
# 5 0.004160 0.000999 -0.000495 -0.000399 0.025831 0.000203
# 6 -0.000983 -0.003050 -0.001268 0.006393 0.000203 0.030961
#
#
# Mechanical properties :
#
#
# Convention : Reuss Voigt Hill
#
# Bulk Modulus (GPa) = 39.22730 58.85958 49.04344
# Shear Modulus (GPa) = 31.85786 36.48667 34.17226
#
# Velocity S-wave (km/s) = 3.86131 4.13232 3.99911
# Velocity P-wave (km/s) = 6.18372 7.09330 6.65407
#
# Compressibility (1/GPa) = 0.02549245
#
# Stress axis : x y z
#
# Youngs Moduli (GPa) = 58.92211 53.71679 102.98163
#
# Poissons Ratio (x) = -0.01237 0.60076
# Poissons Ratio (y) = -0.01357 0.44277
# Poissons Ratio (z) = 0.34373 0.23095
#
# Static dielectric constant tensor:
#      x y z
#    x 3.911100 -0.009060 -0.160490 
#    y -0.009060 3.897220 0.022580 
#    z -0.160490 0.022580 4.039160 
# 
# 
# High freq. dielectric constant tensor:
#      x y z
#    x 1.846090 -0.009450 -0.009150 
#    y -0.009450 1.829090 0.002050 
#    z -0.009150 0.002050 1.862070 
# 
# From -- ./inp_files/206858.got.cif
#   From: 2010.06.25/outbox.cif.g09.slc.cpg/sg2_104_cif.got.tgz:206858.got - 2010.06.27 13:26:56.
