data_PCOD8019094
_publ_section_title
;
Structure prediction by ZEFSAII (Michael W. Deem and Ramdas Pophale) SiO2 
 PCOD8019094
Probable space group: P -1
;
_chemical_formula_sum "Si O2"
_cell_formula_units_Z 14
_cell_length_a 9.298661
_cell_length_b 13.685835
_cell_length_c 11.619203
_cell_angle_alpha 33.949787
_cell_angle_beta 131.193191
_cell_angle_gamma 111.275987
_cell_volume 559.049553
_symmetry_space_group_name_H-M "P -1"
_symmetry_group_IT_number 2
_symmetry_cell_setting 'triclinic'
loop_
_space_group_symop_operation_xyz
x,y,z
-x,-y,-z
loop_
_atom_site_type_symbol
_atom_site_label
_atom_site_fract_x
_atom_site_fract_y
_atom_site_fract_z
Si Si1 0.450247 0.451913 0.772588
Si Si2 0.376523 0.834193 0.256385
Si Si3 0.875245 0.259334 0.054075
Si Si4 0.436202 0.753786 0.737687
Si Si5 0.036778 0.124976 0.649234
Si Si6 0.661906 0.851510 0.573117
Si Si7 0.279296 0.378559 0.534279
O O1 0.342944 0.682147 0.469998
O O2 0.699944 0.354458 0.966999
O O3 0.323427 0.365911 0.707434
O O4 0.436411 0.414739 0.937298
O O5 0.529210 0.910484 0.327646
O O6 0.490388 0.734939 0.293502
O O7 0.151084 0.013684 0.935691
O O8 0.818916 0.395519 0.777302
O O9 0.909991 0.040064 0.259836
O O10 0.090330 0.257046 0.221601
O O11 0.590515 0.713157 0.748667
O O12 0.385713 0.958424 0.566126
O O13 0.214063 0.756577 0.578431
O O14 0.127637 0.279717 0.515020
#
# Coordination Sequence:
#
# PCOD8019094 Si02
#       7
#     2   2   2   2   2   2   2
#     4  11  22  41  66  96 128 158 215 264 308 377
#     4  11  22  39  65  94 129 164 207 262 317 370
#     4  10  22  41  64  97 128 162 208 265 312 370
#     4  10  25  43  62  94 126 168 216 255 308 384
#     4  11  22  39  67  94 126 168 208 256 321 369
#     4  10  24  43  64  87 134 168 208 259 316 369
#     4  11  22  39  65 101 126 160 211 266 310 377
#
# _framework density 25.042503
#
# number of rings (size 3 to 8) (size 9 to 14) (size 15 to 20)
#    0.000    1.429    2.857    2.143    6.000    3.429 
#    0.000    2.143    0.000    0.000    0.000    0.000 
#    0.000    0.000    0.000    0.000    0.000    0.000 
#
# Total GULP energy -173605.324625 kJ/mol
# GULP energy per Si atom -12400.380330 kJ/mol
# Density = 2.498550 g / cm^3
# Si number density = 25.042503 Si / 1000 Ang^3
#
#
#
# Elastic Constant Matrix: (Units=GPa)
#
#
# Indices 1 2 3 4 5 6 
#
# 1 28.0340 30.9379 12.9656 -3.6231 5.0419 12.6886
# 2 30.9379 100.9481 35.2727 18.9607 0.9088 25.3515
# 3 12.9656 35.2727 63.6985 9.6209 -16.7182 3.9736
# 4 -3.6231 18.9607 9.6209 53.4306 2.1762 -9.7525
# 5 5.0419 0.9088 -16.7182 2.1762 0.0159 -13.3281
# 6 12.6886 25.3515 3.9736 -9.7525 -13.3281 25.0811
#
#
#
# Elastic Compliance Matrix: (Units=1/GPa)
#
#
# Indices 1 2 3 4 5 6 
#
# 1 0.050622 -0.023086 0.005393 0.012133 0.021128 0.012816
# 2 -0.023086 0.021164 -0.001703 -0.010533 0.012570 -0.006859
# 3 0.005393 -0.001703 0.012080 -0.002972 -0.018175 -0.013735
# 4 0.012133 -0.010533 -0.002972 0.026232 -0.006219 0.011875
# 5 0.021128 0.012570 -0.018175 -0.006219 -0.040484 -0.044446
# 6 0.012816 -0.006859 -0.013735 0.011875 -0.044446 0.023495
#
#
# Mechanical properties :
#
#
# Convention : Reuss Voigt Hill
#
# Bulk Modulus (GPa) = 22.18558 39.00365 30.59462
# Shear Modulus (GPa) = 34.03117 23.27248 28.65183
#
# Velocity S-wave (km/s) = 3.69037 3.05178 3.38617
# Velocity P-wave (km/s) = 5.19970 5.29402 5.24707
#
# Compressibility (1/GPa) = 0.04507431
#
# Stress axis : x y z
#
# Youngs Moduli (GPa) = 19.75443 47.24946 82.78462
#
# Poissons Ratio (x) = 1.09082 -0.44650
# Poissons Ratio (y) = 0.45606 0.14095
# Poissons Ratio (z) = -0.10654 0.08045
#
# Static dielectric constant tensor:
#      x y z
#    x 4.292800 0.260240 -0.080360 
#    y 0.260240 4.671010 0.090930 
#    z -0.080360 0.090930 4.583860 
# 
# 
# High freq. dielectric constant tensor:
#      x y z
#    x 1.963250 0.010200 -0.002830 
#    y 0.010200 2.020640 0.003440 
#    z -0.002830 0.003440 2.002170 
# 
# From -- ./inp_files/150884.got.cif
#   From: 2010.06.25/outbox.cif.g09.slc.cpg/sg2_76_cif.got.tgz:150884.got - 2010.06.27 13:26:56.
