data_PCOD8019864
_publ_section_title
;
Structure prediction by ZEFSAII (Michael W. Deem and Ramdas Pophale) SiO2 
 PCOD8019864
Probable space group: P -1
;
_chemical_formula_sum "Si O2"
_cell_formula_units_Z 12
_cell_length_a 23.761723
_cell_length_b 9.642970
_cell_length_c 13.756032
_cell_angle_alpha 152.073572
_cell_angle_beta 24.944519
_cell_angle_gamma 144.780434
_cell_volume 620.567079
_symmetry_space_group_name_H-M "P -1"
_symmetry_group_IT_number 2
_symmetry_cell_setting 'triclinic'
loop_
_space_group_symop_operation_xyz
x,y,z
-x,-y,-z
loop_
_atom_site_type_symbol
_atom_site_label
_atom_site_fract_x
_atom_site_fract_y
_atom_site_fract_z
Si Si1 0.293437 0.824324 0.754178
Si Si2 0.371021 0.859288 0.169161
Si Si3 0.957610 0.978048 0.844971
Si Si4 0.847455 0.446184 0.811618
Si Si5 0.475077 0.406146 0.871710
Si Si6 0.192183 0.381523 0.804737
O O1 0.383565 0.651774 0.432822
O O2 0.256789 0.615228 0.772424
O O3 0.372721 0.117502 0.852293
O O4 0.161719 0.901014 0.952698
O O5 0.287637 0.645499 0.092203
O O6 0.284001 0.109639 0.503468
O O7 0.410545 0.670983 0.082288
O O8 0.500000 0.000000 0.000000
O O9 0.904800 0.771582 0.889097
O O10 0.044436 0.793286 0.521378
O O11 0.044025 0.261314 0.928881
O O12 0.814289 0.450304 0.979283
O O13 0.500000 0.500000 0.000000
#
# Coordination Sequence:
#
# PCOD8019864 Si02
#       6
#     2   2   2   2   2   2
#     4  11  24  43  61  95 126 158 207 256 299 367
#     4  11  23  43  62  92 126 156 209 256 296 373
#     4  10  22  42  61  90 130 156 208 254 299 363
#     4  10  23  41  64  92 123 164 202 255 306 359
#     4  11  26  42  64  90 126 166 200 251 314 360
#     4  11  24  38  69  93 119 165 206 248 311 360
#
# _framework density 19.337153000000001
#
# number of rings (size 3 to 8) (size 9 to 14) (size 15 to 20)
#    0.000    1.333    3.333    1.000    4.667    2.667 
#    0.000    0.000    0.000    0.000    0.000    0.000 
#    0.000    0.000    0.000    0.000    0.000    0.000 
#
# Total GULP energy -148882.089509 kJ/mol
# GULP energy per Si atom -12406.840792 kJ/mol
# Density = 1.929314 g / cm^3
# Si number density = 19.337153 Si / 1000 Ang^3
#
#
#
# Elastic Constant Matrix: (Units=GPa)
#
#
# Indices 1 2 3 4 5 6 
#
# 1 190.0319 105.5704 112.1255 11.1482 21.8501 4.8134
# 2 105.5704 210.3542 90.6495 26.0506 49.8691 19.4167
# 3 112.1255 90.6495 122.3707 17.2568 20.6948 17.1941
# 4 11.1482 26.0506 17.2568 46.3440 22.6952 6.7179
# 5 21.8501 49.8691 20.6948 22.6952 64.7944 17.6021
# 6 4.8134 19.4167 17.1941 6.7179 17.6021 39.7004
#
#
#
# Elastic Compliance Matrix: (Units=1/GPa)
#
#
# Indices 1 2 3 4 5 6 
#
# 1 0.012688 -0.002121 -0.010764 0.002063 -0.001099 0.004299
# 2 -0.002121 0.008449 -0.003424 -0.000798 -0.004322 -0.000341
# 3 -0.010764 -0.003424 0.021641 -0.003797 0.002552 -0.006882
# 4 0.002063 -0.000798 -0.003797 0.027011 -0.008610 0.001031
# 5 -0.001099 -0.004322 0.002552 -0.008610 0.023449 -0.007798
# 6 0.004299 -0.000341 -0.006882 0.001031 -0.007798 0.031098
#
#
# Mechanical properties :
#
#
# Convention : Reuss Voigt Hill
#
# Bulk Modulus (GPa) = 98.41369 126.60531 112.50950
# Shear Modulus (GPa) = 31.18381 44.46185 37.82283
#
# Velocity S-wave (km/s) = 4.02012 4.80030 4.42743
# Velocity P-wave (km/s) = 8.51778 9.81522 9.18943
#
# Compressibility (1/GPa) = 0.01016119
#
# Stress axis : x y z
#
# Youngs Moduli (GPa) = 78.81530 118.36194 46.20781
#
# Poissons Ratio (x) = 0.25105 0.49736
# Poissons Ratio (y) = 0.16717 0.15821
# Poissons Ratio (z) = 0.84833 0.40525
#
# Static dielectric constant tensor:
#      x y z
#    x 3.347340 -0.188160 -0.227070 
#    y -0.188160 2.821170 -0.495690 
#    z -0.227070 -0.495690 3.345630 
# 
# 
# High freq. dielectric constant tensor:
#      x y z
#    x 1.758630 0.001740 -0.008020 
#    y 0.001740 1.773010 -0.002920 
#    z -0.008020 -0.002920 1.759360 
# 
# From -- ./inp_files/19018.got.cif
#   From: 2010.06.25/outbox.cif.g09.slc.cpg/sg2_10_cif.got.tgz:19018.got - 2010.06.27 13:26:56.
