data_PCOD8019059
_publ_section_title
;
Structure prediction by ZEFSAII (Michael W. Deem and Ramdas Pophale) SiO2 
 PCOD8019059
Probable space group: P -1
;
_chemical_formula_sum "Si O2"
_cell_formula_units_Z 16
_cell_length_a 8.662774
_cell_length_b 17.312976
_cell_length_c 13.317985
_cell_angle_alpha 149.721810
_cell_angle_beta 69.480284
_cell_angle_gamma 128.319868
_cell_volume 698.457650
_symmetry_space_group_name_H-M "P -1"
_symmetry_group_IT_number 2
_symmetry_cell_setting 'triclinic'
loop_
_space_group_symop_operation_xyz
x,y,z
-x,-y,-z
loop_
_atom_site_type_symbol
_atom_site_label
_atom_site_fract_x
_atom_site_fract_y
_atom_site_fract_z
Si Si1 0.882679 0.067547 0.552001
Si Si2 0.746369 0.752208 0.472788
Si Si3 0.354891 0.604453 0.794264
Si Si4 0.659511 0.042165 0.152836
Si Si5 0.979652 0.509690 0.398093
Si Si6 0.990148 0.427849 0.031663
Si Si7 0.478868 0.651979 0.224381
Si Si8 0.788820 0.081716 0.949003
O O1 0.877794 0.192825 0.779716
O O2 0.035383 0.200265 0.568719
O O3 0.627412 0.860852 0.355918
O O4 0.000000 0.000000 0.500000
O O5 0.611259 0.546912 0.343306
O O6 0.573276 0.703983 0.374624
O O7 0.843266 0.953562 0.741660
O O8 0.253386 0.547858 0.640395
O O9 0.583956 0.846144 0.015950
O O10 0.160143 0.562307 0.854139
O O11 0.453482 0.017191 0.140815
O O12 0.817999 0.254788 0.420986
O O13 0.791241 0.063435 0.048603
O O14 0.000000 0.500000 0.500000
O O15 0.966778 0.326563 0.149651
O O16 0.000000 0.500000 0.000000
O O17 0.231877 0.564130 0.180499
O O18 0.500000 0.500000 0.000000
#
# Coordination Sequence:
#
# PCOD8019059 Si02
#       8
#     2   2   2   2   2   2   2   2
#     4  10  22  41  64  92 133 163 223 268 321 386
#     4  11  23  44  62 101 134 173 218 275 333 388
#     4  11  24  40  64  97 142 166 218 276 324 390
#     4   9  20  41  64  96 124 174 218 268 329 393
#     4   9  20  41  66  92 125 169 221 265 322 394
#     4  12  24  45  64  96 134 170 216 275 322 388
#     4  11  23  42  68  91 129 177 218 264 330 389
#     4   9  20  39  68  91 130 168 219 276 322 387
#
# _framework density 22.907616000000001
#
# number of rings (size 3 to 8) (size 9 to 14) (size 15 to 20)
#    0.000    1.750    3.750    0.750    8.750    1.000 
#    4.500    2.500    0.000    0.000    0.000    0.000 
#    0.000    0.000    0.000    0.000    0.000    0.000 
#
# Total GULP energy -198247.633980 kJ/mol
# GULP energy per Si atom -12390.477124 kJ/mol
# Density = 2.285548 g / cm^3
# Si number density = 22.907616 Si / 1000 Ang^3
#
#
#
# Elastic Constant Matrix: (Units=GPa)
#
#
# Indices 1 2 3 4 5 6 
#
# 1 52.1532 24.8027 41.1449 3.4302 2.2176 -11.1158
# 2 24.8027 73.2411 46.5148 20.3351 3.2227 -12.1248
# 3 41.1449 46.5148 196.9225 30.9868 -2.0860 -0.0192
# 4 3.4302 20.3351 30.9868 52.2687 1.9681 -7.1445
# 5 2.2176 3.2227 -2.0860 1.9681 31.0460 6.7868
# 6 -11.1158 -12.1248 -0.0192 -7.1445 6.7868 30.4234
#
#
#
# Elastic Compliance Matrix: (Units=1/GPa)
#
#
# Indices 1 2 3 4 5 6 
#
# 1 0.028133 -0.005640 -0.005394 0.005102 -0.004338 0.010194
# 2 -0.005640 0.019613 -0.002721 -0.004835 -0.002648 0.005209
# 3 -0.005394 -0.002721 0.007456 -0.003705 0.002377 -0.004451
# 4 0.005102 -0.004835 -0.003705 0.023834 -0.002977 0.006196
# 5 -0.004338 -0.002648 0.002377 -0.002977 0.035610 -0.011282
# 6 0.010194 0.005209 -0.004451 0.006196 -0.011282 0.042639
#
#
# Mechanical properties :
#
#
# Convention : Reuss Voigt Hill
#
# Bulk Modulus (GPa) = 36.11066 60.80463 48.45764
# Shear Modulus (GPa) = 25.76989 36.73792 31.25390
#
# Velocity S-wave (km/s) = 3.35766 4.00902 3.69771
# Velocity P-wave (km/s) = 5.55245 6.93042 6.27935
#
# Compressibility (1/GPa) = 0.02769266
#
# Stress axis : x y z
#
# Youngs Moduli (GPa) = 35.54496 50.98663 134.12664
#
# Poissons Ratio (x) = 0.28755 0.72346
# Poissons Ratio (y) = 0.20047 0.36497
# Poissons Ratio (z) = 0.19172 0.13874
#
# Static dielectric constant tensor:
#      x y z
#    x 4.137690 -0.104770 0.387570 
#    y -0.104770 5.485760 0.335750 
#    z 0.387570 0.335750 4.918300 
# 
# 
# High freq. dielectric constant tensor:
#      x y z
#    x 1.866920 -0.009860 -0.004750 
#    y -0.009860 1.901590 0.013120 
#    z -0.004750 0.013120 1.928610 
# 
# From -- ./inp_files/507339.got.cif
#   From: 2010.06.25/outbox.cif.g09.slc.cpg/sg2_254_cif.got.tgz:507339.got - 2010.06.27 13:26:56.
