data_PCOD8019521
_publ_section_title
;
Structure prediction by ZEFSAII (Michael W. Deem and Ramdas Pophale) SiO2 
 PCOD8019521
Probable space group: P -1
;
_chemical_formula_sum "Si O2"
_cell_formula_units_Z 16
_cell_length_a 8.464336
_cell_length_b 11.413173
_cell_length_c 12.717889
_cell_angle_alpha 54.129475
_cell_angle_beta 94.000050
_cell_angle_gamma 127.089598
_cell_volume 713.657750
_symmetry_space_group_name_H-M "P -1"
_symmetry_group_IT_number 2
_symmetry_cell_setting 'triclinic'
loop_
_space_group_symop_operation_xyz
x,y,z
-x,-y,-z
loop_
_atom_site_type_symbol
_atom_site_label
_atom_site_fract_x
_atom_site_fract_y
_atom_site_fract_z
Si Si1 0.201911 0.201595 0.601708
Si Si2 0.917719 0.396043 0.938763
Si Si3 0.298638 0.195959 0.216347
Si Si4 0.659553 0.270643 0.324766
Si Si5 0.524575 0.608379 0.293370
Si Si6 0.576253 0.420130 0.916546
Si Si7 0.445437 0.039650 0.866338
Si Si8 0.540147 0.923856 0.375887
O O1 0.299615 0.379523 0.430622
O O2 0.272925 0.306783 0.665742
O O3 0.300707 0.106626 0.633198
O O4 0.939324 0.029634 0.671941
O O5 0.739897 0.401694 0.888630
O O6 0.117646 0.503214 0.810514
O O7 0.809590 0.167341 0.058632
O O8 0.000000 0.500000 0.000000
O O9 0.442028 0.216941 0.304822
O O10 0.283689 0.360121 0.141937
O O11 0.415327 0.240817 0.086472
O O12 0.651712 0.252212 0.461095
O O13 0.678311 0.128369 0.341769
O O14 0.570929 0.610118 0.171123
O O15 0.492129 0.756718 0.226816
O O16 0.559008 0.069300 0.741555
O O17 0.500000 0.000000 0.000000
#
# Coordination Sequence:
#
# PCOD8019521 Si02
#       8
#     2   2   2   2   2   2   2   2
#     4  10  23  45  66  93 132 179 216 268 336 393
#     4  12  22  42  71  97 132 175 219 274 329 393
#     4  11  24  39  67 101 134 167 225 277 324 394
#     4  11  23  40  65 105 132 166 219 279 329 388
#     4  10  23  42  66  90 133 176 220 266 332 401
#     4  11  23  40  66 100 132 170 223 273 333 390
#     4  11  22  42  69  96 131 174 223 270 330 392
#     4  10  22  41  68  93 137 166 218 269 329 389
#
# _framework density 22.419709999999998
#
# number of rings (size 3 to 8) (size 9 to 14) (size 15 to 20)
#    0.000    1.250    3.750    1.500    1.750    4.500 
#    0.000    4.375    0.000    0.000    0.000    0.000 
#    0.000    0.000    0.000    0.000    0.000    0.000 
#
# Total GULP energy -198212.608040 kJ/mol
# GULP energy per Si atom -12388.288002 kJ/mol
# Density = 2.236868 g / cm^3
# Si number density = 22.419710 Si / 1000 Ang^3
#
#
#
# Elastic Constant Matrix: (Units=GPa)
#
#
# Indices 1 2 3 4 5 6 
#
# 1 69.6281 28.1884 36.4917 -14.5544 -2.4759 7.1074
# 2 28.1884 103.2991 65.5896 -0.3300 -7.5672 3.9101
# 3 36.4917 65.5896 177.4801 16.3506 -0.4328 7.0758
# 4 -14.5544 -0.3300 16.3506 63.0204 0.1821 7.6151
# 5 -2.4759 -7.5672 -0.4328 0.1821 30.9182 -6.5122
# 6 7.1074 3.9101 7.0758 7.6151 -6.5122 12.0911
#
#
#
# Elastic Compliance Matrix: (Units=1/GPa)
#
#
# Indices 1 2 3 4 5 6 
#
# 1 0.020199 -0.003150 -0.003068 0.007253 -0.002379 -0.014908
# 2 -0.003150 0.013544 -0.004443 0.000281 0.003358 0.001704
# 3 -0.003068 -0.004443 0.008181 -0.002791 -0.001306 -0.000492
# 4 0.007253 0.000281 -0.002791 0.020360 -0.003140 -0.017235
# 5 -0.002379 0.003358 -0.001306 -0.003140 0.037920 0.023478
# 6 -0.014908 0.001704 -0.000492 -0.017235 0.023478 0.114705
#
#
# Mechanical properties :
#
#
# Convention : Reuss Voigt Hill
#
# Bulk Modulus (GPa) = 48.54440 67.88298 58.21369
# Shear Modulus (GPa) = 20.56773 35.88179 28.22476
#
# Velocity S-wave (km/s) = 3.03214 4.00491 3.55198
# Velocity P-wave (km/s) = 5.82735 7.19234 6.54552
#
# Compressibility (1/GPa) = 0.02059970
#
# Stress axis : x y z
#
# Youngs Moduli (GPa) = 49.50789 73.83457 122.23583
#
# Poissons Ratio (x) = 0.23261 0.37507
# Poissons Ratio (y) = 0.15597 0.54310
# Poissons Ratio (z) = 0.15191 0.32805
#
# Static dielectric constant tensor:
#      x y z
#    x 3.802560 -0.053990 0.213790 
#    y -0.053990 4.560150 0.246590 
#    z 0.213790 0.246590 4.749260 
# 
# 
# High freq. dielectric constant tensor:
#      x y z
#    x 1.841420 -0.019020 0.022150 
#    y -0.019020 1.890390 0.005240 
#    z 0.022150 0.005240 1.910450 
# 
# From -- ./inp_files/392363.got.cif
#   From: 2010.06.25/outbox.cif.g09.slc.cpg/sg2_197_cif.got.tgz:392363.got - 2010.06.27 13:26:56.
