data_PCOD8019799
_publ_section_title
;
Structure prediction by ZEFSAII (Michael W. Deem and Ramdas Pophale) SiO2 
 PCOD8019799
Probable space group: P -1
;
_chemical_formula_sum "Si O2"
_cell_formula_units_Z 14
_cell_length_a 19.802041
_cell_length_b 13.165479
_cell_length_c 11.482380
_cell_angle_alpha 30.929743
_cell_angle_beta 154.777856
_cell_angle_gamma 146.750493
_cell_volume 630.334556
_symmetry_space_group_name_H-M "P -1"
_symmetry_group_IT_number 2
_symmetry_cell_setting 'triclinic'
loop_
_space_group_symop_operation_xyz
x,y,z
-x,-y,-z
loop_
_atom_site_type_symbol
_atom_site_label
_atom_site_fract_x
_atom_site_fract_y
_atom_site_fract_z
Si Si1 0.396618 0.266229 0.042116
Si Si2 0.923731 0.258464 0.618426
Si Si3 0.519233 0.823268 0.285511
Si Si4 0.873454 0.792997 0.824171
Si Si5 0.837000 0.349587 0.149144
Si Si6 0.028122 0.113671 0.554796
Si Si7 0.597115 0.028529 0.447612
O O1 0.479357 0.164762 0.170292
O O2 0.378962 0.131619 0.262353
O O3 0.500000 0.500000 0.000000
O O4 0.214464 0.254270 0.723469
O O5 0.864051 0.199494 0.448668
O O6 0.766384 0.195670 0.517912
O O7 0.000000 0.500000 0.500000
O O8 0.058308 0.150544 0.991422
O O9 0.677355 0.754164 0.558972
O O10 0.521288 0.890272 0.355759
O O11 0.350319 0.647401 0.172004
O O12 0.500000 0.000000 0.000000
O O13 0.925757 0.584929 0.082683
O O14 0.973978 0.945760 0.735435
O O15 0.914007 0.270075 0.234142
O O16 0.000000 0.000000 0.500000
#
# Coordination Sequence:
#
# PCOD8019799 Si02
#       7
#     2   2   2   2   2   2   2
#     4  11  28  44  71 100 137 192 237 285 341 418
#     4  10  22  41  73 102 132 174 228 287 346 412
#     4  12  23  43  70 104 140 179 222 290 357 418
#     4  11  25  43  71 102 139 180 229 287 354 409
#     4  11  25  43  71 104 141 174 232 285 353 421
#     4  12  26  44  70  98 140 188 238 283 345 409
#     4  11  24  46  68  97 143 176 231 287 349 405
#
# _framework density 22.210428
#
# number of rings (size 3 to 8) (size 9 to 14) (size 15 to 20)
#    0.000    0.857    4.286    1.286    6.000    4.000 
#    0.000    0.000    0.000    0.000    0.000    0.000 
#    0.000    0.000    0.000    0.000    0.000    0.000 
#
# Total GULP energy -173522.832378 kJ/mol
# GULP energy per Si atom -12394.488027 kJ/mol
# Density = 2.215988 g / cm^3
# Si number density = 22.210428 Si / 1000 Ang^3
#
#
#
# Elastic Constant Matrix: (Units=GPa)
#
#
# Indices 1 2 3 4 5 6 
#
# 1 124.0277 54.7720 44.9488 0.6748 4.1561 -5.9648
# 2 54.7720 120.2868 41.3841 18.0615 1.2529 7.7935
# 3 44.9488 41.3841 124.6225 24.5615 6.1428 2.1457
# 4 0.6748 18.0615 24.5615 39.4184 -0.1829 4.5096
# 5 4.1561 1.2529 6.1428 -0.1829 28.4495 6.7805
# 6 -5.9648 7.7935 2.1457 4.5096 6.7805 35.3394
#
#
#
# Elastic Compliance Matrix: (Units=1/GPa)
#
#
# Indices 1 2 3 4 5 6 
#
# 1 0.011581 -0.004890 -0.003267 0.003724 -0.001471 0.003039
# 2 -0.004890 0.011810 -0.001350 -0.004133 0.001186 -0.003048
# 3 -0.003267 -0.001350 0.010962 -0.006193 -0.001927 0.000241
# 4 0.003724 -0.004133 -0.006193 0.031342 0.001753 -0.002420
# 5 -0.001471 0.001186 -0.001927 0.001753 0.037607 -0.007832
# 6 0.003039 -0.003048 0.000241 -0.002420 -0.007832 0.031279
#
#
# Mechanical properties :
#
#
# Convention : Reuss Voigt Hill
#
# Bulk Modulus (GPa) = 65.18795 72.34963 68.76879
# Shear Modulus (GPa) = 31.50428 35.83028 33.66728
#
# Velocity S-wave (km/s) = 3.77031 4.02085 3.89759
# Velocity P-wave (km/s) = 6.95468 7.36217 7.16132
#
# Compressibility (1/GPa) = 0.01534026
#
# Stress axis : x y z
#
# Youngs Moduli (GPa) = 86.34498 84.67279 91.22391
#
# Poissons Ratio (x) = 0.41407 0.29802
# Poissons Ratio (y) = 0.42225 0.12311
# Poissons Ratio (z) = 0.28208 0.11427
#
# Static dielectric constant tensor:
#      x y z
#    x 4.140130 0.015050 -0.058800 
#    y 0.015050 3.728640 -0.231320 
#    z -0.058800 -0.231320 3.797630 
# 
# 
# High freq. dielectric constant tensor:
#      x y z
#    x 1.876590 -0.007230 -0.000860 
#    y -0.007230 1.891560 0.007650 
#    z -0.000860 0.007650 1.885940 
# 
# From -- ./inp_files/471891.got.cif
#   From: 2010.06.25/outbox.cif.g09.slc.cpg/sg2_236_cif.got.tgz:471891.got - 2010.06.27 13:26:56.
