data_PCOD8019616
_publ_section_title
;
Structure prediction by ZEFSAII (Michael W. Deem and Ramdas Pophale) SiO2 
 PCOD8019616
Probable space group: P -1
;
_chemical_formula_sum "Si O2"
_cell_formula_units_Z 14
_cell_length_a 8.449411
_cell_length_b 6.244425
_cell_length_c 15.407698
_cell_angle_alpha 94.928166
_cell_angle_beta 87.213546
_cell_angle_gamma 51.939786
_cell_volume 632.341586
_symmetry_space_group_name_H-M "P -1"
_symmetry_group_IT_number 2
_symmetry_cell_setting 'triclinic'
loop_
_space_group_symop_operation_xyz
x,y,z
-x,-y,-z
loop_
_atom_site_type_symbol
_atom_site_label
_atom_site_fract_x
_atom_site_fract_y
_atom_site_fract_z
Si Si1 0.941119 0.462217 0.812878
Si Si2 0.112326 0.164669 0.319791
Si Si3 0.384076 0.023544 0.088639
Si Si4 0.298798 0.721867 0.621083
Si Si5 0.612049 0.106315 0.542661
Si Si6 0.628154 0.346097 0.821692
Si Si7 0.365477 0.913729 0.789170
O O1 0.955766 0.561974 0.720647
O O2 0.852835 0.705534 0.895431
O O3 0.797323 0.381128 0.815926
O O4 0.154281 0.196568 0.832189
O O5 0.919975 0.169967 0.335173
O O6 0.207901 0.139928 0.410140
O O7 0.298529 0.892382 0.257053
O O8 0.469475 0.060670 0.176828
O O9 0.396957 0.754805 0.088470
O O10 0.500000 0.000000 0.000000
O O11 0.452526 0.390508 0.609017
O O12 0.280399 0.833940 0.529556
O O13 0.377002 0.856187 0.683645
O O14 0.500000 0.000000 0.500000
O O15 0.408387 0.639383 0.819123
#
# Coordination Sequence:
#
# PCOD8019616 Si02
#       7
#     2   2   2   2   2   2   2
#     4  10  24  39  69 100 124 174 220 263 322 386
#     4  11  23  42  66  92 131 170 223 266 320 386
#     4  10  25  45  67  99 135 167 211 269 326 389
#     4  11  25  41  66  95 130 174 221 270 325 379
#     4  11  27  42  63  94 134 175 220 272 326 375
#     4  10  22  41  69  91 129 167 214 265 324 382
#     4  11  23  41  69  96 128 172 220 262 327 388
#
# _framework density 22.139932999999999
#
# number of rings (size 3 to 8) (size 9 to 14) (size 15 to 20)
#    0.000    1.429    2.857    0.429   10.000    3.429 
#    0.000    1.429    0.000    0.000    0.000    0.000 
#    0.000    0.000    0.000    0.000    0.000    0.000 
#
# Total GULP energy -173457.452149 kJ/mol
# GULP energy per Si atom -12389.818011 kJ/mol
# Density = 2.208954 g / cm^3
# Si number density = 22.139933 Si / 1000 Ang^3
#
#
#
# Elastic Constant Matrix: (Units=GPa)
#
#
# Indices 1 2 3 4 5 6 
#
# 1 86.1266 40.5000 33.1169 -14.2159 -15.7769 9.7124
# 2 40.5000 159.6819 30.7782 -6.7216 -23.2252 -12.5569
# 3 33.1169 30.7782 54.3733 -3.3969 -24.7589 3.2516
# 4 -14.2159 -6.7216 -3.3969 28.6920 9.6482 -8.1910
# 5 -15.7769 -23.2252 -24.7589 9.6482 38.3437 -1.0347
# 6 9.7124 -12.5569 3.2516 -8.1910 -1.0347 37.1089
#
#
#
# Elastic Compliance Matrix: (Units=1/GPa)
#
#
# Indices 1 2 3 4 5 6 
#
# 1 0.017782 -0.002995 -0.009669 0.006860 -0.002559 -0.003377
# 2 -0.002995 0.008050 -0.001812 0.000454 0.002463 0.003836
# 3 -0.009669 -0.001812 0.033324 -0.008116 0.018422 -0.002280
# 4 0.006860 0.000454 -0.008116 0.044196 -0.013035 0.008461
# 5 -0.002559 0.002463 0.018422 -0.013035 0.041645 -0.001827
# 6 -0.003377 0.003836 -0.002280 0.008461 -0.001827 0.031146
#
#
# Mechanical properties :
#
#
# Convention : Reuss Voigt Hill
#
# Bulk Modulus (GPa) = 33.10925 56.55241 44.83083
# Shear Modulus (GPa) = 23.23798 33.88135 28.55966
#
# Velocity S-wave (km/s) = 3.24326 3.91618 3.59550
# Velocity P-wave (km/s) = 5.38628 6.78582 6.12614
#
# Compressibility (1/GPa) = 0.03020304
#
# Stress axis : x y z
#
# Youngs Moduli (GPa) = 56.23757 124.21764 30.00807
#
# Poissons Ratio (x) = 0.37206 0.29016
# Poissons Ratio (y) = 0.16844 0.05438
# Poissons Ratio (z) = 0.54378 0.22511
#
# Static dielectric constant tensor:
#      x y z
#    x 3.889720 -0.170270 -0.097550 
#    y -0.170270 5.120170 -0.071210 
#    z -0.097550 -0.071210 3.865200 
# 
# 
# High freq. dielectric constant tensor:
#      x y z
#    x 1.864030 0.003710 -0.011820 
#    y 0.003710 1.893920 -0.004300 
#    z -0.011820 -0.004300 1.851330 
# 
# From -- ./inp_files/105909.got.cif
#   From: 2010.06.25/outbox.cif.g09.slc.cpg/sg2_53_cif.got.tgz:105909.got - 2010.06.27 13:26:56.
