data_PCOD8019152
_publ_section_title
;
Structure prediction by ZEFSAII (Michael W. Deem and Ramdas Pophale) SiO2 
 PCOD8019152
Probable space group: P -1
;
_chemical_formula_sum "Si O2"
_cell_formula_units_Z 12
_cell_length_a 5.142762
_cell_length_b 8.741959
_cell_length_c 16.176561
_cell_angle_alpha 45.902771
_cell_angle_beta 98.309983
_cell_angle_gamma 84.073266
_cell_volume 495.090994
_symmetry_space_group_name_H-M "P -1"
_symmetry_group_IT_number 2
_symmetry_cell_setting 'triclinic'
loop_
_space_group_symop_operation_xyz
x,y,z
-x,-y,-z
loop_
_atom_site_type_symbol
_atom_site_label
_atom_site_fract_x
_atom_site_fract_y
_atom_site_fract_z
Si Si1 0.126852 0.580252 0.192455
Si Si2 0.589163 0.624041 0.071827
Si Si3 0.797166 0.848709 0.550991
Si Si4 0.239891 0.257543 0.592258
Si Si5 0.208314 0.756651 0.306152
Si Si6 0.235716 0.836447 0.830961
O O1 0.369038 0.572377 0.142786
O O2 0.112900 0.330780 0.304391
O O3 0.185220 0.701237 0.230983
O O4 0.823605 0.711002 0.094854
O O5 0.757388 0.401704 0.114680
O O6 0.433088 0.810664 0.929733
O O7 0.794598 0.707830 0.520540
O O8 0.500000 0.000000 0.500000
O O9 0.000000 0.000000 0.500000
O O10 0.481847 0.338542 0.613622
O O11 0.957900 0.366626 0.591676
O O12 0.330135 0.988337 0.710646
O O13 0.074990 0.024103 0.208563
#
# Coordination Sequence:
#
# PCOD8019152 Si02
#       6
#     2   2   2   2   2   2
#     4  12  26  43  63 103 125 169 215 264 323 371
#     4  11  25  40  69  92 136 164 218 266 306 391
#     4  12  25  42  69  95 129 164 211 272 319 373
#     4  10  22  41  65  91 127 173 211 257 314 386
#     4  10  24  41  66  94 133 169 211 259 321 382
#     4   9  24  42  66  95 127 177 211 257 328 363
#
# _framework density 24.237971000000002
#
# number of rings (size 3 to 8) (size 9 to 14) (size 15 to 20)
#    1.000    0.333    0.000    5.000    7.000    4.000 
#    0.000    0.000    0.000    0.000    0.000    0.000 
#    0.000    0.000    0.000    0.000    0.000    0.000 
#
# Total GULP energy -148800.006610 kJ/mol
# GULP energy per Si atom -12400.000551 kJ/mol
# Density = 2.418280 g / cm^3
# Si number density = 24.237971 Si / 1000 Ang^3
#
#
#
# Elastic Constant Matrix: (Units=GPa)
#
#
# Indices 1 2 3 4 5 6 
#
# 1 173.4077 35.2165 20.7131 18.8035 30.3036 -5.2021
# 2 35.2165 76.0166 9.5850 19.5512 5.5418 -12.4353
# 3 20.7131 9.5850 78.6291 22.3064 13.1673 -8.1005
# 4 18.8035 19.5512 22.3064 38.5850 8.2859 9.2947
# 5 30.3036 5.5418 13.1673 8.2859 38.3420 9.1099
# 6 -5.2021 -12.4353 -8.1005 9.2947 9.1099 38.4054
#
#
#
# Elastic Compliance Matrix: (Units=1/GPa)
#
#
# Indices 1 2 3 4 5 6 
#
# 1 0.007472 -0.002260 -0.000036 -0.001749 -0.005674 0.002042
# 2 -0.002260 0.018622 0.003014 -0.012054 -0.001632 0.009664
# 3 -0.000036 0.003014 0.017968 -0.012846 -0.006010 0.009295
# 4 -0.001749 -0.012054 -0.012846 0.044168 0.002287 -0.018081
# 5 -0.005674 -0.001632 -0.006010 0.002287 0.035089 -0.011441
# 6 0.002042 0.009664 0.009295 -0.018081 -0.011441 0.038494
#
#
# Mechanical properties :
#
#
# Convention : Reuss Voigt Hill
#
# Bulk Modulus (GPa) = 21.97888 51.00920 36.49404
# Shear Modulus (GPa) = 28.48283 40.56906 34.52595
#
# Velocity S-wave (km/s) = 3.43174 4.09563 3.77829
# Velocity P-wave (km/s) = 4.97896 6.59215 5.84151
#
# Compressibility (1/GPa) = 0.04549823
#
# Stress axis : x y z
#
# Youngs Moduli (GPa) = 133.82476 53.70002 55.65345
#
# Poissons Ratio (x) = 0.12135 0.00202
# Poissons Ratio (y) = 0.30240 -0.16772
# Poissons Ratio (z) = 0.00486 -0.16184
#
# Static dielectric constant tensor:
#      x y z
#    x 4.178810 -0.142940 0.071270 
#    y -0.142940 4.144700 0.010680 
#    z 0.071270 0.010680 4.869030 
# 
# 
# High freq. dielectric constant tensor:
#      x y z
#    x 1.961940 -0.008160 0.006800 
#    y -0.008160 1.965160 -0.003970 
#    z 0.006800 -0.003970 1.989870 
# 
# From -- ./inp_files/100074.got.cif
#   From: 2010.06.25/outbox.cif.g09.slc.cpg/sg2_51_cif.got.tgz:100074.got - 2010.06.27 13:26:56.
