data_PCOD8019824
_publ_section_title
;
Structure prediction by ZEFSAII (Michael W. Deem and Ramdas Pophale) SiO2 
 PCOD8019824
Probable space group: P -1
;
_chemical_formula_sum "Si O2"
_cell_formula_units_Z 16
_cell_length_a 11.460415
_cell_length_b 8.803432
_cell_length_c 12.045873
_cell_angle_alpha 97.938219
_cell_angle_beta 51.408481
_cell_angle_gamma 125.114868
_cell_volume 729.267550
_symmetry_space_group_name_H-M "P -1"
_symmetry_group_IT_number 2
_symmetry_cell_setting 'triclinic'
loop_
_space_group_symop_operation_xyz
x,y,z
-x,-y,-z
loop_
_atom_site_type_symbol
_atom_site_label
_atom_site_fract_x
_atom_site_fract_y
_atom_site_fract_z
Si Si1 0.134949 0.236573 0.544783
Si Si2 0.001801 0.632363 0.798849
Si Si3 0.764950 0.033573 0.887809
Si Si4 0.987392 0.163554 0.981898
Si Si5 0.747827 0.489852 0.306591
Si Si6 0.936147 0.289897 0.480865
Si Si7 0.609974 0.261372 0.011453
Si Si8 0.591164 0.866635 0.654209
O O1 0.282518 0.428581 0.555376
O O2 0.237788 0.146253 0.441266
O O3 0.940962 0.083586 0.715564
O O4 0.080412 0.277611 0.464423
O O5 0.084006 0.788909 0.864383
O O6 0.078111 0.510468 0.763449
O O7 0.049324 0.730028 0.660831
O O8 0.771238 0.494457 0.928026
O O9 0.576119 0.807203 0.955801
O O10 0.809662 0.056904 0.992848
O O11 0.703634 0.164659 0.899029
O O12 0.179116 0.357736 0.826077
O O13 0.000000 0.000000 0.000000
O O14 0.549543 0.267536 0.379450
O O15 0.000000 0.500000 0.500000
O O16 0.707601 0.103888 0.612885
O O17 0.555642 0.218523 0.167327
#
# Coordination Sequence:
#
# PCOD8019824 Si02
#       8
#     2   2   2   2   2   2   2   2
#     4  11  23  47  70 101 143 188 220 300 354 418
#     4  12  24  46  73  99 144 185 234 291 350 414
#     4  10  22  41  74  97 135 181 235 271 354 414
#     4  11  24  42  69 103 143 180 228 298 346 408
#     4  11  23  48  72  98 140 194 235 276 356 433
#     4  12  26  47  68 106 144 185 236 293 350 417
#     4  11  21  43  73 102 124 191 236 277 336 431
#     4  12  26  42  76 102 140 187 241 280 359 421
#
# _framework density 21.939820999999998
#
# number of rings (size 3 to 8) (size 9 to 14) (size 15 to 20)
#    0.000    0.750    6.250    1.875    5.250    0.500 
#    2.250    1.250    0.000    0.000    0.000    0.000 
#    0.000    0.000    0.000    0.000    0.000    0.000 
#
# Total GULP energy -198268.378268 kJ/mol
# GULP energy per Si atom -12391.773642 kJ/mol
# Density = 2.188989 g / cm^3
# Si number density = 21.939821 Si / 1000 Ang^3
#
#
#
# Elastic Constant Matrix: (Units=GPa)
#
#
# Indices 1 2 3 4 5 6 
#
# 1 103.9591 34.9260 22.8499 -11.9150 8.4485 29.2491
# 2 34.9260 93.8763 15.6057 -9.8617 2.0204 20.7761
# 3 22.8499 15.6057 71.0524 6.2180 6.5650 4.9162
# 4 -11.9150 -9.8617 6.2180 31.8676 11.3751 -9.9324
# 5 8.4485 2.0204 6.5650 11.3751 44.8403 2.9835
# 6 29.2491 20.7761 4.9162 -9.9324 2.9835 37.5572
#
#
#
# Elastic Compliance Matrix: (Units=1/GPa)
#
#
# Indices 1 2 3 4 5 6 
#
# 1 0.014073 -0.002453 -0.003522 0.003546 -0.002392 -0.008014
# 2 -0.002453 0.013117 -0.001960 0.002148 -0.000087 -0.004515
# 3 -0.003522 -0.001960 0.016057 -0.004746 -0.000429 0.000504
# 4 0.003546 0.002148 -0.004746 0.040814 -0.010978 0.008337
# 5 -0.002392 -0.000087 -0.000429 -0.010978 0.025802 -0.002986
# 6 -0.008014 -0.004515 0.000504 0.008337 -0.002986 0.037741
#
#
# Mechanical properties :
#
#
# Convention : Reuss Voigt Hill
#
# Bulk Modulus (GPa) = 36.52477 46.18344 41.35410
# Shear Modulus (GPa) = 28.96880 35.88676 32.42778
#
# Velocity S-wave (km/s) = 3.63764 4.04875 3.84869
# Velocity P-wave (km/s) = 5.85893 6.55380 6.21608
#
# Compressibility (1/GPa) = 0.02737868
#
# Stress axis : x y z
#
# Youngs Moduli (GPa) = 71.05890 76.23514 62.27701
#
# Poissons Ratio (x) = 0.18697 0.21933
# Poissons Ratio (y) = 0.17428 0.12206
# Poissons Ratio (z) = 0.25026 0.14942
#
# Static dielectric constant tensor:
#      x y z
#    x 4.065040 0.359910 0.063840 
#    y 0.359910 4.117040 0.074140 
#    z 0.063840 0.074140 3.893850 
# 
# 
# High freq. dielectric constant tensor:
#      x y z
#    x 1.860010 0.032560 0.000550 
#    y 0.032560 1.871440 0.012920 
#    z 0.000550 0.012920 1.853850 
# 
# From -- ./inp_files/419429.got.cif
#   From: 2010.06.25/outbox.cif.g09.slc.cpg/sg2_210_cif.got.tgz:419429.got - 2010.06.27 13:26:56.
