data_PCOD8019347
_publ_section_title
;
Structure prediction by ZEFSAII (Michael W. Deem and Ramdas Pophale) SiO2 
 PCOD8019347
Probable space group: P -1
;
_chemical_formula_sum "Si O2"
_cell_formula_units_Z 14
_cell_length_a 8.866298
_cell_length_b 9.157780
_cell_length_c 11.652894
_cell_angle_alpha 68.176141
_cell_angle_beta 74.578149
_cell_angle_gamma 122.892672
_cell_volume 589.960196
_symmetry_space_group_name_H-M "P -1"
_symmetry_group_IT_number 2
_symmetry_cell_setting 'triclinic'
loop_
_space_group_symop_operation_xyz
x,y,z
-x,-y,-z
loop_
_atom_site_type_symbol
_atom_site_label
_atom_site_fract_x
_atom_site_fract_y
_atom_site_fract_z
Si Si1 0.116509 0.318399 0.863919
Si Si2 0.087233 0.300049 0.372229
Si Si3 0.302928 0.929894 0.137864
Si Si4 0.164013 0.052244 0.796864
Si Si5 0.649764 0.299877 0.634210
Si Si6 0.847487 0.932520 0.712717
Si Si7 0.273415 0.732713 0.617913
O O1 0.233130 0.247928 0.807866
O O2 0.272713 0.589677 0.755202
O O3 0.905059 0.213534 0.860984
O O4 0.031600 0.203976 0.039871
O O5 0.274213 0.501974 0.360338
O O6 0.232311 0.289119 0.263072
O O7 0.951231 0.322818 0.310278
O O8 0.895506 0.080706 0.552373
O O9 0.259393 0.789691 0.296524
O O10 0.326952 0.119219 0.141994
O O11 0.500000 0.000000 0.000000
O O12 0.382979 0.103010 0.726725
O O13 0.085597 0.065105 0.687634
O O14 0.756425 0.380767 0.463391
O O15 0.500000 0.000000 0.500000
#
# Coordination Sequence:
#
# PCOD8019347 Si02
#       7
#     2   2   2   2   2   2   2
#     4  10  22  41  68  95 137 176 224 278 340 401
#     4  11  23  42  69  99 137 177 229 283 337 400
#     4  11  20  40  71  98 130 180 228 276 337 407
#     4  10  22  41  67 100 133 178 221 279 341 400
#     4  12  22  40  71  99 129 181 231 274 340 400
#     4  10  23  42  66  97 141 179 224 282 336 401
#     4  12  25  42  69 103 136 177 231 283 337 401
#
# _framework density 23.730415000000001
#
# number of rings (size 3 to 8) (size 9 to 14) (size 15 to 20)
#    0.000    1.143    4.286    3.000    0.000    4.571 
#    0.000    5.000    0.000    0.000    0.000    0.000 
#    0.000    0.000    0.000    0.000    0.000    0.000 
#
# Total GULP energy -173443.017789 kJ/mol
# GULP energy per Si atom -12388.786985 kJ/mol
# Density = 2.367640 g / cm^3
# Si number density = 23.730415 Si / 1000 Ang^3
#
#
#
# Elastic Constant Matrix: (Units=GPa)
#
#
# Indices 1 2 3 4 5 6 
#
# 1 74.9234 18.5383 20.9889 8.4266 1.8865 -18.0770
# 2 18.5383 122.6644 29.5895 7.1035 -14.1345 -31.0520
# 3 20.9889 29.5895 69.4839 -2.6585 4.3740 -25.6395
# 4 8.4266 7.1035 -2.6585 39.6231 -14.2329 -1.4225
# 5 1.8865 -14.1345 4.3740 -14.2329 39.1037 2.0831
# 6 -18.0770 -31.0520 -25.6395 -1.4225 2.0831 37.6197
#
#
#
# Elastic Compliance Matrix: (Units=1/GPa)
#
#
# Indices 1 2 3 4 5 6 
#
# 1 0.016063 -0.000429 -0.002627 -0.004200 -0.002461 0.005552
# 2 -0.000429 0.011009 -0.002155 -0.000441 0.003698 0.007191
# 3 -0.002627 -0.002155 0.020456 0.001665 -0.002927 0.011126
# 4 -0.004200 -0.000441 0.001665 0.030208 0.010890 -0.000708
# 5 -0.002461 0.003698 -0.002927 0.010890 0.031397 -0.001452
# 6 0.005552 0.007191 0.011126 -0.000708 -0.001452 0.042822
#
#
# Mechanical properties :
#
#
# Convention : Reuss Voigt Hill
#
# Bulk Modulus (GPa) = 26.94872 45.03390 35.99131
# Shear Modulus (GPa) = 28.61331 36.46629 32.53980
#
# Velocity S-wave (km/s) = 3.47618 3.92432 3.70703
# Velocity P-wave (km/s) = 5.24334 6.28905 5.78985
#
# Compressibility (1/GPa) = 0.03710751
#
# Stress axis : x y z
#
# Youngs Moduli (GPa) = 62.25611 90.83616 48.88451
#
# Poissons Ratio (x) = 0.03896 0.12840
# Poissons Ratio (y) = 0.02670 0.10533
# Poissons Ratio (z) = 0.16352 0.19573
#
# Static dielectric constant tensor:
#      x y z
#    x 4.492210 -0.392470 0.226080 
#    y -0.392470 4.395880 0.238050 
#    z 0.226080 0.238050 4.225040 
# 
# 
# High freq. dielectric constant tensor:
#      x y z
#    x 1.956540 -0.018790 0.012300 
#    y -0.018790 1.926390 0.018990 
#    z 0.012300 0.018990 1.915940 
# 
# From -- ./inp_files/156876.got.cif
#   From: 2010.06.25/outbox.cif.g09.slc.cpg/sg2_79_cif.got.tgz:156876.got - 2010.06.27 13:26:56.
