data_PCOD8019860
_publ_section_title
;
Structure prediction by ZEFSAII (Michael W. Deem and Ramdas Pophale) SiO2 
 PCOD8019860
Probable space group: P -1
;
_chemical_formula_sum "Si O2"
_cell_formula_units_Z 14
_cell_length_a 21.782248
_cell_length_b 8.490390
_cell_length_c 18.394091
_cell_angle_alpha 48.317133
_cell_angle_beta 162.421345
_cell_angle_gamma 138.470685
_cell_volume 660.753216
_symmetry_space_group_name_H-M "P -1"
_symmetry_group_IT_number 2
_symmetry_cell_setting 'triclinic'
loop_
_space_group_symop_operation_xyz
x,y,z
-x,-y,-z
loop_
_atom_site_type_symbol
_atom_site_label
_atom_site_fract_x
_atom_site_fract_y
_atom_site_fract_z
Si Si1 0.921264 0.860847 0.084524
Si Si2 0.914111 0.018369 0.607390
Si Si3 0.388124 0.864870 0.582774
Si Si4 0.838031 0.819060 0.309936
Si Si5 0.782152 0.244311 0.810028
Si Si6 0.641923 0.272822 0.247604
Si Si7 0.591134 0.451046 0.414176
O O1 0.930385 0.862504 0.182158
O O2 0.146304 0.870220 0.299217
O O3 0.680137 0.612435 0.866857
O O4 0.894407 0.085632 0.956300
O O5 0.764035 0.147798 0.380193
O O6 0.073033 0.054421 0.706436
O O7 0.750730 0.732218 0.527081
O O8 0.448061 0.860737 0.735723
O O9 0.357197 0.619951 0.585275
O O10 0.606942 0.109958 0.721165
O O11 0.830379 0.560866 0.384894
O O12 0.571448 0.764360 0.033398
O O13 0.000000 0.000000 0.500000
O O14 0.632530 0.277863 0.568342
O O15 0.000000 0.500000 0.000000
#
# Coordination Sequence:
#
# PCOD8019860 Si02
#       7
#     2   2   2   2   2   2   2
#     4  10  22  42  61  89 125 164 208 251 303 357
#     4  11  23  41  63  90 125 162 198 255 305 358
#     4  10  22  42  63  87 125 163 204 258 302 357
#     4  11  23  41  66  91 122 158 200 250 307 364
#     4  11  22  39  61  92 125 163 207 252 304 357
#     4  10  24  42  61  93 120 158 205 248 305 365
#     4  11  23  38  62  91 123 163 208 249 304 357
#
# _framework density 21.187943000000001
#
# number of rings (size 3 to 8) (size 9 to 14) (size 15 to 20)
#    0.000    1.429    1.429    4.714    0.000    8.000 
#    2.571    0.000    0.000    0.000    0.000    0.000 
#    0.000    0.000    0.000    0.000    0.000    0.000 
#
# Total GULP energy -173623.040786 kJ/mol
# GULP energy per Si atom -12401.645770 kJ/mol
# Density = 2.113972 g / cm^3
# Si number density = 21.187943 Si / 1000 Ang^3
#
#
#
# Elastic Constant Matrix: (Units=GPa)
#
#
# Indices 1 2 3 4 5 6 
#
# 1 45.5982 10.5014 20.9416 5.5647 2.4614 -0.6446
# 2 10.5014 106.7182 36.1119 -1.4487 7.0132 2.5003
# 3 20.9416 36.1119 114.3543 -4.0038 4.7382 -5.5227
# 4 5.5647 -1.4487 -4.0038 34.3426 -2.6855 4.4521
# 5 2.4614 7.0132 4.7382 -2.6855 30.9007 -0.7852
# 6 -0.6446 2.5003 -5.5227 4.4521 -0.7852 26.5676
#
#
#
# Elastic Compliance Matrix: (Units=1/GPa)
#
#
# Indices 1 2 3 4 5 6 
#
# 1 0.024802 -0.000959 -0.004317 -0.004750 -0.001495 0.000546
# 2 -0.000959 0.010721 -0.003208 0.000321 -0.001883 -0.001809
# 3 -0.004317 -0.003208 0.010722 0.001504 -0.000386 0.002162
# 4 -0.004750 0.000321 0.001504 0.030923 0.002637 -0.004937
# 5 -0.001495 -0.001883 -0.000386 0.002637 0.033212 0.000600
# 6 0.000546 -0.001809 0.002162 -0.004937 0.000600 0.039118
#
#
# Mechanical properties :
#
#
# Convention : Reuss Voigt Hill
#
# Bulk Modulus (GPa) = 34.15696 44.64228 39.39962
# Shear Modulus (GPa) = 28.37288 31.63657 30.00473
#
# Velocity S-wave (km/s) = 3.66335 3.86831 3.76722
# Velocity P-wave (km/s) = 5.83519 6.40837 6.12848
#
# Compressibility (1/GPa) = 0.02927661
#
# Stress axis : x y z
#
# Youngs Moduli (GPa) = 40.31868 93.27624 93.27032
#
# Poissons Ratio (x) = 0.08943 0.40267
# Poissons Ratio (y) = 0.03866 0.29921
# Poissons Ratio (z) = 0.17407 0.29923
#
# Static dielectric constant tensor:
#      x y z
#    x 3.666130 0.008640 0.032410 
#    y 0.008640 3.860800 -0.141950 
#    z 0.032410 -0.141950 4.047380 
# 
# 
# High freq. dielectric constant tensor:
#      x y z
#    x 1.818050 0.003800 -0.001530 
#    y 0.003800 1.834300 -0.004500 
#    z -0.001530 -0.004500 1.847730 
# 
# From -- ./inp_files/216093.got.cif
#   From: 2010.06.25/outbox.cif.g09.slc.cpg/sg2_109_cif.got.tgz:216093.got - 2010.06.27 13:26:56.
