data_PCOD8019519
_publ_section_title
;
Structure prediction by ZEFSAII (Michael W. Deem and Ramdas Pophale) SiO2 
 PCOD8019519
Probable space group: P -1
;
_chemical_formula_sum "Si O2"
_cell_formula_units_Z 16
_cell_length_a 9.652836
_cell_length_b 18.649753
_cell_length_c 15.740841
_cell_angle_alpha 36.915360
_cell_angle_beta 142.323828
_cell_angle_gamma 151.895944
_cell_volume 763.645646
_symmetry_space_group_name_H-M "P -1"
_symmetry_group_IT_number 2
_symmetry_cell_setting 'triclinic'
loop_
_space_group_symop_operation_xyz
x,y,z
-x,-y,-z
loop_
_atom_site_type_symbol
_atom_site_label
_atom_site_fract_x
_atom_site_fract_y
_atom_site_fract_z
Si Si1 0.840631 0.360296 0.663933
Si Si2 0.289972 0.198528 0.239654
Si Si3 0.755165 0.477104 0.844296
Si Si4 0.773782 0.099196 0.975595
Si Si5 0.982178 0.399893 0.331271
Si Si6 0.491935 0.619418 0.654771
Si Si7 0.844910 0.890323 0.110319
Si Si8 0.849272 0.097223 0.596506
O O1 0.734836 0.196313 0.802854
O O2 0.584710 0.307460 0.521316
O O3 0.848921 0.464139 0.642570
O O4 0.170167 0.454230 0.691019
O O5 0.616538 0.294910 0.259574
O O6 0.316583 0.253184 0.296504
O O7 0.084898 0.002537 0.327948
O O8 0.102966 0.225861 0.064713
O O9 0.704659 0.594227 0.739939
O O10 0.432783 0.295612 0.871504
O O11 0.879935 0.514553 0.773342
O O12 0.000000 0.500000 0.000000
O O13 0.500000 0.000000 0.000000
O O14 0.717173 0.957015 0.034402
O O15 0.053686 0.284040 0.489704
O O16 0.092066 0.904236 0.273381
O O17 0.000000 0.000000 0.000000
O O18 0.500000 0.000000 0.500000
#
# Coordination Sequence:
#
# PCOD8019519 Si02
#       8
#     2   2   2   2   2   2   2   2
#     4  10  22  42  69  93 127 172 217 267 331 393
#     4   9  22  41  66  94 128 177 218 267 329 400
#     4  12  28  41  67 102 140 169 226 283 334 389
#     4  11  24  40  64  90 127 170 222 264 329 389
#     4  10  22  41  68  93 132 175 222 268 334 394
#     4  10  23  42  65  98 128 168 217 274 328 386
#     4  11  25  43  67  97 134 175 218 274 332 393
#     4   9  20  41  69  95 127 176 224 264 329 403
#
# _framework density 20.952127999999998
#
# number of rings (size 3 to 8) (size 9 to 14) (size 15 to 20)
#    0.000    1.750    0.000    2.250   10.500    9.000 
#    0.000    1.250    0.000    0.000    0.000    0.000 
#    0.000    0.000    0.000    0.000    0.000    0.000 
#
# Total GULP energy -198366.668782 kJ/mol
# GULP energy per Si atom -12397.916799 kJ/mol
# Density = 2.090444 g / cm^3
# Si number density = 20.952128 Si / 1000 Ang^3
#
#
#
# Elastic Constant Matrix: (Units=GPa)
#
#
# Indices 1 2 3 4 5 6 
#
# 1 115.8410 17.9176 40.1976 7.6425 -6.7266 0.0219
# 2 17.9176 64.0919 43.3971 7.4938 -3.6523 -8.3752
# 3 40.1976 43.3971 150.2687 1.4516 -13.3713 3.5788
# 4 7.6425 7.4938 1.4516 33.3069 -0.4935 -6.5204
# 5 -6.7266 -3.6523 -13.3713 -0.4935 35.1912 -3.6076
# 6 0.0219 -8.3752 3.5788 -6.5204 -3.6076 29.2315
#
#
#
# Elastic Compliance Matrix: (Units=1/GPa)
#
#
# Indices 1 2 3 4 5 6 
#
# 1 0.009734 -0.000989 -0.002215 -0.001971 0.000852 -0.000354
# 2 -0.000989 0.021049 -0.005901 -0.003050 0.000338 0.006115
# 3 -0.002215 -0.005901 0.009196 0.001016 0.002235 -0.002312
# 4 -0.001971 -0.003050 0.001016 0.032367 0.000795 0.006321
# 5 0.000852 0.000338 0.002235 0.000795 0.029852 0.003684
# 6 -0.000354 0.006115 -0.002312 0.006321 0.003684 0.038110
#
#
# Mechanical properties :
#
#
# Convention : Reuss Voigt Hill
#
# Bulk Modulus (GPa) = 45.93461 59.24737 52.59099
# Shear Modulus (GPa) = 30.16172 34.79186 32.47679
#
# Velocity S-wave (km/s) = 3.79826 4.07939 3.94134
# Velocity P-wave (km/s) = 6.41926 7.10827 6.77253
#
# Compressibility (1/GPa) = 0.02177008
#
# Stress axis : x y z
#
# Youngs Moduli (GPa) = 102.73633 47.50749 108.74849
#
# Poissons Ratio (x) = 0.04696 0.24088
# Poissons Ratio (y) = 0.10156 0.64169
# Poissons Ratio (z) = 0.22756 0.28033
#
# Static dielectric constant tensor:
#      x y z
#    x 3.902170 -0.252170 0.112460 
#    y -0.252170 3.903220 -0.042060 
#    z 0.112460 -0.042060 4.261030 
# 
# 
# High freq. dielectric constant tensor:
#      x y z
#    x 1.820880 -0.013960 0.003410 
#    y -0.013960 1.817430 0.002470 
#    z 0.003410 0.002470 1.839470 
# 
# From -- ./inp_files/381484.got.cif
#   From: 2010.06.25/outbox.cif.g09.slc.cpg/sg2_191_cif.got.tgz:381484.got - 2010.06.27 13:26:56.
