data_PCOD8019372
_publ_section_title
;
Structure prediction by ZEFSAII (Michael W. Deem and Ramdas Pophale) SiO2 
 PCOD8019372
Probable space group: P -1
;
_chemical_formula_sum "Si O2"
_cell_formula_units_Z 14
_cell_length_a 9.977300
_cell_length_b 11.645240
_cell_length_c 11.993963
_cell_angle_alpha 123.618419
_cell_angle_beta 143.667946
_cell_angle_gamma 42.489344
_cell_volume 554.827411
_symmetry_space_group_name_H-M "P -1"
_symmetry_group_IT_number 2
_symmetry_cell_setting 'triclinic'
loop_
_space_group_symop_operation_xyz
x,y,z
-x,-y,-z
loop_
_atom_site_type_symbol
_atom_site_label
_atom_site_fract_x
_atom_site_fract_y
_atom_site_fract_z
Si Si1 0.493618 0.010599 0.761170
Si Si2 0.221857 0.805145 0.955031
Si Si3 0.818771 0.011796 0.284506
Si Si4 0.184372 0.442790 0.482388
Si Si5 0.749271 0.075778 0.639691
Si Si6 0.449455 0.625193 0.788119
Si Si7 0.963569 0.347819 0.090385
O O1 0.342778 0.062441 0.810996
O O2 0.300806 0.031653 0.539158
O O3 0.735134 0.810239 0.832593
O O4 0.588080 0.130063 0.862922
O O5 0.352701 0.661496 0.871418
O O6 0.203258 0.725710 0.013322
O O7 0.899984 0.960863 0.789194
O O8 0.599067 0.211649 0.214591
O O9 0.000000 0.000000 0.500000
O O10 0.019218 0.905451 0.255050
O O11 0.465422 0.250478 0.579908
O O12 0.272835 0.567382 0.578786
O O13 0.000000 0.500000 0.500000
O O14 0.994946 0.456208 0.261831
O O15 0.781650 0.470081 0.930278
#
# Coordination Sequence:
#
# PCOD8019372 Si02
#       7
#     2   2   2   2   2   2   2
#     4  10  22  41  67  92 126 173 213 260 315 370
#     4  11  22  39  63  98 129 166 211 263 313 380
#     4   9  21  46  66  92 125 167 223 260 307 378
#     4  11  23  42  64  94 133 170 202 259 327 382
#     4   9  22  41  64  92 128 166 214 261 310 373
#     4  11  24  41  64  93 134 166 208 266 316 375
#     4  11  24  41  61 101 133 164 211 260 323 382
#
# _framework density 25.233072
#
# number of rings (size 3 to 8) (size 9 to 14) (size 15 to 20)
#    0.000    1.714    1.429    1.714    0.000    9.714 
#    2.571    9.286    0.000    0.000    0.000    0.000 
#    0.000    0.000    0.000    0.000    0.000    0.000 
#
# Total GULP energy -173571.272647 kJ/mol
# GULP energy per Si atom -12397.948046 kJ/mol
# Density = 2.517564 g / cm^3
# Si number density = 25.233072 Si / 1000 Ang^3
#
#
#
# Elastic Constant Matrix: (Units=GPa)
#
#
# Indices 1 2 3 4 5 6 
#
# 1 83.5433 24.2770 28.0271 -4.5841 13.2390 0.1683
# 2 24.2770 70.5292 30.7099 -7.0110 8.6010 -0.4503
# 3 28.0271 30.7099 102.1690 12.6399 22.5146 18.6447
# 4 -4.5841 -7.0110 12.6399 46.2491 4.3342 -6.7014
# 5 13.2390 8.6010 22.5146 4.3342 24.2228 -2.3369
# 6 0.1683 -0.4503 18.6447 -6.7014 -2.3369 32.1265
#
#
#
# Elastic Compliance Matrix: (Units=1/GPa)
#
#
# Indices 1 2 3 4 5 6 
#
# 1 0.014618 -0.003068 -0.002619 0.002368 -0.004740 0.001550
# 2 -0.003068 0.018451 -0.006379 0.004906 0.000663 0.005048
# 3 -0.002619 -0.006379 0.018789 -0.007016 -0.013809 -0.013448
# 4 0.002368 0.004906 -0.007016 0.025919 -0.000235 0.009518
# 5 -0.004740 0.000663 -0.013809 -0.000235 0.057692 0.012196
# 6 0.001550 0.005048 -0.013448 0.009518 0.012196 0.041866
#
#
# Mechanical properties :
#
#
# Convention : Reuss Voigt Hill
#
# Bulk Modulus (GPa) = 36.06715 46.91882 41.49298
# Shear Modulus (GPa) = 23.72944 32.06817 27.89880
#
# Velocity S-wave (km/s) = 3.06994 3.56881 3.32873
# Velocity P-wave (km/s) = 5.18562 5.96795 5.59048
#
# Compressibility (1/GPa) = 0.02772606
#
# Stress axis : x y z
#
# Youngs Moduli (GPa) = 68.40890 54.19786 53.22382
#
# Poissons Ratio (x) = 0.16627 0.13940
# Poissons Ratio (y) = 0.20987 0.33950
# Poissons Ratio (z) = 0.17918 0.34571
#
# Static dielectric constant tensor:
#      x y z
#    x 2.643290 -0.728120 0.063240 
#    y -0.728120 4.326130 -0.064400 
#    z 0.063240 -0.064400 4.905790 
# 
# 
# High freq. dielectric constant tensor:
#      x y z
#    x 1.992940 -0.010280 0.004930 
#    y -0.010280 1.998140 -0.005410 
#    z 0.004930 -0.005410 2.025740 
# 
# From -- ./inp_files/519159.got.cif
#   From: 2010.06.25/outbox.cif.g09.slc.cpg/sg2_260_cif.got.tgz:519159.got - 2010.06.27 13:26:56.
