data_PCOD8019689
_publ_section_title
;
Structure prediction by ZEFSAII (Michael W. Deem and Ramdas Pophale) SiO2 
 PCOD8019689
Probable space group: P -1
;
_chemical_formula_sum "Si O2"
_cell_formula_units_Z 14
_cell_length_a 14.107438
_cell_length_b 8.478874
_cell_length_c 5.187419
_cell_angle_alpha 91.299821
_cell_angle_beta 89.271023
_cell_angle_gamma 59.708726
_cell_volume 535.431754
_symmetry_space_group_name_H-M "P -1"
_symmetry_group_IT_number 2
_symmetry_cell_setting 'triclinic'
loop_
_space_group_symop_operation_xyz
x,y,z
-x,-y,-z
loop_
_atom_site_type_symbol
_atom_site_label
_atom_site_fract_x
_atom_site_fract_y
_atom_site_fract_z
Si Si1 0.749829 0.713764 0.013170
Si Si2 0.271575 0.519177 0.408699
Si Si3 0.119859 0.894923 0.609308
Si Si4 0.044937 0.548554 0.749714
Si Si5 0.439105 0.609268 0.254007
Si Si6 0.866013 0.931153 0.857332
Si Si7 0.455549 0.175249 0.684459
O O1 0.821105 0.588075 0.252968
O O2 0.617590 0.832899 0.075990
O O3 0.779257 0.566527 0.782677
O O4 0.786578 0.855513 0.933929
O O5 0.171458 0.673721 0.591125
O O6 0.318381 0.633018 0.254523
O O7 0.370721 0.362116 0.556348
O O8 0.184243 0.951579 0.399125
O O9 0.000000 0.000000 0.500000
O O10 0.128940 0.950950 0.901073
O O11 0.000000 0.500000 0.500000
O O12 0.992783 0.768638 0.784321
O O13 0.000000 0.500000 0.000000
O O14 0.500000 0.500000 0.500000
O O15 0.441143 0.800453 0.240412
O O16 0.500000 0.500000 0.000000
O O17 0.500000 0.000000 0.500000
#
# Coordination Sequence:
#
# PCOD8019689 Si02
#       7
#     2   2   2   2   2   2   2
#     4  11  25  44  76 110 147 196 254 310 379 439
#     4  11  27  46  76 106 151 202 246 310 381 451
#     4  12  28  48  74 109 153 195 246 299 370 457
#     4  10  22  41  70 105 152 190 236 301 368 433
#     4  10  22  48  70 104 143 192 242 305 374 433
#     4  11  26  45  72 111 147 194 245 304 359 444
#     4  11  27  47  76 109 147 195 259 321 374 447
#
# _framework density 26.147124999999999
#
# number of rings (size 3 to 8) (size 9 to 14) (size 15 to 20)
#    0.000    1.143    1.429    3.000   12.000    0.571 
#    2.571    0.000    0.000    0.000    0.000    0.000 
#    0.000    0.000    0.000    0.000    0.000    0.000 
#
# Total GULP energy -173516.707348 kJ/mol
# GULP energy per Si atom -12394.050525 kJ/mol
# Density = 2.608761 g / cm^3
# Si number density = 26.147125 Si / 1000 Ang^3
#
#
#
# Elastic Constant Matrix: (Units=GPa)
#
#
# Indices 1 2 3 4 5 6 
#
# 1 94.1763 7.9880 -5.5282 25.9454 -9.6369 10.9382
# 2 7.9880 129.4250 22.4887 43.4886 -7.7319 6.6526
# 3 -5.5282 22.4887 131.6379 33.4097 8.2785 7.4890
# 4 25.9454 43.4886 33.4097 59.9405 7.6619 4.3501
# 5 -9.6369 -7.7319 8.2785 7.6619 41.5868 12.2870
# 6 10.9382 6.6526 7.4890 4.3501 12.2870 38.8799
#
#
#
# Elastic Compliance Matrix: (Units=1/GPa)
#
#
# Indices 1 2 3 4 5 6 
#
# 1 0.014918 0.002914 0.002710 -0.010552 0.007275 -0.006336
# 2 0.002914 0.011441 0.000651 -0.010389 0.005627 -0.003519
# 3 0.002710 0.000651 0.009407 -0.006830 0.000775 -0.002166
# 4 -0.010552 -0.010389 -0.006830 0.033572 -0.010902 0.005751
# 5 0.007275 0.005627 0.000775 -0.010902 0.032213 -0.012119
# 6 -0.006336 -0.003519 -0.002166 0.005751 -0.012119 0.031709
#
#
# Mechanical properties :
#
#
# Convention : Reuss Voigt Hill
#
# Bulk Modulus (GPa) = 20.69684 45.01516 32.85600
# Shear Modulus (GPa) = 36.54552 50.10081 43.32316
#
# Velocity S-wave (km/s) = 3.74262 4.38209 4.07492
# Velocity P-wave (km/s) = 5.15839 6.54653 5.89348
#
# Compressibility (1/GPa) = 0.04831656
#
# Stress axis : x y z
#
# Youngs Moduli (GPa) = 67.03425 87.40118 106.30082
#
# Poissons Ratio (x) = -0.25473 -0.28804
# Poissons Ratio (y) = -0.19537 -0.06919
# Poissons Ratio (z) = -0.18164 -0.05689
#
# Static dielectric constant tensor:
#      x y z
#    x 6.065560 0.356310 -0.589220 
#    y 0.356310 5.213850 -0.447280 
#    z -0.589220 -0.447280 5.240590 
# 
# 
# High freq. dielectric constant tensor:
#      x y z
#    x 2.073260 0.015400 -0.026130 
#    y 0.015400 2.059290 -0.002450 
#    z -0.026130 -0.002450 2.053050 
# 
# From -- ./inp_files/88935.got.cif
#   From: 2010.06.25/outbox.cif.g09.slc.cpg/sg2_45_cif.got.tgz:88935.got - 2010.06.27 13:26:56.
