data_PCOD8019768
_publ_section_title
;
Structure prediction by ZEFSAII (Michael W. Deem and Ramdas Pophale) SiO2 
 PCOD8019768
Probable space group: P -1
;
_chemical_formula_sum "Si O2"
_cell_formula_units_Z 16
_cell_length_a 12.092723
_cell_length_b 9.011252
_cell_length_c 9.268079
_cell_angle_alpha 96.000794
_cell_angle_beta 61.522155
_cell_angle_gamma 126.699657
_cell_volume 688.058897
_symmetry_space_group_name_H-M "P -1"
_symmetry_group_IT_number 2
_symmetry_cell_setting 'triclinic'
loop_
_space_group_symop_operation_xyz
x,y,z
-x,-y,-z
loop_
_atom_site_type_symbol
_atom_site_label
_atom_site_fract_x
_atom_site_fract_y
_atom_site_fract_z
Si Si1 0.883233 0.320250 0.159358
Si Si2 0.130259 0.174503 0.532581
Si Si3 0.541990 0.102196 0.222375
Si Si4 0.005716 0.090468 0.150296
Si Si5 0.484522 0.381821 0.355379
Si Si6 0.015913 0.422195 0.629671
Si Si7 0.671050 0.246641 0.851617
Si Si8 0.659854 0.557342 0.975316
O O1 0.708916 0.158324 0.182271
O O2 0.962276 0.227291 0.154465
O O3 0.860789 0.401517 0.324320
O O4 0.000000 0.500000 0.000000
O O5 0.313287 0.288645 0.376575
O O6 0.091966 0.318287 0.561304
O O7 0.000000 0.000000 0.500000
O O8 0.118882 0.088445 0.687414
O O9 0.488714 0.204296 0.365675
O O10 0.407233 0.870326 0.264352
O O11 0.551347 0.156312 0.054013
O O12 0.187581 0.218955 0.114821
O O13 0.000000 0.000000 0.000000
O O14 0.500000 0.500000 0.500000
O O15 0.628623 0.514050 0.163581
O O16 0.833780 0.275492 0.790786
O O17 0.000000 0.500000 0.500000
O O18 0.712978 0.452712 0.837353
O O19 0.500000 0.500000 0.000000
#
# Coordination Sequence:
#
# PCOD8019768 Si02
#       8
#     2   2   2   2   2   2   2   2
#     4  12  22  44  70 101 137 182 237 285 349 416
#     4  12  26  44  69 101 142 180 228 290 351 411
#     4  10  22  41  71  99 134 184 229 295 339 421
#     4  12  26  43  68 108 138 178 236 291 349 418
#     4  11  23  45  67 100 140 180 228 285 360 416
#     4  12  25  44  71  99 141 185 231 287 352 423
#     4  10  22  43  67 100 135 177 245 277 347 421
#     4  11  24  43  72  97 135 186 233 288 347 424
#
# _framework density 23.253822
#
# number of rings (size 3 to 8) (size 9 to 14) (size 15 to 20)
#    0.000    0.750    2.500    5.250    3.500    1.000 
#    0.000    1.250    0.000    0.000    0.000    0.000 
#    0.000    0.000    0.000    0.000    0.000    0.000 
#
# Total GULP energy -198285.438443 kJ/mol
# GULP energy per Si atom -12392.839903 kJ/mol
# Density = 2.320090 g / cm^3
# Si number density = 23.253822 Si / 1000 Ang^3
#
#
#
# Elastic Constant Matrix: (Units=GPa)
#
#
# Indices 1 2 3 4 5 6 
#
# 1 123.6732 37.9169 14.0722 5.5496 -14.2794 6.5385
# 2 37.9169 115.8718 37.0651 27.9809 -0.2219 7.1623
# 3 14.0722 37.0651 77.8692 16.9671 -1.5546 -11.8649
# 4 5.5496 27.9809 16.9671 43.5650 3.3753 8.0543
# 5 -14.2794 -0.2219 -1.5546 3.3753 43.6331 -1.8981
# 6 6.5385 7.1623 -11.8649 8.0543 -1.8981 56.9091
#
#
#
# Elastic Compliance Matrix: (Units=1/GPa)
#
#
# Indices 1 2 3 4 5 6 
#
# 1 0.009433 -0.003088 -0.000498 0.000901 0.002948 -0.000828
# 2 -0.003088 0.012479 -0.004382 -0.005607 -0.000729 -0.001360
# 3 -0.000498 -0.004382 0.016773 -0.004616 0.000978 0.004792
# 4 0.000901 -0.005607 -0.004616 0.029269 -0.002362 -0.004581
# 5 0.002948 -0.000729 0.000978 -0.002362 0.024145 0.001096
# 6 -0.000828 -0.001360 0.004792 -0.004581 0.001096 0.019522
#
#
# Mechanical properties :
#
#
# Convention : Reuss Voigt Hill
#
# Bulk Modulus (GPa) = 43.95812 55.05805 49.50808
# Shear Modulus (GPa) = 36.99847 44.04544 40.52195
#
# Velocity S-wave (km/s) = 3.99315 4.35687 4.17897
# Velocity P-wave (km/s) = 6.34074 7.00272 6.67994
#
# Compressibility (1/GPa) = 0.02274893
#
# Stress axis : x y z
#
# Youngs Moduli (GPa) = 106.01054 80.13397 59.61818
#
# Poissons Ratio (x) = 0.24745 0.02971
# Poissons Ratio (y) = 0.32736 0.26124
# Poissons Ratio (z) = 0.05284 0.35114
#
# Static dielectric constant tensor:
#      x y z
#    x 3.130740 0.798360 -0.888380 
#    y 0.798360 3.922530 0.757760 
#    z -0.888380 0.757760 3.736010 
# 
# 
# High freq. dielectric constant tensor:
#      x y z
#    x 1.921490 0.011340 -0.008010 
#    y 0.011340 1.931540 0.014840 
#    z -0.008010 0.014840 1.918430 
# 
# From -- ./inp_files/244437.got.cif
#   From: 2010.06.25/outbox.cif.g09.slc.cpg/sg2_123_cif.got.tgz:244437.got - 2010.06.27 13:26:56.
