data_PCOD8019003
_publ_section_title
;
Structure prediction by ZEFSAII (Michael W. Deem and Ramdas Pophale) SiO2 
 PCOD8019003
Probable space group: P -1
;
_chemical_formula_sum "Si O2"
_cell_formula_units_Z 12
_cell_length_a 15.025946
_cell_length_b 9.330107
_cell_length_c 5.374879
_cell_angle_alpha 131.154136
_cell_angle_beta 105.801501
_cell_angle_gamma 61.183391
_cell_volume 495.949433
_symmetry_space_group_name_H-M "P -1"
_symmetry_group_IT_number 2
_symmetry_cell_setting 'triclinic'
loop_
_space_group_symop_operation_xyz
x,y,z
-x,-y,-z
loop_
_atom_site_type_symbol
_atom_site_label
_atom_site_fract_x
_atom_site_fract_y
_atom_site_fract_z
Si Si1 0.483065 0.788103 0.454159
Si Si2 0.661431 0.782357 0.305681
Si Si3 0.598101 0.306134 0.231619
Si Si4 0.749924 0.481282 0.635124
Si Si5 0.935177 0.039482 0.245762
Si Si6 0.226310 0.127280 0.121021
O O1 0.595905 0.777273 0.493579
O O2 0.546545 0.290187 0.916058
O O3 0.480276 0.640238 0.520474
O O4 0.409856 0.034029 0.727815
O O5 0.752734 0.842407 0.537120
O O6 0.708450 0.548511 0.961307
O O7 0.658139 0.451809 0.390447
O O8 0.683786 0.087860 0.149380
O O9 0.773669 0.674101 0.792479
O O10 0.853675 0.277512 0.465145
O O11 0.881903 0.879346 0.010250
O O12 0.000000 0.000000 0.500000
O O13 0.000000 0.000000 0.000000
#
# Coordination Sequence:
#
# PCOD8019003 Si02
#       6
#     2   2   2   2   2   2
#     4  10  22  41  63  97 145 180 226 267 308 378
#     4  10  23  39  69  98 136 184 222 266 326 379
#     4  10  23  41  63  96 141 184 218 272 314 374
#     4  11  25  42  72  97 133 177 222 268 339 393
#     4  11  29  51  72  99 131 167 216 283 347 406
#     4  10  24  44  69  97 137 169 221 275 336 392
#
# _framework density 24.196016
#
# number of rings (size 3 to 8) (size 9 to 14) (size 15 to 20)
#    0.000    1.667    1.667    0.000    9.333    7.333 
#    0.000    0.000    0.000    0.000    0.000    0.000 
#    0.000    0.000    0.000    0.000    0.000    0.000 
#
# Total GULP energy -148727.000986 kJ/mol
# GULP energy per Si atom -12393.916749 kJ/mol
# Density = 2.414095 g / cm^3
# Si number density = 24.196016 Si / 1000 Ang^3
#
#
#
# Elastic Constant Matrix: (Units=GPa)
#
#
# Indices 1 2 3 4 5 6 
#
# 1 155.4906 67.2720 67.1123 -4.5813 21.2842 1.7665
# 2 67.2720 121.2313 37.3600 9.9597 -6.9113 24.5134
# 3 67.1123 37.3600 142.2313 4.6792 -1.8947 -6.5780
# 4 -4.5813 9.9597 4.6792 37.7280 3.9283 -1.0204
# 5 21.2842 -6.9113 -1.8947 3.9283 50.5097 3.1995
# 6 1.7665 24.5134 -6.5780 -1.0204 3.1995 41.5131
#
#
#
# Elastic Compliance Matrix: (Units=1/GPa)
#
#
# Indices 1 2 3 4 5 6 
#
# 1 0.012265 -0.007094 -0.003999 0.004675 -0.006886 0.003679
# 2 -0.007094 0.015133 -0.000794 -0.005642 0.006062 -0.009366
# 3 -0.003999 -0.000794 0.009293 -0.001577 0.001926 0.001925
# 4 0.004675 -0.005642 -0.001577 0.029423 -0.005344 0.004018
# 5 -0.006886 0.006062 0.001926 -0.005344 0.024333 -0.004988
# 6 0.003679 -0.009366 0.001925 0.004018 -0.004988 0.030251
#
#
# Mechanical properties :
#
#
# Convention : Reuss Voigt Hill
#
# Bulk Modulus (GPa) = 77.42506 84.71576 81.07041
# Shear Modulus (GPa) = 33.60683 42.43075 38.01879
#
# Velocity S-wave (km/s) = 3.73089 4.19217 3.96824
# Velocity P-wave (km/s) = 7.11533 7.64988 7.38744
#
# Compressibility (1/GPa) = 0.01291572
#
# Stress axis : x y z
#
# Youngs Moduli (GPa) = 81.53245 66.08073 107.60661
#
# Poissons Ratio (x) = 0.46877 0.43035
# Poissons Ratio (y) = 0.57839 0.08549
# Poissons Ratio (z) = 0.32607 0.05250
#
# Static dielectric constant tensor:
#      x y z
#    x 4.422320 0.029270 0.122890 
#    y 0.029270 4.440340 0.254360 
#    z 0.122890 0.254360 5.074290 
# 
# 
# High freq. dielectric constant tensor:
#      x y z
#    x 1.958160 0.008550 0.010570 
#    y 0.008550 1.974560 0.015120 
#    z 0.010570 0.015120 1.979240 
# 
# From -- ./inp_files/91254.got.cif
#   From: 2010.06.25/outbox.cif.g09.slc.cpg/sg2_46_cif.got.tgz:91254.got - 2010.06.27 13:26:56.
