data_PCOD8019188
_publ_section_title
;
Structure prediction by ZEFSAII (Michael W. Deem and Ramdas Pophale) SiO2 
 PCOD8019188
Probable space group: P -1
;
_chemical_formula_sum "Si O2"
_cell_formula_units_Z 16
_cell_length_a 12.130973
_cell_length_b 11.910147
_cell_length_c 11.172874
_cell_angle_alpha 70.177117
_cell_angle_beta 100.024193
_cell_angle_gamma 41.976707
_cell_volume 747.238845
_symmetry_space_group_name_H-M "P -1"
_symmetry_group_IT_number 2
_symmetry_cell_setting 'triclinic'
loop_
_space_group_symop_operation_xyz
x,y,z
-x,-y,-z
loop_
_atom_site_type_symbol
_atom_site_label
_atom_site_fract_x
_atom_site_fract_y
_atom_site_fract_z
Si Si1 0.572001 0.717233 0.838640
Si Si2 0.931375 0.225920 0.215713
Si Si3 0.885994 0.079687 0.073767
Si Si4 0.424324 0.064527 0.827011
Si Si5 0.876626 0.863035 0.285316
Si Si6 0.637210 0.614691 0.391195
Si Si7 0.410471 0.793591 0.534220
Si Si8 0.411970 0.538570 0.739109
O O1 0.590900 0.833306 0.856493
O O2 0.549577 0.737578 0.682655
O O3 0.332317 0.881831 0.775904
O O4 0.786413 0.448693 0.025027
O O5 0.003964 0.044487 0.215447
O O6 0.798178 0.306386 0.277772
O O7 0.163263 0.076239 0.355537
O O8 0.914736 0.911421 0.159769
O O9 0.628289 0.361750 0.926074
O O10 0.000000 0.000000 0.000000
O O11 0.184336 0.217623 0.731098
O O12 0.416336 0.201563 0.720505
O O13 0.500000 0.000000 0.000000
O O14 0.099423 0.653360 0.482163
O O15 0.568828 0.653483 0.499922
O O16 0.512993 0.638346 0.270899
O O17 0.360151 0.704139 0.594283
#
# Coordination Sequence:
#
# PCOD8019188 Si02
#       8
#     2   2   2   2   2   2   2   2
#     4  10  23  44  67  95 131 175 226 261 333 394
#     4  12  23  42  66  96 138 175 222 266 331 406
#     4  12  22  37  65 101 136 171 213 276 336 387
#     4  10  23  45  70  93 125 176 232 271 323 397
#     4  10  22  41  65  95 127 171 225 264 323 393
#     4  12  24  43  66 100 131 172 224 283 329 385
#     4  12  25  41  66 101 139 169 217 281 340 389
#     4  12  22  41  67  95 137 177 221 266 332 403
#
# _framework density 21.412161999999999
#
# number of rings (size 3 to 8) (size 9 to 14) (size 15 to 20)
#    0.750    0.000    2.500    6.750    0.000    0.500 
#    0.000    0.625    0.000    0.000    0.000    0.000 
#    0.000    0.000    0.000    0.000    0.000    0.000 
#
# Total GULP energy -198343.614660 kJ/mol
# GULP energy per Si atom -12396.475916 kJ/mol
# Density = 2.136343 g / cm^3
# Si number density = 21.412162 Si / 1000 Ang^3
#
#
#
# Elastic Constant Matrix: (Units=GPa)
#
#
# Indices 1 2 3 4 5 6 
#
# 1 50.4492 32.2917 23.9834 8.2463 -10.9563 14.0437
# 2 32.2917 107.9354 26.4854 24.9805 -9.9801 10.6962
# 3 23.9834 26.4854 118.5295 0.1068 -1.4165 8.3221
# 4 8.2463 24.9805 0.1068 41.8102 -4.3590 0.9943
# 5 -10.9563 -9.9801 -1.4165 -4.3590 26.1005 0.5388
# 6 14.0437 10.6962 8.3221 0.9943 0.5388 28.8539
#
#
#
# Elastic Compliance Matrix: (Units=1/GPa)
#
#
# Indices 1 2 3 4 5 6 
#
# 1 0.031457 -0.005935 -0.004060 -0.001239 0.010758 -0.012098
# 2 -0.005935 0.013220 -0.001636 -0.006545 0.001409 -0.001341
# 3 -0.004060 -0.001636 0.009619 0.001599 -0.001536 -0.000218
# 4 -0.001239 -0.006545 0.001599 0.028213 0.001744 0.001563
# 5 0.010758 0.001409 -0.001536 0.001744 0.043704 -0.006192
# 6 -0.012098 -0.001341 -0.000218 0.001563 -0.006192 0.041168
#
#
# Mechanical properties :
#
#
# Convention : Reuss Voigt Hill
#
# Bulk Modulus (GPa) = 32.22188 49.15946 40.69067
# Shear Modulus (GPa) = 24.87715 32.29648 28.58682
#
# Velocity S-wave (km/s) = 3.41225 3.88793 3.65783
# Velocity P-wave (km/s) = 5.53224 6.56987 6.07325
#
# Compressibility (1/GPa) = 0.03103481
#
# Stress axis : x y z
#
# Youngs Moduli (GPa) = 31.78904 75.64414 103.95718
#
# Poissons Ratio (x) = 0.44893 0.42206
# Poissons Ratio (y) = 0.18866 0.17010
# Poissons Ratio (z) = 0.12906 0.12377
#
# Static dielectric constant tensor:
#      x y z
#    x 4.038080 0.159750 -0.019710 
#    y 0.159750 3.797580 0.032820 
#    z -0.019710 0.032820 4.057100 
# 
# 
# High freq. dielectric constant tensor:
#      x y z
#    x 1.824100 0.002490 0.000780 
#    y 0.002490 1.837400 0.007540 
#    z 0.000780 0.007540 1.854260 
# 
# From -- ./inp_files/176513.got.cif
#   From: 2010.06.25/outbox.cif.g09.slc.cpg/sg2_89_cif.got.tgz:176513.got - 2010.06.27 13:26:56.
