data_PCOD8019718
_publ_section_title
;
Structure prediction by ZEFSAII (Michael W. Deem and Ramdas Pophale) SiO2 
 PCOD8019718
Probable space group: P -1
;
_chemical_formula_sum "Si O2"
_cell_formula_units_Z 16
_cell_length_a 18.611216
_cell_length_b 16.089216
_cell_length_c 11.445953
_cell_angle_alpha 34.492925
_cell_angle_beta 136.057566
_cell_angle_gamma 158.242560
_cell_volume 702.401274
_symmetry_space_group_name_H-M "P -1"
_symmetry_group_IT_number 2
_symmetry_cell_setting 'triclinic'
loop_
_space_group_symop_operation_xyz
x,y,z
-x,-y,-z
loop_
_atom_site_type_symbol
_atom_site_label
_atom_site_fract_x
_atom_site_fract_y
_atom_site_fract_z
Si Si1 0.555479 0.230435 0.819820
Si Si2 0.876278 0.732673 0.235421
Si Si3 0.584493 0.469587 0.377995
Si Si4 0.155720 0.050628 0.401941
Si Si5 0.688904 0.435417 0.984082
Si Si6 0.260861 0.036098 0.970745
Si Si7 0.116662 0.784791 0.857237
Si Si8 0.940536 0.588061 0.285525
O O1 0.650712 0.414318 0.601870
O O2 0.710572 0.422086 0.887296
O O3 0.355186 0.072512 0.797946
O O4 0.500000 0.000000 0.000000
O O5 0.666582 0.543622 0.256490
O O6 0.843790 0.555154 0.319564
O O7 0.990910 0.818245 0.383612
O O8 0.000000 0.000000 0.000000
O O9 0.348468 0.199137 0.407396
O O10 0.672240 0.717061 0.260635
O O11 0.191359 0.268115 0.200754
O O12 0.066008 0.868546 0.625716
O O13 0.455329 0.167864 0.052444
O O14 0.777919 0.411437 0.195539
O O15 0.093042 0.781272 0.973502
O O16 0.149685 0.904981 0.117101
O O17 0.000000 0.500000 0.000000
O O18 0.000000 0.500000 0.500000
#
# Coordination Sequence:
#
# PCOD8019718 Si02
#       8
#     2   2   2   2   2   2   2   2
#     4  10  23  39  64 101 132 168 215 268 343 405
#     4  12  24  43  65  99 128 174 241 265 320 396
#     4  10  22  42  70  97 132 172 220 281 323 392
#     4  10  22  41  70  98 128 177 219 275 331 391
#     4  10  22  44  68  93 133 171 224 271 330 405
#     4  10  22  43  68  95 131 175 221 270 337 394
#     4  10  23  39  64 101 136 169 210 274 343 401
#     4  12  28  43  65  96 136 177 226 281 325 389
#
# _framework density 22.779002999999999
#
# number of rings (size 3 to 8) (size 9 to 14) (size 15 to 20)
#    0.000    1.500    2.500    0.750    5.250    7.000 
#    0.000    2.500    0.000    0.000    0.000    0.000 
#    0.000    0.000    0.000    0.000    0.000    0.000 
#
# Total GULP energy -198289.472527 kJ/mol
# GULP energy per Si atom -12393.092033 kJ/mol
# Density = 2.272716 g / cm^3
# Si number density = 22.779003 Si / 1000 Ang^3
#
#
#
# Elastic Constant Matrix: (Units=GPa)
#
#
# Indices 1 2 3 4 5 6 
#
# 1 92.3716 -0.7474 33.2663 5.0020 -4.5665 -9.9756
# 2 -0.7474 72.9923 34.7634 15.7157 -0.9070 -3.8160
# 3 33.2663 34.7634 124.1618 24.6752 4.6954 2.2900
# 4 5.0020 15.7157 24.6752 36.0691 2.0730 -0.1659
# 5 -4.5665 -0.9070 4.6954 2.0730 33.8193 -1.2184
# 6 -9.9756 -3.8160 2.2900 -0.1659 -1.2184 31.3579
#
#
#
# Elastic Compliance Matrix: (Units=1/GPa)
#
#
# Indices 1 2 3 4 5 6 
#
# 1 0.013090 0.002524 -0.004396 -0.000036 0.002624 0.004894
# 2 0.002524 0.017163 -0.004674 -0.004722 0.001858 0.003280
# 3 -0.004396 -0.004674 0.011721 -0.005264 -0.002129 -0.002934
# 4 -0.000036 -0.004722 -0.005264 0.033471 -0.001455 -0.000081
# 5 0.002624 0.001858 -0.002129 -0.001455 0.030444 0.002391
# 6 0.004894 0.003280 -0.002934 -0.000081 0.002391 0.034153
#
#
# Mechanical properties :
#
#
# Convention : Reuss Voigt Hill
#
# Bulk Modulus (GPa) = 34.62383 47.12116 40.87250
# Shear Modulus (GPa) = 30.71978 35.06549 32.89263
#
# Velocity S-wave (km/s) = 3.67631 3.92775 3.80411
# Velocity P-wave (km/s) = 5.76656 6.42656 6.10549
#
# Compressibility (1/GPa) = 0.02888184
#
# Stress axis : x y z
#
# Youngs Moduli (GPa) = 76.39625 58.26397 85.31583
#
# Poissons Ratio (x) = -0.14705 0.37506
# Poissons Ratio (y) = -0.19282 0.39876
# Poissons Ratio (z) = 0.33585 0.27232
#
# Static dielectric constant tensor:
#      x y z
#    x 5.232630 -0.183420 -0.416900 
#    y -0.183420 3.961310 0.219950 
#    z -0.416900 0.219950 4.124100 
# 
# 
# High freq. dielectric constant tensor:
#      x y z
#    x 1.904420 0.013690 -0.010130 
#    y 0.013690 1.902390 0.008640 
#    z -0.010130 0.008640 1.894910 
# 
# From -- ./inp_files/472338.got.cif
#   From: 2010.06.25/outbox.cif.g09.slc.cpg/sg2_237_cif.got.tgz:472338.got - 2010.06.27 13:26:56.
