data_PCOD8019458
_publ_section_title
;
Structure prediction by ZEFSAII (Michael W. Deem and Ramdas Pophale) SiO2 
 PCOD8019458
Probable space group: P -1
;
_chemical_formula_sum "Si O2"
_cell_formula_units_Z 16
_cell_length_a 9.150713
_cell_length_b 9.597517
_cell_length_c 11.552881
_cell_angle_alpha 81.370124
_cell_angle_beta 97.823028
_cell_angle_gamma 46.223388
_cell_volume 682.172034
_symmetry_space_group_name_H-M "P -1"
_symmetry_group_IT_number 2
_symmetry_cell_setting 'triclinic'
loop_
_space_group_symop_operation_xyz
x,y,z
-x,-y,-z
loop_
_atom_site_type_symbol
_atom_site_label
_atom_site_fract_x
_atom_site_fract_y
_atom_site_fract_z
Si Si1 0.572502 0.537643 0.168902
Si Si2 0.428362 0.194897 0.025799
Si Si3 0.907632 0.492399 0.872404
Si Si4 0.689746 0.782758 0.456241
Si Si5 0.251884 0.872426 0.784946
Si Si6 0.504770 0.793549 0.635428
Si Si7 0.090542 0.821584 0.119176
Si Si8 0.090048 0.525135 0.681133
O O1 0.668661 0.336325 0.134192
O O2 0.345604 0.654699 0.186621
O O3 0.751999 0.450082 0.296317
O O4 0.535663 0.698876 0.066887
O O5 0.181394 0.363935 0.034953
O O6 0.591235 0.110870 0.157848
O O7 0.500000 0.000000 0.000000
O O8 0.704645 0.602497 0.755303
O O9 0.986703 0.276307 0.928653
O O10 0.074508 0.469630 0.817067
O O11 0.565607 0.736257 0.511717
O O12 0.801919 0.665796 0.364309
O O13 0.863187 0.724662 0.575718
O O14 0.521645 0.019640 0.376385
O O15 0.290772 0.857277 0.650253
O O16 0.013642 0.073615 0.778405
O O17 0.000000 0.000000 0.000000
#
# Coordination Sequence:
#
# PCOD8019458 Si02
#       8
#     2   2   2   2   2   2   2   2
#     4  12  25  43  64 100 141 174 224 277 328 402
#     4  11  24  40  66  99 135 177 226 270 317 400
#     4  10  22  41  67  98 133 175 227 270 332 398
#     4   9  19  41  68  99 125 174 219 287 343 384
#     4  11  23  44  66  94 140 181 214 273 345 390
#     4   9  18  38  72  89 128 171 221 272 337 399
#     4  12  23  41  69  91 135 192 217 262 339 394
#     4  10  23  40  68  97 133 168 229 281 332 398
#
# _framework density 23.454494
#
# number of rings (size 3 to 8) (size 9 to 14) (size 15 to 20)
#    0.000    1.500    3.750    1.875    5.250    1.500 
#    4.500    1.250    0.000    0.000    0.000    0.000 
#    0.000    0.000    0.000    0.000    0.000    0.000 
#
# Total GULP energy -198246.483082 kJ/mol
# GULP energy per Si atom -12390.405193 kJ/mol
# Density = 2.340111 g / cm^3
# Si number density = 23.454494 Si / 1000 Ang^3
#
#
#
# Elastic Constant Matrix: (Units=GPa)
#
#
# Indices 1 2 3 4 5 6 
#
# 1 131.1438 62.8833 31.1705 15.7818 -7.5837 -14.5701
# 2 62.8833 152.0591 34.0107 11.8883 -11.3295 -4.3115
# 3 31.1705 34.0107 78.0684 15.6186 -21.4225 2.1627
# 4 15.7818 11.8883 15.6186 25.7151 -2.7735 -16.5432
# 5 -7.5837 -11.3295 -21.4225 -2.7735 36.9268 4.4785
# 6 -14.5701 -4.3115 2.1627 -16.5432 4.4785 49.2855
#
#
#
# Elastic Compliance Matrix: (Units=1/GPa)
#
#
# Indices 1 2 3 4 5 6 
#
# 1 0.010366 -0.003581 -0.002528 -0.001749 -0.000853 0.002352
# 2 -0.003581 0.008596 -0.001889 -0.000935 0.000810 -0.000611
# 3 -0.002528 -0.001889 0.020489 -0.013594 0.010657 -0.007343
# 4 -0.001749 -0.000935 -0.013594 0.061639 -0.006483 0.021276
# 5 -0.000853 0.000810 0.010657 -0.006483 0.033562 -0.005875
# 6 0.002352 -0.000611 -0.007343 0.021276 -0.005875 0.028930
#
#
# Mechanical properties :
#
#
# Convention : Reuss Voigt Hill
#
# Bulk Modulus (GPa) = 42.63499 68.60004 55.61752
# Shear Modulus (GPa) = 26.68155 37.93261 32.30708
#
# Velocity S-wave (km/s) = 3.37647 4.02591 3.71541
# Velocity P-wave (km/s) = 5.78083 7.13598 6.49385
#
# Compressibility (1/GPa) = 0.02345492
#
# Stress axis : x y z
#
# Youngs Moduli (GPa) = 96.47037 116.33287 48.80677
#
# Poissons Ratio (x) = 0.41664 0.12338
# Poissons Ratio (y) = 0.34550 0.09218
# Poissons Ratio (z) = 0.24386 0.21971
#
# Static dielectric constant tensor:
#      x y z
#    x 4.647230 -0.411740 -0.252760 
#    y -0.411740 4.408470 0.193310 
#    z -0.252760 0.193310 4.449860 
# 
# 
# High freq. dielectric constant tensor:
#      x y z
#    x 1.928770 -0.024960 -0.024750 
#    y -0.024960 1.940280 -0.001370 
#    z -0.024750 -0.001370 1.916630 
# 
# From -- ./inp_files/381987.got.cif
#   From: 2010.06.25/outbox.cif.g09.slc.cpg/sg2_191_cif.got.tgz:381987.got - 2010.06.27 13:26:56.
