data_PCOD8019159
_publ_section_title
;
Structure prediction by ZEFSAII (Michael W. Deem and Ramdas Pophale) SiO2 
 PCOD8019159
Probable space group: P -1
;
_chemical_formula_sum "Si O2"
_cell_formula_units_Z 14
_cell_length_a 13.951435
_cell_length_b 11.585106
_cell_length_c 11.186728
_cell_angle_alpha 40.013467
_cell_angle_beta 50.931539
_cell_angle_gamma 30.197595
_cell_volume 581.925267
_symmetry_space_group_name_H-M "P -1"
_symmetry_group_IT_number 2
_symmetry_cell_setting 'triclinic'
loop_
_space_group_symop_operation_xyz
x,y,z
-x,-y,-z
loop_
_atom_site_type_symbol
_atom_site_label
_atom_site_fract_x
_atom_site_fract_y
_atom_site_fract_z
Si Si1 0.777374 0.146801 0.686880
Si Si2 0.525010 0.101060 0.220148
Si Si3 0.195605 0.099104 0.663209
Si Si4 0.798378 0.737541 0.088934
Si Si5 0.538540 0.495186 0.177812
Si Si6 0.798374 0.351132 0.279912
Si Si7 0.083379 0.495942 0.256561
O O1 0.641572 0.393240 0.698289
O O2 0.724551 0.292319 0.485142
O O3 0.999681 0.944468 0.697100
O O4 0.743849 0.966469 0.863872
O O5 0.304691 0.297390 0.238288
O O6 0.640846 0.945095 0.377226
O O7 0.632594 0.880133 0.202757
O O8 0.543611 0.296350 0.031714
O O9 0.070152 0.325791 0.476411
O O10 0.048042 0.213541 0.797005
O O11 0.302308 0.815381 0.745825
O O12 0.828379 0.522572 0.162618
O O13 0.998031 0.565049 0.136499
O O14 0.641855 0.522577 0.163593
#
# Coordination Sequence:
#
# PCOD8019159 Si02
#       7
#     2   2   2   2   2   2   2
#     4  10  24  41  61  94 129 165 215 253 309 375
#     4  10  22  41  65  93 121 169 207 255 324 365
#     4  10  23  40  63  92 127 159 213 261 306 383
#     4  10  23  42  65  95 130 162 212 261 305 384
#     4  11  24  41  62  94 128 162 209 262 311 373
#     4  11  24  41  64  96 127 172 206 254 324 367
#     4  10  22  41  65  92 124 165 207 257 320 371
#
# _framework density 24.058073
#
# number of rings (size 3 to 8) (size 9 to 14) (size 15 to 20)
#    0.000    1.714    0.000    2.571    6.000    5.143 
#    0.000    0.000    0.000    0.000    0.000    0.000 
#    0.000    0.000    0.000    0.000    0.000    0.000 
#
# Total GULP energy -173479.212628 kJ/mol
# GULP energy per Si atom -12391.372331 kJ/mol
# Density = 2.400332 g / cm^3
# Si number density = 24.058073 Si / 1000 Ang^3
#
#
#
# Elastic Constant Matrix: (Units=GPa)
#
#
# Indices 1 2 3 4 5 6 
#
# 1 65.5706 33.7299 17.2903 2.0596 1.3400 -1.0823
# 2 33.7299 142.2680 -7.3396 -8.3791 -2.8543 -6.9891
# 3 17.2903 -7.3396 69.6685 -7.6156 5.3691 13.0475
# 4 2.0596 -8.3791 -7.6156 29.6954 -6.7485 -6.1534
# 5 1.3400 -2.8543 5.3691 -6.7485 15.9886 0.3491
# 6 -1.0823 -6.9891 13.0475 -6.1534 0.3491 37.8663
#
#
#
# Elastic Compliance Matrix: (Units=1/GPa)
#
#
# Indices 1 2 3 4 5 6 
#
# 1 0.019756 -0.005284 -0.005946 -0.004805 -0.002650 0.000882
# 2 -0.005284 0.008786 0.002219 0.004407 0.003096 0.001394
# 3 -0.005946 0.002219 0.017709 0.003733 -0.003362 -0.005225
# 4 -0.004805 0.004407 0.003733 0.041367 0.017266 0.005953
# 5 -0.002650 0.003096 -0.003362 0.017266 0.071653 0.003799
# 6 0.000882 0.001394 -0.005225 0.005953 0.003799 0.029424
#
#
# Mechanical properties :
#
#
# Convention : Reuss Voigt Hill
#
# Bulk Modulus (GPa) = 35.42279 40.54093 37.98186
# Shear Modulus (GPa) = 23.13465 32.29847 27.71656
#
# Velocity S-wave (km/s) = 3.10436 3.66802 3.39790
# Velocity P-wave (km/s) = 5.25407 5.90144 5.58714
#
# Compressibility (1/GPa) = 0.02823041
#
# Stress axis : x y z
#
# Youngs Moduli (GPa) = 50.61717 113.81387 56.46904
#
# Poissons Ratio (x) = 0.60134 0.33576
# Poissons Ratio (y) = 0.26744 -0.12531
# Poissons Ratio (z) = 0.30097 -0.25256
#
# Static dielectric constant tensor:
#      x y z
#    x 3.896510 -0.102460 0.391970 
#    y -0.102460 4.724260 0.094730 
#    z 0.391970 0.094730 4.558910 
# 
# 
# High freq. dielectric constant tensor:
#      x y z
#    x 1.918990 -0.014520 0.027660 
#    y -0.014520 1.987180 0.000610 
#    z 0.027660 0.000610 1.954710 
# 
# From -- ./inp_files/450968.got.cif
#   From: 2010.06.25/outbox.cif.g09.slc.cpg/sg2_226_cif.got.tgz:450968.got - 2010.06.27 13:26:56.
