data_PCOD8019751
_publ_section_title
;
Structure prediction by ZEFSAII (Michael W. Deem and Ramdas Pophale) SiO2 
 PCOD8019751
Probable space group: P -1
;
_chemical_formula_sum "Si O2"
_cell_formula_units_Z 14
_cell_length_a 13.526417
_cell_length_b 9.856042
_cell_length_c 13.730352
_cell_angle_alpha 99.172400
_cell_angle_beta 27.673157
_cell_angle_gamma 80.645093
_cell_volume 628.701335
_symmetry_space_group_name_H-M "P -1"
_symmetry_group_IT_number 2
_symmetry_cell_setting 'triclinic'
loop_
_space_group_symop_operation_xyz
x,y,z
-x,-y,-z
loop_
_atom_site_type_symbol
_atom_site_label
_atom_site_fract_x
_atom_site_fract_y
_atom_site_fract_z
Si Si1 0.559666 0.305954 0.206473
Si Si2 0.755128 0.006415 0.679016
Si Si3 0.764139 0.830296 0.171609
Si Si4 0.806187 0.020595 0.413652
Si Si5 0.739264 0.320865 0.401704
Si Si6 0.742343 0.706149 0.712814
Si Si7 0.496886 0.786205 0.549349
O O1 0.454851 0.504377 0.340103
O O2 0.429294 0.298930 0.221979
O O3 0.460479 0.253868 0.377745
O O4 0.896243 0.181991 0.887666
O O5 0.705287 0.054720 0.615526
O O6 0.849750 0.807820 0.591710
O O7 0.462208 0.173931 0.004858
O O8 0.000000 0.000000 0.500000
O O9 0.781680 0.730153 0.243381
O O10 0.448179 0.936753 0.419680
O O11 0.768212 0.992717 0.208548
O O12 0.011168 0.689910 0.863300
O O13 0.862441 0.153340 0.347056
O O14 0.572041 0.328383 0.456180
O O15 0.000000 0.500000 0.500000
#
# Coordination Sequence:
#
# PCOD8019751 Si02
#       7
#     2   2   2   2   2   2   2
#     4  12  25  44  68 100 140 175 227 282 339 403
#     4  11  25  48  75  99 136 181 225 285 350 407
#     4  10  22  41  71  93 137 186 222 274 336 400
#     4  11  25  44  67 102 137 178 225 277 341 407
#     4  11  25  43  68 101 140 180 221 284 331 401
#     4  11  28  47  73 104 136 176 232 289 341 409
#     4  10  22  43  65  99 137 181 226 274 335 402
#
# _framework density 22.268125000000001
#
# number of rings (size 3 to 8) (size 9 to 14) (size 15 to 20)
#    0.000    1.143    2.857    1.714    8.000    2.286 
#    7.714    0.000    0.000    0.000    0.000    0.000 
#    0.000    0.000    0.000    0.000    0.000    0.000 
#
# Total GULP energy -173559.099211 kJ/mol
# GULP energy per Si atom -12397.078515 kJ/mol
# Density = 2.221744 g / cm^3
# Si number density = 22.268125 Si / 1000 Ang^3
#
#
#
# Elastic Constant Matrix: (Units=GPa)
#
#
# Indices 1 2 3 4 5 6 
#
# 1 91.3633 39.8130 43.0889 -5.4199 16.3747 -5.3473
# 2 39.8130 84.3256 51.5531 -12.2218 9.5782 -3.6248
# 3 43.0889 51.5531 134.3619 -1.0198 14.8812 -1.8911
# 4 -5.4199 -12.2218 -1.0198 39.5307 -0.1831 9.9747
# 5 16.3747 9.5782 14.8812 -0.1831 39.3808 -8.2097
# 6 -5.3473 -3.6248 -1.8911 9.9747 -8.2097 42.8437
#
#
#
# Elastic Compliance Matrix: (Units=1/GPa)
#
#
# Indices 1 2 3 4 5 6 
#
# 1 0.015083 -0.005127 -0.002417 0.000273 -0.004003 0.000511
# 2 -0.005127 0.018247 -0.005283 0.004941 -0.000403 -0.000557
# 3 -0.002417 -0.005283 0.010417 -0.001645 -0.001703 -0.000232
# 4 0.000273 0.004941 -0.001645 0.028482 -0.001942 -0.006624
# 5 -0.004003 -0.000403 -0.001703 -0.001942 0.028912 0.005383
# 6 0.000511 -0.000557 -0.000232 -0.006624 0.005383 0.025921
#
#
# Mechanical properties :
#
#
# Convention : Reuss Voigt Hill
#
# Bulk Modulus (GPa) = 55.26805 64.32897 59.79851
# Shear Modulus (GPa) = 31.49650 36.05744 33.77697
#
# Velocity S-wave (km/s) = 3.76496 4.02834 3.89888
# Velocity P-wave (km/s) = 6.61613 7.11251 6.86880
#
# Compressibility (1/GPa) = 0.01809364
#
# Stress axis : x y z
#
# Youngs Moduli (GPa) = 66.29879 54.80330 95.99297
#
# Poissons Ratio (x) = 0.28100 0.23203
# Poissons Ratio (y) = 0.33994 0.50709
# Poissons Ratio (z) = 0.16025 0.28950
#
# Static dielectric constant tensor:
#      x y z
#    x 3.601110 0.096540 0.100050 
#    y 0.096540 4.210460 -0.047420 
#    z 0.100050 -0.047420 3.955470 
# 
# 
# High freq. dielectric constant tensor:
#      x y z
#    x 1.873530 -0.000830 0.019850 
#    y -0.000830 1.889790 -0.009260 
#    z 0.019850 -0.009260 1.881410 
# 
# From -- ./inp_files/529860.got.cif
#   From: 2010.06.25/outbox.cif.g09.slc.cpg/sg2_265_cif.got.tgz:529860.got - 2010.06.27 13:26:56.
