data_PCOD8019633
_publ_section_title
;
Structure prediction by ZEFSAII (Michael W. Deem and Ramdas Pophale) SiO2 
 PCOD8019633
Probable space group: P -1
;
_chemical_formula_sum "Si O2"
_cell_formula_units_Z 16
_cell_length_a 14.181109
_cell_length_b 10.863997
_cell_length_c 8.915561
_cell_angle_alpha 36.901426
_cell_angle_beta 91.563331
_cell_angle_gamma 76.363002
_cell_volume 744.655180
_symmetry_space_group_name_H-M "P -1"
_symmetry_group_IT_number 2
_symmetry_cell_setting 'triclinic'
loop_
_space_group_symop_operation_xyz
x,y,z
-x,-y,-z
loop_
_atom_site_type_symbol
_atom_site_label
_atom_site_fract_x
_atom_site_fract_y
_atom_site_fract_z
Si Si1 0.270180 0.357498 0.245981
Si Si2 0.622502 0.461893 0.174314
Si Si3 0.179597 0.779433 0.016544
Si Si4 0.431988 0.880033 0.678760
Si Si5 0.052550 0.112599 0.186880
Si Si6 0.210972 0.701011 0.426249
Si Si7 0.939136 0.497535 0.352783
Si Si8 0.894580 0.807541 0.571267
O O1 0.260910 0.525290 0.219392
O O2 0.155035 0.363002 0.211310
O O3 0.341668 0.093704 0.550546
O O4 0.308871 0.449053 0.014070
O O5 0.616379 0.233203 0.335652
O O6 0.672808 0.405672 0.396439
O O7 0.506476 0.666644 0.992858
O O8 0.207193 0.817050 0.151778
O O9 0.060611 0.814447 0.961886
O O10 0.194335 0.961179 0.730725
O O11 0.500000 0.000000 0.500000
O O12 0.049094 0.131829 0.347594
O O13 0.134037 0.864448 0.387500
O O14 0.101340 0.272607 0.965765
O O15 0.166461 0.514408 0.585001
O O16 0.000000 0.500000 0.500000
O O17 0.016356 0.292584 0.452252
#
# Coordination Sequence:
#
# PCOD8019633 Si02
#       8
#     2   2   2   2   2   2   2   2
#     4  11  21  39  63  93 122 156 203 257 306 362
#     4  10  22  41  69  95 118 155 201 257 317 371
#     4  12  24  37  56  85 128 170 205 251 304 353
#     4   9  20  42  70  95 119 147 196 262 321 373
#     4  12  23  37  57  83 119 171 216 253 291 349
#     4  12  24  40  59  88 129 168 210 252 304 364
#     4  12  23  39  58  84 128 174 208 250 300 354
#     4  12  24  37  59  88 125 168 215 253 293 357
#
# _framework density 21.486453999999998
#
# number of rings (size 3 to 8) (size 9 to 14) (size 15 to 20)
#    0.000    0.750    3.750    4.875    1.750    1.000 
#    0.000    0.625    0.000   10.500    0.000    0.000 
#    0.000    0.000    0.000    0.000    0.000    0.000 
#
# Total GULP energy -198281.282037 kJ/mol
# GULP energy per Si atom -12392.580127 kJ/mol
# Density = 2.143755 g / cm^3
# Si number density = 21.486454 Si / 1000 Ang^3
#
#
#
# Elastic Constant Matrix: (Units=GPa)
#
#
# Indices 1 2 3 4 5 6 
#
# 1 75.8756 14.3800 41.5373 8.3998 -0.8746 24.0640
# 2 14.3800 88.7046 36.9094 15.4427 15.2647 14.9783
# 3 41.5373 36.9094 103.6847 13.5085 7.7145 17.9460
# 4 8.3998 15.4427 13.5085 44.6634 9.9155 6.1587
# 5 -0.8746 15.2647 7.7145 9.9155 42.9144 0.2970
# 6 24.0640 14.9783 17.9460 6.1587 0.2970 27.9394
#
#
#
# Elastic Compliance Matrix: (Units=1/GPa)
#
#
# Indices 1 2 3 4 5 6 
#
# 1 0.021253 0.001706 -0.006538 -0.000851 0.001301 -0.014847
# 2 0.001706 0.014928 -0.004330 -0.002468 -0.003884 -0.006106
# 3 -0.006538 -0.004330 0.014182 -0.001255 -0.000847 -0.000872
# 4 -0.000851 -0.002468 -0.001255 0.025194 -0.004717 -0.002641
# 5 0.001301 -0.003884 -0.000847 -0.004717 0.025937 0.002270
# 6 -0.014847 -0.006106 -0.000872 -0.002641 0.002270 0.052970
#
#
# Mechanical properties :
#
#
# Convention : Reuss Voigt Hill
#
# Bulk Modulus (GPa) = 31.21120 50.43537 40.82329
# Shear Modulus (GPa) = 27.25286 34.79933 31.02610
#
# Velocity S-wave (km/s) = 3.56529 4.02878 3.80410
# Velocity P-wave (km/s) = 5.61301 6.72053 6.19158
#
# Compressibility (1/GPa) = 0.03203978
#
# Stress axis : x y z
#
# Youngs Moduli (GPa) = 47.05221 66.99033 70.50944
#
# Poissons Ratio (x) = -0.11430 0.46098
# Poissons Ratio (y) = -0.08028 0.30531
# Poissons Ratio (z) = 0.30762 0.29007
#
# Static dielectric constant tensor:
#      x y z
#    x 4.100970 0.094170 -0.095850 
#    y 0.094170 4.007190 -0.272370 
#    z -0.095850 -0.272370 4.148550 
# 
# 
# High freq. dielectric constant tensor:
#      x y z
#    x 1.841870 0.012700 -0.014230 
#    y 0.012700 1.833030 -0.019780 
#    z -0.014230 -0.019780 1.844060 
# 
# From -- ./inp_files/277655.got.cif
#   From: 2010.06.25/outbox.cif.g09.slc.cpg/sg2_139_cif.got.tgz:277655.got - 2010.06.27 13:26:56.
