data_PCOD8019964
_publ_section_title
;
Structure prediction by ZEFSAII (Michael W. Deem and Ramdas Pophale) SiO2 
 PCOD8019964
Probable space group: P -1
;
_chemical_formula_sum "Si O2"
_cell_formula_units_Z 16
_cell_length_a 17.698133
_cell_length_b 12.822852
_cell_length_c 8.827021
_cell_angle_alpha 64.610416
_cell_angle_beta 54.431106
_cell_angle_gamma 25.764477
_cell_volume 682.182305
_symmetry_space_group_name_H-M "P -1"
_symmetry_group_IT_number 2
_symmetry_cell_setting 'triclinic'
loop_
_space_group_symop_operation_xyz
x,y,z
-x,-y,-z
loop_
_atom_site_type_symbol
_atom_site_label
_atom_site_fract_x
_atom_site_fract_y
_atom_site_fract_z
Si Si1 0.447357 0.764287 0.647022
Si Si2 0.885826 0.031294 0.012191
Si Si3 0.886407 0.439079 0.935111
Si Si4 0.514411 0.098234 0.734957
Si Si5 0.422532 0.954458 0.822761
Si Si6 0.132612 0.293908 0.208840
Si Si7 0.118675 0.587402 0.375384
Si Si8 0.847662 0.219706 0.658133
O O1 0.294801 0.825599 0.770400
O O2 0.474016 0.795000 0.435080
O O3 0.353381 0.967569 0.740273
O O4 0.655375 0.481357 0.634359
O O5 0.791663 0.188453 0.871738
O O6 0.031874 0.765875 0.951580
O O7 0.000000 0.000000 0.000000
O O8 0.957776 0.485508 0.889520
O O9 0.973092 0.344997 0.721229
O O10 0.644640 0.706720 0.065594
O O11 0.438836 0.076890 0.726290
O O12 0.725849 0.833633 0.730841
O O13 0.644709 0.662042 0.771901
O O14 0.266064 0.084709 0.054362
O O15 0.945346 0.425656 0.403526
O O16 0.036014 0.804265 0.379393
O O17 0.000000 0.000000 0.500000
#
# Coordination Sequence:
#
# PCOD8019964 Si02
#       8
#     2   2   2   2   2   2   2   2
#     4  11  26  45  70  97 141 185 222 288 359 401
#     4  12  26  46  70  96 132 182 240 283 335 407
#     4  11  21  42  66 103 136 173 229 290 326 406
#     4  11  21  41  68 104 142 178 225 281 341 425
#     4  10  22  42  64 103 142 179 218 280 346 422
#     4  11  22  38  72 106 138 181 229 276 351 411
#     4  11  21  39  70  98 136 178 222 281 343 399
#     4  11  26  49  67  97 136 180 233 291 343 409
#
# _framework density 23.454141
#
# number of rings (size 3 to 8) (size 9 to 14) (size 15 to 20)
#    0.000    1.000    3.750    3.375    3.500    0.000 
#    2.250    2.500    0.000    0.000    0.000    0.000 
#    0.000    0.000    0.000    0.000    0.000    0.000 
#
# Total GULP energy -198301.467516 kJ/mol
# GULP energy per Si atom -12393.841720 kJ/mol
# Density = 2.340076 g / cm^3
# Si number density = 23.454141 Si / 1000 Ang^3
#
#
#
# Elastic Constant Matrix: (Units=GPa)
#
#
# Indices 1 2 3 4 5 6 
#
# 1 69.1162 20.6091 38.4247 8.1410 -9.5355 23.8594
# 2 20.6091 119.0379 38.3172 -3.6951 -1.1525 26.0793
# 3 38.4247 38.3172 145.0491 1.3125 -8.4435 20.1079
# 4 8.1410 -3.6951 1.3125 44.6661 6.0441 2.7845
# 5 -9.5355 -1.1525 -8.4435 6.0441 28.7986 -2.6571
# 6 23.8594 26.0793 20.1079 2.7845 -2.6571 30.5868
#
#
#
# Elastic Compliance Matrix: (Units=1/GPa)
#
#
# Indices 1 2 3 4 5 6 
#
# 1 0.022807 0.000439 -0.003719 -0.003887 0.005924 -0.014852
# 2 0.000439 0.010848 -0.001867 0.001556 -0.001088 -0.008600
# 3 -0.003719 -0.001867 0.008582 0.000193 0.001070 -0.001074
# 4 -0.003887 0.001556 0.000193 0.024151 -0.006345 -0.001171
# 5 0.005924 -0.001088 0.001070 -0.006345 0.038242 -0.000498
# 6 -0.014852 -0.008600 -0.001074 -0.001171 -0.000498 0.052381
#
#
# Mechanical properties :
#
#
# Convention : Reuss Voigt Hill
#
# Bulk Modulus (GPa) = 31.30602 58.65612 44.98107
# Shear Modulus (GPa) = 28.09748 36.53378 32.31563
#
# Velocity S-wave (km/s) = 3.46493 3.95101 3.71593
# Velocity P-wave (km/s) = 5.42074 6.77327 6.13439
#
# Compressibility (1/GPa) = 0.03194273
#
# Stress axis : x y z
#
# Youngs Moduli (GPa) = 43.84608 92.18650 116.52329
#
# Poissons Ratio (x) = -0.04046 0.43333
# Poissons Ratio (y) = -0.01924 0.21755
# Poissons Ratio (z) = 0.16306 0.17212
#
# Static dielectric constant tensor:
#      x y z
#    x 4.215690 0.244400 -0.057910 
#    y 0.244400 4.341890 -0.015370 
#    z -0.057910 -0.015370 4.278820 
# 
# 
# High freq. dielectric constant tensor:
#      x y z
#    x 1.913030 0.008160 -0.005430 
#    y 0.008160 1.933820 0.003390 
#    z -0.005430 0.003390 1.932980 
# 
# From -- ./inp_files/333012.got.cif
#   From: 2010.06.25/outbox.cif.g09.slc.cpg/sg2_167_cif.got.tgz:333012.got - 2010.06.27 13:26:56.
