data_PCOD8019948
_publ_section_title
;
Structure prediction by ZEFSAII (Michael W. Deem and Ramdas Pophale) SiO2 
 PCOD8019948
Probable space group: P -1
;
_chemical_formula_sum "Si O2"
_cell_formula_units_Z 16
_cell_length_a 9.513151
_cell_length_b 11.031674
_cell_length_c 8.859094
_cell_angle_alpha 124.055706
_cell_angle_beta 78.345368
_cell_angle_gamma 90.206027
_cell_volume 747.486844
_symmetry_space_group_name_H-M "P -1"
_symmetry_group_IT_number 2
_symmetry_cell_setting 'triclinic'
loop_
_space_group_symop_operation_xyz
x,y,z
-x,-y,-z
loop_
_atom_site_type_symbol
_atom_site_label
_atom_site_fract_x
_atom_site_fract_y
_atom_site_fract_z
Si Si1 0.354578 0.322018 0.895835
Si Si2 0.875647 0.176908 0.223219
Si Si3 0.405766 0.112719 0.210800
Si Si4 0.338605 0.640398 0.203977
Si Si5 0.118727 0.903896 0.505737
Si Si6 0.185711 0.145593 0.041032
Si Si7 0.353934 0.080341 0.522133
Si Si8 0.586447 0.358100 0.461017
O O1 0.526517 0.316642 0.894874
O O2 0.340012 0.257263 0.683823
O O3 0.283925 0.491393 0.047915
O O4 0.275063 0.212094 0.937190
O O5 0.938760 0.151128 0.362033
O O6 0.751042 0.317272 0.333755
O O7 0.014660 0.211359 0.119905
O O8 0.806850 0.032140 0.084907
O O9 0.266135 0.191712 0.207039
O O10 0.342001 0.037967 0.319048
O O11 0.501849 0.223354 0.344934
O O12 0.500000 0.000000 0.000000
O O13 0.199944 0.763222 0.299244
O O14 0.397769 0.618072 0.346971
O O15 0.232674 0.013650 0.598133
O O16 0.000000 0.000000 0.500000
O O17 0.500000 0.000000 0.500000
O O18 0.500000 0.500000 0.500000
#
# Coordination Sequence:
#
# PCOD8019948 Si02
#       8
#     2   2   2   2   2   2   2   2
#     4  11  21  42  68  93 126 176 218 262 334 385
#     4  10  22  42  63  94 135 170 213 269 328 388
#     4  12  23  37  61 101 126 164 231 270 314 394
#     4  10  23  41  68  96 131 170 217 276 328 386
#     4  11  22  41  66  96 131 170 218 270 328 391
#     4  11  22  40  66  94 131 174 213 268 329 385
#     4  12  21  39  65  94 127 173 221 272 323 382
#     4  11  22  42  64  96 130 169 215 275 329 384
#
# _framework density 21.405059000000001
#
# number of rings (size 3 to 8) (size 9 to 14) (size 15 to 20)
#    0.000    1.000    5.000    3.000    0.000    0.000 
#    0.000    7.500    0.000    0.000    0.000    0.000 
#    0.000    0.000    0.000    0.000    0.000    0.000 
#
# Total GULP energy -198237.488791 kJ/mol
# GULP energy per Si atom -12389.843049 kJ/mol
# Density = 2.135634 g / cm^3
# Si number density = 21.405059 Si / 1000 Ang^3
#
#
#
# Elastic Constant Matrix: (Units=GPa)
#
#
# Indices 1 2 3 4 5 6 
#
# 1 119.6222 48.7379 37.8318 1.8523 -13.2827 -11.8044
# 2 48.7379 81.2899 43.0199 5.4833 -10.5334 -9.2451
# 3 37.8318 43.0199 132.6908 19.1467 -3.8597 -3.4925
# 4 1.8523 5.4833 19.1467 37.4793 -1.4061 -3.1784
# 5 -13.2827 -10.5334 -3.8597 -1.4061 29.2334 2.8097
# 6 -11.8044 -9.2451 -3.4925 -3.1784 2.8097 47.7477
#
#
#
# Elastic Compliance Matrix: (Units=1/GPa)
#
#
# Indices 1 2 3 4 5 6 
#
# 1 0.011621 -0.005685 -0.001528 0.001282 0.002940 0.001573
# 2 -0.005685 0.018600 -0.004268 0.000010 0.003394 0.001685
# 3 -0.001528 -0.004268 0.009953 -0.004485 -0.001065 -0.000712
# 4 0.001282 0.000010 -0.004485 0.029111 0.001216 0.001857
# 5 0.002940 0.003394 -0.001065 0.001216 0.036759 -0.000776
# 6 0.001573 0.001685 -0.000712 0.001857 -0.000776 0.021776
#
#
# Mechanical properties :
#
#
# Convention : Reuss Voigt Hill
#
# Bulk Modulus (GPa) = 58.10074 65.86467 61.98271
# Shear Modulus (GPa) = 31.94509 36.49295 34.21902
#
# Velocity S-wave (km/s) = 3.86736 4.13349 4.00264
# Velocity P-wave (km/s) = 6.86618 7.32246 7.09799
#
# Compressibility (1/GPa) = 0.01721149
#
# Stress axis : x y z
#
# Youngs Moduli (GPa) = 86.04945 53.76478 100.47169
#
# Poissons Ratio (x) = 0.30568 0.15353
# Poissons Ratio (y) = 0.48923 0.42877
# Poissons Ratio (z) = 0.13149 0.22945
#
# Static dielectric constant tensor:
#      x y z
#    x 3.869010 0.127780 -0.086380 
#    y 0.127780 3.716750 0.010650 
#    z -0.086380 0.010650 4.506700 
# 
# 
# High freq. dielectric constant tensor:
#      x y z
#    x 1.838320 0.015560 -0.008930 
#    y 0.015560 1.815430 -0.000260 
#    z -0.008930 -0.000260 1.852980 
# 
# From -- ./inp_files/190809.got.cif
#   From: 2010.06.25/outbox.cif.g09.slc.cpg/sg2_96_cif.got.tgz:190809.got - 2010.06.27 13:26:56.
