data_PCOD8019572
_publ_section_title
;
Structure prediction by ZEFSAII (Michael W. Deem and Ramdas Pophale) SiO2 
 PCOD8019572
Probable space group: P -1
;
_chemical_formula_sum "Si O2"
_cell_formula_units_Z 16
_cell_length_a 9.770769
_cell_length_b 14.704803
_cell_length_c 8.998842
_cell_angle_alpha 67.502329
_cell_angle_beta 95.838296
_cell_angle_gamma 140.022156
_cell_volume 726.440960
_symmetry_space_group_name_H-M "P -1"
_symmetry_group_IT_number 2
_symmetry_cell_setting 'triclinic'
loop_
_space_group_symop_operation_xyz
x,y,z
-x,-y,-z
loop_
_atom_site_type_symbol
_atom_site_label
_atom_site_fract_x
_atom_site_fract_y
_atom_site_fract_z
Si Si1 0.920431 0.067603 0.765783
Si Si2 0.465255 0.031397 0.323093
Si Si3 0.856156 0.464684 0.636786
Si Si4 0.270590 0.400436 0.962131
Si Si5 0.541784 0.113589 0.823884
Si Si6 0.699620 0.559901 0.400905
Si Si7 0.965093 0.373779 0.135679
Si Si8 0.100995 0.967958 0.876494
O O1 0.073918 0.250697 0.666117
O O2 0.702980 0.969035 0.699179
O O3 0.831418 0.986956 0.970005
O O4 0.061288 0.051102 0.739059
O O5 0.710135 0.198048 0.182386
O O6 0.500000 0.000000 0.500000
O O7 0.346073 0.878477 0.307797
O O8 0.705789 0.290215 0.797806
O O9 0.699420 0.454743 0.545633
O O10 0.991296 0.596605 0.700337
O O11 0.000000 0.500000 0.500000
O O12 0.328490 0.474067 0.757924
O O13 0.500000 0.500000 0.000000
O O14 0.139923 0.403331 0.049911
O O15 0.128210 0.220963 0.046635
O O16 0.311751 0.032112 0.786350
O O17 0.500000 0.000000 0.000000
O O18 0.500000 0.500000 0.500000
O O19 0.000000 0.500000 0.000000
#
# Coordination Sequence:
#
# PCOD8019572 Si02
#       8
#     2   2   2   2   2   2   2   2
#     4  10  22  41  70  98 133 182 231 284 339 420
#     4  12  25  43  68 102 145 177 224 293 359 405
#     4  12  26  43  71 102 139 185 233 284 356 418
#     4  11  25  43  68 100 142 184 234 294 351 420
#     4  12  23  44  72  98 133 186 240 283 333 426
#     4  11  23  45  70  99 141 182 233 287 354 426
#     4  12  26  43  68 103 141 181 233 291 349 410
#     4  10  22  41  68  99 129 179 242 279 336 412
#
# _framework density 22.025189000000001
#
# number of rings (size 3 to 8) (size 9 to 14) (size 15 to 20)
#    0.000    0.750    2.500    5.250    3.500    1.000 
#    0.000    0.625    0.000    0.000    0.000    0.000 
#    0.000    0.000    0.000    0.000    0.000    0.000 
#
# Total GULP energy -198319.593487 kJ/mol
# GULP energy per Si atom -12394.974593 kJ/mol
# Density = 2.197506 g / cm^3
# Si number density = 22.025189 Si / 1000 Ang^3
#
#
#
# Elastic Constant Matrix: (Units=GPa)
#
#
# Indices 1 2 3 4 5 6 
#
# 1 186.0395 44.0106 59.1507 6.2706 15.9453 15.2025
# 2 44.0106 90.9444 27.6259 5.1747 10.2747 7.2274
# 3 59.1507 27.6259 106.5086 12.8775 7.8837 -1.5373
# 4 6.2706 5.1747 12.8775 38.2186 -2.8354 0.4547
# 5 15.9453 10.2747 7.8837 -2.8354 47.1775 -0.2681
# 6 15.2025 7.2274 -1.5373 0.4547 -0.2681 43.6672
#
#
#
# Elastic Compliance Matrix: (Units=1/GPa)
#
#
# Indices 1 2 3 4 5 6 
#
# 1 0.007280 -0.002145 -0.003436 0.000176 -0.001422 -0.002311
# 2 -0.002145 0.013004 -0.001962 -0.000867 -0.001840 -0.001477
# 3 -0.003436 -0.001962 0.012293 -0.003385 -0.000658 0.001985
# 4 0.000176 -0.000867 -0.003385 0.027572 0.002350 -0.000310
# 5 -0.001422 -0.001840 -0.000658 0.002350 0.022334 0.000889
# 6 -0.002311 -0.001477 0.001985 -0.000310 0.000889 0.024028
#
#
# Mechanical properties :
#
#
# Convention : Reuss Voigt Hill
#
# Bulk Modulus (GPa) = 57.17331 71.67413 64.42372
# Shear Modulus (GPa) = 39.23799 42.65967 40.94883
#
# Velocity S-wave (km/s) = 4.22537 4.40575 4.31650
# Velocity P-wave (km/s) = 7.05829 7.64810 7.35910
#
# Compressibility (1/GPa) = 0.01749068
#
# Stress axis : x y z
#
# Youngs Moduli (GPa) = 137.36554 76.89765 81.34946
#
# Poissons Ratio (x) = 0.16494 0.27951
# Poissons Ratio (y) = 0.29464 0.15962
# Poissons Ratio (z) = 0.47198 0.15089
#
# Static dielectric constant tensor:
#      x y z
#    x 4.232060 -0.032420 0.128900 
#    y -0.032420 3.458590 -0.352720 
#    z 0.128900 -0.352720 3.714560 
# 
# 
# High freq. dielectric constant tensor:
#      x y z
#    x 1.887100 0.001980 0.007290 
#    y 0.001980 1.865480 -0.005340 
#    z 0.007290 -0.005340 1.862240 
# 
# From -- ./inp_files/206450.got.cif
#   From: 2010.06.25/outbox.cif.g09.slc.cpg/sg2_104_cif.got.tgz:206450.got - 2010.06.27 13:26:56.
