data_PCOD8019201
_publ_section_title
;
Structure prediction by ZEFSAII (Michael W. Deem and Ramdas Pophale) SiO2 
 PCOD8019201
Probable space group: P -1
;
_chemical_formula_sum "Si O2"
_cell_formula_units_Z 16
_cell_length_a 12.666950
_cell_length_b 10.367323
_cell_length_c 18.292310
_cell_angle_alpha 64.696189
_cell_angle_beta 162.115850
_cell_angle_gamma 114.642867
_cell_volume 666.467571
_symmetry_space_group_name_H-M "P -1"
_symmetry_group_IT_number 2
_symmetry_cell_setting 'triclinic'
loop_
_space_group_symop_operation_xyz
x,y,z
-x,-y,-z
loop_
_atom_site_type_symbol
_atom_site_label
_atom_site_fract_x
_atom_site_fract_y
_atom_site_fract_z
Si Si1 0.737038 0.064686 0.897869
Si Si2 0.478435 0.199395 0.104495
Si Si3 0.551197 0.804330 0.618321
Si Si4 0.347946 0.071727 0.495679
Si Si5 0.252389 0.215378 0.646735
Si Si6 0.667704 0.207365 0.067015
Si Si7 0.504573 0.510209 0.892353
Si Si8 0.729659 0.459245 0.423678
O O1 0.662230 0.063800 0.762220
O O2 0.403992 0.117751 0.707950
O O3 0.791307 0.904898 0.004438
O O4 0.063227 0.166712 0.105249
O O5 0.499878 0.152141 0.045657
O O6 0.366144 0.365259 0.996536
O O7 0.845109 0.188327 0.389168
O O8 0.544837 0.815285 0.523855
O O9 0.421752 0.644021 0.588492
O O10 0.296449 0.916121 0.461160
O O11 0.004867 0.118929 0.297479
O O12 0.344600 0.377981 0.644723
O O13 0.399946 0.177644 0.832527
O O14 0.763735 0.378319 0.096167
O O15 0.472050 0.582083 0.773977
O O16 0.134399 0.437263 0.686724
#
# Coordination Sequence:
#
# PCOD8019201 Si02
#       8
#     2   2   2   2   2   2   2   2
#     4  12  24  43  66  95 128 173 211 260 317 378
#     4  11  23  40  69  96 130 165 210 265 316 375
#     4  11  25  46  66  88 129 175 213 258 313 382
#     4  11  25  43  64  94 131 166 218 261 310 381
#     4  10  22  41  65  96 128 160 213 264 313 370
#     4  11  22  41  66  99 128 164 211 266 321 369
#     4   9  20  41  68  98 125 161 212 264 317 375
#     4   9  20  43  69  92 126 171 210 259 318 373
#
# _framework density 24.007169000000001
#
# number of rings (size 3 to 8) (size 9 to 14) (size 15 to 20)
#    0.000    1.500    2.500    2.625    0.000    4.000 
#    0.000    5.625    0.000    0.000    0.000    0.000 
#    0.000    0.000    0.000    0.000    0.000    0.000 
#
# Total GULP energy -198442.145122 kJ/mol
# GULP energy per Si atom -12402.634070 kJ/mol
# Density = 2.395253 g / cm^3
# Si number density = 24.007169 Si / 1000 Ang^3
#
#
#
# Elastic Constant Matrix: (Units=GPa)
#
#
# Indices 1 2 3 4 5 6 
#
# 1 124.8597 29.7646 10.7661 -1.1286 -34.2458 16.3886
# 2 29.7646 98.3255 13.9109 4.9749 -4.7765 16.7997
# 3 10.7661 13.9109 59.5745 -9.3400 -16.3853 9.1478
# 4 -1.1286 4.9749 -9.3400 24.0928 -0.8469 6.9121
# 5 -34.2458 -4.7765 -16.3853 -0.8469 36.4571 -12.9322
# 6 16.3886 16.7997 9.1478 6.9121 -12.9322 46.0902
#
#
#
# Elastic Compliance Matrix: (Units=1/GPa)
#
#
# Indices 1 2 3 4 5 6 
#
# 1 0.011924 -0.003416 0.002381 0.002772 0.011672 -0.000608
# 2 -0.003416 0.012205 -0.003441 -0.003221 -0.004403 -0.003303
# 3 0.002381 -0.003441 0.022261 0.010550 0.011163 -0.002461
# 4 0.002772 -0.003221 0.010550 0.048796 0.005314 -0.007732
# 5 0.011672 -0.004403 0.011163 0.005314 0.045516 0.007213
# 6 -0.000608 -0.003303 -0.002461 -0.007732 0.007213 0.026789
#
#
# Mechanical properties :
#
#
# Convention : Reuss Voigt Hill
#
# Bulk Modulus (GPa) = 26.71112 43.51587 35.11349
# Shear Modulus (GPa) = 26.46588 36.54923 31.50755
#
# Velocity S-wave (km/s) = 3.32387 3.90607 3.62667
# Velocity P-wave (km/s) = 5.08736 6.20554 5.67406
#
# Compressibility (1/GPa) = 0.03743760
#
# Stress axis : x y z
#
# Youngs Moduli (GPa) = 83.86301 81.93578 44.92137
#
# Poissons Ratio (x) = 0.27988 -0.10695
# Poissons Ratio (y) = 0.28646 0.15459
# Poissons Ratio (z) = -0.19967 0.28197
#
# Static dielectric constant tensor:
#      x y z
#    x 4.422110 -0.158330 -0.156860 
#    y -0.158330 4.283710 -0.287790 
#    z -0.156860 -0.287790 4.204900 
# 
# 
# High freq. dielectric constant tensor:
#      x y z
#    x 1.959100 -0.005200 -0.017860 
#    y -0.005200 1.949370 -0.018450 
#    z -0.017860 -0.018450 1.943980 
# 
# From -- ./inp_files/569160.got.cif
#   From: 2010.06.25/outbox.cif.g09.slc.cpg/sg2_285_cif.got.tgz:569160.got - 2010.06.27 13:26:56.
