data_PCOD8019681
_publ_section_title
;
Structure prediction by ZEFSAII (Michael W. Deem and Ramdas Pophale) SiO2 
 PCOD8019681
Probable space group: P -1
;
_chemical_formula_sum "Si O2"
_cell_formula_units_Z 12
_cell_length_a 15.946736
_cell_length_b 9.549989
_cell_length_c 5.280682
_cell_angle_alpha 110.633301
_cell_angle_beta 117.690742
_cell_angle_gamma 113.972412
_cell_volume 483.683629
_symmetry_space_group_name_H-M "P -1"
_symmetry_group_IT_number 2
_symmetry_cell_setting 'triclinic'
loop_
_space_group_symop_operation_xyz
x,y,z
-x,-y,-z
loop_
_atom_site_type_symbol
_atom_site_label
_atom_site_fract_x
_atom_site_fract_y
_atom_site_fract_z
Si Si1 0.077001 0.124679 0.941033
Si Si2 0.208326 0.989295 0.948746
Si Si3 0.452637 0.793520 0.078591
Si Si4 0.712042 0.208533 0.819670
Si Si5 0.482458 0.305515 0.375634
Si Si6 0.055878 0.407988 0.911892
O O1 0.106725 0.335572 0.133015
O O2 0.207159 0.161184 0.153694
O O3 0.000000 0.000000 0.500000
O O4 0.000000 0.000000 0.000000
O O5 0.065682 0.798647 0.527309
O O6 0.230348 0.895624 0.145770
O O7 0.327650 0.101797 0.989483
O O8 0.323672 0.753640 0.932885
O O9 0.474015 0.705087 0.292635
O O10 0.574082 0.042722 0.371064
O O11 0.434212 0.682008 0.722720
O O12 0.819633 0.429241 0.984713
O O13 0.500000 0.500000 0.500000
O O14 0.000000 0.500000 0.000000
#
# Coordination Sequence:
#
# PCOD8019681 Si02
#       6
#     2   2   2   2   2   2
#     4  10  23  43  63  94 136 174 214 271 334 398
#     4  10  23  43  65  99 137 177 223 282 340 399
#     4  10  24  44  67 100 136 178 228 283 334 401
#     4  10  22  41  70 101 137 179 227 284 341 405
#     4  11  24  44  68  96 135 182 230 278 338 407
#     4  11  22  39  70 103 136 178 228 278 341 407
#
# _framework density 24.809605999999999
#
# number of rings (size 3 to 8) (size 9 to 14) (size 15 to 20)
#    0.000    1.667    0.000    3.000    2.333   12.667 
#    6.000    0.000    0.000    0.000    0.000    0.000 
#    0.000    0.000    0.000    0.000    0.000    0.000 
#
# Total GULP energy -148656.993948 kJ/mol
# GULP energy per Si atom -12388.082829 kJ/mol
# Density = 2.475314 g / cm^3
# Si number density = 24.809606 Si / 1000 Ang^3
#
#
#
# Elastic Constant Matrix: (Units=GPa)
#
#
# Indices 1 2 3 4 5 6 
#
# 1 184.1527 83.1557 18.4368 -0.8980 1.7693 -17.1032
# 2 83.1557 180.3808 33.5665 12.7252 8.5305 -15.7750
# 3 18.4368 33.5665 42.8053 7.7575 1.7589 10.6230
# 4 -0.8980 12.7252 7.7575 33.3757 5.5538 1.3383
# 5 1.7693 8.5305 1.7589 5.5538 41.8473 -3.3507
# 6 -17.1032 -15.7750 10.6230 1.3383 -3.3507 58.7139
#
#
#
# Elastic Compliance Matrix: (Units=1/GPa)
#
#
# Indices 1 2 3 4 5 6 
#
# 1 0.007060 -0.002997 -0.001348 0.001540 0.000283 0.001476
# 2 -0.002997 0.008318 -0.005424 -0.001936 -0.000897 0.002336
# 3 -0.001348 -0.005424 0.030896 -0.004842 -0.000081 -0.007334
# 4 0.001540 -0.001936 -0.004842 0.032504 -0.003793 -0.000153
# 5 0.000283 -0.000897 -0.000081 -0.003793 0.024682 0.001351
# 6 0.001476 0.002336 -0.007334 -0.000153 0.001351 0.019497
#
#
# Mechanical properties :
#
#
# Convention : Reuss Voigt Hill
#
# Bulk Modulus (GPa) = 37.40122 75.29520 56.34821
# Shear Modulus (GPa) = 33.02328 44.93273 38.97800
#
# Velocity S-wave (km/s) = 3.65234 4.26032 3.96799
# Velocity P-wave (km/s) = 5.73534 7.39023 6.61474
#
# Compressibility (1/GPa) = 0.02673710
#
# Stress axis : x y z
#
# Youngs Moduli (GPa) = 141.63468 120.22104 32.36618
#
# Poissons Ratio (x) = 0.36029 0.04363
# Poissons Ratio (y) = 0.42446 0.17555
# Poissons Ratio (z) = 0.19093 0.65208
#
# Static dielectric constant tensor:
#      x y z
#    x 5.740800 -0.927340 0.561050 
#    y -0.927340 5.196990 -0.245950 
#    z 0.561050 -0.245950 3.812360 
# 
# 
# High freq. dielectric constant tensor:
#      x y z
#    x 2.012810 -0.019320 0.016680 
#    y -0.019320 2.010310 0.008180 
#    z 0.016680 0.008180 1.948690 
# 
# From -- ./inp_files/72065.got.cif
#   From: 2010.06.25/outbox.cif.g09.slc.cpg/sg2_37_cif.got.tgz:72065.got - 2010.06.27 13:26:56.
