data_PCOD8019084
_publ_section_title
;
Structure prediction by ZEFSAII (Michael W. Deem and Ramdas Pophale) SiO2 
 PCOD8019084
Probable space group: P -1
;
_chemical_formula_sum "Si O2"
_cell_formula_units_Z 14
_cell_length_a 29.811205
_cell_length_b 30.276631
_cell_length_c 12.066980
_cell_angle_alpha 157.745097
_cell_angle_beta 158.005897
_cell_angle_gamma 9.537512
_cell_volume 664.952623
_symmetry_space_group_name_H-M "P -1"
_symmetry_group_IT_number 2
_symmetry_cell_setting 'triclinic'
loop_
_space_group_symop_operation_xyz
x,y,z
-x,-y,-z
loop_
_atom_site_type_symbol
_atom_site_label
_atom_site_fract_x
_atom_site_fract_y
_atom_site_fract_z
Si Si1 0.752910 0.717671 0.291713
Si Si2 0.347309 0.277466 0.683596
Si Si3 0.715854 0.912084 0.273255
Si Si4 0.198005 0.734881 0.893409
Si Si5 0.743844 0.576499 0.732825
Si Si6 0.470769 0.404851 0.146559
Si Si7 0.970159 0.871028 0.917746
O O1 0.680134 0.712689 0.224992
O O2 0.059306 0.500352 0.483209
O O3 0.562179 0.995385 0.473786
O O4 0.694948 0.672195 0.962310
O O5 0.456037 0.311353 0.983471
O O6 0.817313 0.888616 0.562721
O O7 0.980683 0.611063 0.128427
O O8 0.545857 0.157621 0.380978
O O9 0.500000 0.000000 0.000000
O O10 0.147257 0.651205 0.536037
O O11 0.139573 0.787948 0.015031
O O12 0.500000 0.500000 0.000000
O O13 0.000000 0.000000 0.000000
O O14 0.500000 0.500000 0.500000
O O15 0.189353 0.645580 0.990576
O O16 0.736882 0.159950 0.106948
#
# Coordination Sequence:
#
# PCOD8019084 Si02
#       7
#     2   2   2   2   2   2   2
#     4  10  22  41  64  95 127 170 217 281 326 392
#     4  10  23  41  64  92 130 169 223 273 335 377
#     4  11  24  40  64 100 132 169 208 262 342 404
#     4  11  23  43  66  93 131 178 214 271 332 391
#     4  11  23  40  63  99 129 161 227 261 324 413
#     4  12  26  45  68  96 133 182 229 272 333 402
#     4  11  25  44  66  98 135 167 222 277 324 395
#
# _framework density 21.054133
#
# number of rings (size 3 to 8) (size 9 to 14) (size 15 to 20)
#    0.000    1.143    0.000    6.857    6.000    2.286 
#    0.000    2.857    0.000    0.000    0.000    0.000 
#    0.000    0.000    0.000    0.000    0.000    0.000 
#
# Total GULP energy -173554.789410 kJ/mol
# GULP energy per Si atom -12396.770672 kJ/mol
# Density = 2.100621 g / cm^3
# Si number density = 21.054133 Si / 1000 Ang^3
#
#
#
# Elastic Constant Matrix: (Units=GPa)
#
#
# Indices 1 2 3 4 5 6 
#
# 1 101.4134 47.3056 78.0756 3.1307 -1.3893 -8.4621
# 2 47.3056 165.0423 55.0300 -0.3738 -15.6987 -2.4661
# 3 78.0756 55.0300 127.3883 6.9961 -16.3114 7.4947
# 4 3.1307 -0.3738 6.9961 39.6736 -4.7851 -5.7128
# 5 -1.3893 -15.6987 -16.3114 -4.7851 41.2252 2.9353
# 6 -8.4621 -2.4661 7.4947 -5.7128 2.9353 45.4900
#
#
#
# Elastic Compliance Matrix: (Units=1/GPa)
#
#
# Indices 1 2 3 4 5 6 
#
# 1 0.021805 -0.002162 -0.013622 0.000917 -0.005847 0.006676
# 2 -0.002162 0.007450 -0.001674 0.000834 0.002181 0.000241
# 3 -0.013622 -0.001674 0.018227 -0.002306 0.006298 -0.006324
# 4 0.000917 0.000834 -0.002306 0.026358 0.002228 0.003762
# 5 -0.005847 0.002181 0.006298 0.002228 0.027892 -0.003527
# 6 0.006676 0.000241 -0.006324 0.003762 -0.003527 0.024980
#
#
# Mechanical properties :
#
#
# Convention : Reuss Voigt Hill
#
# Bulk Modulus (GPa) = 79.57938 83.85185 81.71561
# Shear Modulus (GPa) = 30.15378 39.50660 34.83019
#
# Velocity S-wave (km/s) = 3.78855 4.33648 4.07174
# Velocity P-wave (km/s) = 7.55096 8.06143 7.81037
#
# Compressibility (1/GPa) = 0.01256607
#
# Stress axis : x y z
#
# Youngs Moduli (GPa) = 45.86081 134.23058 54.86380
#
# Poissons Ratio (x) = 0.29025 0.74735
# Poissons Ratio (y) = 0.09917 0.09182
# Poissons Ratio (z) = 0.62471 0.22465
#
# Static dielectric constant tensor:
#      x y z
#    x 3.513310 0.202670 -0.153940 
#    y 0.202670 4.446450 0.184730 
#    z -0.153940 0.184730 3.583110 
# 
# 
# High freq. dielectric constant tensor:
#      x y z
#    x 1.827580 -0.007830 0.002080 
#    y -0.007830 1.855990 0.004760 
#    z 0.002080 0.004760 1.819930 
# 
# From -- ./inp_files/477362.got.cif
#   From: 2010.06.25/outbox.cif.g09.slc.cpg/sg2_239_cif.got.tgz:477362.got - 2010.06.27 13:26:56.
