data_PCOD8019963
_publ_section_title
;
Structure prediction by ZEFSAII (Michael W. Deem and Ramdas Pophale) SiO2 
 PCOD8019963
Probable space group: P -1
;
_chemical_formula_sum "Si O2"
_cell_formula_units_Z 14
_cell_length_a 13.730003
_cell_length_b 6.709988
_cell_length_c 22.337085
_cell_angle_alpha 109.129730
_cell_angle_beta 160.195870
_cell_angle_gamma 80.511613
_cell_volume 588.838699
_symmetry_space_group_name_H-M "P -1"
_symmetry_group_IT_number 2
_symmetry_cell_setting 'triclinic'
loop_
_space_group_symop_operation_xyz
x,y,z
-x,-y,-z
loop_
_atom_site_type_symbol
_atom_site_label
_atom_site_fract_x
_atom_site_fract_y
_atom_site_fract_z
Si Si1 0.463796 0.745000 0.575204
Si Si2 0.787591 0.420168 0.712244
Si Si3 0.724707 0.266979 0.787471
Si Si4 0.703717 0.700863 0.367404
Si Si5 0.765407 0.554624 0.209403
Si Si6 0.619040 0.261504 0.211955
Si Si7 0.471664 0.806370 0.131232
O O1 0.654754 0.593248 0.681099
O O2 0.413886 0.745839 0.474672
O O3 0.117706 0.622238 0.395302
O O4 0.683006 0.005821 0.755022
O O5 0.762323 0.256865 0.737474
O O6 0.153473 0.560580 0.916372
O O7 0.397550 0.276182 0.621198
O O8 0.000000 0.500000 0.000000
O O9 0.515805 0.431025 0.207154
O O10 0.587958 0.858019 0.273085
O O11 0.073205 0.758475 0.583177
O O12 0.663408 0.331584 0.174477
O O13 0.767580 0.778562 0.267632
O O14 0.500000 0.500000 0.000000
O O15 0.369065 0.991341 0.056282
#
# Coordination Sequence:
#
# PCOD8019963 Si02
#       7
#     2   2   2   2   2   2   2
#     4  11  26  46  68  95 141 180 226 286 335 410
#     4  11  25  46  66 102 136 182 227 275 346 406
#     4  12  25  43  70 100 134 180 226 280 340 406
#     4  10  22  42  64 101 136 172 231 272 349 397
#     4  11  23  44  67 100 134 179 234 276 337 409
#     4  10  23  40  68  99 137 174 223 287 340 403
#     4  11  22  41  70  98 136 178 223 283 338 405
#
# _framework density 23.775611000000001
#
# number of rings (size 3 to 8) (size 9 to 14) (size 15 to 20)
#    0.000    1.143    2.857    2.571    2.000    4.571 
#    5.143    0.000    0.000    0.000    0.000    0.000 
#    0.000    0.000    0.000    0.000    0.000    0.000 
#
# Total GULP energy -173437.200395 kJ/mol
# GULP energy per Si atom -12388.371457 kJ/mol
# Density = 2.372150 g / cm^3
# Si number density = 23.775611 Si / 1000 Ang^3
#
#
#
# Elastic Constant Matrix: (Units=GPa)
#
#
# Indices 1 2 3 4 5 6 
#
# 1 103.6347 39.9062 3.7175 9.6291 5.7653 2.6034
# 2 39.9062 117.3975 18.0902 6.2434 0.6777 13.7436
# 3 3.7175 18.0902 54.4610 3.3488 -6.0457 0.4144
# 4 9.6291 6.2434 3.3488 30.7557 -0.8349 -1.3656
# 5 5.7653 0.6777 -6.0457 -0.8349 34.2676 -11.1246
# 6 2.6034 13.7436 0.4144 -1.3656 -11.1246 48.1578
#
#
#
# Elastic Compliance Matrix: (Units=1/GPa)
#
#
# Indices 1 2 3 4 5 6 
#
# 1 0.011472 -0.003796 0.000451 -0.002923 -0.001864 -0.000054
# 2 -0.003796 0.010744 -0.003371 -0.000797 -0.001205 -0.003133
# 3 0.000451 -0.003371 0.019973 -0.001449 0.004016 0.001652
# 4 -0.002923 -0.000797 -0.001449 0.033871 0.001641 0.001738
# 5 -0.001864 -0.001205 0.004016 0.001641 0.032882 0.008053
# 6 -0.000054 -0.003133 0.001652 0.001738 0.008053 0.023557
#
#
# Mechanical properties :
#
#
# Convention : Reuss Voigt Hill
#
# Bulk Modulus (GPa) = 34.77421 44.32455 39.54938
# Shear Modulus (GPa) = 32.15098 36.88816 34.51957
#
# Velocity S-wave (km/s) = 3.68131 3.94320 3.81450
# Velocity P-wave (km/s) = 5.72076 6.27814 6.00592
#
# Compressibility (1/GPa) = 0.02875695
#
# Stress axis : x y z
#
# Youngs Moduli (GPa) = 87.17157 93.07444 50.06783
#
# Poissons Ratio (x) = 0.35335 -0.02259
# Poissons Ratio (y) = 0.33094 0.16876
# Poissons Ratio (z) = -0.03933 0.31372
#
# Static dielectric constant tensor:
#      x y z
#    x 4.524280 -0.002440 0.112280 
#    y -0.002440 4.404330 0.066770 
#    z 0.112280 0.066770 4.053740 
# 
# 
# High freq. dielectric constant tensor:
#      x y z
#    x 1.952840 -0.001280 0.009230 
#    y -0.001280 1.943610 0.000460 
#    z 0.009230 0.000460 1.926040 
# 
# From -- ./inp_files/349757.got.cif
#   From: 2010.06.25/outbox.cif.g09.slc.cpg/sg2_175_cif.got.tgz:349757.got - 2010.06.27 13:26:56.
