data_PCOD8019387
_publ_section_title
;
Structure prediction by ZEFSAII (Michael W. Deem and Ramdas Pophale) SiO2 
 PCOD8019387
Probable space group: P -1
;
_chemical_formula_sum "Si O2"
_cell_formula_units_Z 16
_cell_length_a 8.938023
_cell_length_b 23.645980
_cell_length_c 9.177729
_cell_angle_alpha 135.264892
_cell_angle_beta 85.915680
_cell_angle_gamma 130.058372
_cell_volume 728.995806
_symmetry_space_group_name_H-M "P -1"
_symmetry_group_IT_number 2
_symmetry_cell_setting 'triclinic'
loop_
_space_group_symop_operation_xyz
x,y,z
-x,-y,-z
loop_
_atom_site_type_symbol
_atom_site_label
_atom_site_fract_x
_atom_site_fract_y
_atom_site_fract_z
Si Si1 0.767336 0.719931 0.290119
Si Si2 0.984872 0.469659 0.276797
Si Si3 0.624124 0.483255 0.804459
Si Si4 0.101237 0.164237 0.813897
Si Si5 0.714567 0.242887 0.268685
Si Si6 0.430517 0.160159 0.834667
Si Si7 0.140932 0.977149 0.950889
Si Si8 0.076711 0.249300 0.240111
O O1 0.494352 0.612196 0.214112
O O2 0.733095 0.746921 0.185958
O O3 0.041746 0.880227 0.641326
O O4 0.816185 0.646206 0.131975
O O5 0.210101 0.504175 0.282877
O O6 0.059611 0.584842 0.394489
O O7 0.000000 0.500000 0.500000
O O8 0.674184 0.294393 0.946865
O O9 0.363734 0.399956 0.577551
O O10 0.242303 0.153462 0.868664
O O11 0.769873 0.998796 0.509212
O O12 0.132657 0.258295 0.081840
O O13 0.866353 0.226973 0.233324
O O14 0.569375 0.191624 0.029729
O O15 0.476158 0.137267 0.215385
O O16 0.060359 0.894633 0.952731
O O17 0.000000 0.000000 0.000000
#
# Coordination Sequence:
#
# PCOD8019387 Si02
#       8
#     2   2   2   2   2   2   2   2
#     4  10  23  41  74  92 133 175 224 276 329 403
#     4  10  22  41  67  93 134 175 221 277 332 396
#     4  10  23  46  66 100 133 180 224 270 344 401
#     4  11  23  42  69  96 130 175 227 277 338 400
#     4  11  22  41  63  97 134 174 222 279 331 392
#     4  10  23  41  63  93 131 170 224 276 334 397
#     4  11  22  44  71  94 134 181 224 273 334 406
#     4  11  25  38  68 102 130 176 228 275 331 398
#
# _framework density 21.947998999999999
#
# number of rings (size 3 to 8) (size 9 to 14) (size 15 to 20)
#    0.000    1.500    1.250    4.125    7.000    2.000 
#    0.000    1.875    0.000    0.000    0.000    0.000 
#    0.000    0.000    0.000    0.000    0.000    0.000 
#
# Total GULP energy -198397.369726 kJ/mol
# GULP energy per Si atom -12399.835608 kJ/mol
# Density = 2.189804 g / cm^3
# Si number density = 21.947999 Si / 1000 Ang^3
#
#
#
# Elastic Constant Matrix: (Units=GPa)
#
#
# Indices 1 2 3 4 5 6 
#
# 1 138.7218 44.4450 38.2433 2.5099 -8.1851 13.7645
# 2 44.4450 104.9534 50.4985 5.1978 -1.9535 11.6860
# 3 38.2433 50.4985 97.7768 10.7920 -9.0100 5.5921
# 4 2.5099 5.1978 10.7920 39.5337 2.2976 -3.9421
# 5 -8.1851 -1.9535 -9.0100 2.2976 32.5254 -2.9725
# 6 13.7645 11.6860 5.5921 -3.9421 -2.9725 36.2678
#
#
#
# Elastic Compliance Matrix: (Units=1/GPa)
#
#
# Indices 1 2 3 4 5 6 
#
# 1 0.008844 -0.002578 -0.001881 0.000000 0.001356 -0.002125
# 2 -0.002578 0.013846 -0.006133 -0.000150 -0.001752 -0.002697
# 3 -0.001881 -0.006133 0.014798 -0.003285 0.003521 0.000340
# 4 0.000000 -0.000150 -0.003285 0.026681 -0.002507 0.003249
# 5 0.001356 -0.001752 0.003521 -0.002507 0.032305 0.001883
# 6 -0.002125 -0.002697 0.000340 0.003249 0.001883 0.029703
#
#
# Mechanical properties :
#
#
# Convention : Reuss Voigt Hill
#
# Bulk Modulus (GPa) = 61.33891 67.53619 64.43755
# Shear Modulus (GPa) = 32.72302 35.54972 34.13637
#
# Velocity S-wave (km/s) = 3.86545 4.02895 3.94805
# Velocity P-wave (km/s) = 6.92317 7.24438 7.08560
#
# Compressibility (1/GPa) = 0.01630287
#
# Stress axis : x y z
#
# Youngs Moduli (GPa) = 113.06924 72.22291 67.57540
#
# Poissons Ratio (x) = 0.18622 0.12712
# Poissons Ratio (y) = 0.29153 0.41446
# Poissons Ratio (z) = 0.21270 0.44296
#
# Static dielectric constant tensor:
#      x y z
#    x 3.654430 0.017680 -0.049040 
#    y 0.017680 4.266540 0.397070 
#    z -0.049040 0.397070 4.202800 
# 
# 
# High freq. dielectric constant tensor:
#      x y z
#    x 1.847050 0.001770 -0.010570 
#    y 0.001770 1.872280 0.016360 
#    z -0.010570 0.016360 1.865130 
# 
# From -- ./inp_files/226652.got.cif
#   From: 2010.06.25/outbox.cif.g09.slc.cpg/sg2_114_cif.got.tgz:226652.got - 2010.06.27 13:26:56.
