data_PCOD8019723
_publ_section_title
;
Structure prediction by ZEFSAII (Michael W. Deem and Ramdas Pophale) SiO2 
 PCOD8019723
Probable space group: P -1
;
_chemical_formula_sum "Si O2"
_cell_formula_units_Z 14
_cell_length_a 30.848334
_cell_length_b 9.489662
_cell_length_c 9.512251
_cell_angle_alpha 52.687682
_cell_angle_beta 154.201254
_cell_angle_gamma 144.543701
_cell_volume 607.230007
_symmetry_space_group_name_H-M "P -1"
_symmetry_group_IT_number 2
_symmetry_cell_setting 'triclinic'
loop_
_space_group_symop_operation_xyz
x,y,z
-x,-y,-z
loop_
_atom_site_type_symbol
_atom_site_label
_atom_site_fract_x
_atom_site_fract_y
_atom_site_fract_z
Si Si1 0.325536 0.674044 0.678631
Si Si2 0.349677 0.716366 0.031615
Si Si3 0.846357 0.785451 0.025151
Si Si4 0.176970 0.178982 0.379021
Si Si5 0.090931 0.859090 0.788991
Si Si6 0.709521 0.122655 0.780772
Si Si7 0.812632 0.225830 0.322640
O O1 0.306757 0.448446 0.698991
O O2 0.228039 0.656240 0.291496
O O3 0.256224 0.581560 0.690425
O O4 0.500000 0.000000 0.000000
O O5 0.526328 0.896172 0.413464
O O6 0.276395 0.481442 0.070680
O O7 0.333466 0.892743 0.941634
O O8 0.011740 0.906312 0.436568
O O9 0.870053 0.015455 0.017301
O O10 0.777064 0.704810 0.715973
O O11 0.193225 0.992036 0.557388
O O12 0.000000 0.000000 0.000000
O O13 0.975604 0.531346 0.671974
O O14 0.250326 0.017980 0.077196
O O15 0.804693 0.286225 0.102709
#
# Coordination Sequence:
#
# PCOD8019723 Si02
#       7
#     2   2   2   2   2   2   2
#     4  10  24  46  68  96 140 181 223 278 346 409
#     4  10  24  45  69  96 140 184 224 279 343 408
#     4  10  24  44  68 101 143 174 230 285 340 402
#     4  12  26  43  73 104 136 178 236 284 339 410
#     4  10  22  41  70  98 136 180 225 281 344 398
#     4  11  22  44  70  94 137 182 229 271 343 408
#     4  11  24  41  70 102 134 177 232 283 341 395
#
# _framework density 23.055513000000001
#
# number of rings (size 3 to 8) (size 9 to 14) (size 15 to 20)
#    0.000    1.429    0.000    4.286   10.000    2.286 
#    2.571    3.571    0.000    0.000    0.000    0.000 
#    0.000    0.000    0.000    0.000    0.000    0.000 
#
# Total GULP energy -173512.081538 kJ/mol
# GULP energy per Si atom -12393.720110 kJ/mol
# Density = 2.300304 g / cm^3
# Si number density = 23.055513 Si / 1000 Ang^3
#
#
#
# Elastic Constant Matrix: (Units=GPa)
#
#
# Indices 1 2 3 4 5 6 
#
# 1 181.8115 80.3644 70.2830 -12.1174 -3.7536 -20.3410
# 2 80.3644 148.1369 51.7476 -0.1906 -8.0925 -23.2462
# 3 70.2830 51.7476 72.4191 -1.9870 11.3546 -11.1168
# 4 -12.1174 -0.1906 -1.9870 33.0583 -2.5418 -8.0027
# 5 -3.7536 -8.0925 11.3546 -2.5418 60.8952 -10.8192
# 6 -20.3410 -23.2462 -11.1168 -8.0027 -10.8192 52.8083
#
#
#
# Elastic Compliance Matrix: (Units=1/GPa)
#
#
# Indices 1 2 3 4 5 6 
#
# 1 0.010252 -0.002135 -0.008341 0.004010 0.002492 0.002372
# 2 -0.002135 0.010429 -0.005330 -0.000047 0.002818 0.003217
# 3 -0.008341 -0.005330 0.026411 -0.002418 -0.006551 -0.001708
# 4 0.004010 -0.000047 -0.002418 0.033463 0.003290 0.006760
# 5 0.002492 0.002818 -0.006551 0.003290 0.019244 0.005262
# 6 0.002372 0.003217 -0.001708 0.006760 0.005262 0.023009
#
#
# Mechanical properties :
#
#
# Convention : Reuss Voigt Hill
#
# Bulk Modulus (GPa) = 64.59588 89.68418 77.14003
# Shear Modulus (GPa) = 31.33232 42.68385 37.00808
#
# Velocity S-wave (km/s) = 3.69045 4.30740 4.01081
# Velocity P-wave (km/s) = 6.79983 7.98260 7.41484
#
# Compressibility (1/GPa) = 0.01548086
#
# Stress axis : x y z
#
# Youngs Moduli (GPa) = 97.53905 95.88653 37.86313
#
# Poissons Ratio (x) = 0.20468 0.31583
# Poissons Ratio (y) = 0.20820 0.20180
# Poissons Ratio (z) = 0.81360 0.51106
#
# Static dielectric constant tensor:
#      x y z
#    x 4.932550 -0.185590 -0.371110 
#    y -0.185590 4.116340 -0.194770 
#    z -0.371110 -0.194770 4.223160 
# 
# 
# High freq. dielectric constant tensor:
#      x y z
#    x 1.934300 -0.011480 -0.012620 
#    y -0.011480 1.905660 -0.005760 
#    z -0.012620 -0.005760 1.895090 
# 
# From -- ./inp_files/358375.got.cif
#   From: 2010.06.25/outbox.cif.g09.slc.cpg/sg2_180_cif.got.tgz:358375.got - 2010.06.27 13:26:56.
