data_PCOD8019251
_publ_section_title
;
Structure prediction by ZEFSAII (Michael W. Deem and Ramdas Pophale) SiO2 
 PCOD8019251
Probable space group: P -1
;
_chemical_formula_sum "Si O2"
_cell_formula_units_Z 14
_cell_length_a 24.897539
_cell_length_b 5.622263
_cell_length_c 8.562755
_cell_angle_alpha 125.739655
_cell_angle_beta 42.830685
_cell_angle_gamma 128.459241
_cell_volume 619.364574
_symmetry_space_group_name_H-M "P -1"
_symmetry_group_IT_number 2
_symmetry_cell_setting 'triclinic'
loop_
_space_group_symop_operation_xyz
x,y,z
-x,-y,-z
loop_
_atom_site_type_symbol
_atom_site_label
_atom_site_fract_x
_atom_site_fract_y
_atom_site_fract_z
Si Si1 0.036580 0.228941 0.303832
Si Si2 0.124056 0.194983 0.423857
Si Si3 0.262443 0.772982 0.282724
Si Si4 0.582525 0.297564 0.918706
Si Si5 0.327431 0.470611 0.498066
Si Si6 0.200169 0.661895 0.030087
Si Si7 0.486497 0.636913 0.412479
O O1 0.075429 0.178573 0.362502
O O2 0.000000 0.500000 0.500000
O O3 0.115147 0.351705 0.062207
O O4 0.951656 0.925939 0.329227
O O5 0.187571 0.543573 0.465343
O O6 0.180351 0.979249 0.193735
O O7 0.350298 0.732430 0.113398
O O8 0.268360 0.128438 0.433584
O O9 0.240068 0.648882 0.108418
O O10 0.616880 0.323483 0.680440
O O11 0.557111 0.596474 0.129983
O O12 0.500000 0.000000 0.000000
O O13 0.267942 0.657768 0.754204
O O14 0.391031 0.436987 0.483914
O O15 0.500000 0.500000 0.500000
O O16 0.500000 0.000000 0.500000
#
# Coordination Sequence:
#
# PCOD8019251 Si02
#       7
#     2   2   2   2   2   2   2
#     4   8  16  35  66  99 133 174 218 272 331 412
#     4   9  18  37  68  97 133 177 224 269 340 412
#     4  11  24  42  68  96 139 176 234 281 351 408
#     4  12  26  48  66  96 137 184 234 297 354 417
#     4  12  27  43  68  98 140 176 231 296 352 415
#     4  10  22  41  66 102 135 178 225 279 345 413
#     4  12  28  47  74 100 134 187 243 295 362 428
#
# _framework density 22.603809999999999
#
# number of rings (size 3 to 8) (size 9 to 14) (size 15 to 20)
#    0.000    1.429    1.429    3.000    6.000    2.286 
#    0.000    0.714    0.000   35.143    0.000    0.000 
#    0.000    0.000    0.000    0.000    0.000    0.000 
#
# Total GULP energy -173435.615790 kJ/mol
# GULP energy per Si atom -12388.258271 kJ/mol
# Density = 2.255236 g / cm^3
# Si number density = 22.603810 Si / 1000 Ang^3
#
#
#
# Elastic Constant Matrix: (Units=GPa)
#
#
# Indices 1 2 3 4 5 6 
#
# 1 97.1029 42.6498 66.6313 -7.7014 -21.8764 -13.1253
# 2 42.6498 153.7298 51.1003 -29.4591 -1.0962 9.2833
# 3 66.6313 51.1003 134.0355 -15.9737 -4.9506 3.3573
# 4 -7.7014 -29.4591 -15.9737 40.1302 -0.8641 -8.2479
# 5 -21.8764 -1.0962 -4.9506 -0.8641 31.2092 -2.6526
# 6 -13.1253 9.2833 3.3573 -8.2479 -2.6526 36.5548
#
#
#
# Elastic Compliance Matrix: (Units=1/GPa)
#
#
# Indices 1 2 3 4 5 6 
#
# 1 0.024413 -0.003847 -0.010295 0.000584 0.016381 0.012009
# 2 -0.003847 0.008963 -0.000956 0.004857 -0.002626 -0.002664
# 3 -0.010295 -0.000956 0.013026 0.001415 -0.005547 -0.004734
# 4 0.000584 0.004857 0.001415 0.030410 0.002144 0.005863
# 5 0.016381 -0.002626 -0.005547 0.002144 0.043521 0.010700
# 6 0.012009 -0.002664 -0.004734 0.005863 0.010700 0.034879
#
#
# Mechanical properties :
#
#
# Convention : Reuss Voigt Hill
#
# Bulk Modulus (GPa) = 61.71384 78.40344 70.05864
# Shear Modulus (GPa) = 26.20408 36.54463 31.37436
#
# Velocity S-wave (km/s) = 3.40851 4.02524 3.72964
# Velocity P-wave (km/s) = 6.54616 7.50764 7.04333
#
# Compressibility (1/GPa) = 0.01620382
#
# Stress axis : x y z
#
# Youngs Moduli (GPa) = 40.96214 111.57143 76.77232
#
# Poissons Ratio (x) = 0.42924 0.79041
# Poissons Ratio (y) = 0.15759 0.07339
# Poissons Ratio (z) = 0.42173 0.10666
#
# Static dielectric constant tensor:
#      x y z
#    x 4.247600 0.257900 -0.480310 
#    y 0.257900 4.697850 -0.654240 
#    z -0.480310 -0.654240 4.653220 
# 
# 
# High freq. dielectric constant tensor:
#      x y z
#    x 1.899300 -0.008300 -0.034350 
#    y -0.008300 1.903450 -0.024690 
#    z -0.034350 -0.024690 1.875580 
# 
# From -- ./inp_files/48763.got.cif
#   From: 2010.06.25/outbox.cif.g09.slc.cpg/sg2_25_cif.got.tgz:48763.got - 2010.06.27 13:26:56.
