data_PCOD8019448
_publ_section_title
;
Structure prediction by ZEFSAII (Michael W. Deem and Ramdas Pophale) SiO2 
 PCOD8019448
Probable space group: P -1
;
_chemical_formula_sum "Si O2"
_cell_formula_units_Z 14
_cell_length_a 12.010673
_cell_length_b 9.001390
_cell_length_c 16.139834
_cell_angle_alpha 148.425687
_cell_angle_beta 43.314367
_cell_angle_gamma 133.179106
_cell_volume 616.609486
_symmetry_space_group_name_H-M "P -1"
_symmetry_group_IT_number 2
_symmetry_cell_setting 'triclinic'
loop_
_space_group_symop_operation_xyz
x,y,z
-x,-y,-z
loop_
_atom_site_type_symbol
_atom_site_label
_atom_site_fract_x
_atom_site_fract_y
_atom_site_fract_z
Si Si1 0.803929 0.603446 0.914498
Si Si2 0.086393 0.847803 0.993065
Si Si3 0.395910 0.693048 0.819037
Si Si4 0.568562 0.178752 0.465838
Si Si5 0.691098 0.239277 0.656864
Si Si6 0.526770 0.340612 0.056455
Si Si7 0.897380 0.201405 0.379873
O O1 0.799380 0.333018 0.724905
O O2 0.631221 0.538274 0.024714
O O3 0.820306 0.902522 0.998622
O O4 0.951809 0.623775 0.909251
O O5 0.212664 0.645426 0.858151
O O6 0.011619 0.988393 0.180629
O O7 0.510943 0.479411 0.622590
O O8 0.487475 0.009672 0.894347
O O9 0.371411 0.639446 0.904604
O O10 0.768597 0.235628 0.390242
O O11 0.500000 0.000000 0.500000
O O12 0.485531 0.979048 0.338836
O O13 0.795418 0.078574 0.458893
O O14 0.644206 0.534498 0.782230
O O15 0.000000 0.500000 0.500000
#
# Coordination Sequence:
#
# PCOD8019448 Si02
#       7
#     2   2   2   2   2   2   2
#     4  11  24  44  65 102 140 181 219 277 352 400
#     4  11  25  42  72 101 136 179 230 276 336 406
#     4  11  23  43  68 105 127 177 239 277 319 405
#     4  10  22  41  67  97 134 174 226 274 334 397
#     4  11  21  43  69  99 129 184 224 270 337 408
#     4  11  22  40  72  97 135 174 234 279 328 401
#     4  11  20  39  66 102 129 175 218 275 331 400
#
# _framework density 22.704806999999999
#
# number of rings (size 3 to 8) (size 9 to 14) (size 15 to 20)
#    0.000    1.143    5.714    1.286    4.000    0.571 
#    0.000    1.429    0.000    0.000    0.000    0.000 
#    0.000    0.000    0.000    0.000    0.000    0.000 
#
# Total GULP energy -173437.655746 kJ/mol
# GULP energy per Si atom -12388.403982 kJ/mol
# Density = 2.265313 g / cm^3
# Si number density = 22.704807 Si / 1000 Ang^3
#
#
#
# Elastic Constant Matrix: (Units=GPa)
#
#
# Indices 1 2 3 4 5 6 
#
# 1 148.2029 18.5333 30.1873 1.4427 14.6737 29.6581
# 2 18.5333 72.4052 26.0473 -7.5110 7.8791 3.3828
# 3 30.1873 26.0473 80.9419 12.6185 -12.5179 3.7960
# 4 1.4427 -7.5110 12.6185 31.2512 4.9606 8.4983
# 5 14.6737 7.8791 -12.5179 4.9606 39.9794 7.9470
# 6 29.6581 3.3828 3.7960 8.4983 7.9470 29.0793
#
#
#
# Elastic Compliance Matrix: (Units=1/GPa)
#
#
# Indices 1 2 3 4 5 6 
#
# 1 0.010005 0.000591 -0.004836 0.004982 -0.003928 -0.010024
# 2 0.000591 0.018797 -0.008847 0.009923 -0.007425 -0.002506
# 3 -0.004836 -0.008847 0.020497 -0.013012 0.010724 0.004157
# 4 0.004982 0.009923 -0.013012 0.045113 -0.010504 -0.014851
# 5 -0.003928 -0.007425 0.010724 -0.010504 0.033076 -0.002499
# 6 -0.010024 -0.002506 0.004157 -0.014851 -0.002499 0.049384
#
#
# Mechanical properties :
#
#
# Convention : Reuss Voigt Hill
#
# Bulk Modulus (GPa) = 43.25996 50.12062 46.69029
# Shear Modulus (GPa) = 23.72354 35.18078 29.45216
#
# Velocity S-wave (km/s) = 3.23595 3.94062 3.60554
# Velocity P-wave (km/s) = 5.74947 6.54427 6.15970
#
# Compressibility (1/GPa) = 0.02311606
#
# Stress axis : x y z
#
# Youngs Moduli (GPa) = 99.94969 53.20056 48.78713
#
# Poissons Ratio (x) = -0.03146 0.23593
# Poissons Ratio (y) = -0.05911 0.43162
# Poissons Ratio (z) = 0.48334 0.47067
#
# Static dielectric constant tensor:
#      x y z
#    x 4.680150 0.452040 0.216130 
#    y 0.452040 4.020000 -0.006000 
#    z 0.216130 -0.006000 3.988090 
# 
# 
# High freq. dielectric constant tensor:
#      x y z
#    x 1.912130 0.030640 0.013940 
#    y 0.030640 1.872950 0.000590 
#    z 0.013940 0.000590 1.879800 
# 
# From -- ./inp_files/567099.got.cif
#   From: 2010.06.25/outbox.cif.g09.slc.cpg/sg2_284_cif.got.tgz:567099.got - 2010.06.27 13:26:56.
