data_PCOD8019443
_publ_section_title
;
Structure prediction by ZEFSAII (Michael W. Deem and Ramdas Pophale) SiO2 
 PCOD8019443
Probable space group: P -1
;
_chemical_formula_sum "Si O2"
_cell_formula_units_Z 16
_cell_length_a 8.847951
_cell_length_b 17.288565
_cell_length_c 16.527083
_cell_angle_alpha 149.172350
_cell_angle_beta 145.295351
_cell_angle_gamma 38.359860
_cell_volume 710.643441
_symmetry_space_group_name_H-M "P -1"
_symmetry_group_IT_number 2
_symmetry_cell_setting 'triclinic'
loop_
_space_group_symop_operation_xyz
x,y,z
-x,-y,-z
loop_
_atom_site_type_symbol
_atom_site_label
_atom_site_fract_x
_atom_site_fract_y
_atom_site_fract_z
Si Si1 0.590659 0.314795 0.617183
Si Si2 0.074306 0.136435 0.771255
Si Si3 0.764922 0.604992 0.318731
Si Si4 0.166053 0.755916 0.949920
Si Si5 0.336145 0.659774 0.610858
Si Si6 0.349846 0.867520 0.289787
Si Si7 0.452937 0.346326 0.124227
Si Si8 0.463768 0.161575 0.271924
O O1 0.328008 0.334882 0.577929
O O2 0.677165 0.475889 0.801060
O O3 0.484393 0.297098 0.464797
O O4 0.850486 0.172579 0.632169
O O5 0.937851 0.095695 0.756416
O O6 0.342400 0.995447 0.744452
O O7 0.183548 0.287993 0.968130
O O8 0.827167 0.417347 0.169191
O O9 0.523262 0.691207 0.229332
O O10 0.018787 0.671382 0.465628
O O11 0.341076 0.748719 0.938983
O O12 0.848301 0.850093 0.880177
O O13 0.288854 0.859607 0.160447
O O14 0.500000 0.500000 0.500000
O O15 0.376576 0.668873 0.732048
O O16 0.425942 0.801696 0.734138
O O17 0.500000 0.000000 0.500000
#
# Coordination Sequence:
#
# PCOD8019443 Si02
#       8
#     2   2   2   2   2   2   2   2
#     4  10  22  44  67  97 136 175 218 269 328 390
#     4  11  26  42  65  97 134 175 220 274 325 388
#     4  10  22  41  67  97 131 173 220 269 324 394
#     4  11  24  43  68  97 130 175 222 269 329 389
#     4  12  22  39  68 102 133 170 216 269 324 384
#     4  11  25  45  66  94 133 176 218 272 332 392
#     4  11  24  43  67 100 132 174 220 272 324 390
#     4  12  24  41  68 100 136 175 219 270 329 390
#
# _framework density 22.514807000000001
#
# number of rings (size 3 to 8) (size 9 to 14) (size 15 to 20)
#    0.000    1.000    2.500    3.375    0.000    9.500 
#    0.000    0.000    0.000    0.000    0.000    0.000 
#    0.000    0.000    0.000    0.000    0.000    0.000 
#
# Total GULP energy -198414.114831 kJ/mol
# GULP energy per Si atom -12400.882177 kJ/mol
# Density = 2.246356 g / cm^3
# Si number density = 22.514807 Si / 1000 Ang^3
#
#
#
# Elastic Constant Matrix: (Units=GPa)
#
#
# Indices 1 2 3 4 5 6 
#
# 1 128.3531 38.7891 66.6315 -7.7696 -5.2766 5.0690
# 2 38.7891 104.5077 28.2969 -6.6645 -4.2481 -11.4667
# 3 66.6315 28.2969 115.0497 -9.6760 -5.2222 -5.6577
# 4 -7.7696 -6.6645 -9.6760 25.6211 8.5989 3.4441
# 5 -5.2766 -4.2481 -5.2222 8.5989 41.4425 -7.0527
# 6 5.0690 -11.4667 -5.6577 3.4441 -7.0527 28.8737
#
#
#
# Elastic Compliance Matrix: (Units=1/GPa)
#
#
# Indices 1 2 3 4 5 6 
#
# 1 0.012473 -0.003359 -0.006569 0.001371 -0.000746 -0.005157
# 2 -0.003359 0.011652 -0.000538 0.000579 0.001499 0.005409
# 3 -0.006569 -0.000538 0.013010 0.002004 0.000923 0.003476
# 4 0.001371 0.000579 0.002004 0.044724 -0.010054 -0.007409
# 5 -0.000746 0.001499 0.000923 -0.010054 0.027910 0.008924
# 6 -0.005157 0.005409 0.003476 -0.007409 0.008924 0.041432
#
#
# Mechanical properties :
#
#
# Convention : Reuss Voigt Hill
#
# Bulk Modulus (GPa) = 61.71898 68.37171 65.04534
# Shear Modulus (GPa) = 28.16364 33.46700 30.81532
#
# Velocity S-wave (km/s) = 3.54063 3.85963 3.70357
# Velocity P-wave (km/s) = 6.64732 7.09194 6.87323
#
# Compressibility (1/GPa) = 0.01620247
#
# Stress axis : x y z
#
# Youngs Moduli (GPa) = 80.17617 85.81886 76.86243
#
# Poissons Ratio (x) = 0.28829 0.50494
# Poissons Ratio (y) = 0.26933 0.04133
# Poissons Ratio (z) = 0.52671 0.04615
#
# Static dielectric constant tensor:
#      x y z
#    x 4.474270 0.021790 0.264890 
#    y 0.021790 4.065070 -0.014670 
#    z 0.264890 -0.014670 4.019140 
# 
# 
# High freq. dielectric constant tensor:
#      x y z
#    x 1.892250 -0.000840 0.006320 
#    y -0.000840 1.894890 -0.003450 
#    z 0.006320 -0.003450 1.882660 
# 
# From -- ./inp_files/206966.got.cif
#   From: 2010.06.25/outbox.cif.g09.slc.cpg/sg2_104_cif.got.tgz:206966.got - 2010.06.27 13:26:56.
