data_PCOD8019266
_publ_section_title
;
Structure prediction by ZEFSAII (Michael W. Deem and Ramdas Pophale) SiO2 
 PCOD8019266
Probable space group: P -1
;
_chemical_formula_sum "Si O2"
_cell_formula_units_Z 14
_cell_length_a 9.571662
_cell_length_b 8.810722
_cell_length_c 21.379166
_cell_angle_alpha 28.486946
_cell_angle_beta 52.505473
_cell_angle_gamma 50.396881
_cell_volume 656.796675
_symmetry_space_group_name_H-M "P -1"
_symmetry_group_IT_number 2
_symmetry_cell_setting 'triclinic'
loop_
_space_group_symop_operation_xyz
x,y,z
-x,-y,-z
loop_
_atom_site_type_symbol
_atom_site_label
_atom_site_fract_x
_atom_site_fract_y
_atom_site_fract_z
Si Si1 0.157383 0.346965 0.350474
Si Si2 0.477982 0.672212 0.511788
Si Si3 0.330054 0.409515 0.768555
Si Si4 0.376809 0.641572 0.039231
Si Si5 0.924047 0.703885 0.746450
Si Si6 0.546116 0.343509 0.852835
Si Si7 0.125000 0.577916 0.490298
O O1 0.050982 0.326904 0.323398
O O2 0.241279 0.666088 0.217519
O O3 0.994467 0.379543 0.430519
O O4 0.332711 0.028010 0.424520
O O5 0.500000 0.500000 0.500000
O O6 0.424377 0.455615 0.660527
O O7 0.682990 0.706552 0.457117
O O8 0.426311 0.527353 0.760326
O O9 0.122200 0.621455 0.753242
O O10 0.333115 0.031737 0.912217
O O11 0.500000 0.500000 0.000000
O O12 0.190290 0.544716 0.111015
O O13 0.477921 0.481226 0.134893
O O14 0.822496 0.077273 0.660258
O O15 0.500000 0.000000 0.000000
O O16 0.000000 0.500000 0.500000
#
# Coordination Sequence:
#
# PCOD8019266 Si02
#       7
#     2   2   2   2   2   2   2
#     4  11  23  44  65  91 135 171 213 266 320 385
#     4  12  24  40  69  97 130 173 218 262 324 386
#     4  11  22  40  66  94 127 172 212 265 331 375
#     4  10  22  41  66  92 123 169 222 264 314 390
#     4  11  22  42  63  91 130 168 217 266 318 385
#     4   9  22  42  66  88 127 171 207 263 331 375
#     4  12  25  39  61  98 130 168 218 266 319 381
#
# _framework density 21.315577999999999
#
# number of rings (size 3 to 8) (size 9 to 14) (size 15 to 20)
#    0.000    1.143    2.857    3.429    4.000    2.286 
#    0.000    0.714    0.000    0.000    0.000    0.000 
#    0.000    0.000    0.000    0.000    0.000    0.000 
#
# Total GULP energy -173444.077217 kJ/mol
# GULP energy per Si atom -12388.862658 kJ/mol
# Density = 2.126706 g / cm^3
# Si number density = 21.315578 Si / 1000 Ang^3
#
#
#
# Elastic Constant Matrix: (Units=GPa)
#
#
# Indices 1 2 3 4 5 6 
#
# 1 134.9275 18.3379 25.5192 20.7405 1.1817 -2.1317
# 2 18.3379 77.1818 27.6333 26.0104 1.1631 -15.9254
# 3 25.5192 27.6333 94.5317 15.7847 -5.2713 2.8786
# 4 20.7405 26.0104 15.7847 30.7111 6.5644 0.2186
# 5 1.1817 1.1631 -5.2713 6.5644 36.2995 0.9433
# 6 -2.1317 -15.9254 2.8786 0.2186 0.9433 35.2958
#
#
#
# Elastic Compliance Matrix: (Units=1/GPa)
#
#
# Indices 1 2 3 4 5 6 
#
# 1 0.008485 0.000586 -0.001539 -0.005540 0.000459 0.000924
# 2 0.000586 0.022347 -0.003964 -0.017706 0.001618 0.010508
# 3 -0.001539 -0.003964 0.012848 -0.002745 0.002617 -0.002982
# 4 -0.005540 -0.017706 -0.002745 0.054765 -0.009342 -0.008189
# 5 0.000459 0.001618 0.002617 -0.009342 0.029556 -0.000188
# 6 0.000924 0.010508 -0.002982 -0.008189 -0.000188 0.033428
#
#
# Mechanical properties :
#
#
# Convention : Reuss Voigt Hill
#
# Bulk Modulus (GPa) = 29.54609 49.95797 39.75203
# Shear Modulus (GPa) = 27.39054 36.13798 31.76426
#
# Velocity S-wave (km/s) = 3.58858 4.12197 3.86449
# Velocity P-wave (km/s) = 5.57332 6.79281 6.21306
#
# Compressibility (1/GPa) = 0.03384543
#
# Stress axis : x y z
#
# Youngs Moduli (GPa) = 117.85378 44.74861 77.83448
#
# Poissons Ratio (x) = -0.02622 0.11981
# Poissons Ratio (y) = -0.06907 0.30853
# Poissons Ratio (z) = 0.18142 0.17738
#
# Static dielectric constant tensor:
#      x y z
#    x 4.365750 0.333140 -0.086990 
#    y 0.333140 6.236670 -1.135220 
#    z -0.086990 -1.135220 4.793600 
# 
# 
# High freq. dielectric constant tensor:
#      x y z
#    x 1.861130 0.009170 -0.009770 
#    y 0.009170 1.814970 0.015600 
#    z -0.009770 0.015600 1.848270 
# 
# From -- ./inp_files/171060.got.cif
#   From: 2010.06.25/outbox.cif.g09.slc.cpg/sg2_86_cif.got.tgz:171060.got - 2010.06.27 13:26:56.
