data_PCOD8019467
_publ_section_title
;
Structure prediction by ZEFSAII (Michael W. Deem and Ramdas Pophale) SiO2 
 PCOD8019467
Probable space group: P -1
;
_chemical_formula_sum "Si O2"
_cell_formula_units_Z 10
_cell_length_a 15.293167
_cell_length_b 9.235073
_cell_length_c 9.114043
_cell_angle_alpha 73.137475
_cell_angle_beta 40.466590
_cell_angle_gamma 41.068089
_cell_volume 409.922321
_symmetry_space_group_name_H-M "P -1"
_symmetry_group_IT_number 2
_symmetry_cell_setting 'triclinic'
loop_
_space_group_symop_operation_xyz
x,y,z
-x,-y,-z
loop_
_atom_site_type_symbol
_atom_site_label
_atom_site_fract_x
_atom_site_fract_y
_atom_site_fract_z
Si Si1 0.765741 0.326655 0.756036
Si Si2 0.930070 0.502159 0.428705
Si Si3 0.570583 0.901256 0.268896
Si Si4 0.240541 0.816241 0.909269
Si Si5 0.744167 0.425995 0.286366
O O1 0.791822 0.472603 0.627637
O O2 0.500000 0.500000 0.000000
O O3 0.791044 0.294604 0.909474
O O4 0.000000 0.000000 0.500000
O O5 0.000000 0.500000 0.500000
O O6 0.703425 0.825332 0.550397
O O7 0.192852 0.231347 0.071477
O O8 0.693787 0.614036 0.187147
O O9 0.500000 0.000000 0.500000
O O10 0.514335 0.641581 0.639507
O O11 0.249625 0.740537 0.756356
O O12 0.019236 0.162427 0.101290
#
# Coordination Sequence:
#
# PCOD8019467 Si02
#       5
#     2   2   2   2   2
#     4  12  27  44  72 103 146 186 242 301 362 428
#     4  12  28  51  76 108 151 205 250 299 375 461
#     4  12  27  45  76 110 151 190 249 313 372 435
#     4  10  22  41  67  99 133 184 231 290 352 432
#     4  10  22  41  70  97 137 179 235 289 357 428
#
# _framework density 24.394863000000001
#
# number of rings (size 3 to 8) (size 9 to 14) (size 15 to 20)
#    0.000    0.800    0.000    6.000    8.400    4.800 
#    0.000    0.000    0.000    0.000    0.000    0.000 
#    0.000    0.000    0.000    0.000    0.000    0.000 
#
# Total GULP energy -123900.299200 kJ/mol
# GULP energy per Si atom -12390.029920 kJ/mol
# Density = 2.433934 g / cm^3
# Si number density = 24.394863 Si / 1000 Ang^3
#
#
#
# Elastic Constant Matrix: (Units=GPa)
#
#
# Indices 1 2 3 4 5 6 
#
# 1 102.1548 45.3019 60.5361 5.2781 -4.5582 -13.2476
# 2 45.3019 158.7543 67.6030 16.1561 -11.8474 -15.9819
# 3 60.5361 67.6030 213.0606 16.5718 -14.0000 -18.2254
# 4 5.2781 16.1561 16.5718 57.3438 -10.5413 -9.0804
# 5 -4.5582 -11.8474 -14.0000 -10.5413 32.0301 -7.5805
# 6 -13.2476 -15.9819 -18.2254 -9.0804 -7.5805 37.7067
#
#
#
# Elastic Compliance Matrix: (Units=1/GPa)
#
#
# Indices 1 2 3 4 5 6 
#
# 1 0.012701 -0.002253 -0.002696 0.000761 0.000642 0.002517
# 2 -0.002253 0.008058 -0.001522 -0.000882 0.002206 0.002119
# 3 -0.002696 -0.001522 0.006262 -0.000484 0.002040 0.001728
# 4 0.000761 -0.000882 -0.000484 0.020113 0.007618 0.006035
# 5 0.000642 0.002206 0.002040 0.007618 0.038291 0.011679
# 6 0.002517 0.002119 0.001728 0.006035 0.011679 0.032940
#
#
# Mechanical properties :
#
#
# Convention : Reuss Voigt Hill
#
# Bulk Modulus (GPa) = 71.02047 91.20574 81.11311
# Shear Modulus (GPa) = 36.76524 45.45136 41.10830
#
# Velocity S-wave (km/s) = 3.88634 4.32111 4.10948
# Velocity P-wave (km/s) = 7.02241 7.89711 7.47257
#
# Compressibility (1/GPa) = 0.01408045
#
# Stress axis : x y z
#
# Youngs Moduli (GPa) = 78.73259 124.10640 159.69858
#
# Poissons Ratio (x) = 0.27957 0.43050
# Poissons Ratio (y) = 0.17736 0.24302
# Poissons Ratio (z) = 0.21224 0.18886
#
# Static dielectric constant tensor:
#      x y z
#    x 4.102970 -0.247550 -0.097320 
#    y -0.247550 4.014360 0.320810 
#    z -0.097320 0.320810 5.283770 
# 
# 
# High freq. dielectric constant tensor:
#      x y z
#    x 1.951280 -0.011980 -0.001000 
#    y -0.011980 1.981620 0.008980 
#    z -0.001000 0.008980 2.001000 
# 
# From -- ./inp_files/40938.got.cif
#   From: 2010.06.25/outbox.cif.g09.slc.cpg/sg2_21_cif.got.tgz:40938.got - 2010.06.27 13:26:56.
