data_PCOD8019797
_publ_section_title
;
Structure prediction by ZEFSAII (Michael W. Deem and Ramdas Pophale) SiO2 
 PCOD8019797
Probable space group: P -1
;
_chemical_formula_sum "Si O2"
_cell_formula_units_Z 12
_cell_length_a 5.642894
_cell_length_b 7.843166
_cell_length_c 12.481226
_cell_angle_alpha 72.418523
_cell_angle_beta 109.424006
_cell_angle_gamma 115.304054
_cell_volume 462.612070
_symmetry_space_group_name_H-M "P -1"
_symmetry_group_IT_number 2
_symmetry_cell_setting 'triclinic'
loop_
_space_group_symop_operation_xyz
x,y,z
-x,-y,-z
loop_
_atom_site_type_symbol
_atom_site_label
_atom_site_fract_x
_atom_site_fract_y
_atom_site_fract_z
Si Si1 0.546041 0.285748 0.227896
Si Si2 0.218699 0.693680 0.958807
Si Si3 0.861212 0.282636 0.479108
Si Si4 0.550401 0.681832 0.201366
Si Si5 0.981196 0.003160 0.868161
Si Si6 0.576692 0.718477 0.435449
O O1 0.771220 0.265250 0.344902
O O2 0.447107 0.450609 0.228516
O O3 0.317117 0.077585 0.211986
O O4 0.651235 0.368588 0.111448
O O5 0.413786 0.773305 0.074822
O O6 0.116258 0.857310 0.872029
O O7 0.000000 0.500000 0.000000
O O8 0.584239 0.184732 0.528109
O O9 0.000000 0.500000 0.500000
O O10 0.091052 0.185535 0.534683
O O11 0.478214 0.737484 0.297003
O O12 0.870555 0.785551 0.201657
O O13 0.000000 0.000000 0.000000
O O14 0.500000 0.500000 0.500000
#
# Coordination Sequence:
#
# PCOD8019797 Si02
#       6
#     2   2   2   2   2   2
#     4  12  25  46  72 102 143 190 238 302 365 434
#     4  12  26  42  74 106 141 189 239 299 375 435
#     4  10  22  41  73 101 143 188 244 298 354 433
#     4  12  24  46  74 103 142 194 236 304 366 430
#     4  12  27  47  66 109 148 182 245 297 367 442
#     4  10  22  43  70 107 139 192 246 296 358 433
#
# _framework density 25.939658000000001
#
# number of rings (size 3 to 8) (size 9 to 14) (size 15 to 20)
#    0.000    0.667    6.667    2.000    7.000    1.333 
#    0.000    1.667    0.000    0.000    0.000    0.000 
#    0.000    0.000    0.000    0.000    0.000    0.000 
#
# Total GULP energy -148706.810864 kJ/mol
# GULP energy per Si atom -12392.234239 kJ/mol
# Density = 2.588062 g / cm^3
# Si number density = 25.939658 Si / 1000 Ang^3
#
#
#
# Elastic Constant Matrix: (Units=GPa)
#
#
# Indices 1 2 3 4 5 6 
#
# 1 146.1755 11.5223 48.7883 8.8717 -5.5119 22.3419
# 2 11.5223 80.4167 18.8777 21.4615 -7.0706 15.9278
# 3 48.7883 18.8777 197.7268 27.8876 -9.7971 18.5908
# 4 8.8717 21.4615 27.8876 30.1594 17.4472 4.4117
# 5 -5.5119 -7.0706 -9.7971 17.4472 34.7703 -5.3170
# 6 22.3419 15.9278 18.5908 4.4117 -5.3170 33.9258
#
#
#
# Elastic Compliance Matrix: (Units=1/GPa)
#
#
# Indices 1 2 3 4 5 6 
#
# 1 0.008063 0.000517 -0.001369 -0.001414 0.001026 -0.004458
# 2 0.000517 0.022386 0.003462 -0.029831 0.019694 -0.005782
# 3 -0.001369 0.003462 0.007769 -0.014700 0.009818 -0.001530
# 4 -0.001414 -0.029831 -0.014700 0.105063 -0.063240 -0.000582
# 5 0.001026 0.019694 0.009818 -0.063240 0.067974 0.003575
# 6 -0.004458 -0.005782 -0.001530 -0.000582 0.003575 0.036601
#
#
# Mechanical properties :
#
#
# Convention : Reuss Voigt Hill
#
# Bulk Modulus (GPa) = 23.02199 64.74396 43.88297
# Shear Modulus (GPa) = 19.44646 42.77983 31.11314
#
# Velocity S-wave (km/s) = 2.74100 4.06545 3.46705
# Velocity P-wave (km/s) = 4.34878 6.85936 5.74294
#
# Compressibility (1/GPa) = 0.04343673
#
# Stress axis : x y z
#
# Youngs Moduli (GPa) = 124.01914 44.66981 128.72479
#
# Poissons Ratio (x) = -0.02308 0.17629
# Poissons Ratio (y) = -0.06408 -0.44565
# Poissons Ratio (z) = 0.16984 -0.15465
#
# Static dielectric constant tensor:
#      x y z
#    x 5.412420 0.145940 -0.337370 
#    y 0.145940 4.750400 -0.396520 
#    z -0.337370 -0.396520 4.288520 
# 
# 
# High freq. dielectric constant tensor:
#      x y z
#    x 2.035800 0.013410 -0.005420 
#    y 0.013410 2.022150 0.012610 
#    z -0.005420 0.012610 2.049590 
# 
# From -- ./inp_files/18757.got.cif
#   From: 2010.06.25/outbox.cif.g09.slc.cpg/sg2_10_cif.got.tgz:18757.got - 2010.06.27 13:26:56.
