data_PCOD8019144
_publ_section_title
;
Structure prediction by ZEFSAII (Michael W. Deem and Ramdas Pophale) SiO2 
 PCOD8019144
Probable space group: P -1
;
_chemical_formula_sum "Si O2"
_cell_formula_units_Z 14
_cell_length_a 18.906766
_cell_length_b 6.444399
_cell_length_c 9.172022
_cell_angle_alpha 112.613176
_cell_angle_beta 119.847995
_cell_angle_gamma 44.914364
_cell_volume 683.435806
_symmetry_space_group_name_H-M "P -1"
_symmetry_group_IT_number 2
_symmetry_cell_setting 'triclinic'
loop_
_space_group_symop_operation_xyz
x,y,z
-x,-y,-z
loop_
_atom_site_type_symbol
_atom_site_label
_atom_site_fract_x
_atom_site_fract_y
_atom_site_fract_z
Si Si1 0.332169 0.291711 0.844527
Si Si2 0.025136 0.820136 0.332443
Si Si3 0.176948 0.939000 0.982160
Si Si4 0.471069 0.803912 0.089230
Si Si5 0.831158 0.184440 0.737866
Si Si6 0.695175 0.859021 0.759963
Si Si7 0.775710 0.802788 0.530517
O O1 0.269485 0.604637 0.939703
O O2 0.424926 0.224950 0.818837
O O3 0.251235 0.287436 0.665618
O O4 0.380526 0.045608 0.950103
O O5 0.067155 0.912397 0.274857
O O6 0.111454 0.476134 0.362252
O O7 0.000000 0.000000 0.500000
O O8 0.918958 0.888393 0.184770
O O9 0.133116 0.949709 0.099525
O O10 0.224425 0.104521 0.074700
O O11 0.422880 0.906380 0.230039
O O12 0.500000 0.500000 0.000000
O O13 0.738322 0.533478 0.746180
O O14 0.783000 0.053476 0.568432
O O15 0.685507 0.923048 0.594310
#
# Coordination Sequence:
#
# PCOD8019144 Si02
#       7
#     2   2   2   2   2   2   2
#     4  11  23  40  65  94 122 159 207 258 308 362
#     4  11  23  39  63  95 127 161 208 251 301 363
#     4  11  21  40  65  90 126 163 206 252 301 365
#     4  11  23  41  67  94 118 160 212 254 310 366
#     4  10  23  41  60  89 131 167 202 245 309 366
#     4  10  22  41  65  90 126 163 204 255 304 366
#     4  10  24  42  61  94 130 161 202 253 307 364
#
# _framework density 20.484732000000001
#
# number of rings (size 3 to 8) (size 9 to 14) (size 15 to 20)
#    0.000    1.429    4.286    0.429    0.000   10.857 
#    0.000    1.429    0.000    0.000    0.000    0.000 
#    0.000    0.000    0.000    0.000    0.000    0.000 
#
# Total GULP energy -173658.145836 kJ/mol
# GULP energy per Si atom -12404.153274 kJ/mol
# Density = 2.043811 g / cm^3
# Si number density = 20.484732 Si / 1000 Ang^3
#
#
#
# Elastic Constant Matrix: (Units=GPa)
#
#
# Indices 1 2 3 4 5 6 
#
# 1 90.9719 39.3476 17.2066 9.3449 -9.1788 -6.1450
# 2 39.3476 116.6411 26.2189 13.5550 4.3803 9.6490
# 3 17.2066 26.2189 80.7158 10.4049 8.3485 3.2733
# 4 9.3449 13.5550 10.4049 33.4363 -6.6547 3.3412
# 5 -9.1788 4.3803 8.3485 -6.6547 28.4888 13.6987
# 6 -6.1450 9.6490 3.2733 3.3412 13.6987 35.7000
#
#
#
# Elastic Compliance Matrix: (Units=1/GPa)
#
#
# Indices 1 2 3 4 5 6 
#
# 1 0.014017 -0.004545 -0.001975 -0.000760 0.004591 0.002132
# 2 -0.004545 0.011166 -0.001988 -0.002777 -0.002002 -0.002590
# 3 -0.001975 -0.001988 0.014672 -0.004706 -0.006609 0.001828
# 4 -0.000760 -0.002777 -0.004706 0.036185 0.013656 -0.007575
# 5 0.004591 -0.002002 -0.006609 0.013656 0.051133 -0.018961
# 6 0.002132 -0.002590 0.001828 -0.007575 -0.018961 0.036895
#
#
# Mechanical properties :
#
#
# Convention : Reuss Voigt Hill
#
# Bulk Modulus (GPa) = 43.78591 50.43056 47.10824
# Shear Modulus (GPa) = 26.49757 33.22873 29.86315
#
# Velocity S-wave (km/s) = 3.60047 4.03193 3.82229
# Velocity P-wave (km/s) = 6.22140 6.80788 6.52124
#
# Compressibility (1/GPa) = 0.02283840
#
# Stress axis : x y z
#
# Youngs Moduli (GPa) = 71.34145 89.56128 68.15725
#
# Poissons Ratio (x) = 0.40706 0.13462
# Poissons Ratio (y) = 0.32425 0.13549
# Poissons Ratio (z) = 0.14091 0.17804
#
# Static dielectric constant tensor:
#      x y z
#    x 3.959950 -0.090160 -0.176740 
#    y -0.090160 3.806760 0.234040 
#    z -0.176740 0.234040 3.594670 
# 
# 
# High freq. dielectric constant tensor:
#      x y z
#    x 1.808750 0.001860 -0.009090 
#    y 0.001860 1.807860 0.020070 
#    z -0.009090 0.020070 1.794480 
# 
# From -- ./inp_files/26718.got.cif
#   From: 2010.06.25/outbox.cif.g09.slc.cpg/sg2_14_cif.got.tgz:26718.got - 2010.06.27 13:26:56.
