data_PCOD8019283
_publ_section_title
;
Structure prediction by ZEFSAII (Michael W. Deem and Ramdas Pophale) SiO2 
 PCOD8019283
Probable space group: P -1
;
_chemical_formula_sum "Si O2"
_cell_formula_units_Z 14
_cell_length_a 11.362023
_cell_length_b 7.574431
_cell_length_c 7.668208
_cell_angle_alpha 66.301549
_cell_angle_beta 70.015902
_cell_angle_gamma 86.720660
_cell_volume 565.428341
_symmetry_space_group_name_H-M "P -1"
_symmetry_group_IT_number 2
_symmetry_cell_setting 'triclinic'
loop_
_space_group_symop_operation_xyz
x,y,z
-x,-y,-z
loop_
_atom_site_type_symbol
_atom_site_label
_atom_site_fract_x
_atom_site_fract_y
_atom_site_fract_z
Si Si1 0.900620 0.784177 0.814579
Si Si2 0.830574 0.058147 0.442366
Si Si3 0.616454 0.510768 0.595605
Si Si4 0.681936 0.513232 0.960730
Si Si5 0.214208 0.188019 0.777319
Si Si6 0.585761 0.202362 0.382164
Si Si7 0.446101 0.174772 0.868891
O O1 0.831050 0.570340 0.896550
O O2 0.046476 0.787287 0.689335
O O3 0.832800 0.940057 0.669600
O O4 0.888202 0.828492 0.010282
O O5 0.706755 0.170690 0.453411
O O6 0.839072 0.915394 0.328877
O O7 0.654784 0.539757 0.763736
O O8 0.735137 0.586930 0.382984
O O9 0.499034 0.635865 0.561971
O O10 0.571031 0.285343 0.671575
O O11 0.639601 0.294493 0.133759
O O12 0.608351 0.674292 0.031919
O O13 0.339851 0.092082 0.817038
O O14 0.500000 0.000000 0.500000
O O15 0.500000 0.000000 0.000000
#
# Coordination Sequence:
#
# PCOD8019283 Si02
#       7
#     2   2   2   2   2   2   2
#     4  10  23  45  63  97 129 178 229 268 327 383
#     4  11  23  41  71  93 132 178 222 276 321 397
#     4  11  22  39  64  99 135 174 214 275 335 395
#     4  10  22  41  66  93 136 176 219 277 321 399
#     4  11  22  39  65  94 132 175 218 270 329 393
#     4  11  21  37  67  98 127 174 221 262 339 390
#     4  10  23  37  61  99 137 172 217 272 335 397
#
# _framework density 24.759989000000001
#
# number of rings (size 3 to 8) (size 9 to 14) (size 15 to 20)
#    0.000    1.429    2.857    2.571    4.000    4.000 
#    0.000    0.000    0.000    0.857    0.000    0.000 
#    0.000    0.000    0.000    0.000    0.000    0.000 
#
# Total GULP energy -173456.270582 kJ/mol
# GULP energy per Si atom -12389.733613 kJ/mol
# Density = 2.470363 g / cm^3
# Si number density = 24.759989 Si / 1000 Ang^3
#
#
#
# Elastic Constant Matrix: (Units=GPa)
#
#
# Indices 1 2 3 4 5 6 
#
# 1 122.8799 35.5733 51.5656 -17.0965 -10.8526 8.7898
# 2 35.5733 60.1230 48.6856 -16.5599 -1.7397 4.8169
# 3 51.5656 48.6856 193.9537 -6.4527 -7.6697 5.1050
# 4 -17.0965 -16.5599 -6.4527 52.7271 13.2507 0.2109
# 5 -10.8526 -1.7397 -7.6697 13.2507 46.7248 -3.9324
# 6 8.7898 4.8169 5.1050 0.2109 -3.9324 29.1071
#
#
#
# Elastic Compliance Matrix: (Units=1/GPa)
#
#
# Indices 1 2 3 4 5 6 
#
# 1 0.010528 -0.004363 -0.001544 0.001502 0.001435 -0.002003
# 2 -0.004363 0.025201 -0.004999 0.006648 -0.002985 -0.002428
# 3 -0.001544 -0.004999 0.006805 -0.001495 0.001017 0.000248
# 4 0.001502 0.006648 -0.001495 0.022964 -0.006356 -0.002317
# 5 0.001435 -0.002985 0.001017 -0.006356 0.023859 0.003152
# 6 -0.002003 -0.002428 0.000248 -0.002317 0.003152 0.035762
#
#
# Mechanical properties :
#
#
# Convention : Reuss Voigt Hill
#
# Bulk Modulus (GPa) = 48.25766 72.06728 60.16247
# Shear Modulus (GPa) = 32.50132 41.78726 37.14429
#
# Velocity S-wave (km/s) = 3.62699 4.11261 3.87741
# Velocity P-wave (km/s) = 6.08872 7.19173 6.66309
#
# Compressibility (1/GPa) = 0.02072210
#
# Stress axis : x y z
#
# Youngs Moduli (GPa) = 94.98302 39.68046 146.94481
#
# Poissons Ratio (x) = 0.17312 0.22696
# Poissons Ratio (y) = 0.41440 0.73457
# Poissons Ratio (z) = 0.14670 0.19836
#
# Static dielectric constant tensor:
#      x y z
#    x 4.596270 0.374820 -0.237900 
#    y 0.374820 4.517040 -0.083780 
#    z -0.237900 -0.083780 5.275530 
# 
# 
# High freq. dielectric constant tensor:
#      x y z
#    x 1.978010 0.031120 -0.000140 
#    y 0.031120 1.959930 0.007320 
#    z -0.000140 0.007320 2.033320 
# 
# From -- ./inp_files/236644.got.cif
#   From: 2010.06.25/outbox.cif.g09.slc.cpg/sg2_119_cif.got.tgz:236644.got - 2010.06.27 13:26:56.
