data_PCOD8019674
_publ_section_title
;
Structure prediction by ZEFSAII (Michael W. Deem and Ramdas Pophale) SiO2 
 PCOD8019674
Probable space group: P -1
;
_chemical_formula_sum "Si O2"
_cell_formula_units_Z 16
_cell_length_a 12.824106
_cell_length_b 9.234694
_cell_length_c 9.119541
_cell_angle_alpha 123.983027
_cell_angle_beta 123.205079
_cell_angle_gamma 66.206802
_cell_volume 741.899324
_symmetry_space_group_name_H-M "P -1"
_symmetry_group_IT_number 2
_symmetry_cell_setting 'triclinic'
loop_
_space_group_symop_operation_xyz
x,y,z
-x,-y,-z
loop_
_atom_site_type_symbol
_atom_site_label
_atom_site_fract_x
_atom_site_fract_y
_atom_site_fract_z
Si Si1 0.676923 0.990325 0.059434
Si Si2 0.924874 0.168213 0.959000
Si Si3 0.957910 0.871013 0.274057
Si Si4 0.972499 0.552865 0.305158
Si Si5 0.534898 0.627373 0.379538
Si Si6 0.515050 0.246607 0.273856
Si Si7 0.334159 0.757223 0.059121
Si Si8 0.785392 0.520806 0.380563
O O1 0.826408 0.953115 0.148995
O O2 0.632825 0.105741 0.234440
O O3 0.615911 0.810278 0.916683
O O4 0.627613 0.087917 0.925946
O O5 0.973132 0.347400 0.152724
O O6 0.778005 0.171558 0.877449
O O7 0.939007 0.150461 0.785851
O O8 0.000000 0.000000 0.000000
O O9 0.944175 0.677417 0.214319
O O10 0.000000 0.000000 0.500000
O O11 0.110357 0.580292 0.486340
O O12 0.863952 0.620228 0.379532
O O13 0.526974 0.429002 0.308811
O O14 0.485788 0.749662 0.547897
O O15 0.453032 0.676890 0.200457
O O16 0.680265 0.649741 0.464049
O O17 0.291859 0.614205 0.835858
#
# Coordination Sequence:
#
# PCOD8019674 Si02
#       8
#     2   2   2   2   2   2   2   2
#     4  11  24  45  64  95 142 169 225 274 341 389
#     4  11  25  45  68 102 138 174 224 283 339 404
#     4  12  27  43  72 101 136 183 222 284 339 406
#     4  10  25  44  71 100 135 180 228 277 341 409
#     4  11  24  42  73  94 132 178 228 270 338 397
#     4  10  26  43  64  99 133 176 222 285 322 402
#     4  11  23  42  69  98 132 177 218 277 335 405
#     4  10  22  41  70 100 133 172 228 280 334 400
#
# _framework density 21.566269999999999
#
# number of rings (size 3 to 8) (size 9 to 14) (size 15 to 20)
#    0.000    1.250    2.500    1.500   10.500    2.500 
#    0.000    0.000    0.000    0.000    0.000    0.000 
#    0.000    0.000    0.000    0.000    0.000    0.000 
#
# Total GULP energy -198425.145221 kJ/mol
# GULP energy per Si atom -12401.571576 kJ/mol
# Density = 2.151718 g / cm^3
# Si number density = 21.566270 Si / 1000 Ang^3
#
#
#
# Elastic Constant Matrix: (Units=GPa)
#
#
# Indices 1 2 3 4 5 6 
#
# 1 149.8299 26.0228 45.4585 -8.7050 -14.0253 -5.0055
# 2 26.0228 84.1854 36.7688 -6.9703 -1.0604 8.4526
# 3 45.4585 36.7688 96.0369 -5.1982 -12.8008 -2.1446
# 4 -8.7050 -6.9703 -5.1982 34.3400 -2.2598 0.0181
# 5 -14.0253 -1.0604 -12.8008 -2.2598 37.5447 -6.4468
# 6 -5.0055 8.4526 -2.1446 0.0181 -6.4468 26.9402
#
#
#
# Elastic Compliance Matrix: (Units=1/GPa)
#
#
# Indices 1 2 3 4 5 6 
#
# 1 0.008187 -0.001342 -0.002890 0.001530 0.002525 0.002315
# 2 -0.001342 0.015552 -0.005766 0.001749 -0.003006 -0.006308
# 3 -0.002890 -0.005766 0.014686 0.000608 0.004401 0.003494
# 4 0.001530 0.001749 0.000608 0.030134 0.002713 0.000413
# 5 0.002525 -0.003006 0.004401 0.002713 0.030722 0.009112
# 6 0.002315 -0.006308 0.003494 0.000413 0.009112 0.041987
#
#
# Mechanical properties :
#
#
# Convention : Reuss Voigt Hill
#
# Bulk Modulus (GPa) = 54.26500 60.72804 57.49652
# Shear Modulus (GPa) = 29.86738 34.55179 32.20958
#
# Velocity S-wave (km/s) = 3.72548 4.00699 3.86880
# Velocity P-wave (km/s) = 6.61227 7.04471 6.83191
#
# Compressibility (1/GPa) = 0.01842808
#
# Stress axis : x y z
#
# Youngs Moduli (GPa) = 122.14698 64.30013 68.09309
#
# Poissons Ratio (x) = 0.08631 0.19681
# Poissons Ratio (y) = 0.16396 0.39261
# Poissons Ratio (z) = 0.35304 0.37074
#
# Static dielectric constant tensor:
#      x y z
#    x 4.336500 0.017940 -0.209930 
#    y 0.017940 3.752380 0.057680 
#    z -0.209930 0.057680 3.809120 
# 
# 
# High freq. dielectric constant tensor:
#      x y z
#    x 1.870820 0.005140 -0.009340 
#    y 0.005140 1.837010 0.000620 
#    z -0.009340 0.000620 1.842500 
# 
# From -- ./inp_files/207593.got.cif
#   From: 2010.06.25/outbox.cif.g09.slc.cpg/sg2_104_cif.got.tgz:207593.got - 2010.06.27 13:26:56.
