data_PCOD8019156
_publ_section_title
;
Structure prediction by ZEFSAII (Michael W. Deem and Ramdas Pophale) SiO2 
 PCOD8019156
Probable space group: P -1
;
_chemical_formula_sum "Si O2"
_cell_formula_units_Z 12
_cell_length_a 12.327285
_cell_length_b 9.065782
_cell_length_c 9.552977
_cell_angle_alpha 63.585722
_cell_angle_beta 95.513177
_cell_angle_gamma 141.374237
_cell_volume 533.071453
_symmetry_space_group_name_H-M "P -1"
_symmetry_group_IT_number 2
_symmetry_cell_setting 'triclinic'
loop_
_space_group_symop_operation_xyz
x,y,z
-x,-y,-z
loop_
_atom_site_type_symbol
_atom_site_label
_atom_site_fract_x
_atom_site_fract_y
_atom_site_fract_z
Si Si1 0.934995 0.182512 0.195235
Si Si2 0.869648 0.427000 0.195226
Si Si3 0.568977 0.313295 0.207432
Si Si4 0.136928 0.803064 0.313959
Si Si5 0.450995 0.430973 0.686074
Si Si6 0.223359 0.271594 0.207621
O O1 0.852303 0.204720 0.295297
O O2 0.047084 0.167317 0.283093
O O3 0.764442 0.912428 0.184357
O O4 0.096660 0.482420 0.000011
O O5 0.669645 0.266431 0.282991
O O6 0.050969 0.718767 0.184438
O O7 0.548581 0.391156 0.314647
O O8 0.356456 0.008133 0.247031
O O9 0.695315 0.575112 0.999906
O O10 0.000000 0.500000 0.500000
O O11 0.136530 0.979302 0.314866
O O12 0.500000 0.500000 0.500000
O O13 0.603770 0.502446 0.752754
#
# Coordination Sequence:
#
# PCOD8019156 Si02
#       6
#     2   2   2   2   2   2
#     4  10  22  41  65  92 123 163 214 262 306 366
#     4  10  22  41  65  92 123 163 214 262 306 366
#     4  10  22  44  69  89 120 172 219 252 302 380
#     4  11  23  38  62  95 128 160 206 260 316 373
#     4  11  23  38  62  95 128 160 206 260 316 373
#     4  10  22  44  69  89 120 172 219 252 302 380
#
# _framework density 22.511054000000001
#
# number of rings (size 3 to 8) (size 9 to 14) (size 15 to 20)
#    0.000    1.667    0.000    5.000    4.667    5.333 
#    6.000    5.000    0.000    0.000    0.000    0.000 
#    0.000    0.000    0.000    0.000    0.000    0.000 
#
# Total GULP energy -148770.015216 kJ/mol
# GULP energy per Si atom -12397.501268 kJ/mol
# Density = 2.245982 g / cm^3
# Si number density = 22.511054 Si / 1000 Ang^3
#
#
#
# Elastic Constant Matrix: (Units=GPa)
#
#
# Indices 1 2 3 4 5 6 
#
# 1 238.9254 104.6032 32.8065 3.0513 -9.6429 20.8558
# 2 104.6032 135.6562 12.0175 0.9014 -3.0877 29.4114
# 3 32.8065 12.0175 77.0748 2.1123 0.5758 -8.7541
# 4 3.0513 0.9014 2.1123 41.3413 -3.4661 3.2075
# 5 -9.6429 -3.0877 0.5758 -3.4661 10.0334 -0.4314
# 6 20.8558 29.4114 -8.7541 3.2075 -0.4314 33.3349
#
#
#
# Elastic Compliance Matrix: (Units=1/GPa)
#
#
# Indices 1 2 3 4 5 6 
#
# 1 0.006892 -0.004870 -0.002284 0.000203 0.005302 -0.000566
# 2 -0.004870 0.013117 -0.000995 0.000753 -0.000708 -0.008869
# 3 -0.002284 -0.000995 0.014881 -0.001357 -0.003553 0.006299
# 4 0.000203 0.000753 -0.001357 0.025257 0.009081 -0.003460
# 5 0.005302 -0.000708 -0.003553 0.009081 0.107752 -0.003105
# 6 -0.000566 -0.008869 0.006299 -0.003460 -0.003105 0.040124
#
#
# Mechanical properties :
#
#
# Convention : Reuss Voigt Hill
#
# Bulk Modulus (GPa) = 53.78594 83.39010 68.58802
# Shear Modulus (GPa) = 21.69039 37.09051 29.39045
#
# Velocity S-wave (km/s) = 3.10747 4.06354 3.61723
# Velocity P-wave (km/s) = 6.06796 7.69032 6.92680
#
# Compressibility (1/GPa) = 0.01859222
#
# Stress axis : x y z
#
# Youngs Moduli (GPa) = 145.09952 76.23908 67.20129
#
# Poissons Ratio (x) = 0.37128 0.15346
# Poissons Ratio (y) = 0.70663 0.06686
# Poissons Ratio (z) = 0.33134 0.07585
#
# Static dielectric constant tensor:
#      x y z
#    x 4.489270 0.148690 -0.035610 
#    y 0.148690 4.196610 0.021430 
#    z -0.035610 0.021430 3.727180 
# 
# 
# High freq. dielectric constant tensor:
#      x y z
#    x 1.899680 0.009210 -0.001040 
#    y 0.009210 1.890670 0.000660 
#    z -0.001040 0.000660 1.872180 
# 
# From -- ./inp_files/197186.got.cif
#   From: 2010.06.25/outbox.cif.g09.slc.cpg/sg2_99_cif.got.tgz:197186.got - 2010.06.27 13:26:56.
