data_PCOD8019055
_publ_section_title
;
Structure prediction by ZEFSAII (Michael W. Deem and Ramdas Pophale) SiO2 
 PCOD8019055
Probable space group: P -1
;
_chemical_formula_sum "Si O2"
_cell_formula_units_Z 14
_cell_length_a 14.402778
_cell_length_b 16.360357
_cell_length_c 14.909992
_cell_angle_alpha 143.380958
_cell_angle_beta 159.906398
_cell_angle_gamma 37.133838
_cell_volume 703.595939
_symmetry_space_group_name_H-M "P -1"
_symmetry_group_IT_number 2
_symmetry_cell_setting 'triclinic'
loop_
_space_group_symop_operation_xyz
x,y,z
-x,-y,-z
loop_
_atom_site_type_symbol
_atom_site_label
_atom_site_fract_x
_atom_site_fract_y
_atom_site_fract_z
Si Si1 0.192439 0.092697 0.296611
Si Si2 0.405259 0.245494 0.952841
Si Si3 0.038734 0.118559 0.379323
Si Si4 0.208509 0.096292 0.804289
Si Si5 0.106551 0.315681 0.263070
Si Si6 0.396294 0.560510 0.185166
Si Si7 0.022591 0.813008 0.138365
O O1 0.175829 0.227429 0.338216
O O2 0.063135 0.148058 0.322840
O O3 0.500000 0.000000 0.500000
O O4 0.000000 0.000000 0.000000
O O5 0.240004 0.208649 0.856619
O O6 0.257447 0.197864 0.690869
O O7 0.728237 0.171362 0.181030
O O8 0.371882 0.411423 0.069164
O O9 0.131868 0.953882 0.340839
O O10 0.122575 0.180117 0.891489
O O11 0.000000 0.000000 0.500000
O O12 0.500000 0.000000 0.000000
O O13 0.284989 0.435555 0.536890
O O14 0.177846 0.214368 0.150139
O O15 0.785568 0.398859 0.035704
O O16 0.280724 0.680334 0.260032
#
# Coordination Sequence:
#
# PCOD8019055 Si02
#       7
#     2   2   2   2   2   2   2
#     4  12  22  38  66 102 127 163 218 269 312 374
#     4  12  25  45  61  98 133 166 214 263 322 385
#     4  12  24  40  69  95 130 167 212 272 320 367
#     4  12  24  39  66  97 127 162 212 270 322 370
#     4  10  22  41  64  92 129 162 220 256 317 366
#     4  10  24  42  66  86 137 173 206 260 318 384
#     4  10  23  40  69  89 127 166 216 257 323 363
#
# _framework density 19.897783
#
# number of rings (size 3 to 8) (size 9 to 14) (size 15 to 20)
#    0.857    0.000    4.286    3.429    4.000    0.571 
#    0.000    5.000    0.000    0.000    0.000    0.000 
#    0.000    0.000    0.000    0.000    0.000    0.000 
#
# Total GULP energy -173541.972533 kJ/mol
# GULP energy per Si atom -12395.855181 kJ/mol
# Density = 1.985250 g / cm^3
# Si number density = 19.897783 Si / 1000 Ang^3
#
#
#
# Elastic Constant Matrix: (Units=GPa)
#
#
# Indices 1 2 3 4 5 6 
#
# 1 97.1592 34.2320 14.9533 14.2264 -10.3212 21.2028
# 2 34.2320 118.2120 42.2428 26.1374 2.3084 10.6415
# 3 14.9533 42.2428 130.8205 10.2531 8.6361 3.1700
# 4 14.2264 26.1374 10.2531 35.3384 1.9176 7.3260
# 5 -10.3212 2.3084 8.6361 1.9176 27.3885 -1.1815
# 6 21.2028 10.6415 3.1700 7.3260 -1.1815 30.3456
#
#
#
# Elastic Compliance Matrix: (Units=1/GPa)
#
#
# Indices 1 2 3 4 5 6 
#
# 1 0.014009 -0.002728 -0.000731 -0.002042 0.005535 -0.008047
# 2 -0.002728 0.011818 -0.002929 -0.006687 -0.000647 -0.000343
# 3 -0.000731 -0.002929 0.008850 -0.000063 -0.002792 0.000520
# 4 -0.002042 -0.006687 -0.000063 0.035243 -0.002862 -0.004841
# 5 0.005535 -0.000647 -0.002792 -0.002862 0.039685 -0.001113
# 6 -0.008047 -0.000343 0.000520 -0.004841 -0.001113 0.039768
#
#
# Mechanical properties :
#
#
# Convention : Reuss Voigt Hill
#
# Bulk Modulus (GPa) = 45.65876 58.78310 52.22093
# Shear Modulus (GPa) = 29.50738 35.59874 32.55306
#
# Velocity S-wave (km/s) = 3.85508 4.23434 4.04916
# Velocity P-wave (km/s) = 6.54309 7.31525 6.93992
#
# Compressibility (1/GPa) = 0.02190160
#
# Stress axis : x y z
#
# Youngs Moduli (GPa) = 71.38256 84.61637 112.99228
#
# Poissons Ratio (x) = 0.23081 0.08258
# Poissons Ratio (y) = 0.19471 0.33098
# Poissons Ratio (z) = 0.05217 0.24786
#
# Static dielectric constant tensor:
#      x y z
#    x 3.687850 0.032940 0.016750 
#    y 0.032940 3.524140 -0.045450 
#    z 0.016750 -0.045450 3.811660 
# 
# 
# High freq. dielectric constant tensor:
#      x y z
#    x 1.767730 0.009580 0.000660 
#    y 0.009580 1.772360 0.001240 
#    z 0.000660 0.001240 1.793690 
# 
# From -- ./inp_files/50111.got.cif
#   From: 2010.06.25/outbox.cif.g09.slc.cpg/sg2_26_cif.got.tgz:50111.got - 2010.06.27 13:26:56.
