data_PCOD8019479
_publ_section_title
;
Structure prediction by ZEFSAII (Michael W. Deem and Ramdas Pophale) SiO2 
 PCOD8019479
Probable space group: P -1
;
_chemical_formula_sum "Si O2"
_cell_formula_units_Z 16
_cell_length_a 13.307848
_cell_length_b 25.454685
_cell_length_c 18.728653
_cell_angle_alpha 164.011182
_cell_angle_beta 154.756822
_cell_angle_gamma 26.407091
_cell_volume 726.565308
_symmetry_space_group_name_H-M "P -1"
_symmetry_group_IT_number 2
_symmetry_cell_setting 'triclinic'
loop_
_space_group_symop_operation_xyz
x,y,z
-x,-y,-z
loop_
_atom_site_type_symbol
_atom_site_label
_atom_site_fract_x
_atom_site_fract_y
_atom_site_fract_z
Si Si1 0.277559 0.002577 0.177973
Si Si2 0.576282 0.981263 0.867656
Si Si3 0.517372 0.306530 0.805304
Si Si4 0.706818 0.607193 0.794180
Si Si5 0.408307 0.413065 0.150947
Si Si6 0.974905 0.988528 0.710062
Si Si7 0.794911 0.633721 0.186002
Si Si8 0.387689 0.829260 0.670904
O O1 0.340029 0.170168 0.486539
O O2 0.370881 0.051514 0.224258
O O3 0.395471 0.785214 0.997440
O O4 0.000000 0.000000 0.000000
O O5 0.379839 0.180699 0.018290
O O6 0.831606 0.967805 0.052552
O O7 0.436966 0.828187 0.615248
O O8 0.795237 0.187919 0.829723
O O9 0.433608 0.365727 0.909470
O O10 0.500000 0.500000 0.000000
O O11 0.500000 0.500000 0.500000
O O12 0.737462 0.621640 0.918078
O O13 0.968331 0.490562 0.782761
O O14 0.514455 0.608150 0.488998
O O15 0.239992 0.465631 0.041950
O O16 0.822246 0.853531 0.475337
O O17 0.107113 0.877233 0.578929
O O18 0.500000 0.000000 0.000000
#
# Coordination Sequence:
#
# PCOD8019479 Si02
#       8
#     2   2   2   2   2   2   2   2
#     4  11  26  46  70  99 141 183 244 280 334 421
#     4  10  23  40  69 102 137 175 226 289 350 396
#     4  12  30  47  67 102 142 187 230 292 353 404
#     4  11  21  40  68 103 133 173 228 281 340 409
#     4  11  24  42  69 102 132 179 234 273 342 412
#     4  11  22  46  70  98 140 181 230 277 349 425
#     4  12  24  43  71  95 140 182 233 274 347 418
#     4  10  22  41  68 102 137 171 222 286 352 400
#
# _framework density 22.021419000000002
#
# number of rings (size 3 to 8) (size 9 to 14) (size 15 to 20)
#    0.000    1.000    3.750    2.250    7.000    2.000 
#    0.000    2.500    0.000    0.000    0.000    0.000 
#    0.000    0.000    0.000    0.000    0.000    0.000 
#
# Total GULP energy -198282.271605 kJ/mol
# GULP energy per Si atom -12392.641975 kJ/mol
# Density = 2.197130 g / cm^3
# Si number density = 22.021419 Si / 1000 Ang^3
#
#
#
# Elastic Constant Matrix: (Units=GPa)
#
#
# Indices 1 2 3 4 5 6 
#
# 1 110.6955 32.6535 11.9805 1.0246 13.3741 -1.4145
# 2 32.6535 140.8899 46.3529 16.4811 9.3070 -1.4515
# 3 11.9805 46.3529 85.6042 18.2922 4.6727 2.6488
# 4 1.0246 16.4811 18.2922 37.5846 11.6941 -0.7514
# 5 13.3741 9.3070 4.6727 11.6941 35.9876 1.4317
# 6 -1.4145 -1.4515 2.6488 -0.7514 1.4317 29.5250
#
#
#
# Elastic Compliance Matrix: (Units=1/GPa)
#
#
# Indices 1 2 3 4 5 6 
#
# 1 0.010190 -0.002181 -0.000513 0.002150 -0.003881 0.000670
# 2 -0.002181 0.009274 -0.004343 -0.001726 -0.000492 0.000721
# 3 -0.000513 -0.004343 0.015375 -0.006020 0.001347 -0.001836
# 4 0.002150 -0.001726 -0.006020 0.033556 -0.010551 0.001924
# 5 -0.003881 -0.000492 0.001347 -0.010551 0.032698 -0.002185
# 6 0.000670 0.000721 -0.001836 0.001924 -0.002185 0.034257
#
#
# Mechanical properties :
#
#
# Convention : Reuss Voigt Hill
#
# Bulk Modulus (GPa) = 48.15954 57.68483 52.92218
# Shear Modulus (GPa) = 31.98029 37.03295 34.50662
#
# Velocity S-wave (km/s) = 3.81496 4.10528 3.96278
# Velocity P-wave (km/s) = 6.42822 6.98017 6.70988
#
# Compressibility (1/GPa) = 0.02076432
#
# Stress axis : x y z
#
# Youngs Moduli (GPa) = 98.13210 107.82930 65.04112
#
# Poissons Ratio (x) = 0.23518 0.03339
# Poissons Ratio (y) = 0.21403 0.28248
# Poissons Ratio (z) = 0.05038 0.46831
#
# Static dielectric constant tensor:
#      x y z
#    x 4.359550 0.123540 0.138650 
#    y 0.123540 4.052300 0.115470 
#    z 0.138650 0.115470 3.914060 
# 
# 
# High freq. dielectric constant tensor:
#      x y z
#    x 1.875600 0.005950 0.001690 
#    y 0.005950 1.868220 0.012460 
#    z 0.001690 0.012460 1.856470 
# 
# From -- ./inp_files/571071.got.cif
#   From: 2010.06.25/outbox.cif.g09.slc.cpg/sg2_286_cif.got.tgz:571071.got - 2010.06.27 13:26:56.
