data_PCOD8019921
_publ_section_title
;
Structure prediction by ZEFSAII (Michael W. Deem and Ramdas Pophale) SiO2 
 PCOD8019921
Probable space group: P -1
;
_chemical_formula_sum "Si O2"
_cell_formula_units_Z 14
_cell_length_a 11.236518
_cell_length_b 26.088067
_cell_length_c 11.107245
_cell_angle_alpha 147.342443
_cell_angle_beta 135.704317
_cell_angle_gamma 20.798127
_cell_volume 579.052133
_symmetry_space_group_name_H-M "P -1"
_symmetry_group_IT_number 2
_symmetry_cell_setting 'triclinic'
loop_
_space_group_symop_operation_xyz
x,y,z
-x,-y,-z
loop_
_atom_site_type_symbol
_atom_site_label
_atom_site_fract_x
_atom_site_fract_y
_atom_site_fract_z
Si Si1 0.753116 0.753794 0.149617
Si Si2 0.871287 0.896732 0.929442
Si Si3 0.960131 0.719799 0.859991
Si Si4 0.890607 0.863925 0.314675
Si Si5 0.267389 0.417140 0.322920
Si Si6 0.020804 0.946228 0.748387
Si Si7 0.100146 0.286334 0.561503
O O1 0.732723 0.868274 0.307673
O O2 0.986248 0.644095 0.225139
O O3 0.909842 0.600928 0.862248
O O4 0.361195 0.905169 0.193347
O O5 0.445879 0.107225 0.059801
O O6 0.023702 0.927227 0.089636
O O7 0.039743 0.756580 0.885706
O O8 0.970876 0.790666 0.669217
O O9 0.128058 0.536406 0.579467
O O10 0.120104 0.694405 0.044085
O O11 0.147746 0.813942 0.468607
O O12 0.525597 0.095559 0.457019
O O13 0.700352 0.193526 0.214050
O O14 0.171368 0.520952 0.337493
#
# Coordination Sequence:
#
# PCOD8019921 Si02
#       7
#     2   2   2   2   2   2   2
#     4  11  23  41  60  86 123 161 194 237 302 356
#     4   9  19  39  66  86 116 156 198 245 290 356
#     4   9  20  40  60  87 119 158 196 235 302 352
#     4  10  22  42  63  82 122 163 193 239 296 360
#     4  11  22  37  62  91 119 152 199 249 288 349
#     4  11  23  38  60  92 119 154 200 245 294 346
#     4   9  19  39  60  85 116 154 195 238 295 347
#
# _framework density 24.177443
#
# number of rings (size 3 to 8) (size 9 to 14) (size 15 to 20)
#    0.000    2.000    0.000    5.143    0.000    4.571 
#    0.000   17.143    0.000    0.000    0.000    0.000 
#    0.000    0.000    0.000    0.000    0.000    0.000 
#
# Total GULP energy -173459.322122 kJ/mol
# GULP energy per Si atom -12389.951580 kJ/mol
# Density = 2.412241 g / cm^3
# Si number density = 24.177443 Si / 1000 Ang^3
#
#
#
# Elastic Constant Matrix: (Units=GPa)
#
#
# Indices 1 2 3 4 5 6 
#
# 1 61.4732 34.1962 37.8555 -14.7238 16.4114 -0.3933
# 2 34.1962 86.0356 43.6934 -21.7056 8.3715 17.4640
# 3 37.8555 43.6934 160.8939 -45.4149 9.4173 -0.6530
# 4 -14.7238 -21.7056 -45.4149 51.4894 4.7662 -2.2870
# 5 16.4114 8.3715 9.4173 4.7662 40.3825 -13.5962
# 6 -0.3933 17.4640 -0.6530 -2.2870 -13.5962 14.2962
#
#
#
# Elastic Compliance Matrix: (Units=1/GPa)
#
#
# Indices 1 2 3 4 5 6 
#
# 1 0.024740 -0.008610 -0.002541 0.002012 -0.005994 0.005703
# 2 -0.008610 0.035728 -0.003951 0.008578 -0.027026 -0.068393
# 3 -0.002541 -0.003951 0.009609 0.006288 0.001407 0.007540
# 4 0.002012 0.008578 0.006288 0.029613 -0.013791 -0.018515
# 5 -0.005994 -0.027026 0.001407 -0.013791 0.065373 0.092879
# 6 0.005703 -0.068393 0.007540 -0.018515 0.092879 0.239368
#
#
# Mechanical properties :
#
#
# Convention : Reuss Voigt Hill
#
# Bulk Modulus (GPa) = 25.07894 59.98811 42.53353
# Shear Modulus (GPa) = 11.16255 34.07744 22.61999
#
# Velocity S-wave (km/s) = 2.15103 3.75837 3.06205
# Velocity P-wave (km/s) = 4.06997 6.61054 5.48926
#
# Compressibility (1/GPa) = 0.03987409
#
# Stress axis : x y z
#
# Youngs Moduli (GPa) = 40.42037 27.98889 104.06650
#
# Poissons Ratio (x) = 0.24098 0.26441
# Poissons Ratio (y) = 0.34801 0.41120
# Poissons Ratio (z) = 0.10270 0.11059
#
# Static dielectric constant tensor:
#      x y z
#    x 3.891540 0.342560 -0.072970 
#    y 0.342560 4.315180 -0.602760 
#    z -0.072970 -0.602760 5.521560 
# 
# 
# High freq. dielectric constant tensor:
#      x y z
#    x 1.921710 0.024890 -0.000330 
#    y 0.024890 1.944710 -0.024060 
#    z -0.000330 -0.024060 1.995470 
# 
# From -- ./inp_files/226600.got.cif
#   From: 2010.06.25/outbox.cif.g09.slc.cpg/sg2_114_cif.got.tgz:226600.got - 2010.06.27 13:26:56.
