data_PCOD8019142
_publ_section_title
;
Structure prediction by ZEFSAII (Michael W. Deem and Ramdas Pophale) SiO2 
 PCOD8019142
Probable space group: P -1
;
_chemical_formula_sum "Si O2"
_cell_formula_units_Z 16
_cell_length_a 19.576912
_cell_length_b 22.037506
_cell_length_c 12.452679
_cell_angle_alpha 138.651191
_cell_angle_beta 30.553614
_cell_angle_gamma 161.818427
_cell_volume 771.261445
_symmetry_space_group_name_H-M "P -1"
_symmetry_group_IT_number 2
_symmetry_cell_setting 'triclinic'
loop_
_space_group_symop_operation_xyz
x,y,z
-x,-y,-z
loop_
_atom_site_type_symbol
_atom_site_label
_atom_site_fract_x
_atom_site_fract_y
_atom_site_fract_z
Si Si1 0.767363 0.941647 0.239190
Si Si2 0.762602 0.586735 0.253798
Si Si3 0.866820 0.173194 0.527434
Si Si4 0.330674 0.923317 0.788057
Si Si5 0.664942 0.246427 0.595891
Si Si6 0.760047 0.426013 0.369984
Si Si7 0.744464 0.070740 0.786358
Si Si8 0.333906 0.655376 0.853631
O O1 0.568995 0.826652 0.244619
O O2 0.538134 0.793929 0.454512
O O3 0.956986 0.155117 0.287538
O O4 0.000000 0.000000 0.000000
O O5 0.500000 0.500000 0.500000
O O6 0.592982 0.381812 0.210965
O O7 0.960332 0.708455 0.257084
O O8 0.986908 0.741680 0.053451
O O9 0.846396 0.102610 0.571748
O O10 0.126807 0.412766 0.506946
O O11 0.537054 0.018880 0.737765
O O12 0.276460 0.806978 0.625254
O O13 0.502202 0.115412 0.753734
O O14 0.000000 0.500000 0.500000
O O15 0.680437 0.396982 0.315674
O O16 0.010603 0.498816 0.125735
O O17 0.601755 0.898325 0.818099
O O18 0.500000 0.000000 0.000000
#
# Coordination Sequence:
#
# PCOD8019142 Si02
#       8
#     2   2   2   2   2   2   2   2
#     4  11  25  41  61  96 129 161 213 267 319 379
#     4  12  26  41  59  99 141 172 203 256 331 395
#     4  11  20  39  68  92 122 164 215 267 310 370
#     4  10  22  41  65  90 124 163 218 266 302 376
#     4  10  22  44  68  87 116 169 222 263 313 366
#     4  11  20  35  67  95 122 160 212 265 312 369
#     4  12  20  40  68  97 125 165 215 266 315 378
#     4  11  21  36  65  97 125 166 215 256 314 384
#
# _framework density 20.745235999999998
#
# number of rings (size 3 to 8) (size 9 to 14) (size 15 to 20)
#    0.000    1.000    5.000    3.000    0.000    3.000 
#    2.250    0.000    0.000    0.000    0.000    0.000 
#    0.000    0.000    0.000    0.000    0.000    0.000 
#
# Total GULP energy -198351.859184 kJ/mol
# GULP energy per Si atom -12396.991199 kJ/mol
# Density = 2.069802 g / cm^3
# Si number density = 20.745236 Si / 1000 Ang^3
#
#
#
# Elastic Constant Matrix: (Units=GPa)
#
#
# Indices 1 2 3 4 5 6 
#
# 1 104.0793 38.5255 49.6799 -9.1547 -2.0988 -20.6568
# 2 38.5255 103.4005 17.7514 12.4997 -3.4056 -16.7566
# 3 49.6799 17.7514 80.4515 -2.3408 -8.5370 -15.2438
# 4 -9.1547 12.4997 -2.3408 23.6229 -2.4379 3.8844
# 5 -2.0988 -3.4056 -8.5370 -2.4379 30.8249 -0.1017
# 6 -20.6568 -16.7566 -15.2438 3.8844 -0.1017 40.5043
#
#
#
# Elastic Compliance Matrix: (Units=1/GPa)
#
#
# Indices 1 2 3 4 5 6 
#
# 1 0.016928 -0.005452 -0.008704 0.008075 -0.001214 0.002324
# 2 -0.005452 0.013387 0.000965 -0.009703 0.000621 0.004053
# 3 -0.008704 0.000965 0.018612 -0.002096 0.004513 0.003177
# 4 0.008075 -0.009703 -0.002096 0.051619 0.002961 -0.005628
# 5 -0.001214 0.000621 0.004513 0.002961 0.033915 0.001137
# 6 0.002324 0.004053 0.003177 -0.005628 0.001137 0.029289
#
#
# Mechanical properties :
#
#
# Convention : Reuss Voigt Hill
#
# Bulk Modulus (GPa) = 44.35821 55.53833 49.94827
# Shear Modulus (GPa) = 25.29758 31.12204 28.20981
#
# Velocity S-wave (km/s) = 3.49584 3.87745 3.69158
# Velocity P-wave (km/s) = 6.14193 6.84659 6.50381
#
# Compressibility (1/GPa) = 0.02254374
#
# Stress axis : x y z
#
# Youngs Moduli (GPa) = 59.07416 74.69797 53.73016
#
# Poissons Ratio (x) = 0.40728 0.46765
# Poissons Ratio (y) = 0.32209 -0.05182
# Poissons Ratio (z) = 0.51416 -0.07205
#
# Static dielectric constant tensor:
#      x y z
#    x 4.132620 -0.186720 0.125330 
#    y -0.186720 3.925260 0.190920 
#    z 0.125330 0.190920 3.532700 
# 
# 
# High freq. dielectric constant tensor:
#      x y z
#    x 1.811090 -0.012160 0.015860 
#    y -0.012160 1.825360 0.016390 
#    z 0.015860 0.016390 1.782970 
# 
# From -- ./inp_files/467128.got.cif
#   From: 2010.06.25/outbox.cif.g09.slc.cpg/sg2_234_cif.got.tgz:467128.got - 2010.06.27 13:26:56.
