data_PCOD8019796
_publ_section_title
;
Structure prediction by ZEFSAII (Michael W. Deem and Ramdas Pophale) SiO2 
 PCOD8019796
Probable space group: P -1
;
_chemical_formula_sum "Si O2"
_cell_formula_units_Z 12
_cell_length_a 9.430906
_cell_length_b 10.143283
_cell_length_c 15.894756
_cell_angle_alpha 37.886685
_cell_angle_beta 35.835573
_cell_angle_gamma 43.295050
_cell_volume 530.038740
_symmetry_space_group_name_H-M "P -1"
_symmetry_group_IT_number 2
_symmetry_cell_setting 'triclinic'
loop_
_space_group_symop_operation_xyz
x,y,z
-x,-y,-z
loop_
_atom_site_type_symbol
_atom_site_label
_atom_site_fract_x
_atom_site_fract_y
_atom_site_fract_z
Si Si1 0.696808 0.101250 0.805629
Si Si2 0.447738 0.821307 0.682556
Si Si3 0.949801 0.794958 0.277373
Si Si4 0.255692 0.463416 0.178812
Si Si5 0.496118 0.427917 0.372605
Si Si6 0.017382 0.816129 0.653727
O O1 0.543463 0.311736 0.719176
O O2 0.865450 0.207301 0.732821
O O3 0.865693 0.915475 0.759483
O O4 0.500000 0.000000 0.000000
O O5 0.675969 0.720912 0.686552
O O6 0.396259 0.622820 0.749605
O O7 0.500000 0.000000 0.500000
O O8 0.208432 0.949290 0.788250
O O9 0.768227 0.634701 0.463059
O O10 0.106356 0.701426 0.166327
O O11 0.092074 0.382237 0.228242
O O12 0.500000 0.500000 0.000000
O O13 0.691708 0.284570 0.415946
O O14 0.000000 0.000000 0.500000
#
# Coordination Sequence:
#
# PCOD8019796 Si02
#       6
#     2   2   2   2   2   2
#     4  12  26  43  70 104 140 185 233 284 349 418
#     4  10  22  41  73 101 126 183 237 271 337 423
#     4  11  23  44  75  97 132 188 237 273 340 433
#     4  12  27  45  68 103 147 179 224 296 357 399
#     4  11  24  43  77 100 132 185 239 280 341 418
#     4  12  27  45  69 107 145 174 234 303 345 406
#
# _framework density 22.639855000000001
#
# number of rings (size 3 to 8) (size 9 to 14) (size 15 to 20)
#    0.000    0.667    3.333    4.500    4.667    6.667 
#    0.000    0.000    0.000    0.000    0.000    0.000 
#    0.000    0.000    0.000    0.000    0.000    0.000 
#
# Total GULP energy -148784.754011 kJ/mol
# GULP energy per Si atom -12398.729501 kJ/mol
# Density = 2.258833 g / cm^3
# Si number density = 22.639855 Si / 1000 Ang^3
#
#
#
# Elastic Constant Matrix: (Units=GPa)
#
#
# Indices 1 2 3 4 5 6 
#
# 1 134.1729 47.6873 48.5640 2.3006 -18.1587 3.5604
# 2 47.6873 131.4560 16.0044 34.7756 -4.9190 5.2924
# 3 48.5640 16.0044 95.4894 20.2112 -12.4917 -0.4258
# 4 2.3006 34.7756 20.2112 34.1880 -3.0158 7.7306
# 5 -18.1587 -4.9190 -12.4917 -3.0158 19.9382 2.9212
# 6 3.5604 5.2924 -0.4258 7.7306 2.9212 46.4265
#
#
#
# Elastic Compliance Matrix: (Units=1/GPa)
#
#
# Indices 1 2 3 4 5 6 
#
# 1 0.013283 -0.006514 -0.006970 0.011193 0.008215 -0.002721
# 2 -0.006514 0.013680 0.004192 -0.016629 -0.002728 0.001919
# 3 -0.006970 0.004192 0.016618 -0.013919 0.002646 0.002360
# 4 0.011193 -0.016629 -0.013919 0.056291 0.007191 -0.008916
# 5 0.008215 -0.002728 0.002646 0.007191 0.060486 -0.005298
# 6 -0.002721 0.001919 0.002360 -0.008916 -0.005298 0.023369
#
#
# Mechanical properties :
#
#
# Convention : Reuss Voigt Hill
#
# Bulk Modulus (GPa) = 40.00862 65.06997 52.53930
# Shear Modulus (GPa) = 23.73682 36.70136 30.21909
#
# Velocity S-wave (km/s) = 3.24149 4.03065 3.65742
# Velocity P-wave (km/s) = 5.63204 7.10389 6.41035
#
# Compressibility (1/GPa) = 0.02499461
#
# Stress axis : x y z
#
# Youngs Moduli (GPa) = 75.28229 73.10162 60.17739
#
# Poissons Ratio (x) = 0.47619 0.41946
# Poissons Ratio (y) = 0.49040 -0.25224
# Poissons Ratio (z) = 0.52474 -0.30641
#
# Static dielectric constant tensor:
#      x y z
#    x -36.539080 -32.185430 0.914120 
#    y -32.185430 -20.488910 1.061030 
#    z 0.914120 1.061030 3.709970 
# 
# 
# High freq. dielectric constant tensor:
#      x y z
#    x 1.894160 -0.000280 -0.007130 
#    y -0.000280 1.924470 0.010650 
#    z -0.007130 0.010650 1.864270 
# 
# From -- ./inp_files/491901.got.cif
#   From: 2010.06.25/outbox.cif.g09.slc.cpg/sg2_246_cif.got.tgz:491901.got - 2010.06.27 13:26:56.
