data_PCOD8019195
_publ_section_title
;
Structure prediction by ZEFSAII (Michael W. Deem and Ramdas Pophale) SiO2 
 PCOD8019195
Probable space group: P -1
;
_chemical_formula_sum "Si O2"
_cell_formula_units_Z 16
_cell_length_a 9.775832
_cell_length_b 13.828104
_cell_length_c 8.934249
_cell_angle_alpha 83.981988
_cell_angle_beta 40.786645
_cell_angle_gamma 103.312840
_cell_volume 689.742248
_symmetry_space_group_name_H-M "P -1"
_symmetry_group_IT_number 2
_symmetry_cell_setting 'triclinic'
loop_
_space_group_symop_operation_xyz
x,y,z
-x,-y,-z
loop_
_atom_site_type_symbol
_atom_site_label
_atom_site_fract_x
_atom_site_fract_y
_atom_site_fract_z
Si Si1 0.170480 0.703912 0.536862
Si Si2 0.655398 0.716440 0.170701
Si Si3 0.901751 0.245935 0.736912
Si Si4 0.599346 0.704902 0.563167
Si Si5 0.835938 0.116662 0.290494
Si Si6 0.045593 0.476623 0.631879
Si Si7 0.468444 0.892088 0.722170
Si Si8 0.456049 0.487984 0.860975
O O1 0.432525 0.719957 0.276983
O O2 0.075354 0.737866 0.462984
O O3 0.203103 0.783579 0.632494
O O4 0.003421 0.570508 0.740982
O O5 0.599123 0.674332 0.394498
O O6 0.731832 0.637260 0.018581
O O7 0.881179 0.840031 0.961260
O O8 0.136608 0.241424 0.594733
O O9 0.881181 0.346938 0.823156
O O10 0.659277 0.138129 0.004578
O O11 0.513333 0.795830 0.634711
O O12 0.416656 0.590212 0.819520
O O13 0.714879 0.088223 0.233146
O O14 0.714809 0.007033 0.512320
O O15 0.313393 0.497722 0.424666
O O16 0.000000 0.500000 0.500000
O O17 0.500000 0.500000 0.000000
#
# Coordination Sequence:
#
# PCOD8019195 Si02
#       8
#     2   2   2   2   2   2   2   2
#     4  10  22  41  65  95 132 161 210 269 322 379
#     4  11  23  42  65  96 130 171 210 260 319 382
#     4  10  22  41  65  95 132 161 210 269 322 379
#     4  11  23  42  65  96 130 171 210 260 319 382
#     4  11  25  43  65  92 124 172 224 265 317 374
#     4   8  18  35  58  90 125 161 192 241 325 380
#     4  11  25  43  65  92 124 172 224 265 317 374
#     4  10  23  37  64  99 133 161 202 260 320 387
#
# _framework density 23.197073
#
# number of rings (size 3 to 8) (size 9 to 14) (size 15 to 20)
#    0.000    1.750    2.500    0.375   10.500    2.000 
#    0.000    2.500    0.000    0.000    0.000    0.000 
#    0.000    0.000    0.000    0.000    0.000    0.000 
#
# Total GULP energy -198271.204219 kJ/mol
# GULP energy per Si atom -12391.950264 kJ/mol
# Density = 2.314428 g / cm^3
# Si number density = 23.197073 Si / 1000 Ang^3
#
#
#
# Elastic Constant Matrix: (Units=GPa)
#
#
# Indices 1 2 3 4 5 6 
#
# 1 81.2337 -4.1971 6.1884 -8.5603 1.7043 3.3071
# 2 -4.1971 58.1542 4.6116 -17.5063 2.7154 6.4219
# 3 6.1884 4.6116 75.3423 -39.8764 13.9784 10.7089
# 4 -8.5603 -17.5063 -39.8764 44.1555 3.5089 -1.8722
# 5 1.7043 2.7154 13.9784 3.5089 22.0498 -0.7541
# 6 3.3071 6.4219 10.7089 -1.8722 -0.7541 31.0217
#
#
#
# Elastic Compliance Matrix: (Units=1/GPa)
#
#
# Indices 1 2 3 4 5 6 
#
# 1 0.013406 0.004133 0.005467 0.009545 -0.006658 -0.003758
# 2 0.004133 0.027672 0.020365 0.031414 -0.022042 -0.011839
# 3 0.005467 0.020365 0.059098 0.065652 -0.051612 -0.022492
# 4 0.009545 0.031414 0.065652 0.100164 -0.063044 -0.025672
# 5 -0.006658 -0.022042 -0.051612 -0.063044 0.092069 0.021523
# 6 -0.003758 -0.011839 -0.022492 -0.025672 0.021523 0.041825
#
#
# Mechanical properties :
#
#
# Convention : Reuss Voigt Hill
#
# Bulk Modulus (GPa) = 6.24582 25.32621 15.78602
# Shear Modulus (GPa) = 15.25918 33.32056 24.28987
#
# Velocity S-wave (km/s) = 2.56756 3.79411 3.23942
# Velocity P-wave (km/s) = 3.38942 5.48956 4.56199
#
# Compressibility (1/GPa) = 0.16010703
#
# Stress axis : x y z
#
# Youngs Moduli (GPa) = 74.59508 36.13724 16.92113
#
# Poissons Ratio (x) = -0.14936 -0.09251
# Poissons Ratio (y) = -0.30831 -0.34461
# Poissons Ratio (z) = -0.40782 -0.73595
#
# Static dielectric constant tensor:
#      x y z
#    x 4.079250 -0.079420 -0.273880 
#    y -0.079420 4.447510 -0.261430 
#    z -0.273880 -0.261430 4.243520 
# 
# 
# High freq. dielectric constant tensor:
#      x y z
#    x 1.909180 -0.005880 -0.018170 
#    y -0.005880 1.914160 -0.004280 
#    z -0.018170 -0.004280 1.921670 
# 
# From -- ./inp_files/206213.got.cif
#   From: 2010.06.25/outbox.cif.g09.slc.cpg/sg2_104_cif.got.tgz:206213.got - 2010.06.27 13:26:56.
