data_PCOD8019710
_publ_section_title
;
Structure prediction by ZEFSAII (Michael W. Deem and Ramdas Pophale) SiO2 
 PCOD8019710
Probable space group: P -1
;
_chemical_formula_sum "Si O2"
_cell_formula_units_Z 14
_cell_length_a 18.968482
_cell_length_b 9.038677
_cell_length_c 11.365664
_cell_angle_alpha 125.817899
_cell_angle_beta 154.563413
_cell_angle_gamma 45.068156
_cell_volume 583.598236
_symmetry_space_group_name_H-M "P -1"
_symmetry_group_IT_number 2
_symmetry_cell_setting 'triclinic'
loop_
_space_group_symop_operation_xyz
x,y,z
-x,-y,-z
loop_
_atom_site_type_symbol
_atom_site_label
_atom_site_fract_x
_atom_site_fract_y
_atom_site_fract_z
Si Si1 0.483081 0.110048 0.731023
Si Si2 0.104199 0.692989 0.343943
Si Si3 0.523611 0.602275 0.943495
Si Si4 0.219981 0.866114 0.953665
Si Si5 0.786177 0.271091 0.863580
Si Si6 0.492618 0.254460 0.265106
Si Si7 0.060870 0.325699 0.158778
O O1 0.624271 0.069065 0.816160
O O2 0.284270 0.159903 0.397537
O O3 0.567230 0.906632 0.848191
O O4 0.456715 0.305423 0.861663
O O5 0.330054 0.594288 0.649723
O O6 0.038800 0.555550 0.259929
O O7 0.064273 0.659645 0.134198
O O8 0.984050 0.943891 0.315117
O O9 0.711612 0.365234 0.105922
O O10 0.517064 0.745974 0.891203
O O11 0.198460 0.862917 0.060160
O O12 0.703825 0.192978 0.597827
O O13 0.653330 0.518502 0.798046
O O14 0.008312 0.762336 0.878053
#
# Coordination Sequence:
#
# PCOD8019710 Si02
#       7
#     2   2   2   2   2   2   2
#     4  12  25  43  69  97 140 174 222 271 338 390
#     4  11  24  43  72  96 136 172 230 269 337 384
#     4  11  24  48  65  99 137 179 218 276 326 406
#     4  11  25  43  68 100 134 179 216 276 332 394
#     4  10  22  42  68 101 136 164 229 276 331 388
#     4  10  22  41  70  96 132 179 219 276 330 392
#     4  11  24  42  68 105 130 172 225 283 320 403
#
# _framework density 23.989104999999999
#
# number of rings (size 3 to 8) (size 9 to 14) (size 15 to 20)
#    0.000    1.143    2.857    2.571    2.000    4.000 
#    2.571    1.429    0.000    0.000    0.000    0.000 
#    0.000    0.000    0.000    0.000    0.000    0.000 
#
# Total GULP energy -173564.508970 kJ/mol
# GULP energy per Si atom -12397.464926 kJ/mol
# Density = 2.393450 g / cm^3
# Si number density = 23.989105 Si / 1000 Ang^3
#
#
#
# Elastic Constant Matrix: (Units=GPa)
#
#
# Indices 1 2 3 4 5 6 
#
# 1 155.5768 24.6525 19.8437 1.0396 16.2169 33.3928
# 2 24.6525 100.3521 15.1253 -14.9321 4.8744 17.6554
# 3 19.8437 15.1253 45.1500 7.9562 8.3757 -3.2111
# 4 1.0396 -14.9321 7.9562 30.4610 1.2021 2.7360
# 5 16.2169 4.8744 8.3757 1.2021 30.8980 1.4222
# 6 33.3928 17.6554 -3.2111 2.7360 1.4222 43.8430
#
#
#
# Elastic Compliance Matrix: (Units=1/GPa)
#
#
# Indices 1 2 3 4 5 6 
#
# 1 0.008760 0.000076 -0.004043 0.001550 -0.003253 -0.006990
# 2 0.000076 0.013395 -0.006456 0.008848 -0.000450 -0.006462
# 3 -0.004043 -0.006456 0.029606 -0.011351 -0.004845 0.008713
# 4 0.001550 0.008848 -0.011351 0.040820 -0.000347 -0.008111
# 5 -0.003253 -0.000450 -0.004845 -0.000347 0.035415 0.001176
# 6 -0.006990 -0.006462 0.008713 -0.008111 0.001176 0.031841
#
#
# Mechanical properties :
#
#
# Convention : Reuss Voigt Hill
#
# Bulk Modulus (GPa) = 32.34557 46.70245 39.52401
# Shear Modulus (GPa) = 26.17956 37.13755 31.65856
#
# Velocity S-wave (km/s) = 3.30708 3.93886 3.63672
# Velocity P-wave (km/s) = 5.30048 6.34008 5.84345
#
# Compressibility (1/GPa) = 0.03091613
#
# Stress axis : x y z
#
# Youngs Moduli (GPa) = 114.15075 74.65678 33.77643
#
# Poissons Ratio (x) = -0.00565 0.13654
# Poissons Ratio (y) = -0.00864 0.21805
# Poissons Ratio (z) = 0.46146 0.48197
#
# Static dielectric constant tensor:
#      x y z
#    x 4.411530 0.345370 0.051590 
#    y 0.345370 4.578380 -0.141890 
#    z 0.051590 -0.141890 4.032930 
# 
# 
# High freq. dielectric constant tensor:
#      x y z
#    x 1.954520 0.020800 0.003700 
#    y 0.020800 1.972210 -0.012470 
#    z 0.003700 -0.012470 1.927780 
# 
# From -- ./inp_files/470160.got.cif
#   From: 2010.06.25/outbox.cif.g09.slc.cpg/sg2_236_cif.got.tgz:470160.got - 2010.06.27 13:26:56.
