data_PCOD8019795
_publ_section_title
;
Structure prediction by ZEFSAII (Michael W. Deem and Ramdas Pophale) SiO2 
 PCOD8019795
Probable space group: P -1
;
_chemical_formula_sum "Si O2"
_cell_formula_units_Z 14
_cell_length_a 9.642055
_cell_length_b 9.063347
_cell_length_c 10.902562
_cell_angle_alpha 67.737656
_cell_angle_beta 65.089154
_cell_angle_gamma 46.695537
_cell_volume 622.973480
_symmetry_space_group_name_H-M "P -1"
_symmetry_group_IT_number 2
_symmetry_cell_setting 'triclinic'
loop_
_space_group_symop_operation_xyz
x,y,z
-x,-y,-z
loop_
_atom_site_type_symbol
_atom_site_label
_atom_site_fract_x
_atom_site_fract_y
_atom_site_fract_z
Si Si1 0.418443 0.287525 0.686031
Si Si2 0.918949 0.389737 0.115157
Si Si3 0.957971 0.821802 0.440442
Si Si4 0.161047 0.022594 0.302573
Si Si5 0.636094 0.020097 0.294464
Si Si6 0.370513 0.408822 0.398644
Si Si7 0.620278 0.368713 0.114859
O O1 0.230961 0.484908 0.757865
O O2 0.449493 0.361001 0.523521
O O3 0.614171 0.182225 0.727185
O O4 0.384512 0.120927 0.736124
O O5 0.808168 0.361705 0.059310
O O6 0.108287 0.172003 0.162586
O O7 0.000000 0.500000 0.000000
O O8 0.866727 0.861131 0.597102
O O9 0.137930 0.583067 0.427532
O O10 0.803995 0.879964 0.375424
O O11 0.018745 0.965655 0.361143
O O12 0.430011 0.196667 0.386160
O O13 0.690168 0.137655 0.150417
O O14 0.483865 0.470512 0.257193
O O15 0.500000 0.500000 0.000000
#
# Coordination Sequence:
#
# PCOD8019795 Si02
#       7
#     2   2   2   2   2   2   2
#     4  12  25  44  72 105 137 174 226 289 344 390
#     4  12  28  48  67 101 140 181 229 280 338 410
#     4  11  21  39  70 102 134 177 225 282 338 399
#     4  11  23  40  68 101 138 174 225 284 341 398
#     4  10  24  43  67 104 137 176 227 276 338 407
#     4  10  22  41  73 100 136 173 227 280 337 396
#     4  10  24  48  70  93 141 182 224 276 334 409
#
# _framework density 22.472867000000001
#
# number of rings (size 3 to 8) (size 9 to 14) (size 15 to 20)
#    0.857    0.286    4.286    1.286    4.000    4.571 
#    2.571    1.429    0.000    0.000    0.000    0.000 
#    0.000    0.000    0.000    0.000    0.000    0.000 
#
# Total GULP energy -173576.923429 kJ/mol
# GULP energy per Si atom -12398.351674 kJ/mol
# Density = 2.242172 g / cm^3
# Si number density = 22.472867 Si / 1000 Ang^3
#
#
#
# Elastic Constant Matrix: (Units=GPa)
#
#
# Indices 1 2 3 4 5 6 
#
# 1 77.1260 9.3991 41.1642 -20.7480 3.8175 -5.6490
# 2 9.3991 98.3608 14.6750 -15.0514 12.5269 -23.0071
# 3 41.1642 14.6750 109.5011 -34.9315 6.8089 -10.8263
# 4 -20.7480 -15.0514 -34.9315 38.5814 -9.3679 8.1450
# 5 3.8175 12.5269 6.8089 -9.3679 26.2873 -6.7161
# 6 -5.6490 -23.0071 -10.8263 8.1450 -6.7161 33.3208
#
#
#
# Elastic Compliance Matrix: (Units=1/GPa)
#
#
# Indices 1 2 3 4 5 6 
#
# 1 0.016808 -0.000220 -0.004809 0.004728 0.000621 0.000105
# 2 -0.000220 0.012734 0.000156 0.002622 -0.003222 0.007515
# 3 -0.004809 0.000156 0.014315 0.010339 0.001015 0.001620
# 4 0.004728 0.002622 0.010339 0.041669 0.009656 -0.002268
# 5 0.000621 -0.003222 0.001015 0.009656 0.043863 0.004691
# 6 0.000105 0.007515 0.001620 -0.002268 0.004691 0.037245
#
#
# Mechanical properties :
#
#
# Convention : Reuss Voigt Hill
#
# Bulk Modulus (GPa) = 29.31673 46.16273 37.73973
# Shear Modulus (GPa) = 26.63110 34.28786 30.45948
#
# Velocity S-wave (km/s) = 3.44617 3.91032 3.68555
# Velocity P-wave (km/s) = 5.37666 6.40106 5.91109
#
# Compressibility (1/GPa) = 0.03411021
#
# Stress axis : x y z
#
# Youngs Moduli (GPa) = 59.49498 78.53083 69.85765
#
# Poissons Ratio (x) = 0.01726 0.33597
# Poissons Ratio (y) = 0.01308 -0.01088
# Poissons Ratio (z) = 0.28613 -0.01223
#
# Static dielectric constant tensor:
#      x y z
#    x 3.906450 -0.021960 -0.045000 
#    y -0.021960 4.178550 -0.117580 
#    z -0.045000 -0.117580 3.815950 
# 
# 
# High freq. dielectric constant tensor:
#      x y z
#    x 1.886490 -0.001810 -0.000250 
#    y -0.001810 1.896360 -0.017510 
#    z -0.000250 -0.017510 1.865090 
# 
# From -- ./inp_files/378210.got.cif
#   From: 2010.06.25/outbox.cif.g09.slc.cpg/sg2_190_cif.got.tgz:378210.got - 2010.06.27 13:26:56.
