data_PCOD8019992
_publ_section_title
;
Structure prediction by ZEFSAII (Michael W. Deem and Ramdas Pophale) SiO2 
 PCOD8019992
Probable space group: P -1
;
_chemical_formula_sum "Si O2"
_cell_formula_units_Z 14
_cell_length_a 11.957042
_cell_length_b 9.311728
_cell_length_c 14.087662
_cell_angle_alpha 119.897860
_cell_angle_beta 30.970737
_cell_angle_gamma 129.686791
_cell_volume 616.360883
_symmetry_space_group_name_H-M "P -1"
_symmetry_group_IT_number 2
_symmetry_cell_setting 'triclinic'
loop_
_space_group_symop_operation_xyz
x,y,z
-x,-y,-z
loop_
_atom_site_type_symbol
_atom_site_label
_atom_site_fract_x
_atom_site_fract_y
_atom_site_fract_z
Si Si1 0.915192 0.165265 0.278474
Si Si2 0.727617 0.469143 0.801425
Si Si3 0.568601 0.121014 0.136950
Si Si4 0.360029 0.142529 0.858434
Si Si5 0.156844 0.773606 0.221445
Si Si6 0.581643 0.591177 0.573548
Si Si7 0.463067 0.205510 0.594267
O O1 0.725617 0.221243 0.380567
O O2 0.043280 0.323633 0.321089
O O3 0.754552 0.951304 0.367427
O O4 0.133448 0.186246 0.056359
O O5 0.634629 0.321273 0.734089
O O6 0.796742 0.385968 0.815813
O O7 0.500000 0.500000 0.000000
O O8 0.547231 0.285805 0.262576
O O9 0.673715 0.026577 0.104143
O O10 0.309025 0.971699 0.230607
O O11 0.766901 0.212009 0.939044
O O12 0.363092 0.095878 0.731184
O O13 0.872032 0.719600 0.415195
O O14 0.500000 0.500000 0.500000
O O15 0.478487 0.408193 0.656108
#
# Coordination Sequence:
#
# PCOD8019992 Si02
#       7
#     2   2   2   2   2   2   2
#     4  10  22  42  64  91 136 168 217 275 323 387
#     4   9  19  39  68  98 126 162 219 278 321 390
#     4  10  25  44  73  97 133 178 220 277 334 396
#     4  10  23  42  68 100 123 170 227 270 336 382
#     4  10  22  48  68  97 135 175 224 275 334 388
#     4  12  28  44  65 101 140 179 222 267 336 404
#     4  11  25  41  66  94 133 178 216 272 327 394
#
# _framework density 22.713964000000001
#
# number of rings (size 3 to 8) (size 9 to 14) (size 15 to 20)
#    0.000    1.714    1.429    0.857   10.000    1.143 
#    0.000    0.000    0.000    0.000    0.000    0.000 
#    0.000    0.000    0.000    0.000    0.000    0.000 
#
# Total GULP energy -173446.251527 kJ/mol
# GULP energy per Si atom -12389.017966 kJ/mol
# Density = 2.266227 g / cm^3
# Si number density = 22.713964 Si / 1000 Ang^3
#
#
#
# Elastic Constant Matrix: (Units=GPa)
#
#
# Indices 1 2 3 4 5 6 
#
# 1 74.4867 24.3130 34.8775 3.4115 0.8342 -10.0575
# 2 24.3130 148.3998 54.1924 0.6272 -10.9156 15.3954
# 3 34.8775 54.1924 88.8383 1.0311 -8.1688 -1.7177
# 4 3.4115 0.6272 1.0311 43.9267 8.1350 -9.8970
# 5 0.8342 -10.9156 -8.1688 8.1350 29.2076 -5.7532
# 6 -10.0575 15.3954 -1.7177 -9.8970 -5.7532 26.7870
#
#
#
# Elastic Compliance Matrix: (Units=1/GPa)
#
#
# Indices 1 2 3 4 5 6 
#
# 1 0.017687 -0.001552 -0.006012 0.000670 -0.001563 0.007059
# 2 -0.001552 0.009758 -0.005336 -0.001686 0.001314 -0.006874
# 3 -0.006012 -0.005336 0.017245 0.000098 0.003506 0.002705
# 4 0.000670 -0.001686 0.000098 0.025993 -0.005981 0.009546
# 5 -0.001563 0.001314 0.003506 -0.005981 0.038389 0.004918
# 6 0.007059 -0.006874 0.002705 0.009546 0.004918 0.048689
#
#
# Mechanical properties :
#
#
# Convention : Reuss Voigt Hill
#
# Bulk Modulus (GPa) = 52.93699 59.83229 56.38464
# Shear Modulus (GPa) = 26.33549 33.20706 29.77127
#
# Velocity S-wave (km/s) = 3.40875 3.82772 3.62429
# Velocity P-wave (km/s) = 6.23292 6.77746 6.51089
#
# Compressibility (1/GPa) = 0.01889038
#
# Stress axis : x y z
#
# Youngs Moduli (GPa) = 56.53914 102.47675 57.98807
#
# Poissons Ratio (x) = 0.15909 0.34861
# Poissons Ratio (y) = 0.08778 0.30940
# Poissons Ratio (z) = 0.33990 0.54678
#
# Static dielectric constant tensor:
#      x y z
#    x 4.150710 0.348170 -0.338830 
#    y 0.348170 4.950980 -0.265460 
#    z -0.338830 -0.265460 3.919600 
# 
# 
# High freq. dielectric constant tensor:
#      x y z
#    x 1.877040 0.017000 -0.022160 
#    y 0.017000 1.923840 -0.000330 
#    z -0.022160 -0.000330 1.891180 
# 
# From -- ./inp_files/462538.got.cif
#   From: 2010.06.25/outbox.cif.g09.slc.cpg/sg2_232_cif.got.tgz:462538.got - 2010.06.27 13:26:56.
