data_PCOD8019816
_publ_section_title
;
Structure prediction by ZEFSAII (Michael W. Deem and Ramdas Pophale) SiO2 
 PCOD8019816
Probable space group: P -1
;
_chemical_formula_sum "Si O2"
_cell_formula_units_Z 16
_cell_length_a 11.573416
_cell_length_b 14.188008
_cell_length_c 8.610387
_cell_angle_alpha 114.210328
_cell_angle_beta 73.586735
_cell_angle_gamma 146.640123
_cell_volume 704.007762
_symmetry_space_group_name_H-M "P -1"
_symmetry_group_IT_number 2
_symmetry_cell_setting 'triclinic'
loop_
_space_group_symop_operation_xyz
x,y,z
-x,-y,-z
loop_
_atom_site_type_symbol
_atom_site_label
_atom_site_fract_x
_atom_site_fract_y
_atom_site_fract_z
Si Si1 0.054397 0.674286 0.290903
Si Si2 0.470565 0.630787 0.222074
Si Si3 0.084897 0.999321 0.817952
Si Si4 0.631627 0.627623 0.684332
Si Si5 0.882364 0.479472 0.666314
Si Si6 0.821065 0.156712 0.310030
Si Si7 0.627714 0.382698 0.087352
Si Si8 0.574118 0.102290 0.885554
O O1 0.091222 0.575513 0.231779
O O2 0.106483 0.773553 0.493938
O O3 0.215720 0.811457 0.183727
O O4 0.827226 0.548137 0.232575
O O5 0.405025 0.481066 0.236941
O O6 0.363953 0.658124 0.365361
O O7 0.728757 0.813710 0.228644
O O8 0.351401 0.551406 0.046856
O O9 0.200013 0.977707 0.818297
O O10 0.880169 0.816853 0.672773
O O11 0.000000 0.000000 0.000000
O O12 0.500000 0.500000 0.500000
O O13 0.566389 0.695812 0.810106
O O14 0.000000 0.500000 0.500000
O O15 0.013991 0.678332 0.764881
O O16 0.589191 0.039011 0.287634
O O17 0.595241 0.238611 0.997402
O O18 0.500000 0.000000 0.000000
#
# Coordination Sequence:
#
# PCOD8019816 Si02
#       8
#     2   2   2   2   2   2   2   2
#     4  11  24  44  68 102 144 188 239 297 367 442
#     4  12  25  47  78 103 146 194 245 300 367 430
#     4  12  24  46  75 107 141 189 248 300 357 431
#     4  12  28  50  75 107 148 191 248 303 368 434
#     4  10  22  41  74 106 141 189 235 296 374 429
#     4  11  22  43  69 100 142 186 236 298 366 426
#     4  12  25  46  69 104 140 192 245 294 362 435
#     4  12  25  42  66 108 145 187 242 303 362 434
#
# _framework density 22.727022999999999
#
# number of rings (size 3 to 8) (size 9 to 14) (size 15 to 20)
#    0.000    0.500    5.000    2.625    3.500    1.500 
#    4.500    0.000    0.000    0.000    0.000    0.000 
#    0.000    0.000    0.000    0.000    0.000    0.000 
#
# Total GULP energy -198214.166448 kJ/mol
# GULP energy per Si atom -12388.385403 kJ/mol
# Density = 2.267530 g / cm^3
# Si number density = 22.727023 Si / 1000 Ang^3
#
#
#
# Elastic Constant Matrix: (Units=GPa)
#
#
# Indices 1 2 3 4 5 6 
#
# 1 100.6838 42.4189 35.3894 -4.7637 -0.3170 15.7690
# 2 42.4189 116.6993 34.0990 -5.6637 1.1556 26.4383
# 3 35.3894 34.0990 103.3887 4.0746 11.4679 4.4962
# 4 -4.7637 -5.6637 4.0746 33.4740 10.6738 2.6814
# 5 -0.3170 1.1556 11.4679 10.6738 40.0888 0.7865
# 6 15.7690 26.4383 4.4962 2.6814 0.7865 46.1431
#
#
#
# Elastic Compliance Matrix: (Units=1/GPa)
#
#
# Indices 1 2 3 4 5 6 
#
# 1 0.012896 -0.003053 -0.003454 0.001686 0.000777 -0.002432
# 2 -0.003053 0.011860 -0.002703 0.002390 -0.000119 -0.005626
# 3 -0.003454 -0.002703 0.012069 -0.001594 -0.003011 0.001697
# 4 0.001686 0.002390 -0.001594 0.033713 -0.008505 -0.003604
# 5 0.000777 -0.000119 -0.003011 -0.008505 0.028078 0.000112
# 6 -0.002432 -0.005626 0.001697 -0.003604 0.000112 0.025768
#
#
# Mechanical properties :
#
#
# Convention : Reuss Voigt Hill
#
# Bulk Modulus (GPa) = 54.33369 60.50961 57.42165
# Shear Modulus (GPa) = 33.57084 37.86548 35.71816
#
# Velocity S-wave (km/s) = 3.84752 4.08622 3.96866
# Velocity P-wave (km/s) = 6.61036 6.99609 6.80596
#
# Compressibility (1/GPa) = 0.01840479
#
# Stress axis : x y z
#
# Youngs Moduli (GPa) = 77.54606 84.31560 82.85693
#
# Poissons Ratio (x) = 0.25741 0.28619
# Poissons Ratio (y) = 0.23674 0.22396
# Poissons Ratio (z) = 0.26785 0.22791
#
# Static dielectric constant tensor:
#      x y z
#    x 4.092930 0.256220 -0.137830 
#    y 0.256220 4.741950 -0.004040 
#    z -0.137830 -0.004040 3.998240 
# 
# 
# High freq. dielectric constant tensor:
#      x y z
#    x 1.908860 0.016260 -0.007920 
#    y 0.016260 1.908750 -0.002070 
#    z -0.007920 -0.002070 1.881430 
# 
# From -- ./inp_files/273728.got.cif
#   From: 2010.06.25/outbox.cif.g09.slc.cpg/sg2_137_cif.got.tgz:273728.got - 2010.06.27 13:26:56.
