data_PCOD8019724
_publ_section_title
;
Structure prediction by ZEFSAII (Michael W. Deem and Ramdas Pophale) SiO2 
 PCOD8019724
Probable space group: P -1
;
_chemical_formula_sum "Si O2"
_cell_formula_units_Z 16
_cell_length_a 15.651720
_cell_length_b 8.621513
_cell_length_c 15.498316
_cell_angle_alpha 130.059358
_cell_angle_beta 141.559450
_cell_angle_gamma 80.001001
_cell_volume 716.029230
_symmetry_space_group_name_H-M "P -1"
_symmetry_group_IT_number 2
_symmetry_cell_setting 'triclinic'
loop_
_space_group_symop_operation_xyz
x,y,z
-x,-y,-z
loop_
_atom_site_type_symbol
_atom_site_label
_atom_site_fract_x
_atom_site_fract_y
_atom_site_fract_z
Si Si1 0.486584 0.781868 0.465409
Si Si2 0.904704 0.117018 0.988146
Si Si3 0.264846 0.282232 0.986112
Si Si4 0.755688 0.445553 0.274997
Si Si5 0.917660 0.260431 0.245083
Si Si6 0.128958 0.973739 0.447997
Si Si7 0.608575 0.745342 0.101956
Si Si8 0.149277 0.623032 0.238407
O O1 0.422189 0.533169 0.264416
O O2 0.325754 0.656597 0.366503
O O3 0.500000 0.000000 0.500000
O O4 0.686529 0.915020 0.711525
O O5 0.905840 0.151023 0.103247
O O6 0.036680 0.420310 0.158339
O O7 0.000000 0.000000 0.000000
O O8 0.357146 0.346854 0.989320
O O9 0.097986 0.276760 0.836168
O O10 0.185799 0.992319 0.858445
O O11 0.816111 0.375464 0.213714
O O12 0.862034 0.476648 0.456789
O O13 0.810328 0.735425 0.414300
O O14 0.525280 0.200158 0.010715
O O15 0.227438 0.923334 0.438035
O O16 0.193669 0.975913 0.597448
O O17 0.500000 0.500000 0.000000
O O18 0.000000 0.500000 0.000000
#
# Coordination Sequence:
#
# PCOD8019724 Si02
#       8
#     2   2   2   2   2   2   2   2
#     4  12  27  45  76 105 144 190 242 295 363 421
#     4  12  29  47  76 106 148 188 240 301 355 431
#     4  11  23  42  68  96 139 186 231 290 359 427
#     4   9  22  43  67  93 139 181 227 288 354 415
#     4  10  24  45  66  96 140 185 230 282 363 426
#     4  10  22  41  70  98 137 174 237 293 344 419
#     4  10  23  37  66  97 129 173 234 285 344 405
#     4  12  25  47  73 109 140 190 242 292 361 424
#
# _framework density 22.345454
#
# number of rings (size 3 to 8) (size 9 to 14) (size 15 to 20)
#    0.000    1.250    2.500    1.125    8.750    8.500 
#    0.000    0.000    0.000    0.000    0.000    0.000 
#    0.000    0.000    0.000    0.000    0.000    0.000 
#
# Total GULP energy -198306.895804 kJ/mol
# GULP energy per Si atom -12394.180988 kJ/mol
# Density = 2.229460 g / cm^3
# Si number density = 22.345454 Si / 1000 Ang^3
#
#
#
# Elastic Constant Matrix: (Units=GPa)
#
#
# Indices 1 2 3 4 5 6 
#
# 1 176.8884 43.3539 70.1142 -15.5997 -25.3626 -13.3600
# 2 43.3539 70.1876 34.9743 -8.5010 -6.5637 -10.0805
# 3 70.1142 34.9743 134.0085 -31.2953 -3.9143 -15.7363
# 4 -15.5997 -8.5010 -31.2953 38.6466 -8.2735 4.8491
# 5 -25.3626 -6.5637 -3.9143 -8.2735 44.2904 4.3004
# 6 -13.3600 -10.0805 -15.7363 4.8491 4.3004 44.0119
#
#
#
# Elastic Compliance Matrix: (Units=1/GPa)
#
#
# Indices 1 2 3 4 5 6 
#
# 1 0.008379 -0.003031 -0.003216 0.000995 0.004234 0.000176
# 2 -0.003031 0.017877 -0.002737 0.000342 0.000531 0.002106
# 3 -0.003216 -0.002737 0.011808 0.007438 0.000011 0.001798
# 4 0.000995 0.000342 0.007438 0.034237 0.007819 -0.001496
# 5 0.004234 0.000531 0.000011 0.007819 0.026743 -0.002064
# 6 0.000176 0.002106 0.001798 -0.001496 -0.002064 0.024266
#
#
# Mechanical properties :
#
#
# Convention : Reuss Voigt Hill
#
# Bulk Modulus (GPa) = 49.76292 75.32992 62.54642
# Shear Modulus (GPa) = 33.78863 40.89925 37.34394
#
# Velocity S-wave (km/s) = 3.89280 4.28286 4.09248
# Velocity P-wave (km/s) = 6.52099 7.63164 7.09807
#
# Compressibility (1/GPa) = 0.02009528
#
# Stress axis : x y z
#
# Youngs Moduli (GPa) = 119.34420 55.93659 84.68999
#
# Poissons Ratio (x) = 0.16956 0.27237
# Poissons Ratio (y) = 0.36177 0.23180
# Poissons Ratio (z) = 0.38382 0.15310
#
# Static dielectric constant tensor:
#      x y z
#    x 4.161890 -0.296540 0.275120 
#    y -0.296540 4.332750 -0.658540 
#    z 0.275120 -0.658540 5.347370 
# 
# 
# High freq. dielectric constant tensor:
#      x y z
#    x 1.888330 -0.017740 -0.004830 
#    y -0.017740 1.870150 -0.014140 
#    z -0.004830 -0.014140 1.897350 
# 
# From -- ./inp_files/315159.got.cif
#   From: 2010.06.25/outbox.cif.g09.slc.cpg/sg2_158_cif.got.tgz:315159.got - 2010.06.27 13:26:56.
