data_PCOD8019282
_publ_section_title
;
Structure prediction by ZEFSAII (Michael W. Deem and Ramdas Pophale) SiO2 
 PCOD8019282
Probable space group: P -1
;
_chemical_formula_sum "Si O2"
_cell_formula_units_Z 12
_cell_length_a 10.976314
_cell_length_b 13.436627
_cell_length_c 15.866001
_cell_angle_alpha 17.465784
_cell_angle_beta 129.860319
_cell_angle_gamma 123.027140
_cell_volume 516.275567
_symmetry_space_group_name_H-M "P -1"
_symmetry_group_IT_number 2
_symmetry_cell_setting 'triclinic'
loop_
_space_group_symop_operation_xyz
x,y,z
-x,-y,-z
loop_
_atom_site_type_symbol
_atom_site_label
_atom_site_fract_x
_atom_site_fract_y
_atom_site_fract_z
Si Si1 0.887841 0.833330 0.336805
Si Si2 0.307379 0.687396 0.272586
Si Si3 0.414199 0.553293 0.043277
Si Si4 0.623877 0.908893 0.747441
Si Si5 0.862776 0.808443 0.080973
Si Si6 0.920911 0.192859 0.226510
O O1 0.769298 0.595054 0.494023
O O2 0.046697 0.606091 0.536142
O O3 0.961281 0.942934 0.366034
O O4 0.782907 0.179370 0.963290
O O5 0.500000 0.500000 0.500000
O O6 0.279447 0.031356 0.041814
O O7 0.335105 0.384881 0.068839
O O8 0.568067 0.279543 0.377725
O O9 0.480066 0.858076 0.787312
O O10 0.277039 0.688824 0.944436
O O11 0.788938 0.884289 0.892889
O O12 0.000000 0.000000 0.000000
O O13 0.000000 0.000000 0.500000
O O14 0.000000 0.500000 0.000000
#
# Coordination Sequence:
#
# PCOD8019282 Si02
#       6
#     2   2   2   2   2   2
#     4  11  25  44  66  98 138 175 227 276 339 410
#     4  11  25  43  68  98 132 178 229 279 340 396
#     4  10  23  40  64  98 127 174 226 273 345 396
#     4  10  22  41  66  93 134 171 221 285 332 407
#     4  10  24  44  69  99 138 181 231 278 347 404
#     4  12  25  42  69  98 139 179 228 278 347 412
#
# _framework density 23.243402
#
# number of rings (size 3 to 8) (size 9 to 14) (size 15 to 20)
#    0.000    1.333    0.000    4.000    4.667    9.333 
#    0.000    0.000    0.000    0.000    0.000    0.000 
#    0.000    0.000    0.000    0.000    0.000    0.000 
#
# Total GULP energy -148812.958954 kJ/mol
# GULP energy per Si atom -12401.079913 kJ/mol
# Density = 2.319050 g / cm^3
# Si number density = 23.243402 Si / 1000 Ang^3
#
#
#
# Elastic Constant Matrix: (Units=GPa)
#
#
# Indices 1 2 3 4 5 6 
#
# 1 90.9326 15.6956 44.3006 -9.0427 15.5547 -9.8861
# 2 15.6956 129.2370 45.6681 13.8333 20.0797 -7.6720
# 3 44.3006 45.6681 106.6336 13.9242 17.6297 -9.7879
# 4 -9.0427 13.8333 13.9242 46.7864 -9.2499 3.9849
# 5 15.5547 20.0797 17.6297 -9.2499 47.1390 1.7908
# 6 -9.8861 -7.6720 -9.7879 3.9849 1.7908 27.9463
#
#
#
# Elastic Compliance Matrix: (Units=1/GPa)
#
#
# Indices 1 2 3 4 5 6 
#
# 1 0.015096 0.000493 -0.006402 0.004021 -0.002114 0.002796
# 2 0.000493 0.009845 -0.003204 -0.002818 -0.003802 0.002400
# 3 -0.006402 -0.003204 0.014996 -0.005685 -0.003366 0.003135
# 4 0.004021 -0.002818 -0.005685 0.026625 0.007438 -0.005616
# 5 -0.002114 -0.003802 -0.003366 0.007438 0.026467 -0.005727
# 6 0.002796 0.002400 0.003135 -0.005616 -0.005727 0.039696
#
#
# Mechanical properties :
#
#
# Convention : Reuss Voigt Hill
#
# Bulk Modulus (GPa) = 46.05834 59.79241 52.92538
# Shear Modulus (GPa) = 31.60766 39.11692 35.36229
#
# Velocity S-wave (km/s) = 3.69162 4.10680 3.90473
# Velocity P-wave (km/s) = 6.16680 6.94752 6.56877
#
# Compressibility (1/GPa) = 0.02171159
#
# Stress axis : x y z
#
# Youngs Moduli (GPa) = 66.24113 101.57452 66.68305
#
# Poissons Ratio (x) = -0.05005 0.42688
# Poissons Ratio (y) = -0.03264 0.21366
# Poissons Ratio (z) = 0.42405 0.32545
#
# Static dielectric constant tensor:
#      x y z
#    x 4.175420 -0.285870 0.284770 
#    y -0.285870 4.385590 -0.168180 
#    z 0.284770 -0.168180 4.438750 
# 
# 
# High freq. dielectric constant tensor:
#      x y z
#    x 1.914120 -0.005130 0.002550 
#    y -0.005130 1.929360 0.004460 
#    z 0.002550 0.004460 1.925660 
# 
# From -- ./inp_files/24937.got.cif
#   From: 2010.06.25/outbox.cif.g09.slc.cpg/sg2_13_cif.got.tgz:24937.got - 2010.06.27 13:26:56.
