data_PCOD8019876
_publ_section_title
;
Structure prediction by ZEFSAII (Michael W. Deem and Ramdas Pophale) SiO2 
 PCOD8019876
Probable space group: P -1
;
_chemical_formula_sum "Si O2"
_cell_formula_units_Z 12
_cell_length_a 15.889763
_cell_length_b 9.832541
_cell_length_c 13.651800
_cell_angle_alpha 151.459335
_cell_angle_beta 35.736775
_cell_angle_gamma 132.565059
_cell_volume 590.045992
_symmetry_space_group_name_H-M "P -1"
_symmetry_group_IT_number 2
_symmetry_cell_setting 'triclinic'
loop_
_space_group_symop_operation_xyz
x,y,z
-x,-y,-z
loop_
_atom_site_type_symbol
_atom_site_label
_atom_site_fract_x
_atom_site_fract_y
_atom_site_fract_z
Si Si1 0.925554 0.646742 0.758290
Si Si2 0.427303 0.344681 0.204450
Si Si3 0.162307 0.705968 0.733770
Si Si4 0.329143 0.771244 0.958257
Si Si5 0.731278 0.236786 0.777781
Si Si6 0.160297 0.411189 0.751874
O O1 0.797157 0.472578 0.801753
O O2 0.000000 0.500000 0.500000
O O3 0.036341 0.648850 0.743472
O O4 0.857810 0.971092 0.001927
O O5 0.318174 0.642670 0.489999
O O6 0.502185 0.327796 0.231776
O O7 0.554822 0.311495 0.980913
O O8 0.323302 0.096911 0.131826
O O9 0.162763 0.479602 0.678186
O O10 0.277427 0.579881 0.800864
O O11 0.227263 0.750828 0.137931
O O12 0.791118 0.922806 0.482342
O O13 0.000000 0.500000 0.000000
#
# Coordination Sequence:
#
# PCOD8019876 Si02
#       6
#     2   2   2   2   2   2
#     4  11  26  44  61  87 132 170 212 259 300 375
#     4   9  20  42  65  93 127 166 193 270 318 356
#     4  11  24  42  64  91 125 169 214 249 318 371
#     4   9  20  40  63  98 131 148 205 263 316 366
#     4  10  22  42  61  96 127 155 212 261 302 377
#     4  12  23  35  70 101 120 169 205 255 324 368
#
# _framework density 20.337399000000001
#
# number of rings (size 3 to 8) (size 9 to 14) (size 15 to 20)
#    1.000    0.667    1.667    2.000    4.667    6.000 
#    0.000    0.833    0.000    0.000    0.000    0.000 
#    0.000    0.000    0.000    0.000    0.000    0.000 
#
# Total GULP energy -148743.026115 kJ/mol
# GULP energy per Si atom -12395.252176 kJ/mol
# Density = 2.029111 g / cm^3
# Si number density = 20.337399 Si / 1000 Ang^3
#
#
#
# Elastic Constant Matrix: (Units=GPa)
#
#
# Indices 1 2 3 4 5 6 
#
# 1 43.3880 9.2737 9.8283 11.2910 7.9000 13.7145
# 2 9.2737 112.0848 35.5677 -5.8221 1.6503 6.5960
# 3 9.8283 35.5677 132.7931 0.0793 -15.1457 14.3365
# 4 11.2910 -5.8221 0.0793 34.4187 3.8418 4.2868
# 5 7.9000 1.6503 -15.1457 3.8418 35.5909 -2.4932
# 6 13.7145 6.5960 14.3365 4.2868 -2.4932 17.7834
#
#
#
# Elastic Compliance Matrix: (Units=1/GPa)
#
#
# Indices 1 2 3 4 5 6 
#
# 1 0.035171 -0.001528 -0.000438 -0.007612 -0.008895 -0.025616
# 2 -0.001528 0.010120 -0.002645 0.002561 -0.001622 -0.001288
# 3 -0.000438 -0.002645 0.009314 -0.000045 0.003793 -0.005647
# 4 -0.007612 0.002561 -0.000045 0.032630 -0.002196 -0.003217
# 5 -0.008895 -0.001622 0.003793 -0.002196 0.032664 0.009513
# 6 -0.025616 -0.001288 -0.005647 -0.003217 0.009513 0.083126
#
#
# Mechanical properties :
#
#
# Convention : Reuss Voigt Hill
#
# Bulk Modulus (GPa) = 22.03490 44.17839 33.10665
# Shear Modulus (GPa) = 21.99002 33.13166 27.56084
#
# Velocity S-wave (km/s) = 3.29182 4.04059 3.68527
# Velocity P-wave (km/s) = 5.03054 6.59836 5.86706
#
# Compressibility (1/GPa) = 0.04538255
#
# Stress axis : x y z
#
# Youngs Moduli (GPa) = 28.43231 98.81149 107.36935
#
# Poissons Ratio (x) = 0.15097 0.04706
# Poissons Ratio (y) = 0.04344 0.28400
# Poissons Ratio (z) = 0.01246 0.26137
#
# Static dielectric constant tensor:
#      x y z
#    x 3.476150 0.084680 -0.068450 
#    y 0.084680 3.533830 -0.025260 
#    z -0.068450 -0.025260 3.859370 
# 
# 
# High freq. dielectric constant tensor:
#      x y z
#    x 1.775940 0.011700 -0.003440 
#    y 0.011700 1.786190 -0.001950 
#    z -0.003440 -0.001950 1.808380 
# 
# From -- ./inp_files/134579.got.cif
#   From: 2010.06.25/outbox.cif.g09.slc.cpg/sg2_68_cif.got.tgz:134579.got - 2010.06.27 13:26:56.
