data_PCOD8019979
_publ_section_title
;
Structure prediction by ZEFSAII (Michael W. Deem and Ramdas Pophale) SiO2 
 PCOD8019979
Probable space group: P -1
;
_chemical_formula_sum "Si O2"
_cell_formula_units_Z 16
_cell_length_a 14.297474
_cell_length_b 8.832741
_cell_length_c 11.722475
_cell_angle_alpha 69.732992
_cell_angle_beta 41.717776
_cell_angle_gamma 50.836160
_cell_volume 741.063996
_symmetry_space_group_name_H-M "P -1"
_symmetry_group_IT_number 2
_symmetry_cell_setting 'triclinic'
loop_
_space_group_symop_operation_xyz
x,y,z
-x,-y,-z
loop_
_atom_site_type_symbol
_atom_site_label
_atom_site_fract_x
_atom_site_fract_y
_atom_site_fract_z
Si Si1 0.240138 0.118184 0.359117
Si Si2 0.376842 0.342223 0.251809
Si Si3 0.026508 0.973144 0.852570
Si Si4 0.359569 0.442428 0.499845
Si Si5 0.993225 0.648110 0.877128
Si Si6 0.605635 0.228721 0.529837
Si Si7 0.717280 0.988658 0.898998
Si Si8 0.871636 0.217679 0.721271
O O1 0.231401 0.303143 0.373256
O O2 0.047480 0.171760 0.518799
O O3 0.384902 0.922723 0.350726
O O4 0.325842 0.060841 0.170535
O O5 0.421589 0.337904 0.346313
O O6 0.298014 0.559929 0.212725
O O7 0.551424 0.169700 0.071877
O O8 0.994102 0.810213 0.903201
O O9 0.222740 0.888433 0.671797
O O10 0.896501 0.180672 0.845499
O O11 0.000000 0.000000 0.000000
O O12 0.450215 0.295918 0.564995
O O13 0.409420 0.596909 0.427892
O O14 0.155155 0.537556 0.669849
O O15 0.813770 0.776418 0.934306
O O16 0.000000 0.500000 0.000000
O O17 0.846311 0.053040 0.740289
#
# Coordination Sequence:
#
# PCOD8019979 Si02
#       8
#     2   2   2   2   2   2   2   2
#     4  11  23  42  64  91 128 163 209 257 318 362
#     4  12  25  39  65  99 127 159 206 269 312 360
#     4   9  20  38  62  92 122 158 205 255 301 366
#     4  10  22  42  64  89 126 165 213 244 313 378
#     4  10  23  40  62  89 122 165 203 250 312 365
#     4   9  21  40  65  89 119 172 205 253 301 378
#     4  11  24  43  64  92 128 165 211 255 311 374
#     4  10  22  42  65  90 122 173 210 245 313 376
#
# _framework density 21.590578000000001
#
# number of rings (size 3 to 8) (size 9 to 14) (size 15 to 20)
#    0.000    1.750    0.000    3.750    5.250    3.500 
#    4.500    0.000    0.000    0.000    0.000    0.000 
#    0.000    0.000    0.000    0.000    0.000    0.000 
#
# Total GULP energy -198312.861682 kJ/mol
# GULP energy per Si atom -12394.553855 kJ/mol
# Density = 2.154144 g / cm^3
# Si number density = 21.590578 Si / 1000 Ang^3
#
#
#
# Elastic Constant Matrix: (Units=GPa)
#
#
# Indices 1 2 3 4 5 6 
#
# 1 112.1258 45.7395 57.0481 9.4213 35.5487 -5.7094
# 2 45.7395 132.6373 35.8040 -8.2951 14.2986 -31.8388
# 3 57.0481 35.8040 86.6625 4.2862 24.3001 -6.1195
# 4 9.4213 -8.2951 4.2862 29.7844 0.8701 -4.5026
# 5 35.5487 14.2986 24.3001 0.8701 47.9523 0.1211
# 6 -5.7094 -31.8388 -6.1195 -4.5026 0.1211 38.8417
#
#
#
# Elastic Compliance Matrix: (Units=1/GPa)
#
#
# Indices 1 2 3 4 5 6 
#
# 1 0.017056 -0.004064 -0.007318 -0.005646 -0.007614 -0.002608
# 2 -0.004064 0.012247 -0.002086 0.006480 0.000276 0.009863
# 3 -0.007318 -0.002086 0.018133 -0.000786 -0.003128 -0.000010
# 4 -0.005646 0.006480 -0.000786 0.038555 0.001929 0.008821
# 5 -0.007614 0.000276 -0.003128 0.001929 0.027970 -0.001250
# 6 -0.002608 0.009863 -0.000010 0.008821 -0.001250 0.034472
#
#
# Mechanical properties :
#
#
# Convention : Reuss Voigt Hill
#
# Bulk Modulus (GPa) = 48.78089 67.62320 58.20205
# Shear Modulus (GPa) = 27.44206 36.17128 31.80667
#
# Velocity S-wave (km/s) = 3.56900 4.09752 3.84236
# Velocity P-wave (km/s) = 6.29495 7.33314 6.83379
#
# Compressibility (1/GPa) = 0.02049983
#
# Stress axis : x y z
#
# Youngs Moduli (GPa) = 58.63200 81.65212 55.14775
#
# Poissons Ratio (x) = 0.33187 0.40357
# Poissons Ratio (y) = 0.23831 0.11501
# Poissons Ratio (z) = 0.42907 0.17029
#
# Static dielectric constant tensor:
#      x y z
#    x 4.122650 -0.134940 0.014150 
#    y -0.134940 4.089370 -0.044660 
#    z 0.014150 -0.044660 3.788610 
# 
# 
# High freq. dielectric constant tensor:
#      x y z
#    x 1.855530 -0.012790 0.001000 
#    y -0.012790 1.850420 -0.004900 
#    z 0.001000 -0.004900 1.841350 
# 
# From -- ./inp_files/208906.got.cif
#   From: 2010.06.25/outbox.cif.g09.slc.cpg/sg2_105_cif.got.tgz:208906.got - 2010.06.27 13:26:56.
