data_PCOD8019663
_publ_section_title
;
Structure prediction by ZEFSAII (Michael W. Deem and Ramdas Pophale) SiO2 
 PCOD8019663
Probable space group: P -1
;
_chemical_formula_sum "Si O2"
_cell_formula_units_Z 16
_cell_length_a 12.276396
_cell_length_b 15.084319
_cell_length_c 9.162241
_cell_angle_alpha 109.881359
_cell_angle_beta 126.604658
_cell_angle_gamma 113.936898
_cell_volume 758.056076
_symmetry_space_group_name_H-M "P -1"
_symmetry_group_IT_number 2
_symmetry_cell_setting 'triclinic'
loop_
_space_group_symop_operation_xyz
x,y,z
-x,-y,-z
loop_
_atom_site_type_symbol
_atom_site_label
_atom_site_fract_x
_atom_site_fract_y
_atom_site_fract_z
Si Si1 0.913984 0.565669 0.341891
Si Si2 0.621890 0.245808 0.098311
Si Si3 0.814904 0.914938 0.181793
Si Si4 0.092422 0.127250 0.257299
Si Si5 0.623575 0.156323 0.761095
Si Si6 0.907371 0.662581 0.671946
Si Si7 0.502508 0.394722 0.390673
Si Si8 0.578906 0.337233 0.717559
O O1 0.752058 0.397410 0.193634
O O2 0.905800 0.652376 0.488598
O O3 0.180941 0.687140 0.601717
O O4 0.797980 0.515005 0.062524
O O5 0.408652 0.157513 0.976191
O O6 0.527279 0.119847 0.828572
O O7 0.739147 0.773781 0.966764
O O8 0.000000 0.000000 0.500000
O O9 0.935625 0.047027 0.230299
O O10 0.087286 0.223979 0.222997
O O11 0.352471 0.245158 0.572575
O O12 0.000000 0.000000 0.000000
O O13 0.598165 0.234693 0.683433
O O14 0.500000 0.000000 0.500000
O O15 0.889477 0.279923 0.056943
O O16 0.684842 0.486456 0.458729
O O17 0.500000 0.500000 0.500000
O O18 0.566151 0.359300 0.551559
#
# Coordination Sequence:
#
# PCOD8019663 Si02
#       8
#     2   2   2   2   2   2   2   2
#     4   9  19  39  66  95 125 171 222 278 331 400
#     4   9  19  40  65  95 134 170 222 278 336 396
#     4  12  25  42  69  99 138 183 226 284 348 402
#     4  12  24  43  65  97 142 178 221 280 348 403
#     4  10  22  41  69  98 136 180 224 272 350 416
#     4  11  23  42  68  96 132 179 226 282 336 405
#     4  12  25  44  66 102 138 174 235 288 329 405
#     4  11  23  41  68  97 133 177 225 278 341 397
#
# _framework density 21.106615999999999
#
# number of rings (size 3 to 8) (size 9 to 14) (size 15 to 20)
#    0.000    1.250    3.750    3.000    0.000    3.000 
#    0.000    2.500    0.000    0.000    0.000    0.000 
#    0.000    0.000    0.000    0.000    0.000    0.000 
#
# Total GULP energy -198343.645916 kJ/mol
# GULP energy per Si atom -12396.477870 kJ/mol
# Density = 2.105858 g / cm^3
# Si number density = 21.106616 Si / 1000 Ang^3
#
#
#
# Elastic Constant Matrix: (Units=GPa)
#
#
# Indices 1 2 3 4 5 6 
#
# 1 107.0836 45.2462 67.3352 1.7780 6.5237 -6.2864
# 2 45.2462 105.6654 50.9213 -4.9966 4.1701 -5.4090
# 3 67.3352 50.9213 150.5282 -8.3499 -9.0018 -0.4452
# 4 1.7780 -4.9966 -8.3499 27.9662 -1.0239 2.7490
# 5 6.5237 4.1701 -9.0018 -1.0239 41.6847 5.3951
# 6 -6.2864 -5.4090 -0.4452 2.7490 5.3951 40.2302
#
#
#
# Elastic Compliance Matrix: (Units=1/GPa)
#
#
# Indices 1 2 3 4 5 6 
#
# 1 0.014977 -0.003441 -0.005957 -0.003733 -0.003710 0.002564
# 2 -0.003441 0.012402 -0.002654 0.001475 -0.001393 0.001186
# 3 -0.005957 -0.002654 0.010617 0.003403 0.003822 -0.001915
# 4 -0.003733 0.001475 0.003403 0.037687 0.002519 -0.003261
# 5 -0.003710 -0.001393 0.003822 0.002519 0.026167 -0.004406
# 6 0.002564 0.001186 -0.001915 -0.003261 -0.004406 0.026210
#
#
# Mechanical properties :
#
#
# Convention : Reuss Voigt Hill
#
# Bulk Modulus (GPa) = 71.98421 76.69806 74.34114
# Shear Modulus (GPa) = 31.88904 35.29453 33.59179
#
# Velocity S-wave (km/s) = 3.89119 4.09369 3.99372
# Velocity P-wave (km/s) = 7.37344 7.66562 7.52095
#
# Compressibility (1/GPa) = 0.01389193
#
# Stress axis : x y z
#
# Youngs Moduli (GPa) = 66.77037 80.63360 94.18632
#
# Poissons Ratio (x) = 0.27749 0.56104
# Poissons Ratio (y) = 0.22978 0.24996
# Poissons Ratio (z) = 0.39773 0.21399
#
# Static dielectric constant tensor:
#      x y z
#    x 4.168700 0.057550 -0.191860 
#    y 0.057550 3.804930 0.178200 
#    z -0.191860 0.178200 4.557290 
# 
# 
# High freq. dielectric constant tensor:
#      x y z
#    x 1.835740 -0.002650 -0.004790 
#    y -0.002650 1.802320 0.004200 
#    z -0.004790 0.004200 1.843730 
# 
# From -- ./inp_files/273917.got.cif
#   From: 2010.06.25/outbox.cif.g09.slc.cpg/sg2_137_cif.got.tgz:273917.got - 2010.06.27 13:26:56.
