data_PCOD8019623
_publ_section_title
;
Structure prediction by ZEFSAII (Michael W. Deem and Ramdas Pophale) SiO2 
 PCOD8019623
Probable space group: P -1
;
_chemical_formula_sum "Si O2"
_cell_formula_units_Z 14
_cell_length_a 14.832418
_cell_length_b 5.131588
_cell_length_c 8.903661
_cell_angle_alpha 92.298959
_cell_angle_beta 77.865139
_cell_angle_gamma 70.670368
_cell_volume 620.765963
_symmetry_space_group_name_H-M "P -1"
_symmetry_group_IT_number 2
_symmetry_cell_setting 'triclinic'
loop_
_space_group_symop_operation_xyz
x,y,z
-x,-y,-z
loop_
_atom_site_type_symbol
_atom_site_label
_atom_site_fract_x
_atom_site_fract_y
_atom_site_fract_z
Si Si1 0.886571 0.044675 0.540923
Si Si2 0.810683 0.612983 0.407708
Si Si3 0.593528 0.882813 0.569163
Si Si4 0.839041 0.978445 0.897961
Si Si5 0.351325 0.594982 0.963889
Si Si6 0.165333 0.512101 0.943286
Si Si7 0.447822 0.561460 0.239318
O O1 0.826445 0.355587 0.510398
O O2 0.851585 0.995613 0.716858
O O3 0.871150 0.808437 0.437661
O O4 0.000000 0.000000 0.500000
O O5 0.696129 0.804528 0.442594
O O6 0.852421 0.497515 0.227458
O O7 0.591361 0.593343 0.625249
O O8 0.500000 0.000000 0.500000
O O9 0.589890 0.109269 0.704215
O O10 0.721824 0.087183 0.980513
O O11 0.110627 0.826576 0.029121
O O12 0.883424 0.672284 0.946109
O O13 0.407518 0.485743 0.096405
O O14 0.282877 0.417063 0.935667
O O15 0.432900 0.563914 0.806491
#
# Coordination Sequence:
#
# PCOD8019623 Si02
#       7
#     2   2   2   2   2   2   2
#     4  12  27  49  75 104 133 177 235 289 346 422
#     4  12  25  46  72 102 143 183 224 287 355 393
#     4  12  26  40  63  98 144 177 232 265 339 393
#     4  10  22  41  69  93 132 179 217 285 338 406
#     4   9  23  37  65  85 141 167 241 261 346 375
#     4  10  23  40  69  98 131 182 220 279 342 408
#     4  11  24  36  59  96 126 190 226 282 307 414
#
# _framework density 22.552781
#
# number of rings (size 3 to 8) (size 9 to 14) (size 15 to 20)
#    0.857    0.286    0.000    6.000    8.000    1.143 
#    0.000    4.286    0.000    0.000    0.000    0.000 
#    0.000    0.000    0.000    0.000    0.000    0.000 
#
# Total GULP energy -173531.777825 kJ/mol
# GULP energy per Si atom -12395.126987 kJ/mol
# Density = 2.250145 g / cm^3
# Si number density = 22.552781 Si / 1000 Ang^3
#
#
#
# Elastic Constant Matrix: (Units=GPa)
#
#
# Indices 1 2 3 4 5 6 
#
# 1 76.3341 39.5114 31.2053 0.9558 14.1047 15.5787
# 2 39.5114 109.6923 28.0899 -9.7495 7.4865 30.4477
# 3 31.2053 28.0899 86.1127 -4.1823 18.6087 13.0618
# 4 0.9558 -9.7495 -4.1823 37.9426 8.2244 0.3382
# 5 14.1047 7.4865 18.6087 8.2244 23.6770 5.0725
# 6 15.5787 30.4477 13.0618 0.3382 5.0725 36.3954
#
#
#
# Elastic Compliance Matrix: (Units=1/GPa)
#
#
# Indices 1 2 3 4 5 6 
#
# 1 0.018618 -0.004984 -0.003604 -0.000823 -0.006042 -0.001656
# 2 -0.004984 0.014124 -0.001261 0.003652 0.000217 -0.009294
# 3 -0.003604 -0.001261 0.016205 0.004000 -0.011217 -0.001692
# 4 -0.000823 0.003652 0.004000 0.030808 -0.013979 -0.002476
# 5 -0.006042 0.000217 -0.011217 -0.013979 0.059818 -0.001777
# 6 -0.001656 -0.009294 -0.001692 -0.002476 -0.001777 0.036838
#
#
# Mechanical properties :
#
#
# Convention : Reuss Voigt Hill
#
# Bulk Modulus (GPa) = 34.18921 52.19469 43.19195
# Shear Modulus (GPa) = 24.28836 31.15849 27.72342
#
# Velocity S-wave (km/s) = 3.28526 3.72099 3.50990
# Velocity P-wave (km/s) = 5.43904 6.45404 5.96816
#
# Compressibility (1/GPa) = 0.02924900
#
# Stress axis : x y z
#
# Youngs Moduli (GPa) = 53.71033 70.80002 61.70983
#
# Poissons Ratio (x) = 0.35290 0.22240
# Poissons Ratio (y) = 0.26772 0.07781
# Poissons Ratio (z) = 0.19357 0.08927
#
# Static dielectric constant tensor:
#      x y z
#    x 4.105920 0.139030 -0.027150 
#    y 0.139030 4.046910 0.067880 
#    z -0.027150 0.067880 4.003220 
# 
# 
# High freq. dielectric constant tensor:
#      x y z
#    x 1.889790 0.011710 0.001740 
#    y 0.011710 1.887720 0.005880 
#    z 0.001740 0.005880 1.889270 
# 
# From -- ./inp_files/229709.got.cif
#   From: 2010.06.25/outbox.cif.g09.slc.cpg/sg2_115_cif.got.tgz:229709.got - 2010.06.27 13:26:56.
