data_PCOD8019793
_publ_section_title
;
Structure prediction by ZEFSAII (Michael W. Deem and Ramdas Pophale) SiO2 
 PCOD8019793
Probable space group: P -1
;
_chemical_formula_sum "Si O2"
_cell_formula_units_Z 16
_cell_length_a 13.164993
_cell_length_b 8.798708
_cell_length_c 9.277810
_cell_angle_alpha 55.752399
_cell_angle_beta 119.570296
_cell_angle_gamma 117.134861
_cell_volume 748.493562
_symmetry_space_group_name_H-M "P -1"
_symmetry_group_IT_number 2
_symmetry_cell_setting 'triclinic'
loop_
_space_group_symop_operation_xyz
x,y,z
-x,-y,-z
loop_
_atom_site_type_symbol
_atom_site_label
_atom_site_fract_x
_atom_site_fract_y
_atom_site_fract_z
Si Si1 0.809121 0.432875 0.168357
Si Si2 0.555174 0.491411 0.886089
Si Si3 0.841100 0.762345 0.471682
Si Si4 0.207396 0.635861 0.480668
Si Si5 0.522567 0.193006 0.495392
Si Si6 0.021158 0.793959 0.102634
Si Si7 0.934729 0.171477 0.210902
Si Si8 0.566065 0.693107 0.364078
O O1 0.781346 0.335391 0.356261
O O2 0.901323 0.636132 0.141390
O O3 0.856494 0.288349 0.179303
O O4 0.688029 0.462879 0.998682
O O5 0.560302 0.688560 0.704820
O O6 0.473005 0.317517 0.826033
O O7 0.500000 0.500000 0.000000
O O8 0.855503 0.582988 0.483780
O O9 0.708604 0.733831 0.457242
O O10 0.929932 0.785803 0.657053
O O11 0.873516 0.947259 0.294565
O O12 0.338862 0.689861 0.472636
O O13 0.128620 0.773344 0.293505
O O14 0.479280 0.150510 0.655075
O O15 0.500000 0.000000 0.500000
O O16 0.060362 0.761815 0.985283
O O17 0.000000 0.000000 0.000000
O O18 0.500000 0.500000 0.500000
#
# Coordination Sequence:
#
# PCOD8019793 Si02
#       8
#     2   2   2   2   2   2   2   2
#     4  12  26  45  71 100 143 180 230 292 348 409
#     4  11  23  45  70 101 137 181 230 281 354 411
#     4  11  23  47  73  98 143 177 239 279 358 407
#     4  12  25  48  71  98 144 182 230 288 353 416
#     4  11  26  43  69 103 137 182 233 288 349 413
#     4  12  29  44  70 104 136 184 236 285 347 413
#     4  11  28  43  72 105 136 185 231 293 344 416
#     4  10  22  41  72  99 134 185 224 286 345 413
#
# _framework density 21.376270000000002
#
# number of rings (size 3 to 8) (size 9 to 14) (size 15 to 20)
#    0.000    0.750    5.000    1.500   12.250    0.000 
#    0.000    1.250    0.000    0.000    0.000    0.000 
#    0.000    0.000    0.000    0.000    0.000    0.000 
#
# Total GULP energy -198450.354954 kJ/mol
# GULP energy per Si atom -12403.147185 kJ/mol
# Density = 2.132762 g / cm^3
# Si number density = 21.376270 Si / 1000 Ang^3
#
#
#
# Elastic Constant Matrix: (Units=GPa)
#
#
# Indices 1 2 3 4 5 6 
#
# 1 143.6651 42.1985 69.4069 16.6181 12.5977 -8.0008
# 2 42.1985 111.9754 46.9318 6.1392 6.3919 -19.4992
# 3 69.4069 46.9318 132.9524 8.8693 22.1064 -7.1536
# 4 16.6181 6.1392 8.8693 30.2663 -7.7345 -2.8937
# 5 12.5977 6.3919 22.1064 -7.7345 41.5858 11.6807
# 6 -8.0008 -19.4992 -7.1536 -2.8937 11.6807 44.6373
#
#
#
# Elastic Compliance Matrix: (Units=1/GPa)
#
#
# Indices 1 2 3 4 5 6 
#
# 1 0.010107 -0.001661 -0.004103 -0.004364 -0.001595 0.000563
# 2 -0.001661 0.011609 -0.002747 -0.000506 -0.001212 0.004618
# 3 -0.004103 -0.002747 0.011688 -0.001836 -0.005222 0.001185
# 4 -0.004364 -0.000506 -0.001836 0.038479 0.009926 -0.001400
# 5 -0.001595 -0.001212 -0.005222 0.009926 0.031971 -0.009375
# 6 0.000563 0.004618 0.001185 -0.001400 -0.009375 0.027073
#
#
# Mechanical properties :
#
#
# Convention : Reuss Voigt Hill
#
# Bulk Modulus (GPa) = 61.04617 78.40747 69.72682
# Shear Modulus (GPa) = 32.59230 38.63493 35.61361
#
# Velocity S-wave (km/s) = 3.90897 4.25593 4.08614
# Velocity P-wave (km/s) = 6.99952 7.80448 7.41294
#
# Compressibility (1/GPa) = 0.01638104
#
# Stress axis : x y z
#
# Youngs Moduli (GPa) = 98.94337 86.14147 85.55814
#
# Poissons Ratio (x) = 0.14305 0.35108
# Poissons Ratio (y) = 0.16431 0.23505
# Poissons Ratio (z) = 0.40601 0.23665
#
# Static dielectric constant tensor:
#      x y z
#    x 3.865830 -0.195640 0.192750 
#    y -0.195640 4.266000 0.228950 
#    z 0.192750 0.228950 3.834940 
# 
# 
# High freq. dielectric constant tensor:
#      x y z
#    x 1.855990 -0.009000 0.001810 
#    y -0.009000 1.845000 0.010860 
#    z 0.001810 0.010860 1.838280 
# 
# From -- ./inp_files/177408.got.cif
#   From: 2010.06.25/outbox.cif.g09.slc.cpg/sg2_89_cif.got.tgz:177408.got - 2010.06.27 13:26:56.
