data_PCOD8019981
_publ_section_title
;
Structure prediction by ZEFSAII (Michael W. Deem and Ramdas Pophale) SiO2 
 PCOD8019981
Probable space group: P -1
;
_chemical_formula_sum "Si O2"
_cell_formula_units_Z 14
_cell_length_a 15.241616
_cell_length_b 8.872499
_cell_length_c 15.422983
_cell_angle_alpha 128.997722
_cell_angle_beta 28.716463
_cell_angle_gamma 110.027572
_cell_volume 644.804448
_symmetry_space_group_name_H-M "P -1"
_symmetry_group_IT_number 2
_symmetry_cell_setting 'triclinic'
loop_
_space_group_symop_operation_xyz
x,y,z
-x,-y,-z
loop_
_atom_site_type_symbol
_atom_site_label
_atom_site_fract_x
_atom_site_fract_y
_atom_site_fract_z
Si Si1 0.470411 0.942557 0.697831
Si Si2 0.793813 0.484789 0.160155
Si Si3 0.928321 0.213930 0.775672
Si Si4 0.053852 0.977985 0.045276
Si Si5 0.329561 0.157964 0.330480
Si Si6 0.518835 0.286804 0.064220
Si Si7 0.714470 0.186908 0.559808
O O1 0.574721 0.735859 0.461152
O O2 0.207666 0.072895 0.966724
O O3 0.558035 0.828052 0.674934
O O4 0.532189 0.126968 0.690899
O O5 0.813812 0.291854 0.137680
O O6 0.787854 0.419209 0.041759
O O7 0.000000 0.500000 0.000000
O O8 0.069292 0.274805 0.614414
O O9 0.762396 0.184871 0.852834
O O10 0.100545 0.967948 0.584867
O O11 0.000000 0.000000 0.000000
O O12 0.825436 0.138385 0.352125
O O13 0.357461 0.301281 0.283850
O O14 0.455000 0.884770 0.096761
O O15 0.408519 0.541977 0.210675
#
# Coordination Sequence:
#
# PCOD8019981 Si02
#       7
#     2   2   2   2   2   2   2
#     4  11  23  43  63  88 128 169 201 253 320 360
#     4  11  20  41  64  89 125 166 201 252 310 373
#     4  10  22  42  64  90 130 161 206 255 310 370
#     4  11  25  38  60  95 125 160 209 253 307 372
#     4  10  22  42  66  91 123 162 211 253 312 373
#     4  11  24  41  66  94 122 164 210 262 305 360
#     4  10  24  42  60  94 127 160 214 253 301 381
#
# _framework density 21.712008999999998
#
# number of rings (size 3 to 8) (size 9 to 14) (size 15 to 20)
#    0.000    1.429    4.286    2.571    4.000    5.143 
#    0.000    6.429    0.000    0.000    0.000    0.000 
#    0.000    0.000    0.000    0.000    0.000    0.000 
#
# Total GULP energy -173660.552727 kJ/mol
# GULP energy per Si atom -12404.325195 kJ/mol
# Density = 2.166259 g / cm^3
# Si number density = 21.712009 Si / 1000 Ang^3
#
#
#
# Elastic Constant Matrix: (Units=GPa)
#
#
# Indices 1 2 3 4 5 6 
#
# 1 63.6748 17.8193 24.8396 -14.3953 -6.6921 9.7636
# 2 17.8193 99.6512 47.4220 -2.1903 -6.5515 10.7941
# 3 24.8396 47.4220 57.5596 -7.8181 8.0862 -2.2972
# 4 -14.3953 -2.1903 -7.8181 47.0466 4.6705 4.2133
# 5 -6.6921 -6.5515 8.0862 4.6705 27.5445 -6.7864
# 6 9.7636 10.7941 -2.2972 4.2133 -6.7864 23.0823
#
#
#
# Elastic Compliance Matrix: (Units=1/GPa)
#
#
# Indices 1 2 3 4 5 6 
#
# 1 0.024377 0.005042 -0.015499 0.005536 0.007528 -0.013009
# 2 0.005042 0.021340 -0.021775 -0.001095 0.010145 -0.011097
# 3 -0.015499 -0.021775 0.045592 0.002335 -0.018962 0.015275
# 4 0.005536 -0.001095 0.002335 0.024543 -0.005670 -0.007744
# 5 0.007528 0.010145 -0.018962 -0.005670 0.048419 0.005455
# 6 -0.013009 -0.011097 0.015275 -0.007744 0.005455 0.058553
#
#
# Mechanical properties :
#
#
# Convention : Reuss Voigt Hill
#
# Bulk Modulus (GPa) = 37.24828 44.56082 40.90455
# Shear Modulus (GPa) = 16.87842 28.25500 22.56671
#
# Velocity S-wave (km/s) = 2.79117 3.61134 3.22742
# Velocity P-wave (km/s) = 5.25170 6.16094 5.72440
#
# Compressibility (1/GPa) = 0.02684688
#
# Stress axis : x y z
#
# Youngs Moduli (GPa) = 41.02177 46.85935 21.93358
#
# Poissons Ratio (x) = -0.23628 0.33995
# Poissons Ratio (y) = -0.20685 0.47760
# Poissons Ratio (z) = 0.63580 1.02035
#
# Static dielectric constant tensor:
#      x y z
#    x 4.006240 0.047530 0.624600 
#    y 0.047530 4.099310 -0.373950 
#    z 0.624600 -0.373950 4.723120 
# 
# 
# High freq. dielectric constant tensor:
#      x y z
#    x 1.842870 0.009550 0.013110 
#    y 0.009550 1.860070 -0.020390 
#    z 0.013110 -0.020390 1.854420 
# 
# From -- ./inp_files/236797.got.cif
#   From: 2010.06.25/outbox.cif.g09.slc.cpg/sg2_119_cif.got.tgz:236797.got - 2010.06.27 13:26:56.
