data_PCOD8019247
_publ_section_title
;
Structure prediction by ZEFSAII (Michael W. Deem and Ramdas Pophale) SiO2 
 PCOD8019247
Probable space group: P -1
;
_chemical_formula_sum "Si O2"
_cell_formula_units_Z 16
_cell_length_a 14.763191
_cell_length_b 11.245747
_cell_length_c 8.553386
_cell_angle_alpha 141.218518
_cell_angle_beta 68.869197
_cell_angle_gamma 124.550654
_cell_volume 723.355296
_symmetry_space_group_name_H-M "P -1"
_symmetry_group_IT_number 2
_symmetry_cell_setting 'triclinic'
loop_
_space_group_symop_operation_xyz
x,y,z
-x,-y,-z
loop_
_atom_site_type_symbol
_atom_site_label
_atom_site_fract_x
_atom_site_fract_y
_atom_site_fract_z
Si Si1 0.474463 0.964119 0.298809
Si Si2 0.956742 0.164433 0.650296
Si Si3 0.139483 0.406015 0.003221
Si Si4 0.696765 0.947459 0.666617
Si Si5 0.129326 0.659622 0.547988
Si Si6 0.344202 0.525270 0.783677
Si Si7 0.681268 0.231503 0.230500
Si Si8 0.076118 0.984037 0.803467
O O1 0.369183 0.000219 0.370872
O O2 0.581475 0.138919 0.319649
O O3 0.500000 0.000000 0.500000
O O4 0.446802 0.721818 0.013333
O O5 0.983880 0.204797 0.487753
O O6 0.826379 0.066755 0.663281
O O7 0.000000 0.000000 0.500000
O O8 0.028591 0.363309 0.929389
O O9 0.166291 0.600472 0.302424
O O10 0.232814 0.479198 0.892102
O O11 0.138209 0.209970 0.903654
O O12 0.642374 0.687524 0.449139
O O13 0.678554 0.035786 0.932218
O O14 0.201382 0.641521 0.623831
O O15 0.154848 0.910370 0.771676
O O16 0.000000 0.500000 0.500000
O O17 0.334369 0.596298 0.687615
O O18 0.000000 0.000000 0.000000
#
# Coordination Sequence:
#
# PCOD8019247 Si02
#       8
#     2   2   2   2   2   2   2   2
#     4  11  27  50  68  99 142 171 232 294 339 403
#     4  10  22  41  66 101 140 178 221 286 334 402
#     4  11  24  41  64 101 137 179 229 278 339 412
#     4  11  23  45  74  99 134 184 229 277 352 394
#     4  12  26  41  67 100 137 187 224 273 355 408
#     4  11  24  44  75  97 130 180 234 277 340 420
#     4  11  28  44  68 102 138 174 228 295 334 402
#     4  11  24  41  63  95 146 176 225 282 331 405
#
# _framework density 22.119142
#
# number of rings (size 3 to 8) (size 9 to 14) (size 15 to 20)
#    0.000    1.000    3.750    3.000    8.750    4.000 
#    0.000    0.000    0.000    0.000    0.000    0.000 
#    0.000    0.000    0.000    0.000    0.000    0.000 
#
# Total GULP energy -198319.466071 kJ/mol
# GULP energy per Si atom -12394.966629 kJ/mol
# Density = 2.206880 g / cm^3
# Si number density = 22.119142 Si / 1000 Ang^3
#
#
#
# Elastic Constant Matrix: (Units=GPa)
#
#
# Indices 1 2 3 4 5 6 
#
# 1 112.0930 37.8758 49.7682 -8.4342 14.6614 1.4635
# 2 37.8758 129.2656 32.6438 -15.8242 9.4324 -0.6259
# 3 49.7682 32.6438 117.1639 -13.6316 5.3789 -20.1478
# 4 -8.4342 -15.8242 -13.6316 40.8787 -3.8612 3.2108
# 5 14.6614 9.4324 5.3789 -3.8612 43.0268 -1.2766
# 6 1.4635 -0.6259 -20.1478 3.2108 -1.2766 29.3568
#
#
#
# Elastic Compliance Matrix: (Units=1/GPa)
#
#
# Indices 1 2 3 4 5 6 
#
# 1 0.012484 -0.002090 -0.005337 0.000031 -0.003258 -0.004475
# 2 -0.002090 0.009101 -0.001484 0.002594 -0.000895 -0.001043
# 3 -0.005337 -0.001484 0.012944 0.002031 0.000973 0.008938
# 4 0.000031 0.002594 0.002031 0.026400 0.001495 -0.001375
# 5 -0.003258 -0.000895 0.000973 0.001495 0.024611 0.001718
# 6 -0.004475 -0.001043 0.008938 -0.001375 0.001718 0.040624
#
#
# Mechanical properties :
#
#
# Convention : Reuss Voigt Hill
#
# Bulk Modulus (GPa) = 59.85683 66.56647 63.21165
# Shear Modulus (GPa) = 33.43239 38.53478 35.98358
#
# Velocity S-wave (km/s) = 3.89198 4.17843 4.03775
# Velocity P-wave (km/s) = 6.87870 7.31019 7.09772
#
# Compressibility (1/GPa) = 0.01670653
#
# Stress axis : x y z
#
# Youngs Moduli (GPa) = 80.10350 109.87590 77.25509
#
# Poissons Ratio (x) = 0.22967 0.41229
# Poissons Ratio (y) = 0.16744 0.11467
# Poissons Ratio (z) = 0.42749 0.16308
#
# Static dielectric constant tensor:
#      x y z
#    x 3.823180 0.405590 -0.226250 
#    y 0.405590 5.246770 1.406340 
#    z -0.226250 1.406340 5.087490 
# 
# 
# High freq. dielectric constant tensor:
#      x y z
#    x 1.871210 -0.012570 -0.006390 
#    y -0.012570 1.877980 -0.012250 
#    z -0.006390 -0.012250 1.880440 
# 
# From -- ./inp_files/308764.got.cif
#   From: 2010.06.25/outbox.cif.g09.slc.cpg/sg2_155_cif.got.tgz:308764.got - 2010.06.27 13:26:56.
