data_PCOD8019272
_publ_section_title
;
Structure prediction by ZEFSAII (Michael W. Deem and Ramdas Pophale) SiO2 
 PCOD8019272
Probable space group: P -1
;
_chemical_formula_sum "Si O2"
_cell_formula_units_Z 16
_cell_length_a 17.683947
_cell_length_b 10.950886
_cell_length_c 6.847385
_cell_angle_alpha 107.578290
_cell_angle_beta 47.212194
_cell_angle_gamma 131.558139
_cell_volume 701.010217
_symmetry_space_group_name_H-M "P -1"
_symmetry_group_IT_number 2
_symmetry_cell_setting 'triclinic'
loop_
_space_group_symop_operation_xyz
x,y,z
-x,-y,-z
loop_
_atom_site_type_symbol
_atom_site_label
_atom_site_fract_x
_atom_site_fract_y
_atom_site_fract_z
Si Si1 0.089711 0.282866 0.950998
Si Si2 0.258005 0.343566 0.340764
Si Si3 0.342363 0.842591 0.180235
Si Si4 0.984154 0.851962 0.567945
Si Si5 0.813038 0.150897 0.219602
Si Si6 0.721981 0.928899 0.932550
Si Si7 0.243910 0.667655 0.861555
Si Si8 0.428053 0.713709 0.244053
O O1 0.056608 0.170925 0.144843
O O2 0.955419 0.194106 0.014089
O O3 0.198184 0.287382 0.639144
O O4 0.146754 0.470546 0.996838
O O5 0.140321 0.320612 0.407756
O O6 0.289995 0.233710 0.135420
O O7 0.397778 0.537807 0.191647
O O8 0.251822 0.874447 0.467076
O O9 0.333429 0.699517 0.237750
O O10 0.288727 0.786251 0.027790
O O11 0.500000 0.000000 0.000000
O O12 0.000000 0.000000 0.500000
O O13 0.131778 0.901429 0.324516
O O14 0.834078 0.298686 0.130178
O O15 0.712315 0.971457 0.192700
O O16 0.590961 0.876068 0.015602
O O17 0.379912 0.724905 0.545926
#
# Coordination Sequence:
#
# PCOD8019272 Si02
#       8
#     2   2   2   2   2   2   2   2
#     4  11  23  41  68  93 127 172 212 260 327 375
#     4  10  22  44  64  92 128 168 214 265 318 375
#     4  11  23  39  64  91 128 172 208 261 327 376
#     4  10  23  41  63  92 126 165 213 261 310 377
#     4  11  24  39  63  98 129 166 216 262 315 385
#     4  11  22  41  64  94 131 165 210 268 315 376
#     4  10  23  43  63  94 131 166 215 265 313 385
#     4  10  22  41  66  92 129 167 213 265 318 378
#
# _framework density 22.824203000000001
#
# number of rings (size 3 to 8) (size 9 to 14) (size 15 to 20)
#    0.000    1.500    1.250    3.000    3.500    4.500 
#    0.000    0.000    0.000    9.750    0.000    0.000 
#    0.000    0.000    0.000    0.000    0.000    0.000 
#
# Total GULP energy -198301.880100 kJ/mol
# GULP energy per Si atom -12393.867506 kJ/mol
# Density = 2.277225 g / cm^3
# Si number density = 22.824203 Si / 1000 Ang^3
#
#
#
# Elastic Constant Matrix: (Units=GPa)
#
#
# Indices 1 2 3 4 5 6 
#
# 1 82.2236 13.8896 20.1261 -4.5037 9.9657 8.8110
# 2 13.8896 82.6819 22.4632 13.3093 3.4539 4.0636
# 3 20.1261 22.4632 64.2444 8.9168 12.9293 -3.9605
# 4 -4.5037 13.3093 8.9168 38.4029 3.3982 -5.3857
# 5 9.9657 3.4539 12.9293 3.3982 38.4468 -0.3416
# 6 8.8110 4.0636 -3.9605 -5.3857 -0.3416 36.4881
#
#
#
# Elastic Compliance Matrix: (Units=1/GPa)
#
#
# Indices 1 2 3 4 5 6 
#
# 1 0.014213 -0.001488 -0.004037 0.002876 -0.002476 -0.003303
# 2 -0.001488 0.014306 -0.004231 -0.004561 0.000905 -0.002358
# 3 -0.004037 -0.004231 0.019889 -0.002741 -0.004992 0.003153
# 4 0.002876 -0.004561 -0.002741 0.029305 -0.001970 0.003823
# 5 -0.002476 0.000905 -0.004992 -0.001970 0.028423 -0.000069
# 6 -0.003303 -0.002358 0.003153 0.003823 -0.000069 0.029372
#
#
# Mechanical properties :
#
#
# Convention : Reuss Voigt Hill
#
# Bulk Modulus (GPa) = 34.60499 38.01195 36.30847
# Shear Modulus (GPa) = 30.36735 34.17898 32.27317
#
# Velocity S-wave (km/s) = 3.65154 3.87394 3.76438
# Velocity P-wave (km/s) = 5.74220 6.05807 5.90225
#
# Compressibility (1/GPa) = 0.02889756
#
# Stress axis : x y z
#
# Youngs Moduli (GPa) = 70.35802 69.90015 50.27952
#
# Poissons Ratio (x) = 0.10401 0.20296
# Poissons Ratio (y) = 0.10470 0.21271
# Poissons Ratio (z) = 0.28401 0.29571
#
# Static dielectric constant tensor:
#      x y z
#    x 4.430850 0.168890 0.001940 
#    y 0.168890 4.179770 -0.055200 
#    z 0.001940 -0.055200 4.175720 
# 
# 
# High freq. dielectric constant tensor:
#      x y z
#    x 1.897090 0.009100 -0.002180 
#    y 0.009100 1.903540 0.006490 
#    z -0.002180 0.006490 1.900000 
# 
# From -- ./inp_files/69274.got.cif
#   From: 2010.06.25/outbox.cif.g09.slc.cpg/sg2_35_cif.got.tgz:69274.got - 2010.06.27 13:26:56.
