data_PCOD8019995
_publ_section_title
;
Structure prediction by ZEFSAII (Michael W. Deem and Ramdas Pophale) SiO2 
 PCOD8019995
Probable space group: P -1
;
_chemical_formula_sum "Si O2"
_cell_formula_units_Z 16
_cell_length_a 14.812156
_cell_length_b 12.407562
_cell_length_c 9.018249
_cell_angle_alpha 71.696693
_cell_angle_beta 105.854475
_cell_angle_gamma 152.317157
_cell_volume 730.988100
_symmetry_space_group_name_H-M "P -1"
_symmetry_group_IT_number 2
_symmetry_cell_setting 'triclinic'
loop_
_space_group_symop_operation_xyz
x,y,z
-x,-y,-z
loop_
_atom_site_type_symbol
_atom_site_label
_atom_site_fract_x
_atom_site_fract_y
_atom_site_fract_z
Si Si1 0.891613 0.524693 0.096142
Si Si2 0.449344 0.883701 0.680536
Si Si3 0.328967 0.196777 0.522479
Si Si4 0.687072 0.584020 0.693703
Si Si5 0.211220 0.683601 0.165178
Si Si6 0.918512 0.660199 0.580714
Si Si7 0.839275 0.734555 0.013148
Si Si8 0.616170 0.420902 0.312532
O O1 0.774811 0.351148 0.261684
O O2 0.921205 0.692261 0.051922
O O3 0.101246 0.687701 0.106173
O O4 0.775030 0.368362 0.961739
O O5 0.503961 0.809950 0.713161
O O6 0.500000 0.000000 0.500000
O O7 0.570852 0.064512 0.791725
O O8 0.460222 0.310977 0.678383
O O9 0.255252 0.248156 0.458198
O O10 0.470058 0.334587 0.385898
O O11 0.148493 0.921698 0.553281
O O12 0.834979 0.641812 0.690053
O O13 0.717223 0.641582 0.854485
O O14 0.103261 0.494662 0.323570
O O15 0.802716 0.568643 0.420108
O O16 0.692658 0.586503 0.149434
O O17 0.000000 0.000000 0.000000
#
# Coordination Sequence:
#
# PCOD8019995 Si02
#       8
#     2   2   2   2   2   2   2   2
#     4  10  25  45  63 100 125 170 226 258 316 392
#     4  11  23  41  66  92 136 169 203 273 321 376
#     4  10  23  41  65  95 125 170 223 266 307 397
#     4  10  22  42  64  92 126 168 224 261 324 372
#     4  11  23  43  68  94 127 174 220 264 316 382
#     4  11  21  41  68  89 129 172 215 267 319 374
#     4  11  23  44  69  93 136 171 205 274 331 378
#     4  10  24  42  62 100 130 166 218 256 330 388
#
# _framework density 21.888179999999998
#
# number of rings (size 3 to 8) (size 9 to 14) (size 15 to 20)
#    0.000    1.500    2.500    1.500    1.750    6.000 
#    9.000    1.250    0.000    0.000    0.000    0.000 
#    0.000    0.000    0.000    0.000    0.000    0.000 
#
# Total GULP energy -198359.047255 kJ/mol
# GULP energy per Si atom -12397.440453 kJ/mol
# Density = 2.183836 g / cm^3
# Si number density = 21.888180 Si / 1000 Ang^3
#
#
#
# Elastic Constant Matrix: (Units=GPa)
#
#
# Indices 1 2 3 4 5 6 
#
# 1 79.4748 38.7503 22.8280 0.9613 3.6491 -8.0056
# 2 38.7503 136.4759 49.7175 -6.0613 -1.4639 -11.8130
# 3 22.8280 49.7175 123.6699 3.5961 -9.8354 3.2952
# 4 0.9613 -6.0613 3.5961 36.3086 -7.2561 0.8217
# 5 3.6491 -1.4639 -9.8354 -7.2561 22.3097 0.6474
# 6 -8.0056 -11.8130 3.2952 0.8217 0.6474 29.5416
#
#
#
# Elastic Compliance Matrix: (Units=1/GPa)
#
#
# Indices 1 2 3 4 5 6 
#
# 1 0.015352 -0.003574 -0.001760 -0.001732 -0.004174 0.003067
# 2 -0.003574 0.009999 -0.003487 0.002090 0.000286 0.003354
# 3 -0.001760 -0.003487 0.010269 -0.000586 0.004486 -0.003099
# 4 -0.001732 0.002090 -0.000586 0.029994 0.009936 -0.000620
# 5 -0.004174 0.000286 0.004486 0.009936 0.050818 -0.002907
# 6 0.003067 0.003354 -0.003099 -0.000620 -0.002907 0.036450
#
#
# Mechanical properties :
#
#
# Convention : Reuss Voigt Hill
#
# Bulk Modulus (GPa) = 55.62672 62.46804 59.04738
# Shear Modulus (GPa) = 28.32559 32.85365 30.58962
#
# Velocity S-wave (km/s) = 3.60127 3.87845 3.74242
# Velocity P-wave (km/s) = 6.53922 6.97553 6.76090
#
# Compressibility (1/GPa) = 0.01797697
#
# Stress axis : x y z
#
# Youngs Moduli (GPa) = 65.13617 100.01222 97.37713
#
# Poissons Ratio (x) = 0.35745 0.17142
# Poissons Ratio (y) = 0.23280 0.33959
# Poissons Ratio (z) = 0.11467 0.34878
#
# Static dielectric constant tensor:
#      x y z
#    x 3.838880 -0.208030 -0.091420 
#    y -0.208030 3.976050 0.070270 
#    z -0.091420 0.070270 4.032930 
# 
# 
# High freq. dielectric constant tensor:
#      x y z
#    x 1.855450 -0.016520 -0.005080 
#    y -0.016520 1.859750 0.004730 
#    z -0.005080 0.004730 1.865280 
# 
# From -- ./inp_files/307134.got.cif
#   From: 2010.06.25/outbox.cif.g09.slc.cpg/sg2_154_cif.got.tgz:307134.got - 2010.06.27 13:26:56.
