data_PCOD8019451
_publ_section_title
;
Structure prediction by ZEFSAII (Michael W. Deem and Ramdas Pophale) SiO2 
 PCOD8019451
Probable space group: P -1
;
_chemical_formula_sum "Si O2"
_cell_formula_units_Z 16
_cell_length_a 14.874500
_cell_length_b 8.172146
_cell_length_c 9.056251
_cell_angle_alpha 121.289739
_cell_angle_beta 84.188763
_cell_angle_gamma 61.106311
_cell_volume 726.659224
_symmetry_space_group_name_H-M "P -1"
_symmetry_group_IT_number 2
_symmetry_cell_setting 'triclinic'
loop_
_space_group_symop_operation_xyz
x,y,z
-x,-y,-z
loop_
_atom_site_type_symbol
_atom_site_label
_atom_site_fract_x
_atom_site_fract_y
_atom_site_fract_z
Si Si1 0.051773 0.026545 0.145071
Si Si2 0.928449 0.875797 0.258497
Si Si3 0.691945 0.296994 0.976939
Si Si4 0.074215 0.369988 0.152366
Si Si5 0.551275 0.742276 0.707801
Si Si6 0.329168 0.088816 0.082239
Si Si7 0.314793 0.748118 0.379230
Si Si8 0.494275 0.230185 0.599153
O O1 0.189084 0.803892 0.010304
O O2 0.995689 0.990506 0.278379
O O3 0.030487 0.287642 0.256595
O O4 0.000000 0.000000 0.000000
O O5 0.988990 0.664665 0.277221
O O6 0.800012 0.103217 0.434460
O O7 0.919613 0.767242 0.059231
O O8 0.716759 0.275469 0.789849
O O9 0.652157 0.139199 0.952199
O O10 0.592127 0.576687 0.170961
O O11 0.200286 0.288734 0.131620
O O12 0.644846 0.787735 0.738065
O O13 0.585636 0.523377 0.704526
O O14 0.553163 0.655044 0.501687
O O15 0.421612 0.988628 0.886287
O O16 0.374637 0.875666 0.438329
O O17 0.500000 0.000000 0.500000
#
# Coordination Sequence:
#
# PCOD8019451 Si02
#       8
#     2   2   2   2   2   2   2   2
#     4   9  21  40  67  95 129 180 223 278 336 396
#     4  10  22  41  67  97 139 175 230 274 346 402
#     4  11  25  45  67  97 140 176 223 285 339 402
#     4   9  20  41  68  99 130 181 225 286 331 409
#     4  11  25  40  70 101 131 182 221 278 342 410
#     4  10  22  44  68  94 140 170 228 276 347 392
#     4  12  26  44  67 102 139 175 223 281 343 406
#     4  12  27  43  69 100 135 179 228 276 341 409
#
# _framework density 22.018574999999998
#
# number of rings (size 3 to 8) (size 9 to 14) (size 15 to 20)
#    0.000    1.500    1.250    2.250   10.500    3.500 
#    2.250    1.250    0.000    0.000    0.000    0.000 
#    0.000    0.000    0.000    0.000    0.000    0.000 
#
# Total GULP energy -198385.028455 kJ/mol
# GULP energy per Si atom -12399.064278 kJ/mol
# Density = 2.196846 g / cm^3
# Si number density = 22.018575 Si / 1000 Ang^3
#
#
#
# Elastic Constant Matrix: (Units=GPa)
#
#
# Indices 1 2 3 4 5 6 
#
# 1 141.2323 43.8197 33.5471 4.2773 -18.2068 3.4309
# 2 43.8197 105.0637 16.6778 1.3583 -7.6413 7.7452
# 3 33.5471 16.6778 70.9325 1.7542 -5.7946 5.4465
# 4 4.2773 1.3583 1.7542 24.2208 -3.7990 -0.0777
# 5 -18.2068 -7.6413 -5.7946 -3.7990 32.2680 -3.0654
# 6 3.4309 7.7452 5.4465 -0.0777 -3.0654 36.9161
#
#
#
# Elastic Compliance Matrix: (Units=1/GPa)
#
#
# Indices 1 2 3 4 5 6 
#
# 1 0.009367 -0.003117 -0.003408 -0.000616 0.003920 0.000611
# 2 -0.003117 0.011146 -0.000961 0.000074 0.000540 -0.001862
# 3 -0.003408 -0.000961 0.016129 -0.000436 0.000522 -0.001819
# 4 -0.000616 0.000074 -0.000436 0.042148 0.004609 0.000578
# 5 0.003920 0.000540 0.000522 0.004609 0.034184 0.002294
# 6 0.000611 -0.001862 -0.001819 0.000578 0.002294 0.027882
#
#
# Mechanical properties :
#
#
# Convention : Reuss Voigt Hill
#
# Bulk Modulus (GPa) = 46.15089 56.14642 51.14865
# Shear Modulus (GPa) = 30.66491 33.55990 32.11241
#
# Velocity S-wave (km/s) = 3.73592 3.90829 3.82307
# Velocity P-wave (km/s) = 6.29404 6.77652 6.53973
#
# Compressibility (1/GPa) = 0.02166806
#
# Stress axis : x y z
#
# Youngs Moduli (GPa) = 106.76305 89.71499 62.00064
#
# Poissons Ratio (x) = 0.27968 0.21132
# Poissons Ratio (y) = 0.33283 0.05959
# Poissons Ratio (z) = 0.36388 0.08623
#
# Static dielectric constant tensor:
#      x y z
#    x 4.164840 0.399060 -0.266600 
#    y 0.399060 4.087060 0.054140 
#    z -0.266600 0.054140 3.452980 
# 
# 
# High freq. dielectric constant tensor:
#      x y z
#    x 1.888870 0.000470 0.001350 
#    y 0.000470 1.875370 -0.005020 
#    z 0.001350 -0.005020 1.841610 
# 
# From -- ./inp_files/299487.got.cif
#   From: 2010.06.25/outbox.cif.g09.slc.cpg/sg2_150_cif.got.tgz:299487.got - 2010.06.27 13:26:56.
