data_PCOD8019000
_publ_section_title
;
Structure prediction by ZEFSAII (Michael W. Deem and Ramdas Pophale) SiO2 
 PCOD8019000
Probable space group: P -1
;
_chemical_formula_sum "Si O2"
_cell_formula_units_Z 16
_cell_length_a 10.800069
_cell_length_b 19.303063
_cell_length_c 6.243976
_cell_angle_alpha 86.130250
_cell_angle_beta 113.878942
_cell_angle_gamma 138.760831
_cell_volume 721.497158
_symmetry_space_group_name_H-M "P -1"
_symmetry_group_IT_number 2
_symmetry_cell_setting 'triclinic'
loop_
_space_group_symop_operation_xyz
x,y,z
-x,-y,-z
loop_
_atom_site_type_symbol
_atom_site_label
_atom_site_fract_x
_atom_site_fract_y
_atom_site_fract_z
Si Si1 0.416871 0.288521 0.107783
Si Si2 0.163732 0.583179 0.406399
Si Si3 0.774509 0.180819 0.114444
Si Si4 0.183147 0.263435 0.329990
Si Si5 0.529990 0.454135 0.855065
Si Si6 0.360892 0.972166 0.605764
Si Si7 0.038805 0.092541 0.593629
Si Si8 0.037548 0.405313 0.073056
O O1 0.588788 0.307780 0.345497
O O2 0.317225 0.303103 0.201027
O O3 0.543758 0.384308 0.993519
O O4 0.224668 0.163298 0.894760
O O5 0.159021 0.518094 0.250157
O O6 0.000000 0.500000 0.500000
O O7 0.103598 0.628498 0.227000
O O8 0.758993 0.144978 0.353024
O O9 0.952061 0.205072 0.107705
O O10 0.869739 0.298067 0.142452
O O11 0.530698 0.077859 0.865146
O O12 0.325286 0.372505 0.561190
O O13 0.127961 0.170320 0.435444
O O14 0.763052 0.563455 0.873742
O O15 0.500000 0.500000 0.000000
O O16 0.175447 0.956193 0.437075
O O17 0.500000 0.000000 0.500000
O O18 0.000000 0.000000 0.500000
#
# Coordination Sequence:
#
# PCOD8019000 Si02
#       8
#     2   2   2   2   2   2   2   2
#     4  11  22  41  66  91 132 180 215 277 333 395
#     4  11  24  41  62  90 136 178 220 268 330 396
#     4  10  23  40  67  93 128 172 217 276 334 386
#     4  10  22  41  63  96 133 172 220 281 327 400
#     4  11  23  37  63  97 133 170 220 267 328 403
#     4  10  22  45  68  96 131 169 223 286 338 399
#     4  10  24  43  68  98 132 170 229 284 342 403
#     4  11  24  41  62  95 132 173 222 271 323 407
#
# _framework density 22.176110000000001
#
# number of rings (size 3 to 8) (size 9 to 14) (size 15 to 20)
#    0.000    1.500    2.500    1.500    1.750    6.500 
#    0.000    2.500    0.000    0.000    0.000    0.000 
#    0.000    0.000    0.000    0.000    0.000    0.000 
#
# Total GULP energy -198399.605855 kJ/mol
# GULP energy per Si atom -12399.975366 kJ/mol
# Density = 2.212564 g / cm^3
# Si number density = 22.176110 Si / 1000 Ang^3
#
#
#
# Elastic Constant Matrix: (Units=GPa)
#
#
# Indices 1 2 3 4 5 6 
#
# 1 100.0947 35.6316 39.9433 6.5186 4.8289 13.6903
# 2 35.6316 115.5829 34.6684 4.3925 5.8330 4.2474
# 3 39.9433 34.6684 114.8522 20.2093 17.4554 -1.6488
# 4 6.5186 4.3925 20.2093 35.5861 5.5268 -5.4219
# 5 4.8289 5.8330 17.4554 5.5268 45.4353 1.1027
# 6 13.6903 4.2474 -1.6488 -5.4219 1.1027 36.7463
#
#
#
# Elastic Compliance Matrix: (Units=1/GPa)
#
#
# Indices 1 2 3 4 5 6 
#
# 1 0.013165 -0.002748 -0.003778 -0.000767 0.000617 -0.004889
# 2 -0.002748 0.010146 -0.002159 0.000489 -0.000236 -0.000167
# 3 -0.003778 -0.002159 0.012118 -0.005162 -0.003386 0.001541
# 4 -0.000767 0.000489 -0.005162 0.032159 -0.002026 0.004804
# 5 0.000617 -0.000236 -0.003386 -0.002026 0.023554 -0.001360
# 6 -0.004889 -0.000167 0.001541 0.004804 -0.001360 0.029873
#
#
# Mechanical properties :
#
#
# Convention : Reuss Voigt Hill
#
# Bulk Modulus (GPa) = 55.37564 61.22406 58.29985
# Shear Modulus (GPa) = 34.62467 38.23931 36.43199
#
# Velocity S-wave (km/s) = 3.95568 4.15703 4.05760
# Velocity P-wave (km/s) = 6.77409 7.12104 6.94973
#
# Compressibility (1/GPa) = 0.01805848
#
# Stress axis : x y z
#
# Youngs Moduli (GPa) = 75.95815 98.56059 82.52354
#
# Poissons Ratio (x) = 0.27081 0.31178
# Poissons Ratio (y) = 0.20870 0.17821
# Poissons Ratio (z) = 0.28698 0.21284
#
# Static dielectric constant tensor:
#      x y z
#    x 3.873020 0.235270 0.248310 
#    y 0.235270 4.075890 -0.019040 
#    z 0.248310 -0.019040 4.257420 
# 
# 
# High freq. dielectric constant tensor:
#      x y z
#    x 1.867070 0.017220 0.011660 
#    y 0.017220 1.872200 -0.003070 
#    z 0.011660 -0.003070 1.877580 
# 
# From -- ./inp_files/82700.got.cif
#   From: 2010.06.25/outbox.cif.g09.slc.cpg/sg2_42_cif.got.tgz:82700.got - 2010.06.27 13:26:56.
