data_PCOD8019463
_publ_section_title
;
Structure prediction by ZEFSAII (Michael W. Deem and Ramdas Pophale) SiO2 
 PCOD8019463
Probable space group: P -1
;
_chemical_formula_sum "Si O2"
_cell_formula_units_Z 16
_cell_length_a 13.101082
_cell_length_b 8.356352
_cell_length_c 9.762297
_cell_angle_alpha 103.408602
_cell_angle_beta 135.455795
_cell_angle_gamma 86.951743
_cell_volume 719.340690
_symmetry_space_group_name_H-M "P -1"
_symmetry_group_IT_number 2
_symmetry_cell_setting 'triclinic'
loop_
_space_group_symop_operation_xyz
x,y,z
-x,-y,-z
loop_
_atom_site_type_symbol
_atom_site_label
_atom_site_fract_x
_atom_site_fract_y
_atom_site_fract_z
Si Si1 0.601544 0.903027 0.389254
Si Si2 0.416301 0.476727 0.772856
Si Si3 0.188958 0.974151 0.616121
Si Si4 0.898579 0.418022 0.505876
Si Si5 0.601807 0.597965 0.729905
Si Si6 0.313295 0.028149 0.218665
Si Si7 0.912781 0.945832 0.190596
Si Si8 0.078165 0.426159 0.936673
O O1 0.600499 0.708658 0.337894
O O2 0.699492 0.978849 0.629670
O O3 0.660959 0.996504 0.323558
O O4 0.433850 0.923585 0.258690
O O5 0.254646 0.517859 0.638625
O O6 0.510425 0.602493 0.782388
O O7 0.500000 0.500000 0.000000
O O8 0.134737 0.782428 0.566403
O O9 0.067462 0.044249 0.416688
O O10 0.201446 0.078176 0.791814
O O11 0.000000 0.500000 0.500000
O O12 0.995336 0.490136 0.742115
O O13 0.500000 0.500000 0.500000
O O14 0.648073 0.783952 0.759248
O O15 0.745208 0.508738 0.876626
O O16 0.157040 0.955787 0.979744
O O17 0.946032 0.773532 0.126549
O O18 0.000000 0.500000 0.000000
#
# Coordination Sequence:
#
# PCOD8019463 Si02
#       8
#     2   2   2   2   2   2   2   2
#     4  11  25  42  65  96 134 167 222 266 323 390
#     4  12  27  41  66 100 131 177 220 271 330 388
#     4  10  23  44  67  95 129 170 215 271 325 388
#     4  11  25  45  68  96 133 171 220 272 328 396
#     4  11  21  43  68  95 134 171 220 269 326 389
#     4  10  23  44  66  94 129 174 215 268 321 389
#     4   9  22  41  68  92 125 173 214 262 328 381
#     4  10  22  41  67  99 130 173 217 269 328 389
#
# _framework density 22.242591999999998
#
# number of rings (size 3 to 8) (size 9 to 14) (size 15 to 20)
#    0.000    1.500    1.250    2.250   12.250    2.000 
#    0.000    0.000    0.000    0.000    0.000    0.000 
#    0.000    0.000    0.000    0.000    0.000    0.000 
#
# Total GULP energy -198316.903470 kJ/mol
# GULP energy per Si atom -12394.806467 kJ/mol
# Density = 2.219197 g / cm^3
# Si number density = 22.242592 Si / 1000 Ang^3
#
#
#
# Elastic Constant Matrix: (Units=GPa)
#
#
# Indices 1 2 3 4 5 6 
#
# 1 145.6926 37.2718 28.7289 -8.9922 -7.5040 -18.1463
# 2 37.2718 68.8600 11.8723 -6.4965 2.7571 -10.4351
# 3 28.7289 11.8723 139.1386 -29.1284 7.4117 -30.1930
# 4 -8.9922 -6.4965 -29.1284 32.7711 -5.7974 3.5131
# 5 -7.5040 2.7571 7.4117 -5.7974 42.5379 -3.1404
# 6 -18.1463 -10.4351 -30.1930 3.5131 -3.1404 40.9825
#
#
#
# Elastic Compliance Matrix: (Units=1/GPa)
#
#
# Indices 1 2 3 4 5 6 
#
# 1 0.008535 -0.004143 -0.000863 0.000911 0.002210 0.002180
# 2 -0.004143 0.017346 0.000485 0.002194 -0.001446 0.002640
# 3 -0.000863 0.000485 0.010592 0.008481 -0.000372 0.006790
# 4 0.000911 0.002194 0.008481 0.039027 0.004169 0.004184
# 5 0.002210 -0.001446 -0.000372 0.004169 0.024763 0.001876
# 6 0.002180 0.002640 0.006790 0.004184 0.001876 0.030826
#
#
# Mechanical properties :
#
#
# Convention : Reuss Voigt Hill
#
# Bulk Modulus (GPa) = 36.45482 56.60412 46.52947
# Shear Modulus (GPa) = 33.49488 41.64616 37.57052
#
# Velocity S-wave (km/s) = 3.88479 4.33177 4.11436
# Velocity P-wave (km/s) = 6.04544 7.10794 6.59811
#
# Compressibility (1/GPa) = 0.02743122
#
# Stress axis : x y z
#
# Youngs Moduli (GPa) = 117.15858 57.64903 94.40674
#
# Poissons Ratio (x) = 0.23886 0.08145
# Poissons Ratio (y) = 0.48543 -0.04575
# Poissons Ratio (z) = 0.10108 -0.02794
#
# Static dielectric constant tensor:
#      x y z
#    x 4.878970 1.807090 2.702010 
#    y 1.807090 9.149600 7.089010 
#    z 2.702010 7.089010 14.993030 
# 
# 
# High freq. dielectric constant tensor:
#      x y z
#    x 1.882940 -0.017700 -0.006710 
#    y -0.017700 1.858180 -0.011080 
#    z -0.006710 -0.011080 1.897510 
# 
# From -- ./inp_files/244792.got.cif
#   From: 2010.06.25/outbox.cif.g09.slc.cpg/sg2_123_cif.got.tgz:244792.got - 2010.06.27 13:26:56.
