data_PCOD8019780
_publ_section_title
;
Structure prediction by ZEFSAII (Michael W. Deem and Ramdas Pophale) SiO2 
 PCOD8019780
Probable space group: P -1
;
_chemical_formula_sum "Si O2"
_cell_formula_units_Z 16
_cell_length_a 8.509354
_cell_length_b 9.633139
_cell_length_c 11.255083
_cell_angle_alpha 98.925534
_cell_angle_beta 82.092581
_cell_angle_gamma 132.568515
_cell_volume 670.563033
_symmetry_space_group_name_H-M "P -1"
_symmetry_group_IT_number 2
_symmetry_cell_setting 'triclinic'
loop_
_space_group_symop_operation_xyz
x,y,z
-x,-y,-z
loop_
_atom_site_type_symbol
_atom_site_label
_atom_site_fract_x
_atom_site_fract_y
_atom_site_fract_z
Si Si1 0.990686 0.697896 0.509851
Si Si2 0.028169 0.000233 0.667331
Si Si3 0.435332 0.186076 0.341358
Si Si4 0.344165 0.701881 0.429922
Si Si5 0.237350 0.402105 0.711625
Si Si6 0.959939 0.323488 0.939843
Si Si7 0.462658 0.907498 0.199543
Si Si8 0.895342 0.061307 0.095567
O O1 0.214837 0.754058 0.511005
O O2 0.022122 0.884284 0.545536
O O3 0.808468 0.526460 0.593153
O O4 0.918659 0.621490 0.372690
O O5 0.815736 0.969496 0.682424
O O6 0.026990 0.905253 0.773222
O O7 0.233464 0.228526 0.671747
O O8 0.463218 0.207514 0.484604
O O9 0.531998 0.387872 0.301744
O O10 0.541400 0.108844 0.262496
O O11 0.422158 0.785810 0.302198
O O12 0.154270 0.383715 0.848448
O O13 0.738043 0.182858 0.875074
O O14 0.975117 0.249395 0.051259
O O15 0.000000 0.500000 0.000000
O O16 0.636986 0.924634 0.106661
O O17 0.000000 0.000000 0.000000
#
# Coordination Sequence:
#
# PCOD8019780 Si02
#       8
#     2   2   2   2   2   2   2   2
#     4  10  22  41  73 106 155 182 239 307 370 437
#     4  12  25  45  71 106 156 195 239 305 373 430
#     4  11  24  44  74 109 153 189 242 297 371 456
#     4  10  22  41  72 113 143 192 243 293 370 459
#     4  11  23  45  70 106 145 191 244 301 366 438
#     4  12  26  48  76 104 142 197 252 306 365 434
#     4  12  24  46  76 103 143 196 249 303 373 433
#     4  12  27  48  70 102 146 193 253 308 358 431
#
# _framework density 23.860544999999998
#
# number of rings (size 3 to 8) (size 9 to 14) (size 15 to 20)
#    0.000    0.750    3.750    2.625    1.750    6.000 
#    0.000    1.250    0.000    0.000    0.000    0.000 
#    0.000    0.000    0.000    0.000    0.000    0.000 
#
# Total GULP energy -198356.437028 kJ/mol
# GULP energy per Si atom -12397.277314 kJ/mol
# Density = 2.380624 g / cm^3
# Si number density = 23.860545 Si / 1000 Ang^3
#
#
#
# Elastic Constant Matrix: (Units=GPa)
#
#
# Indices 1 2 3 4 5 6 
#
# 1 65.3933 23.1572 5.1009 -1.0572 -1.7885 -14.6270
# 2 23.1572 155.3702 34.2535 -10.6623 -13.9682 -27.2162
# 3 5.1009 34.2535 70.3906 -13.4051 1.8041 -6.4304
# 4 -1.0572 -10.6623 -13.4051 43.8721 -13.5384 1.1914
# 5 -1.7885 -13.9682 1.8041 -13.5384 43.8654 1.4125
# 6 -14.6270 -27.2162 -6.4304 1.1914 1.4125 30.4734
#
#
#
# Elastic Compliance Matrix: (Units=1/GPa)
#
#
# Indices 1 2 3 4 5 6 
#
# 1 0.017363 -0.001349 0.000033 -0.000087 0.000020 0.007139
# 2 -0.001349 0.008935 -0.003379 0.001960 0.003328 0.006389
# 3 0.000033 -0.003379 0.016679 0.004110 -0.000504 0.000381
# 4 -0.000087 0.001960 0.004110 0.027214 0.008815 0.001104
# 5 0.000020 0.003328 -0.000504 0.008815 0.026557 0.001300
# 6 0.007139 0.006389 0.000381 0.001104 0.001300 0.041925
#
#
# Mechanical properties :
#
#
# Convention : Reuss Voigt Hill
#
# Bulk Modulus (GPa) = 29.77224 46.24192 38.00708
# Shear Modulus (GPa) = 31.39576 38.88501 35.14038
#
# Velocity S-wave (km/s) = 3.63133 4.04131 3.84179
# Velocity P-wave (km/s) = 5.48514 6.41860 5.97014
#
# Compressibility (1/GPa) = 0.03358833
#
# Stress axis : x y z
#
# Youngs Moduli (GPa) = 57.59333 111.91952 59.95741
#
# Poissons Ratio (x) = 0.15096 -0.00199
# Poissons Ratio (y) = 0.07768 0.20257
# Poissons Ratio (z) = -0.00191 0.37813
#
# Static dielectric constant tensor:
#      x y z
#    x 4.211500 -0.177150 -0.057950 
#    y -0.177150 4.485480 -0.308090 
#    z -0.057950 -0.308090 3.965420 
# 
# 
# High freq. dielectric constant tensor:
#      x y z
#    x 1.946640 -0.014010 0.002600 
#    y -0.014010 1.953760 -0.015410 
#    z 0.002600 -0.015410 1.944980 
# 
# From -- ./inp_files/382603.got.cif
#   From: 2010.06.25/outbox.cif.g09.slc.cpg/sg2_192_cif.got.tgz:382603.got - 2010.06.27 13:26:56.
