data_PCOD8019174
_publ_section_title
;
Structure prediction by ZEFSAII (Michael W. Deem and Ramdas Pophale) SiO2 
 PCOD8019174
Probable space group: P -1
;
_chemical_formula_sum "Si O2"
_cell_formula_units_Z 12
_cell_length_a 16.541416
_cell_length_b 15.056800
_cell_length_c 7.058070
_cell_angle_alpha 127.158396
_cell_angle_beta 138.109635
_cell_angle_gamma 26.612655
_cell_volume 514.543688
_symmetry_space_group_name_H-M "P -1"
_symmetry_group_IT_number 2
_symmetry_cell_setting 'triclinic'
loop_
_space_group_symop_operation_xyz
x,y,z
-x,-y,-z
loop_
_atom_site_type_symbol
_atom_site_label
_atom_site_fract_x
_atom_site_fract_y
_atom_site_fract_z
Si Si1 0.391442 0.119189 0.272818
Si Si2 0.181666 0.761603 0.391861
Si Si3 0.636240 0.503942 0.966433
Si Si4 0.046357 0.860930 0.677292
Si Si5 0.906642 0.508517 0.529791
Si Si6 0.711048 0.951707 0.315376
O O1 0.166112 0.353006 0.247476
O O2 0.500000 0.000000 0.500000
O O3 0.539265 0.090391 0.367441
O O4 0.392981 0.001318 0.007401
O O5 0.373236 0.692299 0.732300
O O6 0.271025 0.592862 0.205644
O O7 0.064387 0.795481 0.412177
O O8 0.007681 0.966195 0.223425
O O9 0.703898 0.578803 0.225527
O O10 0.736089 0.336720 0.075567
O O11 0.830874 0.977864 0.555126
O O12 0.000000 0.500000 0.500000
O O13 0.113397 0.281862 0.668507
#
# Coordination Sequence:
#
# PCOD8019174 Si02
#       6
#     2   2   2   2   2   2
#     4  11  23  41  64  93 131 167 213 261 315 387
#     4  10  22  42  66  88 129 168 209 268 316 378
#     4  10  23  42  61  97 125 165 216 259 321 381
#     4  10  22  41  65  94 122 167 215 263 320 378
#     4  11  23  42  66  94 129 171 207 264 323 379
#     4  10  24  42  63  97 127 168 214 260 322 380
#
# _framework density 23.321636000000002
#
# number of rings (size 3 to 8) (size 9 to 14) (size 15 to 20)
#    0.000    1.667    1.667    1.500    4.667    0.000 
#   21.000    0.000    0.000    0.000    0.000    0.000 
#    0.000    0.000    0.000    0.000    0.000    0.000 
#
# Total GULP energy -148663.280724 kJ/mol
# GULP energy per Si atom -12388.606727 kJ/mol
# Density = 2.326855 g / cm^3
# Si number density = 23.321636 Si / 1000 Ang^3
#
#
#
# Elastic Constant Matrix: (Units=GPa)
#
#
# Indices 1 2 3 4 5 6 
#
# 1 92.2093 29.9174 19.5029 1.3772 -23.8969 -15.1152
# 2 29.9174 77.8083 7.6546 4.4276 -17.0274 -18.2375
# 3 19.5029 7.6546 68.9105 -1.7801 -13.7460 3.7166
# 4 1.3772 4.4276 -1.7801 36.7076 -6.5428 -14.6051
# 5 -23.8969 -17.0274 -13.7460 -6.5428 30.1618 2.3834
# 6 -15.1152 -18.2375 3.7166 -14.6051 2.3834 38.8358
#
#
#
# Elastic Compliance Matrix: (Units=1/GPa)
#
#
# Indices 1 2 3 4 5 6 
#
# 1 0.015739 -0.002335 -0.002340 0.003850 0.010442 0.006060
# 2 -0.002335 0.017068 -0.000046 0.002397 0.007688 0.007540
# 3 -0.002340 -0.000046 0.016552 0.000975 0.006075 -0.002522
# 4 0.003850 0.002397 0.000975 0.034795 0.011216 0.014928
# 5 0.010442 0.007688 0.006075 0.011216 0.050320 0.008223
# 6 0.006060 0.007540 -0.002522 0.014928 0.008223 0.037000
#
#
# Mechanical properties :
#
#
# Convention : Reuss Voigt Hill
#
# Bulk Modulus (GPa) = 25.05171 39.23088 32.14129
# Shear Modulus (GPa) = 25.74384 33.26459 29.50422
#
# Velocity S-wave (km/s) = 3.32604 3.78079 3.56068
# Velocity P-wave (km/s) = 5.05126 5.99311 5.54223
#
# Compressibility (1/GPa) = 0.03991743
#
# Stress axis : x y z
#
# Youngs Moduli (GPa) = 63.53472 58.58904 60.41634
#
# Poissons Ratio (x) = 0.13682 0.14135
# Poissons Ratio (y) = 0.14837 0.00279
# Poissons Ratio (z) = 0.14865 0.00270
#
# Static dielectric constant tensor:
#      x y z
#    x 4.258400 0.201400 0.180810 
#    y 0.201400 5.611230 0.367830 
#    z 0.180810 0.367830 4.246340 
# 
# 
# High freq. dielectric constant tensor:
#      x y z
#    x 1.925370 -0.012850 -0.023310 
#    y -0.012850 1.924860 -0.007390 
#    z -0.023310 -0.007390 1.916620 
# 
# From -- ./inp_files/33842.got.cif
#   From: 2010.06.25/outbox.cif.g09.slc.cpg/sg2_17_cif.got.tgz:33842.got - 2010.06.27 13:26:56.
