data_PCOD8019736
_publ_section_title
;
Structure prediction by ZEFSAII (Michael W. Deem and Ramdas Pophale) SiO2 
 PCOD8019736
Probable space group: P -1
;
_chemical_formula_sum "Si O2"
_cell_formula_units_Z 14
_cell_length_a 11.778604
_cell_length_b 12.322344
_cell_length_c 11.338332
_cell_angle_alpha 78.343472
_cell_angle_beta 42.544380
_cell_angle_gamma 112.600150
_cell_volume 646.377337
_symmetry_space_group_name_H-M "P -1"
_symmetry_group_IT_number 2
_symmetry_cell_setting 'triclinic'
loop_
_space_group_symop_operation_xyz
x,y,z
-x,-y,-z
loop_
_atom_site_type_symbol
_atom_site_label
_atom_site_fract_x
_atom_site_fract_y
_atom_site_fract_z
Si Si1 0.769727 0.823066 0.798651
Si Si2 0.093627 0.337788 0.933429
Si Si3 0.155968 0.556336 0.248071
Si Si4 0.362635 0.260950 0.644334
Si Si5 0.151410 0.007957 0.058363
Si Si6 0.947631 0.243679 0.334741
Si Si7 0.695030 0.148157 0.070934
O O1 0.826910 0.723683 0.794328
O O2 0.464930 0.670469 0.006548
O O3 0.770828 0.883842 0.909641
O O4 0.000000 0.000000 0.500000
O O5 0.237914 0.296620 0.807201
O O6 0.317170 0.552510 0.682535
O O7 0.011321 0.305761 0.138000
O O8 0.811874 0.205509 0.101905
O O9 0.000000 0.500000 0.500000
O O10 0.964474 0.365810 0.367977
O O11 0.174380 0.677804 0.132621
O O12 0.353367 0.150253 0.762587
O O13 0.173697 0.140631 0.698144
O O14 0.199263 0.903800 0.070174
O O15 0.642126 0.024928 0.630052
#
# Coordination Sequence:
#
# PCOD8019736 Si02
#       7
#     2   2   2   2   2   2   2
#     4  12  26  46  73 101 140 185 237 289 337 410
#     4  10  22  41  71 103 139 173 231 290 349 411
#     4  12  30  48  71 102 141 191 236 279 346 421
#     4   9  20  40  69 108 133 179 227 283 352 416
#     4  10  22  42  74  98 141 182 227 286 350 413
#     4  12  26  48  71 101 139 183 235 291 345 406
#     4  11  26  46  69 105 140 182 225 289 355 413
#
# _framework density 21.659175000000001
#
# number of rings (size 3 to 8) (size 9 to 14) (size 15 to 20)
#    0.000    1.143    2.857    1.714    8.000    2.857 
#    0.000    0.000    0.000    0.000    0.000    0.000 
#    0.000    0.000    0.000    0.000    0.000    0.000 
#
# Total GULP energy -173689.016959 kJ/mol
# GULP energy per Si atom -12406.358354 kJ/mol
# Density = 2.160988 g / cm^3
# Si number density = 21.659175 Si / 1000 Ang^3
#
#
#
# Elastic Constant Matrix: (Units=GPa)
#
#
# Indices 1 2 3 4 5 6 
#
# 1 105.6938 45.2167 32.1101 5.4908 7.3556 -14.8223
# 2 45.2167 99.3355 22.9157 -7.6907 20.0672 -9.6244
# 3 32.1101 22.9157 96.6799 -10.2268 9.1733 -1.2093
# 4 5.4908 -7.6907 -10.2268 32.7621 4.5485 2.8596
# 5 7.3556 20.0672 9.1733 4.5485 31.1705 -1.3310
# 6 -14.8223 -9.6244 -1.2093 2.8596 -1.3310 39.4742
#
#
#
# Elastic Compliance Matrix: (Units=1/GPa)
#
#
# Indices 1 2 3 4 5 6 
#
# 1 0.013952 -0.006029 -0.004027 -0.005761 0.002793 0.004157
# 2 -0.006029 0.015198 -0.000116 0.005748 -0.009135 0.000714
# 3 -0.004027 -0.000116 0.012571 0.005202 -0.003504 -0.001650
# 4 -0.005761 0.005748 0.005202 0.036059 -0.009284 -0.003528
# 5 0.002793 -0.009135 -0.003504 -0.009284 0.039721 0.000726
# 6 0.004157 0.000714 -0.001650 -0.003528 0.000726 0.027297
#
#
# Mechanical properties :
#
#
# Convention : Reuss Voigt Hill
#
# Bulk Modulus (GPa) = 46.78262 55.79935 51.29099
# Shear Modulus (GPa) = 29.02463 34.11247 31.56855
#
# Velocity S-wave (km/s) = 3.66466 3.97289 3.82188
# Velocity P-wave (km/s) = 6.28909 6.84569 6.57328
#
# Compressibility (1/GPa) = 0.02137546
#
# Stress axis : x y z
#
# Youngs Moduli (GPa) = 71.67409 65.79913 79.55086
#
# Poissons Ratio (x) = 0.39672 0.32036
# Poissons Ratio (y) = 0.43214 0.00923
# Poissons Ratio (z) = 0.28864 0.00764
#
# Static dielectric constant tensor:
#      x y z
#    x 4.149240 0.178070 -0.020600 
#    y 0.178070 4.395080 -0.189120 
#    z -0.020600 -0.189120 3.870500 
# 
# 
# High freq. dielectric constant tensor:
#      x y z
#    x 1.863630 -0.001800 -0.000410 
#    y -0.001800 1.857380 -0.013770 
#    z -0.000410 -0.013770 1.850320 
# 
# From -- ./inp_files/425752.got.cif
#   From: 2010.06.25/outbox.cif.g09.slc.cpg/sg2_213_cif.got.tgz:425752.got - 2010.06.27 13:26:56.
