data_PCOD8019635
_publ_section_title
;
Structure prediction by ZEFSAII (Michael W. Deem and Ramdas Pophale) SiO2 
 PCOD8019635
Probable space group: P -1
;
_chemical_formula_sum "Si O2"
_cell_formula_units_Z 16
_cell_length_a 15.180968
_cell_length_b 10.050912
_cell_length_c 8.988029
_cell_angle_alpha 110.261502
_cell_angle_beta 51.374459
_cell_angle_gamma 73.984249
_cell_volume 744.876392
_symmetry_space_group_name_H-M "P -1"
_symmetry_group_IT_number 2
_symmetry_cell_setting 'triclinic'
loop_
_space_group_symop_operation_xyz
x,y,z
-x,-y,-z
loop_
_atom_site_type_symbol
_atom_site_label
_atom_site_fract_x
_atom_site_fract_y
_atom_site_fract_z
Si Si1 0.839164 0.615937 0.785364
Si Si2 0.656966 0.229141 0.604764
Si Si3 0.307321 0.545655 0.157617
Si Si4 0.680267 0.944190 0.657563
Si Si5 0.117030 0.810233 0.198553
Si Si6 0.581639 0.036139 0.120537
Si Si7 0.993624 0.402271 0.827758
Si Si8 0.366449 0.723544 0.698197
O O1 0.767965 0.538838 0.750938
O O2 0.000000 0.500000 0.500000
O O3 0.867574 0.571680 0.914499
O O4 0.730645 0.839651 0.958563
O O5 0.740262 0.298026 0.608664
O O6 0.677194 0.218968 0.404518
O O7 0.729272 0.027869 0.524995
O O8 0.485422 0.371453 0.896635
O O9 0.253013 0.640753 0.091401
O O10 0.833723 0.735846 0.469471
O O11 0.566958 0.934518 0.686706
O O12 0.599025 0.065598 0.940685
O O13 0.041833 0.737136 0.166679
O O14 0.204510 0.832129 0.992845
O O15 0.000000 0.000000 0.500000
O O16 0.553179 0.202083 0.303963
O O17 0.000000 0.500000 0.000000
O O18 0.500000 0.500000 0.500000
#
# Coordination Sequence:
#
# PCOD8019635 Si02
#       8
#     2   2   2   2   2   2   2   2
#     4  11  23  44  67 101 137 181 227 278 347 422
#     4  11  23  41  68 100 135 172 236 289 339 403
#     4  10  22  41  69  95 132 184 224 281 344 415
#     4  11  24  45  68 101 134 184 230 281 343 423
#     4  11  24  48  70  94 141 189 231 279 358 430
#     4  11  25  43  71  99 138 181 235 282 344 424
#     4  11  26  42  70  98 140 178 224 288 355 408
#     4  12  27  42  68 104 137 179 237 296 346 406
#
# _framework density 21.480074999999999
#
# number of rings (size 3 to 8) (size 9 to 14) (size 15 to 20)
#    0.000    1.000    3.750    2.250    7.000    1.500 
#    0.000    2.500    0.000    0.000    0.000    0.000 
#    0.000    0.000    0.000    0.000    0.000    0.000 
#
# Total GULP energy -198346.848478 kJ/mol
# GULP energy per Si atom -12396.678030 kJ/mol
# Density = 2.143119 g / cm^3
# Si number density = 21.480075 Si / 1000 Ang^3
#
#
#
# Elastic Constant Matrix: (Units=GPa)
#
#
# Indices 1 2 3 4 5 6 
#
# 1 145.1129 50.9035 45.3544 9.6217 20.4660 21.0831
# 2 50.9035 117.4265 39.0993 5.8427 13.1429 4.1416
# 3 45.3544 39.0993 82.8164 -4.2575 5.4230 14.1654
# 4 9.6217 5.8427 -4.2575 33.9807 -5.9142 3.8371
# 5 20.4660 13.1429 5.4230 -5.9142 42.5855 10.0515
# 6 21.0831 4.1416 14.1654 3.8371 10.0515 42.5902
#
#
#
# Elastic Compliance Matrix: (Units=1/GPa)
#
#
# Indices 1 2 3 4 5 6 
#
# 1 0.009987 -0.002407 -0.003878 -0.003243 -0.003468 -0.002309
# 2 -0.002407 0.011380 -0.004425 -0.002578 -0.002724 0.002432
# 3 -0.003878 -0.004425 0.017123 0.004993 0.002793 -0.004454
# 4 -0.003243 -0.002578 0.004993 0.033217 0.007404 -0.004545
# 5 -0.003468 -0.002724 0.002793 0.007404 0.028139 -0.006255
# 6 -0.002309 0.002432 -0.004454 -0.004545 -0.006255 0.027754
#
#
# Mechanical properties :
#
#
# Convention : Reuss Voigt Hill
#
# Bulk Modulus (GPa) = 58.57667 68.45222 63.51444
# Shear Modulus (GPa) = 32.31869 37.83118 35.07494
#
# Velocity S-wave (km/s) = 3.88311 4.20124 4.04531
# Velocity P-wave (km/s) = 6.88725 7.44788 7.17304
#
# Compressibility (1/GPa) = 0.01707164
#
# Stress axis : x y z
#
# Youngs Moduli (GPa) = 100.12801 87.87253 58.40092
#
# Poissons Ratio (x) = 0.21154 0.22645
# Poissons Ratio (y) = 0.24104 0.25840
# Poissons Ratio (z) = 0.38825 0.38879
#
# Static dielectric constant tensor:
#      x y z
#    x 4.129880 -0.081810 -0.101850 
#    y -0.081810 4.103980 0.078810 
#    z -0.101850 0.078810 3.688010 
# 
# 
# High freq. dielectric constant tensor:
#      x y z
#    x 1.864070 0.001990 -0.007870 
#    y 0.001990 1.848490 0.006890 
#    z -0.007870 0.006890 1.827830 
# 
# From -- ./inp_files/299105.got.cif
#   From: 2010.06.25/outbox.cif.g09.slc.cpg/sg2_150_cif.got.tgz:299105.got - 2010.06.27 13:26:56.
