data_PCOD8019293
_publ_section_title
;
Structure prediction by ZEFSAII (Michael W. Deem and Ramdas Pophale) SiO2 
 PCOD8019293
Probable space group: P -1
;
_chemical_formula_sum "Si O2"
_cell_formula_units_Z 16
_cell_length_a 9.566316
_cell_length_b 7.898335
_cell_length_c 16.525118
_cell_angle_alpha 66.931999
_cell_angle_beta 41.065855
_cell_angle_gamma 90.904454
_cell_volume 646.929835
_symmetry_space_group_name_H-M "P -1"
_symmetry_group_IT_number 2
_symmetry_cell_setting 'triclinic'
loop_
_space_group_symop_operation_xyz
x,y,z
-x,-y,-z
loop_
_atom_site_type_symbol
_atom_site_label
_atom_site_fract_x
_atom_site_fract_y
_atom_site_fract_z
Si Si1 0.237273 0.641304 0.468410
Si Si2 0.314550 0.778784 0.952093
Si Si3 0.590590 0.965781 0.381018
Si Si4 0.598450 0.764175 0.154204
Si Si5 0.873440 0.046178 0.617835
Si Si6 0.962686 0.999794 0.758005
Si Si7 0.935659 0.659874 0.933297
Si Si8 0.758771 0.277284 0.822862
O O1 0.362949 0.817411 0.451176
O O2 0.441531 0.626512 0.327178
O O3 0.040932 0.424855 0.638760
O O4 0.105944 0.725473 0.447498
O O5 0.136879 0.586595 0.003028
O O6 0.270913 0.674180 0.080602
O O7 0.592201 0.856151 0.789113
O O8 0.269009 0.979215 0.931903
O O9 0.772513 0.867695 0.334339
O O10 0.500000 0.000000 0.500000
O O11 0.763321 0.195834 0.216585
O O12 0.424937 0.704820 0.161736
O O13 0.801920 0.696817 0.062067
O O14 0.000000 0.000000 0.500000
O O15 0.030843 0.056082 0.624567
O O16 0.741892 0.045140 0.871653
O O17 0.856499 0.748581 0.872380
#
# Coordination Sequence:
#
# PCOD8019293 Si02
#       8
#     2   2   2   2   2   2   2   2
#     4  11  25  40  69  94 140 182 210 282 354 370
#     4  11  22  40  69  96 132 179 220 270 343 388
#     4  10  22  45  63  98 137 178 227 277 319 416
#     4  11  23  43  63 103 140 164 225 292 324 404
#     4  11  24  39  60 102 131 169 221 278 329 399
#     4  10  22  41  66  94 132 172 225 272 321 396
#     4  10  24  41  69  99 129 184 225 273 329 405
#     4  12  22  42  67 102 133 177 225 280 329 407
#
# _framework density 24.732203999999999
#
# number of rings (size 3 to 8) (size 9 to 14) (size 15 to 20)
#    0.750    0.500    3.750    3.000    3.500    2.000 
#    0.000    2.500    0.000    0.000    0.000    0.000 
#    0.000    0.000    0.000    0.000    0.000    0.000 
#
# Total GULP energy -198252.605633 kJ/mol
# GULP energy per Si atom -12390.787852 kJ/mol
# Density = 2.467591 g / cm^3
# Si number density = 24.732204 Si / 1000 Ang^3
#
#
#
# Elastic Constant Matrix: (Units=GPa)
#
#
# Indices 1 2 3 4 5 6 
#
# 1 18.6306 -12.5649 -12.4701 -2.4106 4.3707 -13.5676
# 2 -12.5649 101.1027 38.0639 13.9619 -2.6601 4.5160
# 3 -12.4701 38.0639 135.8408 24.6912 8.7467 6.0124
# 4 -2.4106 13.9619 24.6912 52.1052 9.4824 -1.7932
# 5 4.3707 -2.6601 8.7467 9.4824 27.7292 -0.4648
# 6 -13.5676 4.5160 6.0124 -1.7932 -0.4648 30.4253
#
#
#
# Elastic Compliance Matrix: (Units=1/GPa)
#
#
# Indices 1 2 3 4 5 6 
#
# 1 0.096371 0.007067 0.005328 0.004552 -0.017064 0.040881
# 2 0.007067 0.011942 -0.002531 -0.001886 0.001505 0.001791
# 3 0.005328 -0.002531 0.009246 -0.002887 -0.003000 0.000709
# 4 0.004552 -0.001886 -0.002887 0.022823 -0.007724 0.004107
# 5 -0.017064 0.001505 -0.003000 -0.007724 0.042367 -0.007048
# 6 0.040881 0.001791 0.000709 0.004107 -0.007048 0.050826
#
#
# Mechanical properties :
#
#
# Convention : Reuss Voigt Hill
#
# Bulk Modulus (GPa) = 7.28391 31.29245 19.28818
# Shear Modulus (GPa) = 19.25975 38.22163 28.74069
#
# Velocity S-wave (km/s) = 2.79360 3.93545 3.41262
# Velocity P-wave (km/s) = 3.65474 5.77324 4.83153
#
# Compressibility (1/GPa) = 0.13728893
#
# Stress axis : x y z
#
# Youngs Moduli (GPa) = 10.37655 83.73715 108.15049
#
# Poissons Ratio (x) = -0.59178 -0.57627
# Poissons Ratio (y) = -0.07333 0.27372
# Poissons Ratio (z) = -0.05529 0.21193
#
# Static dielectric constant tensor:
#      x y z
#    x 3.966640 0.255680 0.377070 
#    y 0.255680 4.094750 0.054320 
#    z 0.377070 0.054320 4.670580 
# 
# 
# High freq. dielectric constant tensor:
#      x y z
#    x 1.974650 0.005550 0.012850 
#    y 0.005550 1.961130 0.018630 
#    z 0.012850 0.018630 2.005700 
# 
# From -- ./inp_files/565873.got.cif
#   From: 2010.06.25/outbox.cif.g09.slc.cpg/sg2_283_cif.got.tgz:565873.got - 2010.06.27 13:26:56.
