data_PCOD8019874
_publ_section_title
;
Structure prediction by ZEFSAII (Michael W. Deem and Ramdas Pophale) SiO2 
 PCOD8019874
Probable space group: P -1
;
_chemical_formula_sum "Si O2"
_cell_formula_units_Z 16
_cell_length_a 11.891312
_cell_length_b 17.710093
_cell_length_c 7.188718
_cell_angle_alpha 124.452441
_cell_angle_beta 90.843840
_cell_angle_gamma 49.189202
_cell_volume 777.108795
_symmetry_space_group_name_H-M "P -1"
_symmetry_group_IT_number 2
_symmetry_cell_setting 'triclinic'
loop_
_space_group_symop_operation_xyz
x,y,z
-x,-y,-z
loop_
_atom_site_type_symbol
_atom_site_label
_atom_site_fract_x
_atom_site_fract_y
_atom_site_fract_z
Si Si1 0.557271 0.942575 0.629817
Si Si2 0.208050 0.552319 0.406947
Si Si3 0.662272 0.621506 0.466837
Si Si4 0.398967 0.933992 0.919287
Si Si5 0.895088 0.073585 0.406073
Si Si6 0.013892 0.133229 0.178784
Si Si7 0.511320 0.602065 0.113057
Si Si8 0.099908 0.372395 0.682772
O O1 0.443078 0.932170 0.702684
O O2 0.768869 0.781120 0.417753
O O3 0.500000 0.000000 0.500000
O O4 0.503452 0.063700 0.924194
O O5 0.252077 0.490849 0.525808
O O6 0.150150 0.694637 0.627042
O O7 0.048002 0.591330 0.380516
O O8 0.391149 0.434725 0.128250
O O9 0.464448 0.787524 0.748366
O O10 0.641760 0.563943 0.217117
O O11 0.783995 0.634514 0.455398
O O12 0.189134 0.080361 0.158918
O O13 0.683737 0.225234 0.651612
O O14 0.968903 0.107520 0.328109
O O15 0.000000 0.000000 0.500000
O O16 0.934614 0.956497 0.128774
O O17 0.500000 0.500000 0.000000
O O18 0.000000 0.500000 0.000000
#
# Coordination Sequence:
#
# PCOD8019874 Si02
#       8
#     2   2   2   2   2   2   2   2
#     4  10  23  39  64  93 132 173 212 276 327 384
#     4  12  26  43  72 100 139 184 220 282 341 404
#     4  11  26  43  70  96 140 185 220 279 342 400
#     4  10  22  42  61  95 129 167 228 265 320 403
#     4  11  27  46  71  95 134 178 223 285 340 399
#     4  11  24  46  66  99 131 170 231 277 328 406
#     4  12  26  47  66 103 138 172 233 281 336 410
#     4  11  23  44  65 101 138 174 231 273 332 411
#
# _framework density 20.589137000000001
#
# number of rings (size 3 to 8) (size 9 to 14) (size 15 to 20)
#    0.000    1.000    5.000    0.375    5.250    2.500 
#    0.000    0.000    0.000    0.000    0.000    0.000 
#    0.000    0.000    0.000    0.000    0.000    0.000 
#
# Total GULP energy -198361.814720 kJ/mol
# GULP energy per Si atom -12397.613420 kJ/mol
# Density = 2.054227 g / cm^3
# Si number density = 20.589137 Si / 1000 Ang^3
#
#
#
# Elastic Constant Matrix: (Units=GPa)
#
#
# Indices 1 2 3 4 5 6 
#
# 1 93.3657 43.4989 40.5558 -5.9362 -3.8274 -1.1219
# 2 43.4989 147.5120 74.5767 -13.7385 1.5037 4.6558
# 3 40.5558 74.5767 128.4515 7.5358 -2.4616 2.3214
# 4 -5.9362 -13.7385 7.5358 36.6446 0.0721 0.6097
# 5 -3.8274 1.5037 -2.4616 0.0721 34.9404 11.3098
# 6 -1.1219 4.6558 2.3214 0.6097 11.3098 27.4987
#
#
#
# Elastic Compliance Matrix: (Units=1/GPa)
#
#
# Indices 1 2 3 4 5 6 
#
# 1 0.013225 -0.002256 -0.002968 0.001894 0.001115 0.000671
# 2 -0.002256 0.010954 -0.005932 0.004984 -0.000742 -0.001251
# 3 -0.002968 -0.005932 0.012502 -0.005270 0.000969 -0.000454
# 4 0.001894 0.004984 -0.005270 0.030564 -0.000136 -0.000943
# 5 0.001115 -0.000742 0.000969 -0.000136 0.033238 -0.013578
# 6 0.000671 -0.001251 -0.000454 -0.000943 -0.013578 0.042248
#
#
# Mechanical properties :
#
#
# Convention : Reuss Voigt Hill
#
# Bulk Modulus (GPa) = 69.58528 76.28799 72.93663
# Shear Modulus (GPa) = 29.44102 33.86327 31.65214
#
# Velocity S-wave (km/s) = 3.78554 4.05991 3.92512
# Velocity P-wave (km/s) = 7.27857 7.68831 7.48624
#
# Compressibility (1/GPa) = 0.01437085
#
# Stress axis : x y z
#
# Youngs Moduli (GPa) = 75.61583 91.28849 79.98865
#
# Poissons Ratio (x) = 0.20591 0.23738
# Poissons Ratio (y) = 0.17056 0.47447
# Poissons Ratio (z) = 0.22441 0.54149
#
# Static dielectric constant tensor:
#      x y z
#    x 3.537050 -0.016760 -0.170690 
#    y -0.016760 3.741520 0.272140 
#    z -0.170690 0.272140 3.901180 
# 
# 
# High freq. dielectric constant tensor:
#      x y z
#    x 1.812360 0.002820 0.001300 
#    y 0.002820 1.803560 0.015060 
#    z 0.001300 0.015060 1.820810 
# 
# From -- ./inp_files/81582.got.cif
#   From: 2010.06.25/outbox.cif.g09.slc.cpg/sg2_41_cif.got.tgz:81582.got - 2010.06.27 13:26:56.
