data_PCOD8019416
_publ_section_title
;
Structure prediction by ZEFSAII (Michael W. Deem and Ramdas Pophale) SiO2 
 PCOD8019416
Probable space group: P -1
;
_chemical_formula_sum "Si O2"
_cell_formula_units_Z 16
_cell_length_a 19.621219
_cell_length_b 8.865369
_cell_length_c 5.206526
_cell_angle_alpha 57.264922
_cell_angle_beta 109.889950
_cell_angle_gamma 105.776974
_cell_volume 711.948816
_symmetry_space_group_name_H-M "P -1"
_symmetry_group_IT_number 2
_symmetry_cell_setting 'triclinic'
loop_
_space_group_symop_operation_xyz
x,y,z
-x,-y,-z
loop_
_atom_site_type_symbol
_atom_site_label
_atom_site_fract_x
_atom_site_fract_y
_atom_site_fract_z
Si Si1 0.562813 0.873859 0.229211
Si Si2 0.151709 0.887625 0.589140
Si Si3 0.924534 0.782245 0.679855
Si Si4 0.009711 0.713843 0.340580
Si Si5 0.200018 0.535008 0.159090
Si Si6 0.292275 0.562015 0.744169
Si Si7 0.395401 0.277571 0.084980
Si Si8 0.303567 0.967660 0.475920
O O1 0.549077 0.752615 0.581683
O O2 0.641101 0.996696 0.242785
O O3 0.562845 0.738411 0.113798
O O4 0.500000 0.000000 0.000000
O O5 0.094921 0.785346 0.408888
O O6 0.220614 0.981914 0.434740
O O7 0.118303 0.042652 0.562648
O O8 0.177677 0.738301 0.953724
O O9 0.872181 0.601716 0.836314
O O10 0.968214 0.770006 0.486876
O O11 0.980241 0.808915 0.965229
O O12 0.000000 0.500000 0.500000
O O13 0.238557 0.490078 0.512943
O O14 0.253579 0.510460 0.012575
O O15 0.314013 0.774464 0.546964
O O16 0.366967 0.471761 0.899264
O O17 0.325729 0.122462 0.149790
#
# Coordination Sequence:
#
# PCOD8019416 Si02
#       8
#     2   2   2   2   2   2   2   2
#     4  10  22  44  68  96 136 172 209 259 319 376
#     4  11  25  44  67  97 127 166 223 262 327 384
#     4  12  26  45  67  91 126 175 216 268 326 389
#     4  12  26  47  65  91 130 171 215 273 329 379
#     4  11  25  39  66  94 131 166 211 279 318 374
#     4  11  23  40  64  99 132 165 218 263 323 372
#     4  10  22  41  67  95 131 172 210 259 315 382
#     4   9  25  40  68  97 130 167 210 268 314 378
#
# _framework density 22.473527000000001
#
# number of rings (size 3 to 8) (size 9 to 14) (size 15 to 20)
#    0.750    0.500    1.250    3.750    7.000    2.000 
#    0.000    1.250    0.000    0.000    0.000    0.000 
#    0.000    0.000    0.000    0.000    0.000    0.000 
#
# Total GULP energy -198425.096550 kJ/mol
# GULP energy per Si atom -12401.568534 kJ/mol
# Density = 2.242238 g / cm^3
# Si number density = 22.473527 Si / 1000 Ang^3
#
#
#
# Elastic Constant Matrix: (Units=GPa)
#
#
# Indices 1 2 3 4 5 6 
#
# 1 69.8387 42.0426 25.3657 5.0072 10.4893 -31.9193
# 2 42.0426 67.4524 43.4434 8.4836 -7.7591 -30.7045
# 3 25.3657 43.4434 108.1385 13.4048 15.4211 -34.7767
# 4 5.0072 8.4836 13.4048 37.3851 -6.5450 -3.4210
# 5 10.4893 -7.7591 15.4211 -6.5450 32.2566 -4.7637
# 6 -31.9193 -30.7045 -34.7767 -3.4210 -4.7637 45.2591
#
#
#
# Elastic Compliance Matrix: (Units=1/GPa)
#
#
# Indices 1 2 3 4 5 6 
#
# 1 0.033863 -0.022452 0.008587 -0.004776 -0.019593 0.012825
# 2 -0.022452 0.043144 -0.014519 0.003477 0.026107 0.005290
# 3 0.008587 -0.014519 0.018809 -0.006501 -0.015333 0.008554
# 4 -0.004776 0.003477 -0.006501 0.030691 0.011357 -0.002490
# 5 -0.019593 0.026107 -0.015333 0.011357 0.053074 -0.001444
# 6 0.012825 0.005290 0.008554 -0.002490 -0.001444 0.040961
#
#
# Mechanical properties :
#
#
# Convention : Reuss Voigt Hill
#
# Bulk Modulus (GPa) = 25.60910 51.90368 38.75639
# Shear Modulus (GPa) = 17.22195 31.95200 24.58697
#
# Velocity S-wave (km/s) = 2.77125 3.77472 3.31122
# Velocity P-wave (km/s) = 4.65401 6.49181 5.64816
#
# Compressibility (1/GPa) = 0.03904862
#
# Stress axis : x y z
#
# Youngs Moduli (GPa) = 29.53104 23.17794 53.16485
#
# Poissons Ratio (x) = 0.52040 -0.45655
# Poissons Ratio (y) = 0.66304 0.77191
# Poissons Ratio (z) = -0.25360 0.33653
#
# Static dielectric constant tensor:
#      x y z
#    x 3.893990 -0.031560 0.090690 
#    y -0.031560 4.194040 -0.030170 
#    z 0.090690 -0.030170 4.023870 
# 
# 
# High freq. dielectric constant tensor:
#      x y z
#    x 1.876260 -0.008920 0.005670 
#    y -0.008920 1.892590 -0.003340 
#    z 0.005670 -0.003340 1.888920 
# 
# From -- ./inp_files/116724.got.cif
#   From: 2010.06.25/outbox.cif.g09.slc.cpg/sg2_59_cif.got.tgz:116724.got - 2010.06.27 13:26:56.
