data_PCOD8019783
_publ_section_title
;
Structure prediction by ZEFSAII (Michael W. Deem and Ramdas Pophale) SiO2 
 PCOD8019783
Probable space group: P -1
;
_chemical_formula_sum "Si O2"
_cell_formula_units_Z 12
_cell_length_a 14.537075
_cell_length_b 13.270355
_cell_length_c 10.034156
_cell_angle_alpha 99.541156
_cell_angle_beta 69.144111
_cell_angle_gamma 159.279287
_cell_volume 552.100103
_symmetry_space_group_name_H-M "P -1"
_symmetry_group_IT_number 2
_symmetry_cell_setting 'triclinic'
loop_
_space_group_symop_operation_xyz
x,y,z
-x,-y,-z
loop_
_atom_site_type_symbol
_atom_site_label
_atom_site_fract_x
_atom_site_fract_y
_atom_site_fract_z
Si Si1 0.292036 0.524464 0.815928
Si Si2 0.389515 0.387876 0.683046
Si Si3 0.708705 0.632019 0.829539
Si Si4 0.875560 0.353767 0.387314
Si Si5 0.241397 0.536048 0.124200
Si Si6 0.192362 0.847471 0.186974
O O1 0.338257 0.450398 0.775646
O O2 0.102156 0.372164 0.751099
O O3 0.632454 0.920568 0.730252
O O4 0.100559 0.361019 0.015444
O O5 0.500000 0.500000 0.500000
O O6 0.643548 0.587310 0.696359
O O7 0.070030 0.007432 0.767024
O O8 0.639826 0.444775 0.849748
O O9 0.500000 0.500000 0.000000
O O10 0.000000 0.500000 0.500000
O O11 0.969869 0.330942 0.296613
O O12 0.055578 0.603073 0.243501
O O13 0.500000 0.000000 0.500000
O O14 0.557939 0.917773 0.013862
#
# Coordination Sequence:
#
# PCOD8019783 Si02
#       6
#     2   2   2   2   2   2
#     4  10  22  41  72  95 129 180 231 260 343 396
#     4  12  26  43  66 104 144 178 223 286 343 396
#     4  12  24  44  73 100 138 180 236 278 327 415
#     4  12  28  45  67 103 137 171 223 285 345 398
#     4  10  26  43  74  95 133 183 229 272 338 402
#     4  10  23  44  71  91 135 174 231 269 335 407
#
# _framework density 21.735189999999999
#
# number of rings (size 3 to 8) (size 9 to 14) (size 15 to 20)
#    1.000    0.000    1.667    4.500    4.667    4.667 
#    0.000    0.000    0.000    0.000    0.000    0.000 
#    0.000    0.000    0.000    0.000    0.000    0.000 
#
# Total GULP energy -148754.131872 kJ/mol
# GULP energy per Si atom -12396.177656 kJ/mol
# Density = 2.168572 g / cm^3
# Si number density = 21.735190 Si / 1000 Ang^3
#
#
#
# Elastic Constant Matrix: (Units=GPa)
#
#
# Indices 1 2 3 4 5 6 
#
# 1 150.7666 40.8888 64.1539 -6.6242 -8.4317 4.3734
# 2 40.8888 128.7624 34.3403 -3.2679 -8.8545 13.3799
# 3 64.1539 34.3403 109.5975 3.4136 -11.6091 -9.4692
# 4 -6.6242 -3.2679 3.4136 32.0051 -3.6193 3.0490
# 5 -8.4317 -8.8545 -11.6091 -3.6193 29.1837 0.9946
# 6 4.3734 13.3799 -9.4692 3.0490 0.9946 33.8647
#
#
#
# Elastic Compliance Matrix: (Units=1/GPa)
#
#
# Indices 1 2 3 4 5 6 
#
# 1 0.009491 -0.001191 -0.005418 0.002736 0.000651 -0.002535
# 2 -0.001191 0.009448 -0.002501 0.001624 0.001881 -0.004480
# 3 -0.005418 -0.002501 0.013957 -0.003118 0.002644 0.005794
# 4 0.002736 0.001624 -0.003118 0.033276 0.004340 -0.004991
# 5 0.000651 0.001881 0.002644 0.004340 0.036668 -0.001556
# 6 -0.002535 -0.004480 0.005794 -0.004991 -0.001556 0.033742
#
#
# Mechanical properties :
#
#
# Convention : Reuss Voigt Hill
#
# Bulk Modulus (GPa) = 68.14179 74.21029 71.17604
# Shear Modulus (GPa) = 31.30977 35.66026 33.48502
#
# Velocity S-wave (km/s) = 3.79952 4.05491 3.92929
# Velocity P-wave (km/s) = 7.11811 7.49267 7.30779
#
# Compressibility (1/GPa) = 0.01467528
#
# Stress axis : x y z
#
# Youngs Moduli (GPa) = 105.35760 105.84516 71.64777
#
# Poissons Ratio (x) = 0.12611 0.38818
# Poissons Ratio (y) = 0.12553 0.17921
# Poissons Ratio (z) = 0.57082 0.26474
#
# Static dielectric constant tensor:
#      x y z
#    x 3.949690 0.109840 0.192850 
#    y 0.109840 4.026630 0.070580 
#    z 0.192850 0.070580 3.912300 
# 
# 
# High freq. dielectric constant tensor:
#      x y z
#    x 1.862360 0.004110 0.010980 
#    y 0.004110 1.861720 0.001400 
#    z 0.010980 0.001400 1.839730 
# 
# From -- ./inp_files/313333.got.cif
#   From: 2010.06.25/outbox.cif.g09.slc.cpg/sg2_157_cif.got.tgz:313333.got - 2010.06.27 13:26:56.
