data_PCOD8019126
_publ_section_title
;
Structure prediction by ZEFSAII (Michael W. Deem and Ramdas Pophale) SiO2 
 PCOD8019126
Probable space group: P -1
;
_chemical_formula_sum "Si O2"
_cell_formula_units_Z 16
_cell_length_a 16.645322
_cell_length_b 11.307541
_cell_length_c 19.506345
_cell_angle_alpha 43.008869
_cell_angle_beta 23.930626
_cell_angle_gamma 29.781403
_cell_volume 703.719494
_symmetry_space_group_name_H-M "P -1"
_symmetry_group_IT_number 2
_symmetry_cell_setting 'triclinic'
loop_
_space_group_symop_operation_xyz
x,y,z
-x,-y,-z
loop_
_atom_site_type_symbol
_atom_site_label
_atom_site_fract_x
_atom_site_fract_y
_atom_site_fract_z
Si Si1 0.733197 0.857034 0.701440
Si Si2 0.521911 0.822938 0.746118
Si Si3 0.305645 0.397051 0.050136
Si Si4 0.204184 0.732755 0.092880
Si Si5 0.657982 0.253840 0.323735
Si Si6 0.275332 0.426612 0.792974
Si Si7 0.236622 0.350701 0.706214
Si Si8 0.347568 0.527334 0.317807
O O1 0.701686 0.753713 0.703339
O O2 0.622431 0.822382 0.869912
O O3 0.060078 0.718090 0.506359
O O4 0.552739 0.146068 0.718557
O O5 0.700339 0.589036 0.653857
O O6 0.417405 0.061587 0.690855
O O7 0.243543 0.889769 0.956585
O O8 0.129600 0.629529 0.141352
O O9 0.098611 0.476395 0.115644
O O10 0.579880 0.331178 0.834799
O O11 0.500000 0.500000 0.000000
O O12 0.913851 0.953275 0.268780
O O13 0.740781 0.378127 0.243035
O O14 0.359469 0.375969 0.535140
O O15 0.608722 0.311737 0.256162
O O16 0.274708 0.444695 0.703667
O O17 0.000000 0.500000 0.000000
#
# Coordination Sequence:
#
# PCOD8019126 Si02
#       8
#     2   2   2   2   2   2   2   2
#     4  11  23  45  70 100 141 176 229 286 329 409
#     4  10  22  41  65 103 140 179 222 274 345 401
#     4  11  23  43  70 106 137 179 225 279 351 388
#     4  11  23  39  70  98 139 175 220 282 334 411
#     4  12  25  44  68 101 136 182 229 276 346 402
#     4  11  26  49  70  92 136 184 229 282 335 407
#     4  11  24  44  69  99 136 181 230 278 338 412
#     4  11  24  41  71 105 141 178 223 285 338 409
#
# _framework density 22.736332000000001
#
# number of rings (size 3 to 8) (size 9 to 14) (size 15 to 20)
#    0.000    1.000    2.500    4.500    1.750    7.500 
#    2.250    1.250    0.000    0.000    0.000    0.000 
#    0.000    0.000    0.000    0.000    0.000    0.000 
#
# Total GULP energy -198353.425233 kJ/mol
# GULP energy per Si atom -12397.089077 kJ/mol
# Density = 2.268458 g / cm^3
# Si number density = 22.736332 Si / 1000 Ang^3
#
#
#
# Elastic Constant Matrix: (Units=GPa)
#
#
# Indices 1 2 3 4 5 6 
#
# 1 71.3210 41.6376 16.6255 -1.8682 1.2290 -17.8360
# 2 41.6376 71.6448 12.7211 9.2256 -3.0603 -3.4838
# 3 16.6255 12.7211 69.6991 -1.0242 4.7105 -7.6767
# 4 -1.8682 9.2256 -1.0242 37.2367 -3.8131 0.3268
# 5 1.2290 -3.0603 4.7105 -3.8131 33.8109 -3.4760
# 6 -17.8360 -3.4838 -7.6767 0.3268 -3.4760 33.4657
#
#
#
# Elastic Compliance Matrix: (Units=1/GPa)
#
#
# Indices 1 2 3 4 5 6 
#
# 1 0.026413 -0.015023 -0.002155 0.004858 -0.000244 0.011946
# 2 -0.015023 0.023582 -0.001548 -0.006427 0.001588 -0.005679
# 3 -0.002155 -0.001548 0.015508 0.000484 -0.001958 0.002040
# 4 0.004858 -0.006427 0.000484 0.028958 0.002648 0.002023
# 5 -0.000244 0.001588 -0.001958 0.002648 0.030582 0.002737
# 6 0.011946 -0.005679 0.002040 0.002023 0.002737 0.036389
#
#
# Mechanical properties :
#
#
# Convention : Reuss Voigt Hill
#
# Bulk Modulus (GPa) = 35.64779 39.40371 37.52575
# Shear Modulus (GPa) = 24.01149 30.34803 27.17976
#
# Velocity S-wave (km/s) = 3.25327 3.65743 3.46125
# Velocity P-wave (km/s) = 5.46118 5.93330 5.70213
#
# Compressibility (1/GPa) = 0.02805223
#
# Stress axis : x y z
#
# Youngs Moduli (GPa) = 37.86062 42.40440 64.48285
#
# Poissons Ratio (x) = 0.63703 0.13895
# Poissons Ratio (y) = 0.56877 0.09982
# Poissons Ratio (z) = 0.08158 0.06564
#
# Static dielectric constant tensor:
#      x y z
#    x 7.940180 4.793940 -2.762630 
#    y 4.793940 10.382460 -3.816860 
#    z -2.762630 -3.816860 6.186480 
# 
# 
# High freq. dielectric constant tensor:
#      x y z
#    x 1.900630 -0.003370 -0.003470 
#    y -0.003370 1.885490 -0.011380 
#    z -0.003470 -0.011380 1.903630 
# 
# From -- ./inp_files/447141.got.cif
#   From: 2010.06.25/outbox.cif.g09.slc.cpg/sg2_224_cif.got.tgz:447141.got - 2010.06.27 13:26:56.
