data_PCOD8019603
_publ_section_title
;
Structure prediction by ZEFSAII (Michael W. Deem and Ramdas Pophale) SiO2 
 PCOD8019603
Probable space group: P -1
;
_chemical_formula_sum "Si O2"
_cell_formula_units_Z 16
_cell_length_a 23.437153
_cell_length_b 6.598492
_cell_length_c 5.026228
_cell_angle_alpha 73.013390
_cell_angle_beta 115.445217
_cell_angle_gamma 100.382827
_cell_volume 669.934130
_symmetry_space_group_name_H-M "P -1"
_symmetry_group_IT_number 2
_symmetry_cell_setting 'triclinic'
loop_
_space_group_symop_operation_xyz
x,y,z
-x,-y,-z
loop_
_atom_site_type_symbol
_atom_site_label
_atom_site_fract_x
_atom_site_fract_y
_atom_site_fract_z
Si Si1 0.161800 0.051700 0.823050
Si Si2 0.664899 0.335234 0.177776
Si Si3 0.439517 0.003118 0.065881
Si Si4 0.649852 0.626603 0.525820
Si Si5 0.468853 0.274205 0.459554
Si Si6 0.922998 0.583345 0.536153
Si Si7 0.756178 0.996087 0.493307
Si Si8 0.062387 0.681007 0.840308
O O1 0.101065 0.889456 0.736580
O O2 0.138131 0.280964 0.617663
O O3 0.217847 0.003370 0.754172
O O4 0.187849 0.041665 0.176864
O O5 0.641478 0.448308 0.351480
O O6 0.732343 0.233980 0.398685
O O7 0.623323 0.117437 0.123610
O O8 0.664763 0.506157 0.874765
O O9 0.467522 0.849830 0.404999
O O10 0.429151 0.226319 0.122163
O O11 0.500000 0.000000 0.000000
O O12 0.584582 0.759642 0.389915
O O13 0.704369 0.800504 0.494799
O O14 0.500000 0.500000 0.500000
O O15 0.927442 0.508937 0.270511
O O16 0.987742 0.721378 0.690499
O O17 0.912950 0.386114 0.794431
#
# Coordination Sequence:
#
# PCOD8019603 Si02
#       8
#     2   2   2   2   2   2   2   2
#     4  12  25  44  70  99 136 188 232 283 339 410
#     4  12  28  47  71  98 136 183 229 288 347 410
#     4  11  25  41  71 100 136 169 217 289 348 425
#     4  12  28  47  72  99 137 181 234 286 353 420
#     4  11  24  43  70 103 130 171 221 283 359 419
#     4  10  22  41  69 104 141 178 227 283 348 399
#     4  12  29  45  68  98 139 184 239 287 335 407
#     4  10  22  41  69 104 141 178 224 289 341 408
#
# _framework density 23.882947000000001
#
# number of rings (size 3 to 8) (size 9 to 14) (size 15 to 20)
#    0.000    0.750    1.250    4.875    8.750    7.000 
#    0.000    5.000    0.000    0.000    0.000    0.000 
#    0.000    0.000    0.000    0.000    0.000    0.000 
#
# Total GULP energy -198275.628352 kJ/mol
# GULP energy per Si atom -12392.226772 kJ/mol
# Density = 2.382859 g / cm^3
# Si number density = 23.882947 Si / 1000 Ang^3
#
#
#
# Elastic Constant Matrix: (Units=GPa)
#
#
# Indices 1 2 3 4 5 6 
#
# 1 101.4426 30.6141 26.4605 -1.9762 -11.0652 -8.2633
# 2 30.6141 91.2429 31.6459 13.5972 2.0122 -7.6242
# 3 26.4605 31.6459 96.8269 2.5202 -4.4076 -17.0960
# 4 -1.9762 13.5972 2.5202 41.9955 -10.2114 1.0556
# 5 -11.0652 2.0122 -4.4076 -10.2114 46.2452 -7.2875
# 6 -8.2633 -7.6242 -17.0960 1.0556 -7.2875 51.8533
#
#
#
# Elastic Compliance Matrix: (Units=1/GPa)
#
#
# Indices 1 2 3 4 5 6 
#
# 1 0.012019 -0.003827 -0.001718 0.002773 0.003688 0.001248
# 2 -0.003827 0.014378 -0.003658 -0.005364 -0.003078 -0.000025
# 3 -0.001718 -0.003658 0.012686 0.000658 0.001669 0.003592
# 4 0.002773 -0.005364 0.000658 0.027345 0.007046 0.000304
# 5 0.003688 -0.003078 0.001669 0.007046 0.024994 0.004054
# 6 0.001248 -0.000025 0.003592 0.000304 0.004054 0.021228
#
#
# Mechanical properties :
#
#
# Convention : Reuss Voigt Hill
#
# Bulk Modulus (GPa) = 48.36446 51.88373 50.12409
# Shear Modulus (GPa) = 36.24574 41.40494 38.82534
#
# Velocity S-wave (km/s) = 3.89992 4.16824 4.03631
# Velocity P-wave (km/s) = 6.36975 6.70351 6.53876
#
# Compressibility (1/GPa) = 0.02067634
#
# Stress axis : x y z
#
# Youngs Moduli (GPa) = 83.20358 69.55216 78.82878
#
# Poissons Ratio (x) = 0.26619 0.13539
# Poissons Ratio (y) = 0.31843 0.28837
# Poissons Ratio (z) = 0.14291 0.25444
#
# Static dielectric constant tensor:
#      x y z
#    x 3.911350 0.246070 0.026330 
#    y 0.246070 4.124080 -0.164940 
#    z 0.026330 -0.164940 4.087050 
# 
# 
# High freq. dielectric constant tensor:
#      x y z
#    x 1.952040 -0.005370 -0.004930 
#    y -0.005370 1.955110 -0.005040 
#    z -0.004930 -0.005040 1.969750 
# 
# From -- ./inp_files/121599.got.cif
#   From: 2010.06.25/outbox.cif.g09.slc.cpg/sg2_61_cif.got.tgz:121599.got - 2010.06.27 13:26:56.
