data_PCOD8019877
_publ_section_title
;
Structure prediction by ZEFSAII (Michael W. Deem and Ramdas Pophale) SiO2 
 PCOD8019877
Probable space group: P -1
;
_chemical_formula_sum "Si O2"
_cell_formula_units_Z 16
_cell_length_a 11.247255
_cell_length_b 6.926462
_cell_length_c 11.301811
_cell_angle_alpha 94.865921
_cell_angle_beta 108.402805
_cell_angle_gamma 67.555900
_cell_volume 771.505202
_symmetry_space_group_name_H-M "P -1"
_symmetry_group_IT_number 2
_symmetry_cell_setting 'triclinic'
loop_
_space_group_symop_operation_xyz
x,y,z
-x,-y,-z
loop_
_atom_site_type_symbol
_atom_site_label
_atom_site_fract_x
_atom_site_fract_y
_atom_site_fract_z
Si Si1 0.708937 0.946856 0.586559
Si Si2 0.109453 0.605120 0.049973
Si Si3 0.528121 0.006071 0.313626
Si Si4 0.586204 0.616006 0.156650
Si Si5 0.873538 0.298880 0.198283
Si Si6 0.588868 0.641072 0.890986
Si Si7 0.057332 0.483517 0.387896
Si Si8 0.926781 0.137086 0.714513
O O1 0.629153 0.034448 0.444542
O O2 0.798055 0.702706 0.587055
O O3 0.611580 0.969854 0.667639
O O4 0.794324 0.086351 0.651115
O O5 0.257138 0.426000 0.108789
O O6 0.071409 0.770082 0.151510
O O7 0.115446 0.731890 0.940798
O O8 0.000000 0.500000 0.000000
O O9 0.595074 0.778480 0.264575
O O10 0.505248 0.175856 0.212824
O O11 0.719373 0.404557 0.197259
O O12 0.457185 0.556467 0.140936
O O13 0.575071 0.717092 0.027394
O O14 0.952376 0.450318 0.261972
O O15 0.940164 0.073820 0.270069
O O16 0.071827 0.701590 0.377206
O O17 0.000000 0.500000 0.500000
#
# Coordination Sequence:
#
# PCOD8019877 Si02
#       8
#     2   2   2   2   2   2   2   2
#     4  10  25  40  63  96 122 165 223 251 316 377
#     4  11  21  42  67  96 127 162 206 265 319 375
#     4  11  22  42  65  89 128 171 206 265 310 369
#     4  10  22  42  61  96 130 164 212 257 309 379
#     4  10  23  39  63  97 125 166 213 250 321 380
#     4  10  23  40  65  94 127 164 213 254 316 379
#     4  11  23  41  62  90 129 166 210 264 309 373
#     4  11  23  42  65  93 127 166 206 269 314 373
#
# _framework density 20.738682000000001
#
# number of rings (size 3 to 8) (size 9 to 14) (size 15 to 20)
#    0.000    1.500    1.250    3.000    1.750    6.000 
#    6.750    3.125    0.000    0.000    0.000    0.000 
#    0.000    0.000    0.000    0.000    0.000    0.000 
#
# Total GULP energy -198472.490780 kJ/mol
# GULP energy per Si atom -12404.530674 kJ/mol
# Density = 2.069148 g / cm^3
# Si number density = 20.738682 Si / 1000 Ang^3
#
#
#
# Elastic Constant Matrix: (Units=GPa)
#
#
# Indices 1 2 3 4 5 6 
#
# 1 109.7844 57.9602 47.4397 -7.0990 7.9326 -6.4694
# 2 57.9602 119.2244 56.0346 -3.5445 -1.8407 5.9923
# 3 47.4397 56.0346 111.5527 -0.2032 0.3289 -3.1935
# 4 -7.0990 -3.5445 -0.2032 36.7075 -1.8788 -1.0401
# 5 7.9326 -1.8407 0.3289 -1.8788 35.3240 3.4604
# 6 -6.4694 5.9923 -3.1935 -1.0401 3.4604 25.7848
#
#
#
# Elastic Compliance Matrix: (Units=1/GPa)
#
#
# Indices 1 2 3 4 5 6 
#
# 1 0.014130 -0.005726 -0.002972 0.002112 -0.003832 0.005107
# 2 -0.005726 0.013649 -0.004586 0.000161 0.002589 -0.005517
# 3 -0.002972 -0.004586 0.012582 -0.000892 0.000084 0.001831
# 4 0.002112 0.000161 -0.000892 0.027746 0.000883 0.001383
# 5 -0.003832 0.002589 0.000084 0.000883 0.029893 -0.005529
# 6 0.005107 -0.005517 0.001831 0.001383 -0.005529 0.042371
#
#
# Mechanical properties :
#
#
# Convention : Reuss Voigt Hill
#
# Bulk Modulus (GPa) = 72.49518 73.71449 73.10484
# Shear Modulus (GPa) = 29.14852 31.50507 30.32679
#
# Velocity S-wave (km/s) = 3.75309 3.90185 3.82819
# Velocity P-wave (km/s) = 7.33575 7.47802 7.40723
#
# Compressibility (1/GPa) = 0.01379402
#
# Stress axis : x y z
#
# Youngs Moduli (GPa) = 70.77089 73.26745 79.47606
#
# Poissons Ratio (x) = 0.41951 0.23617
# Poissons Ratio (y) = 0.40521 0.36450
# Poissons Ratio (z) = 0.21030 0.33602
#
# Static dielectric constant tensor:
#      x y z
#    x 3.777890 -0.092190 0.082970 
#    y -0.092190 3.549060 0.072860 
#    z 0.082970 0.072860 3.893230 
# 
# 
# High freq. dielectric constant tensor:
#      x y z
#    x 1.818760 -0.005520 0.002810 
#    y -0.005520 1.804890 0.002670 
#    z 0.002810 0.002670 1.826290 
# 
# From -- ./inp_files/70051.got.cif
#   From: 2010.06.25/outbox.cif.g09.slc.cpg/sg2_36_cif.got.tgz:70051.got - 2010.06.27 13:26:56.
