data_PCOD8019922
_publ_section_title
;
Structure prediction by ZEFSAII (Michael W. Deem and Ramdas Pophale) SiO2 
 PCOD8019922
Probable space group: P -1
;
_chemical_formula_sum "Si O2"
_cell_formula_units_Z 16
_cell_length_a 13.282166
_cell_length_b 26.391197
_cell_length_c 5.154563
_cell_angle_alpha 80.068586
_cell_angle_beta 101.741313
_cell_angle_gamma 155.723803
_cell_volume 726.932230
_symmetry_space_group_name_H-M "P -1"
_symmetry_group_IT_number 2
_symmetry_cell_setting 'triclinic'
loop_
_space_group_symop_operation_xyz
x,y,z
-x,-y,-z
loop_
_atom_site_type_symbol
_atom_site_label
_atom_site_fract_x
_atom_site_fract_y
_atom_site_fract_z
Si Si1 0.781938 0.403391 0.173227
Si Si2 0.547887 0.656916 0.936801
Si Si3 0.815954 0.347157 0.656140
Si Si4 0.318904 0.130999 0.807854
Si Si5 0.838484 0.767291 0.491064
Si Si6 0.883942 0.010876 0.670894
Si Si7 0.204917 0.367054 0.447127
Si Si8 0.100628 0.380935 0.873895
O O1 0.531793 0.320691 0.047875
O O2 0.706043 0.314346 0.346107
O O3 0.915464 0.504248 0.351945
O O4 0.000000 0.500000 0.000000
O O5 0.749290 0.751586 0.730150
O O6 0.340237 0.524817 0.834132
O O7 0.638715 0.674685 0.238479
O O8 0.617691 0.279376 0.833451
O O9 0.855058 0.304226 0.764585
O O10 0.153632 0.106690 0.725910
O O11 0.286000 0.082848 0.573516
O O12 0.253587 0.065106 0.070381
O O13 0.911014 0.740885 0.593979
O O14 0.069702 0.906867 0.393854
O O15 0.500000 0.500000 0.500000
O O16 0.101934 0.336748 0.700117
O O17 0.101123 0.358651 0.183177
#
# Coordination Sequence:
#
# PCOD8019922 Si02
#       8
#     2   2   2   2   2   2   2   2
#     4  10  24  35  57  93 124 160 197 236 292 385
#     4  11  22  35  59  87 127 158 195 241 306 369
#     4  10  24  39  60  86 126 164 195 247 301 364
#     4  10  22  42  63  85 121 158 200 248 301 359
#     4  12  23  38  63  88 122 160 198 266 303 342
#     4  10  23  39  62  91 113 155 211 250 296 359
#     4  12  22  39  61  87 124 163 201 251 304 355
#     4  11  23  38  58  91 121 162 205 233 302 379
#
# _framework density 22.010306
#
# number of rings (size 3 to 8) (size 9 to 14) (size 15 to 20)
#    0.000    1.250    2.500    2.625   12.250    1.000 
#    0.000    0.000    0.000    4.500    0.000    0.000 
#    0.000    0.000    0.000    0.000    0.000    0.000 
#
# Total GULP energy -198300.603986 kJ/mol
# GULP energy per Si atom -12393.787749 kJ/mol
# Density = 2.196021 g / cm^3
# Si number density = 22.010306 Si / 1000 Ang^3
#
#
#
# Elastic Constant Matrix: (Units=GPa)
#
#
# Indices 1 2 3 4 5 6 
#
# 1 91.5388 3.2050 37.2546 -7.4065 15.2891 2.1230
# 2 3.2050 59.2518 10.0299 -7.8642 15.4479 -0.1224
# 3 37.2546 10.0299 132.3627 -16.9714 5.8415 2.9415
# 4 -7.4065 -7.8642 -16.9714 24.0933 -6.2291 0.5997
# 5 15.2891 15.4479 5.8415 -6.2291 37.3487 -10.0845
# 6 2.1230 -0.1224 2.9415 0.5997 -10.0845 27.5790
#
#
#
# Elastic Compliance Matrix: (Units=1/GPa)
#
#
# Indices 1 2 3 4 5 6 
#
# 1 0.013463 0.001589 -0.003482 0.000644 -0.006322 -0.002984
# 2 0.001589 0.019806 -0.000962 0.004056 -0.008899 -0.003274
# 3 -0.003482 -0.000962 0.009265 0.005455 0.001172 -0.000414
# 4 0.000644 0.004056 0.005455 0.048240 0.005328 0.000286
# 5 -0.006322 -0.008899 0.001172 0.005328 0.037508 0.013921
# 6 -0.002984 -0.003274 -0.000414 0.000286 0.013921 0.041603
#
#
# Mechanical properties :
#
#
# Convention : Reuss Voigt Hill
#
# Bulk Modulus (GPa) = 27.15714 42.68138 34.91926
# Shear Modulus (GPa) = 26.61420 33.31512 29.96466
#
# Velocity S-wave (km/s) = 3.48108 3.89474 3.69371
# Velocity P-wave (km/s) = 5.34064 6.29754 5.83872
#
# Compressibility (1/GPa) = 0.03682273
#
# Stress axis : x y z
#
# Youngs Moduli (GPa) = 74.27801 50.49020 107.93526
#
# Poissons Ratio (x) = -0.08021 0.37580
# Poissons Ratio (y) = -0.11801 0.10388
# Poissons Ratio (z) = 0.25861 0.04859
#
# Static dielectric constant tensor:
#      x y z
#    x 2.312370 -6.267900 -2.379310 
#    y -6.267900 -16.246820 -8.252640 
#    z -2.379310 -8.252640 0.675350 
# 
# 
# High freq. dielectric constant tensor:
#      x y z
#    x 1.851280 -0.012300 -0.000070 
#    y -0.012300 1.842510 -0.000990 
#    z -0.000070 -0.000990 1.891120 
# 
# From -- ./inp_files/84346.got.cif
#   From: 2010.06.25/outbox.cif.g09.slc.cpg/sg2_43_cif.got.tgz:84346.got - 2010.06.27 13:26:56.
