data_PCOD8019182
_publ_section_title
;
Structure prediction by ZEFSAII (Michael W. Deem and Ramdas Pophale) SiO2 
 PCOD8019182
Probable space group: P -1
;
_chemical_formula_sum "Si O2"
_cell_formula_units_Z 16
_cell_length_a 8.179991
_cell_length_b 18.366018
_cell_length_c 5.478939
_cell_angle_alpha 76.787327
_cell_angle_beta 121.399594
_cell_angle_gamma 88.612401
_cell_volume 673.733879
_symmetry_space_group_name_H-M "P -1"
_symmetry_group_IT_number 2
_symmetry_cell_setting 'triclinic'
loop_
_space_group_symop_operation_xyz
x,y,z
-x,-y,-z
loop_
_atom_site_type_symbol
_atom_site_label
_atom_site_fract_x
_atom_site_fract_y
_atom_site_fract_z
Si Si1 0.006245 0.903139 0.288105
Si Si2 0.102590 0.681743 0.769260
Si Si3 0.049652 0.177057 0.184824
Si Si4 0.576197 0.411745 0.642724
Si Si5 0.692743 0.692032 0.250191
Si Si6 0.596159 0.296759 0.370113
Si Si7 0.675665 0.025389 0.761178
Si Si8 0.537856 0.825492 0.346931
O O1 0.016026 0.866193 0.593446
O O2 0.184044 0.949131 0.359034
O O3 0.027806 0.845369 0.118600
O O4 0.797417 0.958350 0.067135
O O5 0.242623 0.728486 0.691766
O O6 0.028759 0.733103 0.907479
O O7 0.923949 0.666044 0.475833
O O8 0.236127 0.603111 0.021254
O O9 0.282658 0.163729 0.348811
O O10 0.500000 0.500000 0.500000
O O11 0.406068 0.366133 0.622028
O O12 0.640726 0.375622 0.457688
O O13 0.629357 0.781603 0.208246
O O14 0.623888 0.686804 0.923258
O O15 0.606961 0.227565 0.617319
O O16 0.595559 0.091892 0.845334
O O17 0.500000 0.000000 0.500000
#
# Coordination Sequence:
#
# PCOD8019182 Si02
#       8
#     2   2   2   2   2   2   2   2
#     4  11  27  47  65  99 137 178 230 292 340 411
#     4  10  23  39  68  98 131 177 224 277 343 402
#     4  11  25  45  71  98 136 177 232 286 342 408
#     4  10  23  43  64  98 138 172 219 276 340 411
#     4   9  22  40  62 100 126 178 226 280 334 405
#     4  10  22  41  68  94 130 176 221 281 332 411
#     4  11  24  45  66  97 134 187 225 286 352 401
#     4  10  22  41  65  94 131 173 228 281 334 409
#
# _framework density 23.748249000000001
#
# number of rings (size 3 to 8) (size 9 to 14) (size 15 to 20)
#    0.000    1.750    1.250    0.750   10.500    7.000 
#    4.500    1.250    0.000    0.000    0.000    0.000 
#    0.000    0.000    0.000    0.000    0.000    0.000 
#
# Total GULP energy -198296.867652 kJ/mol
# GULP energy per Si atom -12393.554228 kJ/mol
# Density = 2.369420 g / cm^3
# Si number density = 23.748249 Si / 1000 Ang^3
#
#
#
# Elastic Constant Matrix: (Units=GPa)
#
#
# Indices 1 2 3 4 5 6 
#
# 1 70.1621 13.2514 30.0443 -1.9710 20.0343 -4.6086
# 2 13.2514 96.5671 24.9330 -8.4829 6.4291 -9.9441
# 3 30.0443 24.9330 87.1376 5.9055 16.1757 -6.2609
# 4 -1.9710 -8.4829 5.9055 38.0139 -0.5079 7.7738
# 5 20.0343 6.4291 16.1757 -0.5079 48.3930 2.5473
# 6 -4.6086 -9.9441 -6.2609 7.7738 2.5473 25.5241
#
#
#
# Elastic Compliance Matrix: (Units=1/GPa)
#
#
# Indices 1 2 3 4 5 6 
#
# 1 0.018365 -0.000515 -0.004997 0.001094 -0.005966 0.002152
# 2 -0.000515 0.011774 -0.003052 0.002445 -0.000466 0.003047
# 3 -0.004997 -0.003052 0.015076 -0.003950 -0.002769 0.003086
# 4 0.001094 0.002445 -0.003950 0.029358 0.001319 -0.008892
# 5 -0.005966 -0.000466 -0.002769 0.001319 0.024387 -0.004773
# 6 0.002152 0.003047 0.003086 -0.008892 -0.004773 0.044696
#
#
# Mechanical properties :
#
#
# Convention : Reuss Voigt Hill
#
# Bulk Modulus (GPa) = 35.60289 43.36935 39.48612
# Shear Modulus (GPa) = 29.38670 34.76209 32.07439
#
# Velocity S-wave (km/s) = 3.52152 3.83008 3.67904
# Velocity P-wave (km/s) = 5.61775 6.15314 5.89153
#
# Compressibility (1/GPa) = 0.02808761
#
# Stress axis : x y z
#
# Youngs Moduli (GPa) = 54.45025 84.93529 66.33235
#
# Poissons Ratio (x) = 0.04375 0.33145
# Poissons Ratio (y) = 0.02805 0.20242
# Poissons Ratio (z) = 0.27208 0.25919
#
# Static dielectric constant tensor:
#      x y z
#    x 4.426890 -0.084300 0.239970 
#    y -0.084300 4.180090 0.144690 
#    z 0.239970 0.144690 4.231620 
# 
# 
# High freq. dielectric constant tensor:
#      x y z
#    x 1.946590 -0.004960 0.020300 
#    y -0.004960 1.918760 0.007660 
#    z 0.020300 0.007660 1.941620 
# 
# From -- ./inp_files/47646.got.cif
#   From: 2010.06.25/outbox.cif.g09.slc.cpg/sg2_24_cif.got.tgz:47646.got - 2010.06.27 13:26:56.
