data_PCOD8019643
_publ_section_title
;
Structure prediction by ZEFSAII (Michael W. Deem and Ramdas Pophale) SiO2 
 PCOD8019643
Probable space group: P -1
;
_chemical_formula_sum "Si O2"
_cell_formula_units_Z 16
_cell_length_a 8.691130
_cell_length_b 8.849906
_cell_length_c 11.943971
_cell_angle_alpha 84.891693
_cell_angle_beta 54.297037
_cell_angle_gamma 81.264740
_cell_volume 737.362684
_symmetry_space_group_name_H-M "P -1"
_symmetry_group_IT_number 2
_symmetry_cell_setting 'triclinic'
loop_
_space_group_symop_operation_xyz
x,y,z
-x,-y,-z
loop_
_atom_site_type_symbol
_atom_site_label
_atom_site_fract_x
_atom_site_fract_y
_atom_site_fract_z
Si Si1 0.367406 0.807777 0.241644
Si Si2 0.419307 0.671196 0.992670
Si Si3 0.990634 0.876891 0.851945
Si Si4 0.269494 0.157719 0.241980
Si Si5 0.060781 0.656428 0.507897
Si Si6 0.008754 0.782614 0.099465
Si Si7 0.688184 0.327638 0.385891
Si Si8 0.637953 0.658737 0.318903
O O1 0.412045 0.779836 0.095533
O O2 0.547473 0.733839 0.240176
O O3 0.176107 0.734960 0.358496
O O4 0.342822 0.988021 0.262471
O O5 0.209106 0.674222 0.028994
O O6 0.500000 0.500000 0.000000
O O7 0.555300 0.741483 0.841127
O O8 0.201314 0.812410 0.721025
O O9 0.829297 0.835383 0.838432
O O10 0.951255 0.803582 0.992733
O O11 0.976747 0.058201 0.855521
O O12 0.125597 0.227306 0.393679
O O13 0.000000 0.500000 0.500000
O O14 0.188970 0.622197 0.565494
O O15 0.850908 0.701930 0.238216
O O16 0.645578 0.475651 0.315155
O O17 0.489291 0.280576 0.522581
#
# Coordination Sequence:
#
# PCOD8019643 Si02
#       8
#     2   2   2   2   2   2   2   2
#     4  11  23  42  65  95 129 174 212 258 330 379
#     4  12  27  41  64  98 128 168 218 268 321 376
#     4  10  23  42  66  93 128 171 207 260 318 379
#     4  11  23  44  66  91 134 169 211 265 323 384
#     4  10  22  41  69  96 127 162 218 270 317 379
#     4  11  25  41  64  95 129 163 219 261 312 377
#     4   9  22  43  66  92 127 170 211 255 326 376
#     4  10  23  42  64  92 128 167 211 264 312 383
#
# _framework density 21.698954000000001
#
# number of rings (size 3 to 8) (size 9 to 14) (size 15 to 20)
#    0.000    1.500    1.250    2.250   10.500    1.000 
#    2.250    0.000    0.000    0.000    0.000    0.000 
#    0.000    0.000    0.000    0.000    0.000    0.000 
#
# Total GULP energy -198488.421671 kJ/mol
# GULP energy per Si atom -12405.526354 kJ/mol
# Density = 2.164957 g / cm^3
# Si number density = 21.698954 Si / 1000 Ang^3
#
#
#
# Elastic Constant Matrix: (Units=GPa)
#
#
# Indices 1 2 3 4 5 6 
#
# 1 75.9949 29.0981 25.3936 -4.6494 -26.6629 -11.1491
# 2 29.0981 96.5200 21.0634 -6.0591 -9.3249 -14.4669
# 3 25.3936 21.0634 86.2989 -3.7313 -35.4223 3.1261
# 4 -4.6494 -6.0591 -3.7313 40.8346 6.6489 -2.5517
# 5 -26.6629 -9.3249 -35.4223 6.6489 41.9058 -1.1622
# 6 -11.1491 -14.4669 3.1261 -2.5517 -1.1622 36.5040
#
#
#
# Elastic Compliance Matrix: (Units=1/GPa)
#
#
# Indices 1 2 3 4 5 6 
#
# 1 0.019479 -0.004003 -0.000233 0.000038 0.011432 0.004750
# 2 -0.004003 0.012718 -0.002989 0.001809 -0.002416 0.004123
# 3 -0.000233 -0.002989 0.018595 -0.001376 0.015055 -0.002465
# 4 0.000038 0.001809 -0.001376 0.025560 -0.004723 0.002483
# 5 0.011432 -0.002416 0.015055 -0.004723 0.044138 0.002320
# 6 0.004750 0.004123 -0.002465 0.002483 0.002320 0.030937
#
#
# Mechanical properties :
#
#
# Convention : Reuss Voigt Hill
#
# Bulk Modulus (GPa) = 27.51624 45.54712 36.53168
# Shear Modulus (GPa) = 28.09118 36.06612 32.07865
#
# Velocity S-wave (km/s) = 3.60194 4.08133 3.84910
# Velocity P-wave (km/s) = 5.47787 6.57614 6.05197
#
# Compressibility (1/GPa) = 0.03634218
#
# Stress axis : x y z
#
# Youngs Moduli (GPa) = 51.33634 78.63016 53.77840
#
# Poissons Ratio (x) = 0.31475 0.01252
# Poissons Ratio (y) = 0.20550 0.16075
# Poissons Ratio (z) = 0.01195 0.23504
#
# Static dielectric constant tensor:
#      x y z
#    x 3.893360 -0.239760 -0.151840 
#    y -0.239760 3.849510 0.131030 
#    z -0.151840 0.131030 4.357150 
# 
# 
# High freq. dielectric constant tensor:
#      x y z
#    x 1.847510 -0.017360 -0.010810 
#    y -0.017360 1.854190 0.002030 
#    z -0.010810 0.002030 1.865510 
# 
# From -- ./inp_files/208785.got.cif
#   From: 2010.06.25/outbox.cif.g09.slc.cpg/sg2_105_cif.got.tgz:208785.got - 2010.06.27 13:26:56.
