data_PCOD8019680
_publ_section_title
;
Structure prediction by ZEFSAII (Michael W. Deem and Ramdas Pophale) SiO2 
 PCOD8019680
Probable space group: P -1
;
_chemical_formula_sum "Si O2"
_cell_formula_units_Z 14
_cell_length_a 13.621180
_cell_length_b 8.083715
_cell_length_c 10.272230
_cell_angle_alpha 47.614732
_cell_angle_beta 111.474561
_cell_angle_gamma 133.038971
_cell_volume 601.290672
_symmetry_space_group_name_H-M "P -1"
_symmetry_group_IT_number 2
_symmetry_cell_setting 'triclinic'
loop_
_space_group_symop_operation_xyz
x,y,z
-x,-y,-z
loop_
_atom_site_type_symbol
_atom_site_label
_atom_site_fract_x
_atom_site_fract_y
_atom_site_fract_z
Si Si1 0.578177 0.161921 0.106856
Si Si2 0.138429 0.302590 0.041831
Si Si3 0.389242 0.196495 0.833965
Si Si4 0.509786 0.795879 0.695414
Si Si5 0.814303 0.127429 0.688702
Si Si6 0.923983 0.359044 0.342247
Si Si7 0.918060 0.169040 0.172398
O O1 0.591114 0.290880 0.187371
O O2 0.578570 0.886084 0.246406
O O3 0.719561 0.428440 0.963200
O O4 0.440427 0.072242 0.023408
O O5 0.014884 0.109595 0.189904
O O6 0.154028 0.069827 0.125749
O O7 0.109078 0.436332 0.838312
O O8 0.471332 0.532957 0.725874
O O9 0.229905 0.036260 0.858040
O O10 0.500000 0.000000 0.500000
O O11 0.660210 0.975444 0.732839
O O12 0.825975 0.160531 0.519553
O O13 0.919042 0.441960 0.638694
O O14 0.903290 0.141624 0.336314
O O15 0.000000 0.500000 0.000000
#
# Coordination Sequence:
#
# PCOD8019680 Si02
#       7
#     2   2   2   2   2   2   2
#     4  11  24  44  71 103 139 182 241 291 343 434
#     4  11  22  43  71 101 135 185 233 287 359 417
#     4  11  24  45  72 103 139 185 239 291 353 424
#     4  12  28  45  70 103 146 188 238 289 362 420
#     4  11  25  44  67 103 139 187 234 292 354 426
#     4  10  23  43  67  98 145 175 236 292 345 429
#     4  10  22  41  70 101 136 180 233 293 356 414
#
# _framework density 23.283246999999999
#
# number of rings (size 3 to 8) (size 9 to 14) (size 15 to 20)
#    0.000    1.143    4.286    1.714    4.000    4.571 
#    0.000    0.000    0.000    0.000    0.000    0.000 
#    0.000    0.000    0.000    0.000    0.000    0.000 
#
# Total GULP energy -173435.895242 kJ/mol
# GULP energy per Si atom -12388.278232 kJ/mol
# Density = 2.323025 g / cm^3
# Si number density = 23.283247 Si / 1000 Ang^3
#
#
#
# Elastic Constant Matrix: (Units=GPa)
#
#
# Indices 1 2 3 4 5 6 
#
# 1 139.3358 59.4387 31.6606 -2.8934 5.8139 8.5002
# 2 59.4387 134.4927 9.8865 -5.1159 -2.4483 17.5585
# 3 31.6606 9.8865 67.7009 1.0515 0.3665 -1.4921
# 4 -2.8934 -5.1159 1.0515 25.6333 -5.6140 5.8529
# 5 5.8139 -2.4483 0.3665 -5.6140 32.5686 -3.8726
# 6 8.5002 17.5585 -1.4921 5.8529 -3.8726 49.6000
#
#
#
# Elastic Compliance Matrix: (Units=1/GPa)
#
#
# Indices 1 2 3 4 5 6 
#
# 1 0.009958 -0.004059 -0.004068 0.000156 -0.002078 -0.000573
# 2 -0.004059 0.009702 0.000371 0.002460 0.001529 -0.002899
# 3 -0.004068 0.000371 0.016663 -0.001245 0.000501 0.001253
# 4 0.000156 0.002460 -0.001245 0.042297 0.006820 -0.005393
# 5 -0.002078 0.001529 0.000501 0.006820 0.032547 0.001566
# 6 -0.000573 -0.002899 0.001253 -0.005393 0.001566 0.022082
#
#
# Mechanical properties :
#
#
# Convention : Reuss Voigt Hill
#
# Bulk Modulus (GPa) = 48.05085 60.38900 54.21992
# Shear Modulus (GPa) = 32.11391 37.59661 34.85526
#
# Velocity S-wave (km/s) = 3.71788 4.02275 3.87332
# Velocity P-wave (km/s) = 6.25400 6.89708 6.58340
#
# Compressibility (1/GPa) = 0.02081129
#
# Stress axis : x y z
#
# Youngs Moduli (GPa) = 100.42663 103.07521 60.01241
#
# Poissons Ratio (x) = 0.41836 0.24412
# Poissons Ratio (y) = 0.40761 -0.02226
# Poissons Ratio (z) = 0.40851 -0.03824
#
# Static dielectric constant tensor:
#      x y z
#    x 6.588310 -0.466040 -0.717240 
#    y -0.466040 4.367060 0.271470 
#    z -0.717240 0.271470 4.058380 
# 
# 
# High freq. dielectric constant tensor:
#      x y z
#    x 1.936440 0.008840 0.001590 
#    y 0.008840 1.934420 0.005570 
#    z 0.001590 0.005570 1.881830 
# 
# From -- ./inp_files/418948.got.cif
#   From: 2010.06.25/outbox.cif.g09.slc.cpg/sg2_210_cif.got.tgz:418948.got - 2010.06.27 13:26:56.
