data_PCOD8019900
_publ_section_title
;
Structure prediction by ZEFSAII (Michael W. Deem and Ramdas Pophale) SiO2 
 PCOD8019900
Probable space group: P -1
;
_chemical_formula_sum "Si O2"
_cell_formula_units_Z 12
_cell_length_a 10.061140
_cell_length_b 9.545045
_cell_length_c 15.238843
_cell_angle_alpha 100.343419
_cell_angle_beta 133.491743
_cell_angle_gamma 43.995773
_cell_volume 574.944417
_symmetry_space_group_name_H-M "P -1"
_symmetry_group_IT_number 2
_symmetry_cell_setting 'triclinic'
loop_
_space_group_symop_operation_xyz
x,y,z
-x,-y,-z
loop_
_atom_site_type_symbol
_atom_site_label
_atom_site_fract_x
_atom_site_fract_y
_atom_site_fract_z
Si Si1 0.189938 0.214670 0.277259
Si Si2 0.860775 0.442753 0.642165
Si Si3 0.120388 0.861317 0.295126
Si Si4 0.152111 0.699842 0.716033
Si Si5 0.138938 0.832035 0.960286
Si Si6 0.112780 0.272816 0.551839
O O1 0.068550 0.456805 0.262142
O O2 0.168352 0.153730 0.357127
O O3 0.976951 0.256153 0.116998
O O4 0.546385 0.989743 0.368869
O O5 0.497917 0.669286 0.458946
O O6 0.918947 0.279879 0.720176
O O7 0.119812 0.252806 0.657749
O O8 0.879534 0.108407 0.278075
O O9 0.988168 0.980466 0.151926
O O10 0.159151 0.651468 0.611652
O O11 0.463328 0.435468 0.881540
O O12 0.000000 0.000000 0.000000
O O13 0.000000 0.500000 0.500000
#
# Coordination Sequence:
#
# PCOD8019900 Si02
#       6
#     2   2   2   2   2   2
#     4  11  22  40  64  93 124 160 213 257 304 365
#     4  11  23  40  64  97 128 162 204 263 317 356
#     4  10  22  42  62  92 133 161 203 264 313 365
#     4  11  21  41  65  90 125 167 208 256 310 366
#     4  11  24  42  66  92 123 170 213 251 310 377
#     4  12  21  36  68  96 120 160 217 257 298 374
#
# _framework density 20.871583000000001
#
# number of rings (size 3 to 8) (size 9 to 14) (size 15 to 20)
#    0.000    1.000    3.333    6.500    0.000    0.667 
#    3.000    4.167    0.000    0.000    0.000    0.000 
#    0.000    0.000    0.000    0.000    0.000    0.000 
#
# Total GULP energy -148675.774986 kJ/mol
# GULP energy per Si atom -12389.647915 kJ/mol
# Density = 2.082408 g / cm^3
# Si number density = 20.871583 Si / 1000 Ang^3
#
#
#
# Elastic Constant Matrix: (Units=GPa)
#
#
# Indices 1 2 3 4 5 6 
#
# 1 80.0095 66.7802 45.0850 4.7461 -5.0524 12.6035
# 2 66.7802 188.0087 54.5806 25.6494 -13.4750 6.4988
# 3 45.0850 54.5806 87.9023 2.9484 -11.8470 -3.8518
# 4 4.7461 25.6494 2.9484 44.0064 0.2506 -2.2342
# 5 -5.0524 -13.4750 -11.8470 0.2506 19.5323 -1.5009
# 6 12.6035 6.4988 -3.8518 -2.2342 -1.5009 37.0137
#
#
#
# Elastic Compliance Matrix: (Units=1/GPa)
#
#
# Indices 1 2 3 4 5 6 
#
# 1 0.023645 -0.005821 -0.009484 0.001090 -0.004290 -0.008125
# 2 -0.005821 0.008760 -0.001830 -0.004368 0.003493 0.000132
# 3 -0.009484 -0.001830 0.018684 0.001091 0.008055 0.005888
# 4 0.001090 -0.004368 0.001091 0.025191 -0.002244 0.001939
# 5 -0.004290 0.003493 0.008055 -0.002244 0.057711 0.003890
# 6 -0.008125 0.000132 0.005888 0.001939 0.003890 0.030648
#
#
# Mechanical properties :
#
#
# Convention : Reuss Voigt Hill
#
# Bulk Modulus (GPa) = 59.45869 76.53469 67.99669
# Shear Modulus (GPa) = 24.44795 32.74214 28.59504
#
# Velocity S-wave (km/s) = 3.42621 3.96503 3.70543
# Velocity P-wave (km/s) = 6.64843 7.59677 7.13837
#
# Compressibility (1/GPa) = 0.01681840
#
# Stress axis : x y z
#
# Youngs Moduli (GPa) = 42.29144 114.15992 53.52080
#
# Poissons Ratio (x) = 0.66450 0.50760
# Poissons Ratio (y) = 0.24617 0.09797
# Poissons Ratio (z) = 0.40110 0.20897
#
# Static dielectric constant tensor:
#      x y z
#    x 7.548300 -4.967410 -0.030530 
#    y -4.967410 10.231070 0.357540 
#    z -0.030530 0.357540 3.836830 
# 
# 
# High freq. dielectric constant tensor:
#      x y z
#    x 1.788660 -0.008110 0.005670 
#    y -0.008110 1.849370 0.008540 
#    z 0.005670 0.008540 1.805640 
# 
# From -- ./inp_files/157032.got.cif
#   From: 2010.06.25/outbox.cif.g09.slc.cpg/sg2_79_cif.got.tgz:157032.got - 2010.06.27 13:26:56.
