data_PCOD8019653
_publ_section_title
;
Structure prediction by ZEFSAII (Michael W. Deem and Ramdas Pophale) SiO2 
 PCOD8019653
Probable space group: P -1
;
_chemical_formula_sum "Si O2"
_cell_formula_units_Z 16
_cell_length_a 12.166599
_cell_length_b 9.184240
_cell_length_c 10.913456
_cell_angle_alpha 58.086721
_cell_angle_beta 86.900095
_cell_angle_gamma 48.672792
_cell_volume 689.090330
_symmetry_space_group_name_H-M "P -1"
_symmetry_group_IT_number 2
_symmetry_cell_setting 'triclinic'
loop_
_space_group_symop_operation_xyz
x,y,z
-x,-y,-z
loop_
_atom_site_type_symbol
_atom_site_label
_atom_site_fract_x
_atom_site_fract_y
_atom_site_fract_z
Si Si1 0.737821 0.800448 0.009624
Si Si2 0.553683 0.025717 0.358342
Si Si3 0.010652 0.614899 0.224994
Si Si4 0.837387 0.911155 0.493374
Si Si5 0.988981 0.942041 0.266720
Si Si6 0.221968 0.505817 0.058336
Si Si7 0.692326 0.295146 0.538005
Si Si8 0.600118 0.744443 0.263330
O O1 0.862539 0.799214 0.052887
O O2 0.660543 0.799699 0.131525
O O3 0.828016 0.557980 0.024130
O O4 0.596856 0.061789 0.824985
O O5 0.418859 0.279654 0.167759
O O6 0.500000 0.000000 0.500000
O O7 0.687488 0.017037 0.374051
O O8 0.634548 0.782031 0.379286
O O9 0.985956 0.765141 0.275068
O O10 0.028187 0.395829 0.360672
O O11 0.171377 0.488735 0.200002
O O12 0.925285 0.969957 0.394964
O O13 0.760588 0.053849 0.566039
O O14 0.171124 0.820136 0.312935
O O15 0.858236 0.216319 0.084040
O O16 0.500000 0.500000 0.500000
O O17 0.694654 0.455318 0.375229
#
# Coordination Sequence:
#
# PCOD8019653 Si02
#       8
#     2   2   2   2   2   2   2   2
#     4  10  22  41  69  97 131 176 229 270 343 396
#     4  11  22  43  70 101 136 179 228 273 345 401
#     4  12  24  42  71  97 136 180 224 278 339 406
#     4  12  25  44  73  97 138 184 227 279 337 410
#     4  12  27  46  66 104 137 178 230 282 342 400
#     4  11  25  42  70  96 143 174 222 286 332 402
#     4  12  27  41  69  98 139 176 227 280 341 400
#     4  10  22  42  65  98 135 175 222 284 327 410
#
# _framework density 23.219017000000001
#
# number of rings (size 3 to 8) (size 9 to 14) (size 15 to 20)
#    0.000    0.750    1.250    6.000    5.250    1.500 
#    0.000    0.000    0.000    0.000    0.000    0.000 
#    0.000    0.000    0.000    0.000    0.000    0.000 
#
# Total GULP energy -198379.195396 kJ/mol
# GULP energy per Si atom -12398.699712 kJ/mol
# Density = 2.316617 g / cm^3
# Si number density = 23.219017 Si / 1000 Ang^3
#
#
#
# Elastic Constant Matrix: (Units=GPa)
#
#
# Indices 1 2 3 4 5 6 
#
# 1 84.6917 19.2222 25.3144 -5.7019 26.8833 7.6630
# 2 19.2222 117.2470 29.2170 1.7270 6.1442 17.0434
# 3 25.3144 29.2170 99.2581 -14.2031 4.0621 12.8388
# 4 -5.7019 1.7270 -14.2031 40.6984 -2.0001 -4.3720
# 5 26.8833 6.1442 4.0621 -2.0001 39.7099 7.9418
# 6 7.6630 17.0434 12.8388 -4.3720 7.9418 38.7846
#
#
#
# Elastic Compliance Matrix: (Units=1/GPa)
#
#
# Indices 1 2 3 4 5 6 
#
# 1 0.016522 -0.001435 -0.003341 0.000764 -0.010734 0.000756
# 2 -0.001435 0.009877 -0.002354 -0.001807 0.000302 -0.003543
# 3 -0.003341 -0.002354 0.012390 0.003798 0.002029 -0.002394
# 4 0.000764 -0.001807 0.003798 0.026340 0.000240 0.002306
# 5 -0.010734 0.000302 0.002029 0.000240 0.033303 -0.005475
# 6 0.000756 -0.003543 -0.002394 0.002306 -0.005475 0.029365
#
#
# Mechanical properties :
#
#
# Convention : Reuss Voigt Hill
#
# Bulk Modulus (GPa) = 40.76721 49.85599 45.31160
# Shear Modulus (GPa) = 33.28214 39.00148 36.14181
#
# Velocity S-wave (km/s) = 3.79013 4.10289 3.94961
# Velocity P-wave (km/s) = 6.06212 6.63050 6.35267
#
# Compressibility (1/GPa) = 0.02452952
#
# Stress axis : x y z
#
# Youngs Moduli (GPa) = 60.52524 101.24862 80.71171
#
# Poissons Ratio (x) = 0.14528 0.26962
# Poissons Ratio (y) = 0.08685 0.18999
# Poissons Ratio (z) = 0.20219 0.23834
#
# Static dielectric constant tensor:
#      x y z
#    x 4.196440 -0.067680 0.342880 
#    y -0.067680 4.203020 -0.113270 
#    z 0.342880 -0.113270 4.267110 
# 
# 
# High freq. dielectric constant tensor:
#      x y z
#    x 1.915320 -0.003040 0.014550 
#    y -0.003040 1.922670 -0.001860 
#    z 0.014550 -0.001860 1.927090 
# 
# From -- ./inp_files/419159.got.cif
#   From: 2010.06.25/outbox.cif.g09.slc.cpg/sg2_210_cif.got.tgz:419159.got - 2010.06.27 13:26:56.
