data_PCOD8019486
_publ_section_title
;
Structure prediction by ZEFSAII (Michael W. Deem and Ramdas Pophale) SiO2 
 PCOD8019486
Probable space group: P -1
;
_chemical_formula_sum "Si O2"
_cell_formula_units_Z 16
_cell_length_a 21.989185
_cell_length_b 12.462441
_cell_length_c 12.125736
_cell_angle_alpha 37.186529
_cell_angle_beta 27.334142
_cell_angle_gamma 29.019125
_cell_volume 737.230336
_symmetry_space_group_name_H-M "P -1"
_symmetry_group_IT_number 2
_symmetry_cell_setting 'triclinic'
loop_
_space_group_symop_operation_xyz
x,y,z
-x,-y,-z
loop_
_atom_site_type_symbol
_atom_site_label
_atom_site_fract_x
_atom_site_fract_y
_atom_site_fract_z
Si Si1 0.390292 0.755075 0.426497
Si Si2 0.744665 0.176418 0.818978
Si Si3 0.512559 0.703493 0.037830
Si Si4 0.039894 0.889395 0.904989
Si Si5 0.132545 0.492488 0.951451
Si Si6 0.315778 0.778560 0.881090
Si Si7 0.964033 0.302339 0.290115
Si Si8 0.487954 0.906425 0.338638
O O1 0.500000 0.500000 0.500000
O O2 0.456369 0.792615 0.178730
O O3 0.199832 0.860144 0.623980
O O4 0.388568 0.907224 0.395914
O O5 0.629300 0.284470 0.810366
O O6 0.864709 0.249371 0.571792
O O7 0.635263 0.257399 0.039733
O O8 0.850906 0.912078 0.858031
O O9 0.655627 0.440841 0.035268
O O10 0.562662 0.844394 0.777923
O O11 0.087253 0.641984 0.012957
O O12 0.000000 0.000000 0.000000
O O13 0.880769 0.039202 0.961891
O O14 0.134956 0.601791 0.744073
O O15 0.315897 0.265285 0.856714
O O16 0.988470 0.462081 0.190602
O O17 0.423883 0.849053 0.594795
#
# Coordination Sequence:
#
# PCOD8019486 Si02
#       8
#     2   2   2   2   2   2   2   2
#     4  12  23  46  75  95 135 183 231 285 341 411
#     4  11  23  43  67  99 141 180 226 286 346 411
#     4  12  26  46  70 102 135 186 233 279 343 416
#     4  12  23  42  72  99 136 182 223 284 353 399
#     4  11  22  42  72 100 135 180 237 284 336 417
#     4  12  26  44  66 102 144 180 220 288 353 402
#     4  10  22  41  68 104 133 179 233 284 340 406
#     4  12  25  45  71 101 135 185 234 279 340 414
#
# _framework density 21.702852
#
# number of rings (size 3 to 8) (size 9 to 14) (size 15 to 20)
#    0.000    0.500    6.250    2.250    1.750    1.500 
#    0.000    0.625    0.000    0.000    0.000    0.000 
#    0.000    0.000    0.000    0.000    0.000    0.000 
#
# Total GULP energy -198340.116335 kJ/mol
# GULP energy per Si atom -12396.257271 kJ/mol
# Density = 2.165346 g / cm^3
# Si number density = 21.702852 Si / 1000 Ang^3
#
#
#
# Elastic Constant Matrix: (Units=GPa)
#
#
# Indices 1 2 3 4 5 6 
#
# 1 86.6404 -1.4897 34.2856 -7.0579 3.8587 16.8710
# 2 -1.4897 83.5142 54.1136 -15.3389 -6.2647 5.2926
# 3 34.2856 54.1136 102.5359 -16.5977 5.7177 14.5793
# 4 -7.0579 -15.3389 -16.5977 30.4002 -1.9779 -7.1708
# 5 3.8587 -6.2647 5.7177 -1.9779 41.2229 3.0998
# 6 16.8710 5.2926 14.5793 -7.1708 3.0998 41.0083
#
#
#
# Elastic Compliance Matrix: (Units=1/GPa)
#
#
# Indices 1 2 3 4 5 6 
#
# 1 0.015462 0.005637 -0.007345 0.001467 0.000821 -0.004283
# 2 0.005637 0.021692 -0.012690 0.005642 0.004798 0.000016
# 3 -0.007345 -0.012690 0.019679 0.001990 -0.003747 -0.001706
# 4 0.001467 0.005642 0.001990 0.038361 0.001945 0.004522
# 5 0.000821 0.004798 -0.003747 0.001945 0.025616 -0.001221
# 6 -0.004283 0.000016 -0.001706 0.004522 -0.001221 0.027635
#
#
# Mechanical properties :
#
#
# Convention : Reuss Voigt Hill
#
# Bulk Modulus (GPa) = 35.66386 49.61216 42.63801
# Shear Modulus (GPa) = 26.79736 34.91169 30.85452
#
# Velocity S-wave (km/s) = 3.51770 4.01511 3.77461
# Velocity P-wave (km/s) = 5.74172 6.66365 6.21979
#
# Compressibility (1/GPa) = 0.02803959
#
# Stress axis : x y z
#
# Youngs Moduli (GPa) = 64.67340 46.09994 50.81523
#
# Poissons Ratio (x) = -0.25988 0.37321
# Poissons Ratio (y) = -0.36458 0.64483
# Poissons Ratio (z) = 0.47499 0.58499
#
# Static dielectric constant tensor:
#      x y z
#    x 3.987940 0.071040 -0.142170 
#    y 0.071040 4.076930 -0.009880 
#    z -0.142170 -0.009880 3.772840 
# 
# 
# High freq. dielectric constant tensor:
#      x y z
#    x 1.861460 0.001950 -0.009210 
#    y 0.001950 1.857070 -0.000280 
#    z -0.009210 -0.000280 1.840460 
# 
# From -- ./inp_files/402783.got.cif
#   From: 2010.06.25/outbox.cif.g09.slc.cpg/sg2_202_cif.got.tgz:402783.got - 2010.06.27 13:26:56.
