data_PCOD8019369
_publ_section_title
;
Structure prediction by ZEFSAII (Michael W. Deem and Ramdas Pophale) SiO2 
 PCOD8019369
Probable space group: P -1
;
_chemical_formula_sum "Si O2"
_cell_formula_units_Z 12
_cell_length_a 10.345808
_cell_length_b 8.854539
_cell_length_c 8.713593
_cell_angle_alpha 80.792691
_cell_angle_beta 93.756848
_cell_angle_gamma 135.086178
_cell_volume 555.013009
_symmetry_space_group_name_H-M "P -1"
_symmetry_group_IT_number 2
_symmetry_cell_setting 'triclinic'
loop_
_space_group_symop_operation_xyz
x,y,z
-x,-y,-z
loop_
_atom_site_type_symbol
_atom_site_label
_atom_site_fract_x
_atom_site_fract_y
_atom_site_fract_z
Si Si1 0.092028 0.419661 0.467417
Si Si2 0.823128 0.986522 0.687530
Si Si3 0.744235 0.052552 0.991604
Si Si4 0.076547 0.267290 0.173247
Si Si5 0.339556 0.688895 0.954597
Si Si6 0.551756 0.206643 0.402021
O O1 0.085135 0.400551 0.286463
O O2 0.302692 0.589631 0.509351
O O3 0.000000 0.500000 0.500000
O O4 0.986629 0.184474 0.562934
O O5 0.850327 0.832184 0.747017
O O6 0.629475 0.841070 0.608737
O O7 0.825328 0.088533 0.824746
O O8 0.750330 0.239114 0.984902
O O9 0.869540 0.074640 0.125465
O O10 0.536607 0.816206 0.026646
O O11 0.206228 0.434216 0.017034
O O12 0.359639 0.738006 0.767987
O O13 0.500000 0.000000 0.500000
#
# Coordination Sequence:
#
# PCOD8019369 Si02
#       6
#     2   2   2   2   2   2
#     4  12  24  41  68  92 129 172 214 259 318 379
#     4  11  25  43  64  98 130 170 211 261 329 375
#     4  10  22  41  67  91 129 167 216 262 310 381
#     4  12  25  40  66  99 133 164 211 270 322 376
#     4  10  23  41  67  96 121 171 222 257 318 374
#     4  11  24  43  69  91 129 168 217 267 309 385
#
# _framework density 21.621115
#
# number of rings (size 3 to 8) (size 9 to 14) (size 15 to 20)
#    0.000    1.000    1.667    4.500    4.667    4.667 
#    0.000    0.000    0.000    0.000    0.000    0.000 
#    0.000    0.000    0.000    0.000    0.000    0.000 
#
# Total GULP energy -148872.065434 kJ/mol
# GULP energy per Si atom -12406.005453 kJ/mol
# Density = 2.157190 g / cm^3
# Si number density = 21.621115 Si / 1000 Ang^3
#
#
#
# Elastic Constant Matrix: (Units=GPa)
#
#
# Indices 1 2 3 4 5 6 
#
# 1 97.3029 32.0824 38.5842 -6.6590 27.7189 20.3790
# 2 32.0824 91.4145 45.9668 -4.3194 11.2516 25.5849
# 3 38.5842 45.9668 116.5260 -7.3852 5.8723 10.6630
# 4 -6.6590 -4.3194 -7.3852 46.3437 5.5976 18.7951
# 5 27.7189 11.2516 5.8723 5.5976 37.1290 6.2166
# 6 20.3790 25.5849 10.6630 18.7951 6.2166 33.9818
#
#
#
# Elastic Compliance Matrix: (Units=1/GPa)
#
#
# Indices 1 2 3 4 5 6 
#
# 1 0.018623 0.001441 -0.004255 0.009224 -0.012766 -0.013684
# 2 0.001441 0.019123 -0.005646 0.008720 -0.004360 -0.017516
# 3 -0.004255 -0.005646 0.011748 -0.000840 0.002637 0.003098
# 4 0.009224 0.008720 -0.000840 0.037182 -0.009879 -0.030591
# 5 -0.012766 -0.004360 0.002637 -0.009879 0.037395 0.008734
# 6 -0.013684 -0.017516 0.003098 -0.030591 0.008734 0.065171
#
#
# Mechanical properties :
#
#
# Convention : Reuss Voigt Hill
#
# Bulk Modulus (GPa) = 30.69801 59.83448 45.26625
# Shear Modulus (GPa) = 23.03926 36.06488 29.55207
#
# Velocity S-wave (km/s) = 3.26788 4.08860 3.70106
# Velocity P-wave (km/s) = 5.33551 7.07269 6.26461
#
# Compressibility (1/GPa) = 0.03257540
#
# Stress axis : x y z
#
# Youngs Moduli (GPa) = 53.69566 52.29220 85.12109
#
# Poissons Ratio (x) = -0.07533 0.36217
# Poissons Ratio (y) = -0.07735 0.48055
# Poissons Ratio (z) = 0.22846 0.29522
#
# Static dielectric constant tensor:
#      x y z
#    x 3.988190 0.337880 -0.011930 
#    y 0.337880 3.971670 0.146460 
#    z -0.011930 0.146460 3.964660 
# 
# 
# High freq. dielectric constant tensor:
#      x y z
#    x 1.849410 0.016000 0.001150 
#    y 0.016000 1.852970 0.005220 
#    z 0.001150 0.005220 1.856630 
# 
# From -- ./inp_files/150592.got.cif
#   From: 2010.06.25/outbox.cif.g09.slc.cpg/sg2_76_cif.got.tgz:150592.got - 2010.06.27 13:26:56.
