data_PCOD8019581
_publ_section_title
;
Structure prediction by ZEFSAII (Michael W. Deem and Ramdas Pophale) SiO2 
 PCOD8019581
Probable space group: P -1
;
_chemical_formula_sum "Si O2"
_cell_formula_units_Z 16
_cell_length_a 9.783526
_cell_length_b 8.397553
_cell_length_c 11.971089
_cell_angle_alpha 51.345244
_cell_angle_beta 98.557846
_cell_angle_gamma 86.560139
_cell_volume 744.454178
_symmetry_space_group_name_H-M "P -1"
_symmetry_group_IT_number 2
_symmetry_cell_setting 'triclinic'
loop_
_space_group_symop_operation_xyz
x,y,z
-x,-y,-z
loop_
_atom_site_type_symbol
_atom_site_label
_atom_site_fract_x
_atom_site_fract_y
_atom_site_fract_z
Si Si1 0.501655 0.702218 0.978384
Si Si2 0.545898 0.257354 0.596630
Si Si3 0.013372 0.257528 0.587554
Si Si4 0.760062 0.704611 0.125855
Si Si5 0.683893 0.986912 0.338724
Si Si6 0.044728 0.782280 0.155519
Si Si7 0.333416 0.825318 0.113345
Si Si8 0.750346 0.280272 0.415196
O O1 0.400595 0.893836 0.826260
O O2 0.500000 0.500000 0.000000
O O3 0.669184 0.708140 0.999509
O O4 0.447748 0.689054 0.105388
O O5 0.500000 0.500000 0.500000
O O6 0.595630 0.149186 0.768999
O O7 0.670558 0.217082 0.540193
O O8 0.416761 0.167450 0.565045
O O9 0.000000 0.500000 0.500000
O O10 0.961025 0.173368 0.732812
O O11 0.916361 0.211525 0.493526
O O12 0.172535 0.151715 0.627235
O O13 0.715506 0.530544 0.278533
O O14 0.931671 0.642671 0.161508
O O15 0.718361 0.947583 0.052857
O O16 0.712869 0.150899 0.362162
O O17 0.205934 0.697770 0.172115
O O18 0.000000 0.000000 0.000000
#
# Coordination Sequence:
#
# PCOD8019581 Si02
#       8
#     2   2   2   2   2   2   2   2
#     4  12  25  44  72 104 141 181 230 290 354 413
#     4  12  26  42  70 104 136 182 237 288 345 415
#     4  12  24  44  73 101 135 187 238 281 339 421
#     4  11  22  43  74 101 132 187 234 280 341 419
#     4  12  27  45  70 103 144 184 228 290 358 411
#     4  10  22  41  69 100 132 169 238 288 328 394
#     4  11  24  43  70 102 134 179 239 289 335 411
#     4  12  25  46  69 103 145 185 227 290 357 412
#
# _framework density 21.492259000000001
#
# number of rings (size 3 to 8) (size 9 to 14) (size 15 to 20)
#    0.000    0.500    5.000    4.125    3.500    0.000 
#    0.000    0.625    2.750    0.000    0.000    0.000 
#    0.000    0.000    0.000    0.000    0.000    0.000 
#
# Total GULP energy -198209.565805 kJ/mol
# GULP energy per Si atom -12388.097863 kJ/mol
# Density = 2.144334 g / cm^3
# Si number density = 21.492259 Si / 1000 Ang^3
#
#
#
# Elastic Constant Matrix: (Units=GPa)
#
#
# Indices 1 2 3 4 5 6 
#
# 1 162.5691 67.7968 43.9546 4.4515 16.0622 30.0873
# 2 67.7968 100.1918 39.5136 5.8628 -6.7076 10.5334
# 3 43.9546 39.5136 116.5272 4.3092 2.4357 5.7774
# 4 4.4515 5.8628 4.3092 31.1808 5.3489 6.2561
# 5 16.0622 -6.7076 2.4357 5.3489 40.5411 4.4258
# 6 30.0873 10.5334 5.7774 6.2561 4.4258 34.8090
#
#
#
# Elastic Compliance Matrix: (Units=1/GPa)
#
#
# Indices 1 2 3 4 5 6 
#
# 1 0.011042 -0.006563 -0.001566 0.002127 -0.004876 -0.007061
# 2 -0.006563 0.016051 -0.003035 -0.002861 0.005694 0.001109
# 3 -0.001566 -0.003035 0.010199 -0.000685 -0.000488 0.000765
# 4 0.002127 -0.002861 -0.000685 0.034569 -0.005135 -0.006419
# 5 -0.004876 0.005694 -0.000488 -0.005135 0.028258 -0.000097
# 6 -0.007061 0.001109 0.000765 -0.006419 -0.000097 0.035534
#
#
# Mechanical properties :
#
#
# Convention : Reuss Voigt Hill
#
# Bulk Modulus (GPa) = 66.83105 75.75759 71.29432
# Shear Modulus (GPa) = 30.68056 36.50771 33.59414
#
# Velocity S-wave (km/s) = 3.78235 4.12593 3.95787
# Velocity P-wave (km/s) = 7.08786 7.61729 7.35734
#
# Compressibility (1/GPa) = 0.01496310
#
# Stress axis : x y z
#
# Youngs Moduli (GPa) = 90.56485 62.30254 98.04443
#
# Poissons Ratio (x) = 0.40886 0.15357
# Poissons Ratio (y) = 0.59434 0.29761
# Poissons Ratio (z) = 0.14186 0.18912
#
# Static dielectric constant tensor:
#      x y z
#    x 5.634520 0.192440 -0.512160 
#    y 0.192440 3.694190 -0.002660 
#    z -0.512160 -0.002660 4.025170 
# 
# 
# High freq. dielectric constant tensor:
#      x y z
#    x 1.869250 0.018800 0.013170 
#    y 0.018800 1.811600 -0.002800 
#    z 0.013170 -0.002800 1.858260 
# 
# From -- ./inp_files/381029.got.cif
#   From: 2010.06.25/outbox.cif.g09.slc.cpg/sg2_191_cif.got.tgz:381029.got - 2010.06.27 13:26:56.
