data_PCOD8019714
_publ_section_title
;
Structure prediction by ZEFSAII (Michael W. Deem and Ramdas Pophale) SiO2 
 PCOD8019714
Probable space group: P -1
;
_chemical_formula_sum "Si O2"
_cell_formula_units_Z 16
_cell_length_a 12.696922
_cell_length_b 7.275462
_cell_length_c 10.813624
_cell_angle_alpha 88.457505
_cell_angle_beta 113.002579
_cell_angle_gamma 124.330896
_cell_volume 734.306210
_symmetry_space_group_name_H-M "P -1"
_symmetry_group_IT_number 2
_symmetry_cell_setting 'triclinic'
loop_
_space_group_symop_operation_xyz
x,y,z
-x,-y,-z
loop_
_atom_site_type_symbol
_atom_site_label
_atom_site_fract_x
_atom_site_fract_y
_atom_site_fract_z
Si Si1 0.931832 0.547575 0.858664
Si Si2 0.658443 0.721338 0.583248
Si Si3 0.281462 0.495426 0.589328
Si Si4 0.772792 0.201027 0.572500
Si Si5 0.293179 0.407355 0.142363
Si Si6 0.576886 0.618903 0.159467
Si Si7 0.141555 0.066362 0.851064
Si Si8 0.992748 0.826734 0.406438
O O1 0.877825 0.369522 0.725748
O O2 0.791862 0.495341 0.859933
O O3 0.049223 0.801164 0.852242
O O4 0.000000 0.500000 0.000000
O O5 0.500000 0.500000 0.500000
O O6 0.751064 0.701172 0.521594
O O7 0.718086 0.740320 0.745158
O O8 0.656259 0.939511 0.566943
O O9 0.318779 0.720978 0.531130
O O10 0.400920 0.542182 0.741561
O O11 0.142909 0.420683 0.604903
O O12 0.873193 0.180636 0.525950
O O13 0.458914 0.625573 0.181234
O O14 0.216851 0.227358 0.000144
O O15 0.732065 0.861524 0.194674
O O16 0.500000 0.500000 0.000000
O O17 0.034864 0.116628 0.744451
O O18 0.000000 0.000000 0.500000
#
# Coordination Sequence:
#
# PCOD8019714 Si02
#       8
#     2   2   2   2   2   2   2   2
#     4  12  24  41  65 104 139 175 235 281 333 403
#     4  12  24  43  67  94 136 179 224 276 343 403
#     4  11  22  42  66 101 127 173 226 279 338 398
#     4  12  25  41  67 100 134 174 229 286 334 401
#     4  11  21  43  68  96 138 185 220 277 346 402
#     4   9  21  42  70  93 131 184 223 270 342 406
#     4  10  22  41  70  97 135 185 225 272 345 401
#     4  11  21  41  68  92 135 178 222 275 342 400
#
# _framework density 21.789273999999999
#
# number of rings (size 3 to 8) (size 9 to 14) (size 15 to 20)
#    0.000    1.000    3.750    3.750    0.000    0.500 
#    0.000    0.625    0.000    0.000    0.000    0.000 
#    0.000    0.000    0.000    0.000    0.000    0.000 
#
# Total GULP energy -198234.120846 kJ/mol
# GULP energy per Si atom -12389.632553 kJ/mol
# Density = 2.173968 g / cm^3
# Si number density = 21.789274 Si / 1000 Ang^3
#
#
#
# Elastic Constant Matrix: (Units=GPa)
#
#
# Indices 1 2 3 4 5 6 
#
# 1 131.8289 33.9175 17.7353 -8.3513 -2.8687 1.3854
# 2 33.9175 111.6905 33.8760 -15.2097 -1.3590 -10.1187
# 3 17.7353 33.8760 135.5288 -21.8790 -0.1753 -14.8993
# 4 -8.3513 -15.2097 -21.8790 40.0211 -4.3006 0.2940
# 5 -2.8687 -1.3590 -0.1753 -4.3006 31.0886 -2.3848
# 6 1.3854 -10.1187 -14.8993 0.2940 -2.3848 32.0821
#
#
#
# Elastic Compliance Matrix: (Units=1/GPa)
#
#
# Indices 1 2 3 4 5 6 
#
# 1 0.008342 -0.002399 -0.000538 0.000614 0.000645 -0.001324
# 2 -0.002399 0.010820 -0.001632 0.002789 0.000843 0.002795
# 3 -0.000538 -0.001632 0.008943 0.004215 0.000795 0.003682
# 4 0.000614 0.002789 0.004215 0.028934 0.004425 0.002875
# 5 0.000645 0.000843 0.000795 0.004425 0.033111 0.003028
# 6 -0.001324 0.002795 0.003682 0.002875 0.003028 0.034018
#
#
# Mechanical properties :
#
#
# Convention : Reuss Voigt Hill
#
# Bulk Modulus (GPa) = 52.71853 61.12285 56.92069
# Shear Modulus (GPa) = 35.80964 40.20631 38.00798
#
# Velocity S-wave (km/s) = 4.05835 4.30028 4.18106
# Velocity P-wave (km/s) = 6.79761 7.26424 7.03480
#
# Compressibility (1/GPa) = 0.01896866
#
# Stress axis : x y z
#
# Youngs Moduli (GPa) = 119.87650 92.42116 111.81862
#
# Poissons Ratio (x) = 0.22168 0.06012
# Poissons Ratio (y) = 0.28754 0.18248
# Poissons Ratio (z) = 0.06445 0.15082
#
# Static dielectric constant tensor:
#      x y z
#    x 4.719230 0.284200 -0.074480 
#    y 0.284200 3.690230 -0.069550 
#    z -0.074480 -0.069550 3.718820 
# 
# 
# High freq. dielectric constant tensor:
#      x y z
#    x 1.872410 0.016730 -0.001330 
#    y 0.016730 1.832050 -0.013480 
#    z -0.001330 -0.013480 1.874910 
# 
# From -- ./inp_files/410610.got.cif
#   From: 2010.06.25/outbox.cif.g09.slc.cpg/sg2_206_cif.got.tgz:410610.got - 2010.06.27 13:26:56.
