data_PCOD8019792
_publ_section_title
;
Structure prediction by ZEFSAII (Michael W. Deem and Ramdas Pophale) SiO2 
 PCOD8019792
Probable space group: P -1
;
_chemical_formula_sum "Si O2"
_cell_formula_units_Z 12
_cell_length_a 12.598889
_cell_length_b 8.897857
_cell_length_c 9.427070
_cell_angle_alpha 121.972476
_cell_angle_beta 34.015023
_cell_angle_gamma 106.596671
_cell_volume 474.625819
_symmetry_space_group_name_H-M "P -1"
_symmetry_group_IT_number 2
_symmetry_cell_setting 'triclinic'
loop_
_space_group_symop_operation_xyz
x,y,z
-x,-y,-z
loop_
_atom_site_type_symbol
_atom_site_label
_atom_site_fract_x
_atom_site_fract_y
_atom_site_fract_z
Si Si1 0.192911 0.341783 0.397288
Si Si2 0.346121 0.944669 0.929743
Si Si3 0.207699 0.296169 0.678637
Si Si4 0.676077 0.425232 0.153228
Si Si5 0.774566 0.387706 0.732333
Si Si6 0.014360 0.998371 0.817570
O O1 0.207110 0.386130 0.569020
O O2 0.289503 0.464306 0.251214
O O3 0.970440 0.381530 0.604452
O O4 0.326729 0.123304 0.137639
O O5 0.576596 0.846799 0.584739
O O6 0.246434 0.801019 0.041989
O O7 0.203290 0.016417 0.988070
O O8 0.159099 0.475494 0.930430
O O9 0.046043 0.189097 0.821746
O O10 0.500000 0.500000 0.500000
O O11 0.608372 0.461218 0.079338
O O12 0.807548 0.181292 0.529448
O O13 0.000000 0.000000 0.000000
#
# Coordination Sequence:
#
# PCOD8019792 Si02
#       6
#     2   2   2   2   2   2
#     4  10  22  41  72  99 134 181 224 284 342 400
#     4  10  23  45  66  98 138 172 231 275 339 400
#     4  11  24  42  71  98 135 182 227 276 340 407
#     4  10  23  43  67  99 140 177 222 278 337 402
#     4  10  23  43  66 103 140 173 229 283 336 403
#     4  11  26  44  71 100 136 182 229 281 342 403
#
# _framework density 25.283073000000002
#
# number of rings (size 3 to 8) (size 9 to 14) (size 15 to 20)
#    0.000    1.667    0.000    2.500    9.333    6.000 
#    3.000    4.167    0.000    0.000    0.000    0.000 
#    0.000    0.000    0.000    0.000    0.000    0.000 
#
# Total GULP energy -148674.654935 kJ/mol
# GULP energy per Si atom -12389.554578 kJ/mol
# Density = 2.522553 g / cm^3
# Si number density = 25.283073 Si / 1000 Ang^3
#
#
#
# Elastic Constant Matrix: (Units=GPa)
#
#
# Indices 1 2 3 4 5 6 
#
# 1 103.5187 35.8809 44.3018 0.7210 38.3804 -20.0186
# 2 35.8809 147.1840 47.9253 19.6948 33.7789 -10.9282
# 3 44.3018 47.9253 109.2576 5.2763 26.0907 -12.8003
# 4 0.7210 19.6948 5.2763 47.0059 -2.5115 10.2938
# 5 38.3804 33.7789 26.0907 -2.5115 53.1855 -5.7054
# 6 -20.0186 -10.9282 -12.8003 10.2938 -5.7054 42.5562
#
#
#
# Elastic Compliance Matrix: (Units=1/GPa)
#
#
# Indices 1 2 3 4 5 6 
#
# 1 0.015534 0.000011 -0.003439 -0.001529 -0.009019 0.005436
# 2 0.000011 0.009456 -0.002564 -0.004384 -0.004739 0.002087
# 3 -0.003439 -0.002564 0.012290 -0.000641 -0.001806 0.001333
# 4 -0.001529 -0.004384 -0.000641 0.025092 0.004584 -0.007493
# 5 -0.009019 -0.004739 -0.001806 0.004584 0.029078 -0.003213
# 6 0.005436 0.002087 0.001333 -0.007493 -0.003213 0.028374
#
#
# Mechanical properties :
#
#
# Convention : Reuss Voigt Hill
#
# Bulk Modulus (GPa) = 39.53333 68.46402 53.99867
# Shear Modulus (GPa) = 35.65310 44.00634 39.82972
#
# Velocity S-wave (km/s) = 3.75928 4.17651 3.97338
# Velocity P-wave (km/s) = 5.87479 7.09897 6.51570
#
# Compressibility (1/GPa) = 0.02529511
#
# Stress axis : x y z
#
# Youngs Moduli (GPa) = 64.37618 105.75664 81.36421
#
# Poissons Ratio (x) = -0.00116 0.27981
# Poissons Ratio (y) = -0.00071 0.20864
# Poissons Ratio (z) = 0.22139 0.27119
#
# Static dielectric constant tensor:
#      x y z
#    x 4.796910 0.290670 0.203440 
#    y 0.290670 5.069070 0.075130 
#    z 0.203440 0.075130 4.569850 
# 
# 
# High freq. dielectric constant tensor:
#      x y z
#    x 2.023340 0.007840 0.008780 
#    y 0.007840 2.007890 0.012430 
#    z 0.008780 0.012430 2.003560 
# 
# From -- ./inp_files/156059.got.cif
#   From: 2010.06.25/outbox.cif.g09.slc.cpg/sg2_79_cif.got.tgz:156059.got - 2010.06.27 13:26:56.
