data_PCOD8019837
_publ_section_title
;
Structure prediction by ZEFSAII (Michael W. Deem and Ramdas Pophale) SiO2 
 PCOD8019837
Probable space group: P -1
;
_chemical_formula_sum "Si O2"
_cell_formula_units_Z 14
_cell_length_a 8.328809
_cell_length_b 27.022840
_cell_length_c 10.454971
_cell_angle_alpha 36.313564
_cell_angle_beta 29.482599
_cell_angle_gamma 46.546478
_cell_volume 685.070013
_symmetry_space_group_name_H-M "P -1"
_symmetry_group_IT_number 2
_symmetry_cell_setting 'triclinic'
loop_
_space_group_symop_operation_xyz
x,y,z
-x,-y,-z
loop_
_atom_site_type_symbol
_atom_site_label
_atom_site_fract_x
_atom_site_fract_y
_atom_site_fract_z
Si Si1 0.956447 0.078494 0.036039
Si Si2 0.829614 0.397286 0.454635
Si Si3 0.792621 0.275305 0.289637
Si Si4 0.505842 0.980096 0.743937
Si Si5 0.852578 0.753531 0.326542
Si Si6 0.263834 0.185685 0.982763
Si Si7 0.068563 0.415239 0.972161
O O1 0.727080 0.071214 0.086722
O O2 0.750342 0.047114 0.366903
O O3 0.074556 0.175281 0.766463
O O4 0.280183 0.025799 0.906777
O O5 0.444555 0.397333 0.734617
O O6 0.993204 0.486447 0.200266
O O7 0.945277 0.326721 0.616677
O O8 0.935464 0.378699 0.275142
O O9 0.532357 0.276531 0.350346
O O10 0.634406 0.222921 0.627707
O O11 0.113586 0.228684 0.121559
O O12 0.880315 0.369201 0.081174
O O13 0.727416 0.914134 0.799482
O O14 0.953163 0.792699 0.036392
#
# Coordination Sequence:
#
# PCOD8019837 Si02
#       7
#     2   2   2   2   2   2   2
#     4  10  23  38  62  86 118 156 207 250 294 352
#     4  10  23  41  65  93 120 156 206 249 295 354
#     4  10  23  39  59  93 121 160 201 237 309 357
#     4  10  22  42  58  86 118 162 202 247 301 352
#     4  10  26  38  62  94 123 157 201 252 300 358
#     4  10  23  40  58  91 122 163 198 242 306 363
#     4  10  22  42  65  90 121 162 200 245 301 358
#
# _framework density 20.435866999999998
#
# number of rings (size 3 to 8) (size 9 to 14) (size 15 to 20)
#    0.857    1.143    0.000    1.714    8.000    1.714 
#    0.000    0.714    0.000    0.000    0.000    0.000 
#    0.000    0.000    0.000    0.000    0.000    0.000 
#
# Total GULP energy -173559.379475 kJ/mol
# GULP energy per Si atom -12397.098534 kJ/mol
# Density = 2.038935 g / cm^3
# Si number density = 20.435867 Si / 1000 Ang^3
#
#
#
# Elastic Constant Matrix: (Units=GPa)
#
#
# Indices 1 2 3 4 5 6 
#
# 1 65.1628 48.7281 41.7851 -14.4846 1.7039 -8.2317
# 2 48.7281 152.8684 44.1698 -0.0406 12.6254 -4.8897
# 3 41.7851 44.1698 94.3555 0.7772 -8.2837 9.6893
# 4 -14.4846 -0.0406 0.7772 48.5201 6.4974 10.7678
# 5 1.7039 12.6254 -8.2837 6.4974 30.6118 -14.0421
# 6 -8.2317 -4.8897 9.6893 10.7678 -14.0421 31.3751
#
#
#
# Elastic Compliance Matrix: (Units=1/GPa)
#
#
# Indices 1 2 3 4 5 6 
#
# 1 0.029546 -0.005917 -0.011184 0.007337 -0.000285 0.007638
# 2 -0.005917 0.009336 -0.002012 -0.000883 -0.004403 -0.001143
# 3 -0.011184 -0.002012 0.017476 -0.002885 0.004130 -0.005806
# 4 0.007337 -0.000883 -0.002885 0.027146 -0.012120 -0.012062
# 5 -0.000285 -0.004403 0.004130 -0.012120 0.049280 0.024179
# 6 0.007638 -0.001143 -0.005806 -0.012062 0.024179 0.050452
#
#
# Mechanical properties :
#
#
# Convention : Reuss Voigt Hill
#
# Bulk Modulus (GPa) = 55.15319 64.63919 59.89619
# Shear Modulus (GPa) = 21.97755 33.94831 27.96293
#
# Velocity S-wave (km/s) = 3.28295 4.08022 3.70310
# Velocity P-wave (km/s) = 6.43563 7.34142 6.90340
#
# Compressibility (1/GPa) = 0.01813132
#
# Stress axis : x y z
#
# Youngs Moduli (GPa) = 33.84582 107.11631 57.22266
#
# Poissons Ratio (x) = 0.63376 0.64000
# Poissons Ratio (y) = 0.20025 0.11513
# Poissons Ratio (z) = 0.37854 0.21551
#
# Static dielectric constant tensor:
#      x y z
#    x 3.372340 0.102140 -0.058750 
#    y 0.102140 3.659200 0.041870 
#    z -0.058750 0.041870 3.709090 
# 
# 
# High freq. dielectric constant tensor:
#      x y z
#    x 1.776930 0.009820 -0.004410 
#    y 0.009820 1.805560 0.003690 
#    z -0.004410 0.003690 1.803670 
# 
# From -- ./inp_files/40666.got.cif
#   From: 2010.06.25/outbox.cif.g09.slc.cpg/sg2_21_cif.got.tgz:40666.got - 2010.06.27 13:26:56.
