data_PCOD8019887
_publ_section_title
;
Structure prediction by ZEFSAII (Michael W. Deem and Ramdas Pophale) SiO2 
 PCOD8019887
Probable space group: P -1
;
_chemical_formula_sum "Si O2"
_cell_formula_units_Z 16
_cell_length_a 10.249957
_cell_length_b 17.236424
_cell_length_c 9.146394
_cell_angle_alpha 133.723553
_cell_angle_beta 76.150941
_cell_angle_gamma 70.406000
_cell_volume 794.185709
_symmetry_space_group_name_H-M "P -1"
_symmetry_group_IT_number 2
_symmetry_cell_setting 'triclinic'
loop_
_space_group_symop_operation_xyz
x,y,z
-x,-y,-z
loop_
_atom_site_type_symbol
_atom_site_label
_atom_site_fract_x
_atom_site_fract_y
_atom_site_fract_z
Si Si1 0.612293 0.814160 0.360427
Si Si2 0.621081 0.180104 0.024238
Si Si3 0.040030 0.515260 0.173012
Si Si4 0.400593 0.962431 0.893619
Si Si5 0.805048 0.519778 0.468263
Si Si6 0.849220 0.262317 0.115237
Si Si7 0.245345 0.038745 0.552730
Si Si8 0.991431 0.715427 0.652607
O O1 0.551119 0.830725 0.565482
O O2 0.427367 0.916758 0.445366
O O3 0.744679 0.844807 0.353887
O O4 0.745091 0.641039 0.046892
O O5 0.657226 0.100676 0.065453
O O6 0.398020 0.313005 0.209357
O O7 0.700381 0.254604 0.113533
O O8 0.744308 0.047293 0.698325
O O9 0.878881 0.553621 0.365525
O O10 0.031279 0.649381 0.389610
O O11 0.000000 0.500000 0.000000
O O12 0.500000 0.000000 0.000000
O O13 0.223182 0.117863 0.058532
O O14 0.962791 0.414520 0.421337
O O15 0.766782 0.422293 0.283162
O O16 0.053117 0.122664 0.802088
O O17 0.877487 0.262858 0.286637
#
# Coordination Sequence:
#
# PCOD8019887 Si02
#       8
#     2   2   2   2   2   2   2   2
#     4  11  21  39  60  92 126 154 201 261 316 363
#     4  12  24  39  69  90 125 166 212 258 303 365
#     4  12  23  36  65  94 123 157 203 263 315 355
#     4  12  23  40  63  96 125 159 206 263 317 361
#     4  10  22  42  62  90 124 166 209 249 304 376
#     4  10  23  43  63  89 125 169 214 244 305 376
#     4  11  22  39  64  92 120 160 208 258 306 366
#     4  10  23  41  61  88 128 163 205 246 312 379
#
# _framework density 20.146421
#
# number of rings (size 3 to 8) (size 9 to 14) (size 15 to 20)
#    0.750    0.250    3.750    4.125    1.750    0.500 
#    0.000    0.000    0.000    1.500    0.000    0.000 
#    0.000    0.000    0.000    0.000    0.000    0.000 
#
# Total GULP energy -198239.761406 kJ/mol
# GULP energy per Si atom -12389.985088 kJ/mol
# Density = 2.010057 g / cm^3
# Si number density = 20.146421 Si / 1000 Ang^3
#
#
#
# Elastic Constant Matrix: (Units=GPa)
#
#
# Indices 1 2 3 4 5 6 
#
# 1 57.2211 20.7741 26.9521 -11.8946 2.7087 -1.3369
# 2 20.7741 63.6609 20.2410 -1.0703 -5.0426 -4.1891
# 3 26.9521 20.2410 106.0733 -4.8558 -14.9827 2.6775
# 4 -11.8946 -1.0703 -4.8558 36.2525 -15.0161 0.4864
# 5 2.7087 -5.0426 -14.9827 -15.0161 8.9294 4.2908
# 6 -1.3369 -4.1891 2.6775 0.4864 4.2908 23.1457
#
#
#
# Elastic Compliance Matrix: (Units=1/GPa)
#
#
# Indices 1 2 3 4 5 6 
#
# 1 0.020348 -0.004264 0.003787 0.026776 0.047301 -0.009366
# 2 -0.004264 0.017488 -0.007210 -0.013942 -0.028892 0.009402
# 3 0.003787 -0.007210 -0.012925 -0.058028 -0.137522 0.027122
# 4 0.026776 -0.013942 -0.058028 -0.110734 -0.333124 0.069819
# 5 0.047301 -0.028892 -0.137522 -0.333124 -0.789778 0.166823
# 6 -0.009366 0.009402 0.027122 0.069819 0.166823 0.008834
#
#
# Mechanical properties :
#
#
# Convention : Reuss Voigt Hill
#
# Bulk Modulus (GPa) = 104.85201 40.32107 72.58654
# Shear Modulus (GPa) = -5.89475 24.26474 9.18500
#
# Velocity S-wave (km/s) = -1.71240 3.47424 2.13753
# Velocity P-wave (km/s) = 6.94609 6.01259 6.49613
#
# Compressibility (1/GPa) = 0.00953725
#
# Stress axis : x y z
#
# Youngs Moduli (GPa) = 49.14405 57.18289 -77.37148
#
# Poissons Ratio (x) = 0.24380 0.29298
# Poissons Ratio (y) = 0.20953 -0.55787
# Poissons Ratio (z) = -0.18609 0.41230
#
# Static dielectric constant tensor:
#      x y z
#    x 3.513270 0.126930 0.225320 
#    y 0.126930 4.873930 -0.098450 
#    z 0.225320 -0.098450 4.040510 
# 
# 
# High freq. dielectric constant tensor:
#      x y z
#    x 1.769190 -0.018440 0.011750 
#    y -0.018440 1.771670 0.011900 
#    z 0.011750 0.011900 1.808700 
# 
# From -- ./inp_files/279832.got.cif
#   From: 2010.06.25/outbox.cif.g09.slc.cpg/sg2_140_cif.got.tgz:279832.got - 2010.06.27 13:26:56.
