data_PCOD8019839
_publ_section_title
;
Structure prediction by ZEFSAII (Michael W. Deem and Ramdas Pophale) SiO2 
 PCOD8019839
Probable space group: P -1
;
_chemical_formula_sum "Si O2"
_cell_formula_units_Z 16
_cell_length_a 16.213917
_cell_length_b 12.355952
_cell_length_c 10.524523
_cell_angle_alpha 105.553027
_cell_angle_beta 42.171230
_cell_angle_gamma 136.325445
_cell_volume 797.745652
_symmetry_space_group_name_H-M "P -1"
_symmetry_group_IT_number 2
_symmetry_cell_setting 'triclinic'
loop_
_space_group_symop_operation_xyz
x,y,z
-x,-y,-z
loop_
_atom_site_type_symbol
_atom_site_label
_atom_site_fract_x
_atom_site_fract_y
_atom_site_fract_z
Si Si1 0.245187 0.465417 0.132584
Si Si2 0.786542 0.184408 0.634020
Si Si3 0.220648 0.977217 0.964138
Si Si4 0.852510 0.838344 0.943537
Si Si5 0.427034 0.757517 0.807900
Si Si6 0.265177 0.097239 0.691924
Si Si7 0.914516 0.318109 0.810190
Si Si8 0.669150 0.321031 0.679186
O O1 0.342860 0.573100 0.191201
O O2 0.000775 0.317413 0.357633
O O3 0.271443 0.350758 0.049294
O O4 0.367325 0.614815 0.926424
O O5 0.814804 0.195302 0.756088
O O6 0.722165 0.263947 0.702339
O O7 0.607565 0.966778 0.729161
O O8 0.138280 0.041771 0.116448
O O9 0.216832 0.963455 0.809940
O O10 0.457005 0.135451 0.791730
O O11 0.074599 0.774043 0.128414
O O12 0.731377 0.781274 0.196144
O O13 0.085757 0.967371 0.748759
O O14 0.512435 0.762369 0.583668
O O15 0.227108 0.685124 0.976296
O O16 0.150335 0.536282 0.588438
#
# Coordination Sequence:
#
# PCOD8019839 Si02
#       8
#     2   2   2   2   2   2   2   2
#     4  11  21  37  66  91 118 155 209 241 296 356
#     4  11  20  38  61  92 127 155 193 248 300 363
#     4  10  22  42  59  84 130 159 190 254 299 345
#     4   9  21  46  60  81 122 164 203 257 276 349
#     4  12  20  35  67  93 108 167 200 241 303 352
#     4   9  22  43  63  83 116 166 212 238 294 345
#     4  11  21  36  62  93 124 152 197 240 308 360
#     4  11  21  39  60  96 128 150 190 253 302 366
#
# _framework density 20.056519000000002
#
# number of rings (size 3 to 8) (size 9 to 14) (size 15 to 20)
#    0.750    0.750    5.000    1.875    0.000    1.500 
#    4.500    3.125    0.000    0.000    0.000    0.000 
#    0.000    0.000    0.000    0.000    0.000    0.000 
#
# Total GULP energy -198348.975134 kJ/mol
# GULP energy per Si atom -12396.810946 kJ/mol
# Density = 2.001087 g / cm^3
# Si number density = 20.056519 Si / 1000 Ang^3
#
#
#
# Elastic Constant Matrix: (Units=GPa)
#
#
# Indices 1 2 3 4 5 6 
#
# 1 68.1940 -5.8545 26.5754 -7.4057 5.8814 -20.7230
# 2 -5.8545 51.9912 26.7467 10.4177 -5.2224 -16.0169
# 3 26.5754 26.7467 103.7070 8.9458 19.6703 -14.7388
# 4 -7.4057 10.4177 8.9458 31.4596 -3.4838 3.4907
# 5 5.8814 -5.2224 19.6703 -3.4838 13.0237 -6.4045
# 6 -20.7230 -16.0169 -14.7388 3.4907 -6.4045 23.9541
#
#
#
# Elastic Compliance Matrix: (Units=1/GPa)
#
#
# Indices 1 2 3 4 5 6 
#
# 1 0.056046 0.066393 -0.038415 0.003278 0.108259 0.097710
# 2 0.066393 0.128447 -0.064450 -0.004378 0.194569 0.156327
# 3 -0.038415 -0.064450 0.048755 -0.006439 -0.122250 -0.078076
# 4 0.003278 -0.004378 -0.006439 0.038019 0.013749 -0.005918
# 5 0.108259 0.194569 -0.122250 0.013749 0.421739 0.259290
# 6 0.097710 0.156327 -0.078076 -0.005918 0.259290 0.252952
#
#
# Mechanical properties :
#
#
# Convention : Reuss Voigt Hill
#
# Bulk Modulus (GPa) = 6.23817 35.42525 20.83171
# Shear Modulus (GPa) = 4.66271 25.44912 15.05591
#
# Velocity S-wave (km/s) = 1.52638 3.56598 2.74282
# Velocity P-wave (km/s) = 2.49469 5.88694 4.52104
#
# Compressibility (1/GPa) = 0.16030340
#
# Stress axis : x y z
#
# Youngs Moduli (GPa) = 17.84251 7.78529 20.51055
#
# Poissons Ratio (x) = -0.51689 0.78791
# Poissons Ratio (y) = -1.18461 1.32191
# Poissons Ratio (z) = 0.68542 0.50176
#
# Static dielectric constant tensor:
#      x y z
#    x 3.466120 -0.110190 -0.039040 
#    y -0.110190 3.573050 0.037740 
#    z -0.039040 0.037740 3.734150 
# 
# 
# High freq. dielectric constant tensor:
#      x y z
#    x 1.765830 -0.007400 -0.001220 
#    y -0.007400 1.774120 0.003080 
#    z -0.001220 0.003080 1.783940 
# 
# From -- ./inp_files/463839.got.cif
#   From: 2010.06.25/outbox.cif.g09.slc.cpg/sg2_232_cif.got.tgz:463839.got - 2010.06.27 13:26:56.
