data_PCOD8019701
_publ_section_title
;
Structure prediction by ZEFSAII (Michael W. Deem and Ramdas Pophale) SiO2 
 PCOD8019701
Probable space group: P -1
;
_chemical_formula_sum "Si O2"
_cell_formula_units_Z 16
_cell_length_a 8.577500
_cell_length_b 14.957436
_cell_length_c 19.669356
_cell_angle_alpha 158.528330
_cell_angle_beta 58.826425
_cell_angle_gamma 111.191323
_cell_volume 729.781447
_symmetry_space_group_name_H-M "P -1"
_symmetry_group_IT_number 2
_symmetry_cell_setting 'triclinic'
loop_
_space_group_symop_operation_xyz
x,y,z
-x,-y,-z
loop_
_atom_site_type_symbol
_atom_site_label
_atom_site_fract_x
_atom_site_fract_y
_atom_site_fract_z
Si Si1 0.700084 0.083874 0.652313
Si Si2 0.813962 0.249183 0.196712
Si Si3 0.495459 0.002443 0.923703
Si Si4 0.232593 0.555474 0.318166
Si Si5 0.902191 0.627078 0.541693
Si Si6 0.765768 0.606338 0.034047
Si Si7 0.285698 0.026316 0.579778
Si Si8 0.042732 0.487115 0.763145
O O1 0.460672 0.191409 0.788170
O O2 0.796835 0.003863 0.497725
O O3 0.770865 0.308088 0.825699
O O4 0.795770 0.813693 0.482176
O O5 0.619536 0.185068 0.203259
O O6 0.800878 0.459298 0.405619
O O7 0.846112 0.343184 0.179441
O O8 0.000000 0.000000 0.000000
O O9 0.723400 0.905966 0.784402
O O10 0.500000 0.000000 0.000000
O O11 0.403186 0.289930 0.116060
O O12 0.316755 0.778339 0.445307
O O13 0.141835 0.498547 0.229850
O O14 0.070201 0.674717 0.496402
O O15 0.000000 0.500000 0.500000
O O16 0.827153 0.699797 0.159029
O O17 0.933680 0.614018 0.948397
O O18 0.500000 0.000000 0.500000
#
# Coordination Sequence:
#
# PCOD8019701 Si02
#       8
#     2   2   2   2   2   2   2   2
#     4  10  22  44  65  95 136 174 228 280 341 407
#     4  11  23  45  68 102 140 178 232 290 346 417
#     4  12  24  45  71  94 138 185 222 293 353 406
#     4  11  24  45  65  99 140 175 233 289 342 416
#     4  11  23  45  70 100 136 182 231 285 349 418
#     4  10  22  41  70  93 131 184 217 284 349 398
#     4  10  23  44  66 101 138 174 232 287 334 423
#     4  11  23  42  69  97 136 179 230 284 340 420
#
# _framework density 21.924371000000001
#
# number of rings (size 3 to 8) (size 9 to 14) (size 15 to 20)
#    0.000    1.250    5.000    0.750    0.000    6.500 
#    2.250    0.000    0.000    0.000    0.000    0.000 
#    0.000    0.000    0.000    0.000    0.000    0.000 
#
# Total GULP energy -198231.068303 kJ/mol
# GULP energy per Si atom -12389.441769 kJ/mol
# Density = 2.187447 g / cm^3
# Si number density = 21.924371 Si / 1000 Ang^3
#
#
#
# Elastic Constant Matrix: (Units=GPa)
#
#
# Indices 1 2 3 4 5 6 
#
# 1 57.9662 35.7163 47.4654 8.0378 -6.8720 0.7447
# 2 35.7163 124.4352 68.9886 4.7066 0.4364 3.3031
# 3 47.4654 68.9886 145.1325 2.7603 -19.3957 -8.3761
# 4 8.0378 4.7066 2.7603 46.4327 -2.7170 1.1334
# 5 -6.8720 0.4364 -19.3957 -2.7170 51.7790 -4.5699
# 6 0.7447 3.3031 -8.3761 1.1334 -4.5699 36.6025
#
#
#
# Elastic Compliance Matrix: (Units=1/GPa)
#
#
# Indices 1 2 3 4 5 6 
#
# 1 0.025365 -0.003450 -0.006595 -0.003576 0.000602 -0.001528
# 2 -0.003450 0.011901 -0.005022 -0.000407 -0.002679 -0.002475
# 3 -0.006595 -0.005022 0.012189 0.001074 0.004130 0.003859
# 4 -0.003576 -0.000407 0.001074 0.022201 0.001078 -0.000198
# 5 0.000602 -0.002679 0.004130 0.001078 0.021355 0.003807
# 6 -0.001528 -0.002475 0.003859 -0.000198 0.003807 0.028940
#
#
# Mechanical properties :
#
#
# Convention : Reuss Voigt Hill
#
# Bulk Modulus (GPa) = 51.76015 70.20830 60.98423
# Shear Modulus (GPa) = 31.54080 38.65375 35.09727
#
# Velocity S-wave (km/s) = 3.79703 4.20342 4.00538
# Velocity P-wave (km/s) = 6.54851 7.45995 7.01904
#
# Compressibility (1/GPa) = 0.01931988
#
# Stress axis : x y z
#
# Youngs Moduli (GPa) = 39.42500 84.02353 82.04390
#
# Poissons Ratio (x) = 0.28990 0.54108
# Poissons Ratio (y) = 0.13603 0.41203
# Poissons Ratio (z) = 0.26001 0.42197
#
# Static dielectric constant tensor:
#      x y z
#    x 1.877410 0.516910 0.109310 
#    y 0.516910 5.240280 -0.383050 
#    z 0.109310 -0.383050 4.363140 
# 
# 
# High freq. dielectric constant tensor:
#      x y z
#    x 1.864200 0.000340 -0.002190 
#    y 0.000340 1.866930 -0.007840 
#    z -0.002190 -0.007840 1.870490 
# 
# From -- ./inp_files/590519.got.cif
#   From: 2010.06.25/outbox.cif.g09.slc.cpg/sg2_296_cif.got.tgz:590519.got - 2010.06.27 13:26:56.
