data_PCOD8019493
_publ_section_title
;
Structure prediction by ZEFSAII (Michael W. Deem and Ramdas Pophale) SiO2 
 PCOD8019493
Probable space group: P -1
;
_chemical_formula_sum "Si O2"
_cell_formula_units_Z 12
_cell_length_a 11.636613
_cell_length_b 7.997497
_cell_length_c 8.630911
_cell_angle_alpha 124.793800
_cell_angle_beta 75.589937
_cell_angle_gamma 72.587232
_cell_volume 531.533719
_symmetry_space_group_name_H-M "P -1"
_symmetry_group_IT_number 2
_symmetry_cell_setting 'triclinic'
loop_
_space_group_symop_operation_xyz
x,y,z
-x,-y,-z
loop_
_atom_site_type_symbol
_atom_site_label
_atom_site_fract_x
_atom_site_fract_y
_atom_site_fract_z
Si Si1 0.806923 0.549779 0.982983
Si Si2 0.299048 0.318883 0.583033
Si Si3 0.981452 0.010510 0.755520
Si Si4 0.789765 0.134026 0.162406
Si Si5 0.427700 0.027481 0.873986
Si Si6 0.968339 0.618045 0.409267
O O1 0.738139 0.711388 0.244951
O O2 0.675253 0.680418 0.973283
O O3 0.870007 0.273433 0.860030
O O4 0.935320 0.559246 0.861742
O O5 0.272835 0.580303 0.690982
O O6 0.457092 0.103418 0.370240
O O7 0.196596 0.270888 0.494882
O O8 0.994826 0.176268 0.487509
O O9 0.132091 0.956230 0.741744
O O10 0.907016 0.970001 0.905663
O O11 0.662855 0.094249 0.166912
O O12 0.500000 0.000000 0.000000
O O13 0.000000 0.500000 0.500000
#
# Coordination Sequence:
#
# PCOD8019493 Si02
#       6
#     2   2   2   2   2   2
#     4  11  26  43  67 100 135 175 221 281 328 389
#     4  11  24  44  66 100 137 174 221 269 337 395
#     4  10  22  41  68 107 129 168 223 278 330 383
#     4  10  22  41  71  97 135 170 219 276 333 392
#     4  12  26  45  67  96 134 183 224 268 334 398
#     4  12  22  42  71 101 131 172 224 274 326 395
#
# _framework density 22.576177999999999
#
# number of rings (size 3 to 8) (size 9 to 14) (size 15 to 20)
#    0.000    1.000    1.667    5.000    7.000    0.000 
#    0.000    7.500    0.000    0.000    0.000    0.000 
#    0.000    0.000    0.000    0.000    0.000    0.000 
#
# Total GULP energy -148684.300704 kJ/mol
# GULP energy per Si atom -12390.358392 kJ/mol
# Density = 2.252479 g / cm^3
# Si number density = 22.576178 Si / 1000 Ang^3
#
#
#
# Elastic Constant Matrix: (Units=GPa)
#
#
# Indices 1 2 3 4 5 6 
#
# 1 171.6374 51.6522 40.7289 -3.6789 -6.4580 -11.5879
# 2 51.6522 132.0081 28.1813 -4.0517 -2.2671 -20.0929
# 3 40.7289 28.1813 110.3671 -7.0351 -24.1971 9.3771
# 4 -3.6789 -4.0517 -7.0351 31.0439 -1.8557 -6.5953
# 5 -6.4580 -2.2671 -24.1971 -1.8557 36.1140 3.7605
# 6 -11.5879 -20.0929 9.3771 -6.5953 3.7605 25.7692
#
#
#
# Elastic Compliance Matrix: (Units=1/GPa)
#
#
# Indices 1 2 3 4 5 6 
#
# 1 0.007166 -0.001777 -0.002600 0.000629 -0.000859 0.003069
# 2 -0.001777 0.010439 -0.003271 0.002268 -0.002728 0.009509
# 3 -0.002600 -0.003271 0.013889 0.000876 0.009718 -0.009968
# 4 0.000629 0.002268 0.000876 0.035103 0.001553 0.010490
# 5 -0.000859 -0.002728 0.009718 0.001553 0.035078 -0.010771
# 6 0.003069 0.009509 -0.009968 0.010490 -0.010771 0.055485
#
#
# Mechanical properties :
#
#
# Convention : Reuss Voigt Hill
#
# Bulk Modulus (GPa) = 61.73723 72.79305 67.26514
# Shear Modulus (GPa) = 28.11263 38.14876 33.13070
#
# Velocity S-wave (km/s) = 3.53262 4.11515 3.83496
# Velocity P-wave (km/s) = 6.63662 7.40895 7.03340
#
# Compressibility (1/GPa) = 0.01619768
#
# Stress axis : x y z
#
# Youngs Moduli (GPa) = 139.53994 95.79251 72.00071
#
# Poissons Ratio (x) = 0.17026 0.18719
# Poissons Ratio (y) = 0.24801 0.23552
# Poissons Ratio (z) = 0.36279 0.31335
#
# Static dielectric constant tensor:
#      x y z
#    x 3.743150 -0.100210 -0.016250 
#    y -0.100210 4.258140 -0.033140 
#    z -0.016250 -0.033140 4.610970 
# 
# 
# High freq. dielectric constant tensor:
#      x y z
#    x 1.877370 -0.010960 -0.000030 
#    y -0.010960 1.902240 -0.007860 
#    z -0.000030 -0.007860 1.904360 
# 
# From -- ./inp_files/150330.got.cif
#   From: 2010.06.25/outbox.cif.g09.slc.cpg/sg2_76_cif.got.tgz:150330.got - 2010.06.27 13:26:56.
