data_PCOD8019422
_publ_section_title
;
Structure prediction by ZEFSAII (Michael W. Deem and Ramdas Pophale) SiO2 
 PCOD8019422
Probable space group: P -1
;
_chemical_formula_sum "Si O2"
_cell_formula_units_Z 16
_cell_length_a 15.198083
_cell_length_b 8.232807
_cell_length_c 15.370136
_cell_angle_alpha 95.343586
_cell_angle_beta 142.736656
_cell_angle_gamma 57.736893
_cell_volume 750.055219
_symmetry_space_group_name_H-M "P -1"
_symmetry_group_IT_number 2
_symmetry_cell_setting 'triclinic'
loop_
_space_group_symop_operation_xyz
x,y,z
-x,-y,-z
loop_
_atom_site_type_symbol
_atom_site_label
_atom_site_fract_x
_atom_site_fract_y
_atom_site_fract_z
Si Si1 0.006481 0.262932 0.020603
Si Si2 0.344714 0.622732 0.524675
Si Si3 0.770614 0.208367 0.740235
Si Si4 0.951224 0.444808 0.371687
Si Si5 0.059382 0.253640 0.747949
Si Si6 0.474662 0.709973 0.964101
Si Si7 0.237082 0.238556 0.061414
Si Si8 0.376289 0.873677 0.694851
O O1 0.918285 0.473551 0.027169
O O2 0.038295 0.078887 0.095939
O O3 0.228872 0.135806 0.137667
O O4 0.826940 0.351430 0.811827
O O5 0.546664 0.350153 0.624207
O O6 0.237716 0.815408 0.370548
O O7 0.435045 0.669829 0.670683
O O8 0.170305 0.650644 0.433871
O O9 0.991964 0.530618 0.327623
O O10 0.693357 0.610372 0.170512
O O11 0.000000 0.500000 0.500000
O O12 0.115137 0.146447 0.488815
O O13 0.129459 0.224602 0.900051
O O14 0.254569 0.980260 0.844231
O O15 0.500000 0.500000 0.000000
O O16 0.449928 0.757407 0.843577
O O17 0.485495 0.084250 0.223952
#
# Coordination Sequence:
#
# PCOD8019422 Si02
#       8
#     2   2   2   2   2   2   2   2
#     4  10  22  41  67  95 135 178 223 278 339 396
#     4  11  25  42  66  99 134 178 225 279 331 411
#     4  10  22  43  63  97 137 175 223 280 334 401
#     4  12  26  46  72 100 140 178 225 288 337 398
#     4  12  25  45  69 101 138 179 229 278 343 403
#     4  12  28  48  71 101 140 180 226 282 338 410
#     4  11  23  43  67 101 132 178 226 280 334 404
#     4  12  26  46  69 102 139 180 230 275 342 407
#
# _framework density 21.331764
#
# number of rings (size 3 to 8) (size 9 to 14) (size 15 to 20)
#    0.000    0.750    5.000    1.875    5.250    3.000 
#    0.000    1.250    0.000    0.000    0.000    0.000 
#    0.000    0.000    0.000    0.000    0.000    0.000 
#
# Total GULP energy -198329.069662 kJ/mol
# GULP energy per Si atom -12395.566854 kJ/mol
# Density = 2.128321 g / cm^3
# Si number density = 21.331764 Si / 1000 Ang^3
#
#
#
# Elastic Constant Matrix: (Units=GPa)
#
#
# Indices 1 2 3 4 5 6 
#
# 1 93.0795 40.9522 38.3665 -4.5934 14.5134 -1.1255
# 2 40.9522 69.8034 10.0674 25.2697 -12.4514 -4.6327
# 3 38.3665 10.0674 80.8915 15.9955 8.1966 1.2678
# 4 -4.5934 25.2697 15.9955 29.9542 2.5596 -5.7416
# 5 14.5134 -12.4514 8.1966 2.5596 36.3501 2.6048
# 6 -1.1255 -4.6327 1.2678 -5.7416 2.6048 35.9937
#
#
#
# Elastic Compliance Matrix: (Units=1/GPa)
#
#
# Indices 1 2 3 4 5 6 
#
# 1 0.352398 -0.426469 -0.196284 0.557081 -0.286958 0.072673
# 2 -0.426469 0.539636 0.237815 -0.695180 0.356824 -0.088972
# 3 -0.196284 0.237815 0.123486 -0.318170 0.157401 -0.042023
# 4 0.557081 -0.695180 -0.318170 0.938253 -0.463643 0.122371
# 5 -0.286958 0.356824 0.157401 -0.463643 0.265892 -0.061792
# 6 0.072673 -0.088972 -0.042023 0.122371 -0.061792 0.044076
#
#
# Mechanical properties :
#
#
# Convention : Reuss Voigt Hill
#
# Bulk Modulus (GPa) = 4.07092 46.94961 25.51027
# Shear Modulus (GPa) = 1.60488 30.75214 16.17851
#
# Velocity S-wave (km/s) = 0.86832 3.80098 2.75694
# Velocity P-wave (km/s) = 1.70817 6.42808 4.70309
#
# Compressibility (1/GPa) = 0.24564466
#
# Stress axis : x y z
#
# Youngs Moduli (GPa) = 2.83770 1.85310 8.09808
#
# Poissons Ratio (x) = 0.79029 1.58952
# Poissons Ratio (y) = 1.21019 -1.92585
# Poissons Ratio (z) = 0.55700 -0.44070
#
# Static dielectric constant tensor:
#      x y z
#    x 4.067020 -0.010630 -0.009600 
#    y -0.010630 3.918440 0.106570 
#    z -0.009600 0.106570 4.039480 
# 
# 
# High freq. dielectric constant tensor:
#      x y z
#    x 1.849860 -0.005940 0.004700 
#    y -0.005940 1.840700 0.010760 
#    z 0.004700 0.010760 1.838480 
# 
# From -- ./inp_files/529921.got.cif
#   From: 2010.06.25/outbox.cif.g09.slc.cpg/sg2_265_cif.got.tgz:529921.got - 2010.06.27 13:26:56.
