data_PCOD8019432
_publ_section_title
;
Structure prediction by ZEFSAII (Michael W. Deem and Ramdas Pophale) SiO2 
 PCOD8019432
Probable space group: P -1
;
_chemical_formula_sum "Si O2"
_cell_formula_units_Z 16
_cell_length_a 9.428307
_cell_length_b 15.166438
_cell_length_c 9.063263
_cell_angle_alpha 104.900090
_cell_angle_beta 112.624894
_cell_angle_gamma 39.008574
_cell_volume 751.016250
_symmetry_space_group_name_H-M "P -1"
_symmetry_group_IT_number 2
_symmetry_cell_setting 'triclinic'
loop_
_space_group_symop_operation_xyz
x,y,z
-x,-y,-z
loop_
_atom_site_type_symbol
_atom_site_label
_atom_site_fract_x
_atom_site_fract_y
_atom_site_fract_z
Si Si1 0.625582 0.469937 0.821422
Si Si2 0.810820 0.237596 0.356385
Si Si3 0.850026 0.764933 0.643208
Si Si4 0.975997 0.018562 0.824677
Si Si5 0.989083 0.182371 0.709116
Si Si6 0.708401 0.527884 0.177562
Si Si7 0.507009 0.984719 0.170937
Si Si8 0.462661 0.196610 0.706308
O O1 0.448429 0.603345 0.700642
O O2 0.860055 0.334517 0.769499
O O3 0.503939 0.432193 0.814689
O O4 0.709415 0.500169 0.995271
O O5 0.839873 0.204000 0.526857
O O6 0.014592 0.211625 0.365282
O O7 0.824609 0.135383 0.233676
O O8 0.680009 0.794651 0.469818
O O9 0.039050 0.606425 0.707001
O O10 0.702764 0.866149 0.768564
O O11 0.017378 0.103699 0.827522
O O12 0.717772 0.105435 0.701719
O O13 0.000000 0.000000 0.000000
O O14 0.243638 0.090021 0.704016
O O15 0.671431 0.651918 0.232992
O O16 0.494927 0.883585 0.165410
O O17 0.500000 0.000000 0.000000
#
# Coordination Sequence:
#
# PCOD8019432 Si02
#       8
#     2   2   2   2   2   2   2   2
#     4  10  22  41  67  96 131 169 215 268 328 377
#     4  11  23  42  67  96 133 172 214 267 325 388
#     4  11  23  43  68  95 130 176 215 260 332 391
#     4  12  25  41  68  99 130 169 222 269 316 384
#     4  12  24  43  64 101 132 166 218 271 323 379
#     4  10  22  41  69  96 126 172 221 264 317 393
#     4  12  25  42  67  95 133 171 215 269 326 387
#     4  12  22  44  67  96 130 171 219 261 327 389
#
# _framework density 21.304466000000001
#
# number of rings (size 3 to 8) (size 9 to 14) (size 15 to 20)
#    0.000    0.750    3.750    4.500    3.500    0.000 
#    0.000    3.750    0.000    0.000    0.000    0.000 
#    0.000    0.000    0.000    0.000    0.000    0.000 
#
# Total GULP energy -198470.059647 kJ/mol
# GULP energy per Si atom -12404.378728 kJ/mol
# Density = 2.125598 g / cm^3
# Si number density = 21.304466 Si / 1000 Ang^3
#
#
#
# Elastic Constant Matrix: (Units=GPa)
#
#
# Indices 1 2 3 4 5 6 
#
# 1 58.6535 36.5849 -0.5421 4.5274 -5.1083 2.5359
# 2 36.5849 134.6686 31.8564 17.5441 -4.0726 17.0620
# 3 -0.5421 31.8564 100.3205 11.3450 -11.7955 12.8576
# 4 4.5274 17.5441 11.3450 28.8343 0.9788 8.1500
# 5 -5.1083 -4.0726 -11.7955 0.9788 31.7870 -3.8709
# 6 2.5359 17.0620 12.8576 8.1500 -3.8709 32.3799
#
#
#
# Elastic Compliance Matrix: (Units=1/GPa)
#
#
# Indices 1 2 3 4 5 6 
#
# 1 0.021362 -0.006324 0.002503 -0.001004 0.003749 0.001367
# 2 -0.006324 0.010619 -0.002710 -0.003445 -0.000954 -0.003271
# 3 0.002503 -0.002710 0.011974 -0.002963 0.004314 -0.002262
# 4 -0.001004 -0.003445 -0.002963 0.040366 -0.003865 -0.007552
# 5 0.003749 -0.000954 0.004314 -0.003865 0.034091 0.003544
# 6 0.001367 -0.003271 -0.002262 -0.007552 0.003544 0.035723
#
#
# Mechanical properties :
#
#
# Convention : Reuss Voigt Hill
#
# Bulk Modulus (GPa) = 32.36920 47.71569 40.04244
# Shear Modulus (GPa) = 28.16977 33.64978 30.90978
#
# Velocity S-wave (km/s) = 3.64022 3.97857 3.81315
# Velocity P-wave (km/s) = 5.73540 6.59932 6.18247
#
# Compressibility (1/GPa) = 0.03089356
#
# Stress axis : x y z
#
# Youngs Moduli (GPa) = 46.81177 94.16972 83.51310
#
# Poissons Ratio (x) = 0.59556 -0.20903
# Poissons Ratio (y) = 0.29606 0.22628
# Poissons Ratio (z) = -0.11717 0.25515
#
# Static dielectric constant tensor:
#      x y z
#    x 3.820340 -0.063420 0.028690 
#    y -0.063420 4.087060 -0.105250 
#    z 0.028690 -0.105250 3.793100 
# 
# 
# High freq. dielectric constant tensor:
#      x y z
#    x 1.819800 -0.000630 0.001570 
#    y -0.000630 1.856050 -0.006740 
#    z 0.001570 -0.006740 1.844330 
# 
# From -- ./inp_files/208474.got.cif
#   From: 2010.06.25/outbox.cif.g09.slc.cpg/sg2_105_cif.got.tgz:208474.got - 2010.06.27 13:26:56.
