data_PCOD8019713
_publ_section_title
;
Structure prediction by ZEFSAII (Michael W. Deem and Ramdas Pophale) SiO2 
 PCOD8019713
Probable space group: P -1
;
_chemical_formula_sum "Si O2"
_cell_formula_units_Z 12
_cell_length_a 9.748349
_cell_length_b 13.427929
_cell_length_c 8.288515
_cell_angle_alpha 92.794680
_cell_angle_beta 72.523159
_cell_angle_gamma 38.225382
_cell_volume 560.922981
_symmetry_space_group_name_H-M "P -1"
_symmetry_group_IT_number 2
_symmetry_cell_setting 'triclinic'
loop_
_space_group_symop_operation_xyz
x,y,z
-x,-y,-z
loop_
_atom_site_type_symbol
_atom_site_label
_atom_site_fract_x
_atom_site_fract_y
_atom_site_fract_z
Si Si1 0.295452 0.823410 0.931900
Si Si2 0.922849 0.490064 0.361492
Si Si3 0.186100 0.782173 0.283388
Si Si4 0.635733 0.487984 0.583967
Si Si5 0.544068 0.858221 0.013051
Si Si6 0.391971 0.850101 0.396988
O O1 0.456575 0.686794 0.713282
O O2 0.375827 0.889226 0.951109
O O3 0.321230 0.731051 0.063208
O O4 0.000000 0.000000 0.000000
O O5 0.889251 0.391945 0.404549
O O6 0.656297 0.694450 0.399015
O O7 0.000000 0.500000 0.500000
O O8 0.153665 0.355970 0.134916
O O9 0.285886 0.616463 0.291531
O O10 0.300795 0.793006 0.373674
O O11 0.865281 0.961280 0.398801
O O12 0.500000 0.500000 0.500000
O O13 0.448790 0.890571 0.230236
O O14 0.500000 0.000000 0.000000
#
# Coordination Sequence:
#
# PCOD8019713 Si02
#       6
#     2   2   2   2   2   2
#     4  11  25  43  67 100 134 170 225 277 322 390
#     4  12  24  44  66  97 140 172 217 275 333 388
#     4  10  22  41  70  97 130 170 228 272 323 387
#     4  12  24  43  71  99 131 176 222 271 329 398
#     4  11  25  44  67  96 136 177 219 270 333 394
#     4  10  22  43  68  98 130 176 220 274 326 391
#
# _framework density 21.393311000000001
#
# number of rings (size 3 to 8) (size 9 to 14) (size 15 to 20)
#    0.000    1.000    3.333    3.000    7.000    0.000 
#    3.000    1.667    0.000    0.000    0.000    0.000 
#    0.000    0.000    0.000    0.000    0.000    0.000 
#
# Total GULP energy -148758.320348 kJ/mol
# GULP energy per Si atom -12396.526696 kJ/mol
# Density = 2.134462 g / cm^3
# Si number density = 21.393311 Si / 1000 Ang^3
#
#
#
# Elastic Constant Matrix: (Units=GPa)
#
#
# Indices 1 2 3 4 5 6 
#
# 1 145.0660 58.7257 39.3523 -3.4087 -8.1296 -5.0197
# 2 58.7257 105.3251 8.7295 5.4106 -2.3654 -3.2038
# 3 39.3523 8.7295 87.3818 7.8512 -5.7361 3.0926
# 4 -3.4087 5.4106 7.8512 32.8443 -0.7681 -11.8450
# 5 -8.1296 -2.3654 -5.7361 -0.7681 36.9890 -3.4472
# 6 -5.0197 -3.2038 3.0926 -11.8450 -3.4472 42.9650
#
#
#
# Elastic Compliance Matrix: (Units=1/GPa)
#
#
# Indices 1 2 3 4 5 6 
#
# 1 0.010713 -0.005691 -0.004601 0.004053 0.001585 0.002403
# 2 -0.005691 0.012676 0.001604 -0.003354 -0.000334 -0.000787
# 3 -0.004601 0.001604 0.013965 -0.005048 0.000897 -0.002743
# 4 0.004053 -0.003354 -0.005048 0.036560 0.001659 0.010799
# 5 0.001585 -0.000334 0.000897 0.001659 0.027795 0.002783
# 6 0.002403 -0.000787 -0.002743 0.010799 0.002783 0.026895
#
#
# Mechanical properties :
#
#
# Convention : Reuss Voigt Hill
#
# Bulk Modulus (GPa) = 50.05748 61.26533 55.66140
# Shear Modulus (GPa) = 32.75712 37.95738 35.35725
#
# Velocity S-wave (km/s) = 3.91728 4.21677 4.06978
# Velocity P-wave (km/s) = 6.62643 7.23934 6.93965
#
# Compressibility (1/GPa) = 0.01997703
#
# Stress axis : x y z
#
# Youngs Moduli (GPa) = 93.34758 78.89224 71.60565
#
# Poissons Ratio (x) = 0.44899 0.32946
# Poissons Ratio (y) = 0.53126 -0.11485
# Poissons Ratio (z) = 0.42949 -0.12654
#
# Static dielectric constant tensor:
#      x y z
#    x 4.166320 0.860730 -1.545450 
#    y 0.860730 6.342230 -3.826290 
#    z -1.545450 -3.826290 9.516160 
# 
# 
# High freq. dielectric constant tensor:
#      x y z
#    x 1.838890 -0.002090 -0.018960 
#    y -0.002090 1.838720 -0.005790 
#    z -0.018960 -0.005790 1.854920 
# 
# From -- ./inp_files/147858.got.cif
#   From: 2010.06.25/outbox.cif.g09.slc.cpg/sg2_74_cif.got.tgz:147858.got - 2010.06.27 13:26:56.
