data_PCOD8019644
_publ_section_title
;
Structure prediction by ZEFSAII (Michael W. Deem and Ramdas Pophale) SiO2 
 PCOD8019644
Probable space group: P -1
;
_chemical_formula_sum "Si O2"
_cell_formula_units_Z 16
_cell_length_a 7.940565
_cell_length_b 14.349891
_cell_length_c 12.718581
_cell_angle_alpha 55.341136
_cell_angle_beta 32.428934
_cell_angle_gamma 65.374109
_cell_volume 632.632394
_symmetry_space_group_name_H-M "P -1"
_symmetry_group_IT_number 2
_symmetry_cell_setting 'triclinic'
loop_
_space_group_symop_operation_xyz
x,y,z
-x,-y,-z
loop_
_atom_site_type_symbol
_atom_site_label
_atom_site_fract_x
_atom_site_fract_y
_atom_site_fract_z
Si Si1 0.683640 0.773785 0.135769
Si Si2 0.173338 0.564823 0.531446
Si Si3 0.242200 0.993910 0.969602
Si Si4 0.292455 0.377083 0.103214
Si Si5 0.367863 0.433199 0.340587
Si Si6 0.219505 0.142713 0.197417
Si Si7 0.796366 0.956192 0.424022
Si Si8 0.613899 0.271240 0.179264
O O1 0.571159 0.877658 0.194722
O O2 0.645038 0.802886 0.017052
O O3 0.048874 0.770849 0.977416
O O4 0.472624 0.655160 0.348902
O O5 0.303962 0.451101 0.487985
O O6 0.960245 0.548017 0.759789
O O7 0.964542 0.606746 0.519320
O O8 0.067698 0.951300 0.197510
O O9 0.492733 0.908801 0.862739
O O10 0.000000 0.000000 0.000000
O O11 0.120635 0.249528 0.245969
O O12 0.566419 0.363404 0.054174
O O13 0.456150 0.444802 0.874219
O O14 0.584999 0.333897 0.268456
O O15 0.925937 0.041616 0.396595
O O16 0.678225 0.831570 0.613331
O O17 0.500000 0.000000 0.500000
#
# Coordination Sequence:
#
# PCOD8019644 Si02
#       8
#     2   2   2   2   2   2   2   2
#     4  11  22  44  61 102 138 177 227 278 343 412
#     4  10  22  41  69  96 131 176 230 280 342 403
#     4  11  25  42  65 101 140 181 227 284 341 414
#     4  11  24  45  70 101 133 179 241 280 344 408
#     4  10  23  44  71  98 135 178 235 286 344 396
#     4  11  24  41  71  94 143 183 222 287 344 413
#     4  11  23  43  65 101 140 181 229 274 346 414
#     4  11  23  41  71  97 138 183 223 289 337 408
#
# _framework density 25.291149999999998
#
# number of rings (size 3 to 8) (size 9 to 14) (size 15 to 20)
#    0.000    1.250    3.750    3.750    7.000    2.000 
#    0.000    3.750    0.000    0.000    0.000    0.000 
#    0.000    0.000    0.000    0.000    0.000    0.000 
#
# Total GULP energy -198332.657556 kJ/mol
# GULP energy per Si atom -12395.791097 kJ/mol
# Density = 2.523359 g / cm^3
# Si number density = 25.291150 Si / 1000 Ang^3
#
#
#
# Elastic Constant Matrix: (Units=GPa)
#
#
# Indices 1 2 3 4 5 6 
#
# 1 75.2768 11.6208 19.9670 1.8020 -10.4288 7.4457
# 2 11.6208 128.1407 42.1668 6.7134 0.4401 31.9886
# 3 19.9670 42.1668 96.1841 -10.5967 -20.8724 13.4022
# 4 1.8020 6.7134 -10.5967 34.4869 14.8095 -3.2230
# 5 -10.4288 0.4401 -20.8724 14.8095 28.4898 1.0183
# 6 7.4457 31.9886 13.4022 -3.2230 1.0183 41.4494
#
#
#
# Elastic Compliance Matrix: (Units=1/GPa)
#
#
# Indices 1 2 3 4 5 6 
#
# 1 0.015041 0.000141 -0.001878 -0.004452 0.006539 -0.002711
# 2 0.000141 0.011436 -0.004687 -0.003827 -0.001298 -0.007601
# 3 -0.001878 -0.004687 0.015304 0.001337 0.009943 -0.001134
# 4 -0.004452 -0.003827 0.001337 0.040424 -0.021854 0.007001
# 5 0.006539 -0.001298 0.009943 -0.021854 0.056389 -0.006472
# 6 -0.002711 -0.007601 -0.001134 0.007001 -0.006472 0.031549
#
#
# Mechanical properties :
#
#
# Convention : Reuss Voigt Hill
#
# Bulk Modulus (GPa) = 34.56145 49.67897 42.12021
# Shear Modulus (GPa) = 25.95574 35.94169 30.94871
#
# Velocity S-wave (km/s) = 3.20703 3.77386 3.50193
# Velocity P-wave (km/s) = 5.23531 6.21891 5.74819
#
# Compressibility (1/GPa) = 0.02893397
#
# Stress axis : x y z
#
# Youngs Moduli (GPa) = 66.48402 87.44399 65.34100
#
# Poissons Ratio (x) = -0.01237 0.12273
# Poissons Ratio (y) = -0.00940 0.30624
# Poissons Ratio (z) = 0.12488 0.40984
#
# Static dielectric constant tensor:
#      x y z
#    x 4.298880 0.353410 -0.031750 
#    y 0.353410 5.053550 -0.032310 
#    z -0.031750 -0.032310 4.625770 
# 
# 
# High freq. dielectric constant tensor:
#      x y z
#    x 1.990070 0.020790 -0.008640 
#    y 0.020790 2.023700 0.000290 
#    z -0.008640 0.000290 2.001600 
# 
# From -- ./inp_files/504046.got.cif
#   From: 2010.06.25/outbox.cif.g09.slc.cpg/sg2_253_cif.got.tgz:504046.got - 2010.06.27 13:26:56.
