data_PCOD8019890
_publ_section_title
;
Structure prediction by ZEFSAII (Michael W. Deem and Ramdas Pophale) SiO2 
 PCOD8019890
Probable space group: P -1
;
_chemical_formula_sum "Si O2"
_cell_formula_units_Z 16
_cell_length_a 21.206004
_cell_length_b 7.088270
_cell_length_c 9.833107
_cell_angle_alpha 43.759169
_cell_angle_beta 55.725198
_cell_angle_gamma 76.078057
_cell_volume 808.260629
_symmetry_space_group_name_H-M "P -1"
_symmetry_group_IT_number 2
_symmetry_cell_setting 'triclinic'
loop_
_space_group_symop_operation_xyz
x,y,z
-x,-y,-z
loop_
_atom_site_type_symbol
_atom_site_label
_atom_site_fract_x
_atom_site_fract_y
_atom_site_fract_z
Si Si1 0.196416 0.201844 0.628103
Si Si2 0.079022 0.646234 0.162656
Si Si3 0.827683 0.767004 0.831087
Si Si4 0.729718 0.516678 0.340004
Si Si5 0.099512 0.625906 0.460447
Si Si6 0.468577 0.285225 0.028556
Si Si7 0.449865 0.641709 0.391027
Si Si8 0.288199 0.127122 0.296558
O O1 0.242112 0.271676 0.678523
O O2 0.164201 0.455738 0.482379
O O3 0.259605 0.149115 0.472857
O O4 0.123288 0.916233 0.877634
O O5 0.108382 0.375074 0.232374
O O6 0.093630 0.724434 0.262332
O O7 0.985585 0.569256 0.280875
O O8 0.756805 0.724798 0.830924
O O9 0.873106 0.098123 0.621917
O O10 0.792711 0.617191 0.091197
O O11 0.643129 0.528869 0.389774
O O12 0.726355 0.200818 0.556196
O O13 0.381222 0.295674 0.084997
O O14 0.466574 0.969827 0.244345
O O15 0.500000 0.500000 0.000000
O O16 0.527839 0.382859 0.779805
O O17 0.500000 0.500000 0.500000
#
# Coordination Sequence:
#
# PCOD8019890 Si02
#       8
#     2   2   2   2   2   2   2   2
#     4  12  22  42  62  92 121 163 203 248 305 354
#     4  11  24  41  61  93 125 157 204 255 301 359
#     4  12  22  42  62  92 121 163 203 248 305 354
#     4  11  23  39  64  90 126 157 200 251 301 360
#     4  11  24  41  63  89 125 162 200 254 305 357
#     4  10  22  42  62  91 123 159 200 247 300 361
#     4  10  22  42  62  91 123 159 200 247 300 361
#     4  11  23  39  64  90 126 157 200 251 301 360
#
# _framework density 19.795593
#
# number of rings (size 3 to 8) (size 9 to 14) (size 15 to 20)
#    0.000    1.000    5.000    2.250    0.000    0.500 
#    4.500    1.250    0.000    0.000    0.000    0.000 
#    0.000    0.000    0.000    0.000    0.000    0.000 
#
# Total GULP energy -198520.784915 kJ/mol
# GULP energy per Si atom -12407.549057 kJ/mol
# Density = 1.975054 g / cm^3
# Si number density = 19.795593 Si / 1000 Ang^3
#
#
#
# Elastic Constant Matrix: (Units=GPa)
#
#
# Indices 1 2 3 4 5 6 
#
# 1 85.1652 24.4527 5.5884 -3.9073 -4.1059 -0.0705
# 2 24.4527 104.7656 13.4458 -0.4298 -12.9046 9.0229
# 3 5.5884 13.4458 45.7712 -2.1741 -9.1148 5.5011
# 4 -3.9073 -0.4298 -2.1741 31.2378 -1.4643 -1.4933
# 5 -4.1059 -12.9046 -9.1148 -1.4643 28.5562 2.0780
# 6 -0.0705 9.0229 5.5011 -1.4933 2.0780 33.2404
#
#
#
# Elastic Compliance Matrix: (Units=1/GPa)
#
#
# Indices 1 2 3 4 5 6 
#
# 1 0.012712 -0.002921 -0.000678 0.001564 0.000300 0.000984
# 2 -0.002921 0.011243 -0.001733 -0.000275 0.004316 -0.003053
# 3 -0.000678 -0.001733 0.024452 0.001746 0.007302 -0.003956
# 4 0.001564 -0.000275 0.001746 0.032484 0.002243 0.001108
# 5 0.000300 0.004316 0.007302 0.002243 0.039805 -0.004767
# 6 0.000984 -0.003053 -0.003956 0.001108 -0.004767 0.031917
#
#
# Mechanical properties :
#
#
# Convention : Reuss Voigt Hill
#
# Bulk Modulus (GPa) = 26.49534 35.85288 31.17411
# Shear Modulus (GPa) = 28.43203 31.42122 29.92663
#
# Velocity S-wave (km/s) = 3.79394 3.98840 3.89238
# Velocity P-wave (km/s) = 5.71012 6.27380 5.99859
#
# Compressibility (1/GPa) = 0.03774249
#
# Stress axis : x y z
#
# Youngs Moduli (GPa) = 78.66468 88.94590 40.89642
#
# Poissons Ratio (x) = 0.25985 0.02773
# Poissons Ratio (y) = 0.22981 0.07086
# Poissons Ratio (z) = 0.05334 0.15412
#
# Static dielectric constant tensor:
#      x y z
#    x 3.631980 -0.038520 -0.205210 
#    y -0.038520 3.712620 -0.006960 
#    z -0.205210 -0.006960 3.663360 
# 
# 
# High freq. dielectric constant tensor:
#      x y z
#    x 1.776970 -0.002900 -0.008130 
#    y -0.002900 1.783550 0.003890 
#    z -0.008130 0.003890 1.772940 
# 
# From -- ./inp_files/47283.got.cif
#   From: 2010.06.25/outbox.cif.g09.slc.cpg/sg2_24_cif.got.tgz:47283.got - 2010.06.27 13:26:56.
