data_PCOD8019485
_publ_section_title
;
Structure prediction by ZEFSAII (Michael W. Deem and Ramdas Pophale) SiO2 
 PCOD8019485
Probable space group: P -1
;
_chemical_formula_sum "Si O2"
_cell_formula_units_Z 16
_cell_length_a 9.755029
_cell_length_b 9.194596
_cell_length_c 14.191563
_cell_angle_alpha 127.991808
_cell_angle_beta 105.955430
_cell_angle_gamma 109.740472
_cell_volume 716.842686
_symmetry_space_group_name_H-M "P -1"
_symmetry_group_IT_number 2
_symmetry_cell_setting 'triclinic'
loop_
_space_group_symop_operation_xyz
x,y,z
-x,-y,-z
loop_
_atom_site_type_symbol
_atom_site_label
_atom_site_fract_x
_atom_site_fract_y
_atom_site_fract_z
Si Si1 0.362338 0.877683 0.803756
Si Si2 0.776325 0.215871 0.455036
Si Si3 0.427647 0.636271 0.444502
Si Si4 0.659059 0.852025 0.757359
Si Si5 0.560821 0.437932 0.078867
Si Si6 0.108201 0.485521 0.756214
Si Si7 0.971558 0.602718 0.946551
Si Si8 0.536701 0.308741 0.731283
O O1 0.198609 0.749620 0.639844
O O2 0.528531 0.880894 0.803328
O O3 0.272066 0.734524 0.827767
O O4 0.441876 0.148540 0.945955
O O5 0.751888 0.401703 0.565472
O O6 0.955680 0.274872 0.565913
O O7 0.579943 0.931148 0.319447
O O8 0.601200 0.796725 0.614572
O O9 0.358463 0.371431 0.298298
O O10 0.507698 0.789957 0.423571
O O11 0.879911 0.099854 0.904137
O O12 0.788249 0.583604 0.188911
O O13 0.523334 0.531925 0.199862
O O14 0.500000 0.500000 0.000000
O O15 0.994495 0.517387 0.818399
O O16 0.759378 0.495674 0.872464
O O17 0.000000 0.500000 0.000000
#
# Coordination Sequence:
#
# PCOD8019485 Si02
#       8
#     2   2   2   2   2   2   2   2
#     4  11  23  47  71 101 145 184 230 298 346 414
#     4  11  24  46  70 101 144 183 238 294 347 412
#     4  10  22  41  68 103 136 184 227 290 352 406
#     4  10  23  43  71 101 142 182 234 286 348 420
#     4  12  25  47  68 105 141 187 231 290 352 422
#     4  12  26  43  76 101 138 192 239 277 361 417
#     4  12  25  43  68 104 134 182 230 286 346 416
#     4  12  25  43  70  99 143 181 230 292 350 404
#
# _framework density 22.3201
#
# number of rings (size 3 to 8) (size 9 to 14) (size 15 to 20)
#    0.000    0.750    3.750    4.125    3.500    2.000 
#    0.000    1.250    0.000    0.000    0.000    0.000 
#    0.000    0.000    0.000    0.000    0.000    0.000 
#
# Total GULP energy -198389.239730 kJ/mol
# GULP energy per Si atom -12399.327483 kJ/mol
# Density = 2.226930 g / cm^3
# Si number density = 22.320100 Si / 1000 Ang^3
#
#
#
# Elastic Constant Matrix: (Units=GPa)
#
#
# Indices 1 2 3 4 5 6 
#
# 1 70.9593 15.3968 33.5883 16.7669 7.1925 -19.8199
# 2 15.3968 83.5618 25.7481 -8.0086 -1.2918 -3.6149
# 3 33.5883 25.7481 88.7173 3.0487 10.6984 -12.0078
# 4 16.7669 -8.0086 3.0487 44.2020 -2.4491 1.4159
# 5 7.1925 -1.2918 10.6984 -2.4491 49.6283 -3.4494
# 6 -19.8199 -3.6149 -12.0078 1.4159 -3.4494 30.4846
#
#
#
# Elastic Compliance Matrix: (Units=1/GPa)
#
#
# Indices 1 2 3 4 5 6 
#
# 1 0.023502 -0.002946 -0.005748 -0.009566 -0.001819 0.012905
# 2 -0.002946 0.013922 -0.003481 0.004023 0.001624 -0.001639
# 3 -0.005748 -0.003481 0.014927 0.000343 -0.002358 0.001447
# 4 -0.009566 0.004023 0.000343 0.027297 0.002304 -0.006615
# 5 -0.001819 0.001624 -0.002358 0.002304 0.021103 0.000362
# 6 0.012905 -0.001639 0.001447 -0.006615 0.000362 0.041918
#
#
# Mechanical properties :
#
#
# Convention : Reuss Voigt Hill
#
# Bulk Modulus (GPa) = 35.71352 43.63388 39.67370
# Shear Modulus (GPa) = 28.35230 36.09666 32.22448
#
# Velocity S-wave (km/s) = 3.56794 4.02584 3.80378
# Velocity P-wave (km/s) = 5.74534 6.41883 6.09140
#
# Compressibility (1/GPa) = 0.02800060
#
# Stress axis : x y z
#
# Youngs Moduli (GPa) = 42.54964 71.82659 66.99408
#
# Poissons Ratio (x) = 0.21160 0.38509
# Poissons Ratio (y) = 0.12535 0.23322
# Poissons Ratio (z) = 0.24458 0.25005
#
# Static dielectric constant tensor:
#      x y z
#    x 4.237560 -0.209070 0.045910 
#    y -0.209070 4.175350 -0.310110 
#    z 0.045910 -0.310110 4.243350 
# 
# 
# High freq. dielectric constant tensor:
#      x y z
#    x 1.873370 -0.005960 -0.003980 
#    y -0.005960 1.884180 -0.021350 
#    z -0.003980 -0.021350 1.892190 
# 
# From -- ./inp_files/308335.got.cif
#   From: 2010.06.25/outbox.cif.g09.slc.cpg/sg2_155_cif.got.tgz:308335.got - 2010.06.27 13:26:56.
