data_PCOD8019460
_publ_section_title
;
Structure prediction by ZEFSAII (Michael W. Deem and Ramdas Pophale) SiO2 
 PCOD8019460
Probable space group: P -1
;
_chemical_formula_sum "Si O2"
_cell_formula_units_Z 16
_cell_length_a 9.076105
_cell_length_b 12.086798
_cell_length_c 8.765122
_cell_angle_alpha 98.347975
_cell_angle_beta 49.205684
_cell_angle_gamma 95.714117
_cell_volume 720.218542
_symmetry_space_group_name_H-M "P -1"
_symmetry_group_IT_number 2
_symmetry_cell_setting 'triclinic'
loop_
_space_group_symop_operation_xyz
x,y,z
-x,-y,-z
loop_
_atom_site_type_symbol
_atom_site_label
_atom_site_fract_x
_atom_site_fract_y
_atom_site_fract_z
Si Si1 0.613807 0.339078 0.612070
Si Si2 0.224907 0.054415 0.710188
Si Si3 0.411859 0.801853 0.977395
Si Si4 0.051412 0.305118 0.386666
Si Si5 0.023101 0.882438 0.376975
Si Si6 0.429653 0.439250 0.187284
Si Si7 0.702975 0.807475 0.024093
Si Si8 0.610668 0.156526 0.343429
O O1 0.546079 0.468793 0.674265
O O2 0.458874 0.273010 0.807543
O O3 0.619784 0.282472 0.429171
O O4 0.826589 0.340005 0.546755
O O5 0.226107 0.096576 0.891864
O O6 0.406587 0.097937 0.501223
O O7 0.041775 0.100730 0.751347
O O8 0.226110 0.919016 0.695595
O O9 0.434315 0.668511 0.906821
O O10 0.367173 0.852652 0.853587
O O11 0.241115 0.836688 0.214393
O O12 0.604073 0.852337 0.942098
O O13 0.200141 0.407372 0.336013
O O14 0.095513 0.212620 0.469813
O O15 0.104446 0.258176 0.172178
O O16 0.000000 0.000000 0.500000
O O17 0.500000 0.500000 0.000000
#
# Coordination Sequence:
#
# PCOD8019460 Si02
#       8
#     2   2   2   2   2   2   2   2
#     4  11  21  42  67  99 134 176 229 274 334 395
#     4  10  23  41  66  94 133 180 218 276 344 394
#     4  11  24  42  62  97 133 171 223 279 327 398
#     4  11  22  40  70 100 133 178 224 274 339 394
#     4  12  26  42  66 101 142 173 227 275 331 410
#     4  11  21  42  70  96 131 178 225 281 335 395
#     4  10  22  41  67  98 134 175 227 271 331 409
#     4  10  24  41  65  93 135 174 227 279 332 401
#
# _framework density 22.215482000000002
#
# number of rings (size 3 to 8) (size 9 to 14) (size 15 to 20)
#    0.000    1.250    3.750    2.625    7.000    1.500 
#    0.000    0.000    0.000    3.000    0.000    0.000 
#    0.000    0.000    0.000    0.000    0.000    0.000 
#
# Total GULP energy -198262.621273 kJ/mol
# GULP energy per Si atom -12391.413830 kJ/mol
# Density = 2.216492 g / cm^3
# Si number density = 22.215482 Si / 1000 Ang^3
#
#
#
# Elastic Constant Matrix: (Units=GPa)
#
#
# Indices 1 2 3 4 5 6 
#
# 1 79.5746 41.3591 23.9357 8.6624 15.5154 -2.5453
# 2 41.3591 110.4315 33.7452 26.7967 7.6800 12.7927
# 3 23.9357 33.7452 85.1578 21.4168 12.6492 4.2518
# 4 8.6624 26.7967 21.4168 37.3874 -3.8406 3.6460
# 5 15.5154 7.6800 12.6492 -3.8406 32.7101 8.1608
# 6 -2.5453 12.7927 4.2518 3.6460 8.1608 32.2336
#
#
#
# Elastic Compliance Matrix: (Units=1/GPa)
#
#
# Indices 1 2 3 4 5 6 
#
# 1 0.018199 -0.006457 -0.001654 -0.000079 -0.008049 0.006265
# 2 -0.006457 0.014338 -0.001978 -0.007021 0.000983 -0.005394
# 3 -0.001654 -0.001978 0.015857 -0.008005 -0.006074 0.001006
# 4 -0.000079 -0.007021 -0.008005 0.037691 0.009941 -0.002944
# 5 -0.008049 0.000983 -0.006074 0.009941 0.040574 -0.011621
# 6 0.006265 -0.005394 0.001006 -0.002944 -0.011621 0.036802
#
#
# Mechanical properties :
#
#
# Convention : Reuss Voigt Hill
#
# Bulk Modulus (GPa) = 35.44121 52.58266 44.01193
# Shear Modulus (GPa) = 25.90094 32.20780 29.05437
#
# Velocity S-wave (km/s) = 3.41823 3.81174 3.62034
# Velocity P-wave (km/s) = 5.61846 6.56455 6.10984
#
# Compressibility (1/GPa) = 0.02821574
#
# Stress axis : x y z
#
# Youngs Moduli (GPa) = 54.94866 69.74329 63.06537
#
# Poissons Ratio (x) = 0.45036 0.10430
# Poissons Ratio (y) = 0.35482 0.12473
# Poissons Ratio (z) = 0.09088 0.13794
#
# Static dielectric constant tensor:
#      x y z
#    x 3.863390 0.058180 -0.008310 
#    y 0.058180 4.244840 0.202130 
#    z -0.008310 0.202130 4.196090 
# 
# 
# High freq. dielectric constant tensor:
#      x y z
#    x 1.854080 0.005560 -0.004740 
#    y 0.005560 1.870960 0.009780 
#    z -0.004740 0.009780 1.895460 
# 
# From -- ./inp_files/187306.got.cif
#   From: 2010.06.25/outbox.cif.g09.slc.cpg/sg2_94_cif.got.tgz:187306.got - 2010.06.27 13:26:56.
