data_PCOD8019258
_publ_section_title
;
Structure prediction by ZEFSAII (Michael W. Deem and Ramdas Pophale) SiO2 
 PCOD8019258
Probable space group: P -1
;
_chemical_formula_sum "Si O2"
_cell_formula_units_Z 16
_cell_length_a 8.920267
_cell_length_b 13.375805
_cell_length_c 10.142437
_cell_angle_alpha 134.946203
_cell_angle_beta 89.403947
_cell_angle_gamma 74.083063
_cell_volume 785.751891
_symmetry_space_group_name_H-M "P -1"
_symmetry_group_IT_number 2
_symmetry_cell_setting 'triclinic'
loop_
_space_group_symop_operation_xyz
x,y,z
-x,-y,-z
loop_
_atom_site_type_symbol
_atom_site_label
_atom_site_fract_x
_atom_site_fract_y
_atom_site_fract_z
Si Si1 0.935253 0.761585 0.965753
Si Si2 0.099997 0.906800 0.289520
Si Si3 0.115952 0.180510 0.402970
Si Si4 0.540994 0.354676 0.271799
Si Si5 0.885941 0.176674 0.195760
Si Si6 0.912989 0.533547 0.169447
Si Si7 0.366958 0.581894 0.964228
Si Si8 0.652424 0.842904 0.862388
O O1 0.966310 0.869709 0.174259
O O2 0.756812 0.858450 0.000056
O O3 0.073803 0.717531 0.811524
O O4 0.955861 0.594775 0.859725
O O5 0.250507 0.748714 0.179031
O O6 0.176617 0.009483 0.303937
O O7 0.000000 0.000000 0.500000
O O8 0.107537 0.298364 0.627806
O O9 0.242603 0.188229 0.300588
O O10 0.934411 0.220011 0.379575
O O11 0.500000 0.500000 0.500000
O O12 0.696272 0.215608 0.207879
O O13 0.393412 0.300616 0.237876
O O14 0.559399 0.394299 0.155141
O O15 0.000000 0.000000 0.000000
O O16 0.738153 0.520276 0.154910
O O17 0.000000 0.500000 0.000000
O O18 0.500000 0.500000 0.000000
O O19 0.500000 0.000000 0.000000
#
# Coordination Sequence:
#
# PCOD8019258 Si02
#       8
#     2   2   2   2   2   2   2   2
#     4  10  22  41  66  89 131 166 216 264 321 381
#     4  11  22  44  72  94 122 179 229 259 323 406
#     4  11  23  40  71  97 127 167 220 270 327 388
#     4  12  25  41  66 100 133 171 219 266 332 397
#     4  11  20  41  70  90 126 173 211 272 322 387
#     4  11  24  43  66  96 128 169 224 269 318 389
#     4  11  25  48  66  92 141 178 212 277 334 387
#     4  11  25  39  63  98 136 164 207 274 331 383
#
# _framework density 20.362663000000001
#
# number of rings (size 3 to 8) (size 9 to 14) (size 15 to 20)
#    0.000    1.000    3.750    4.500    3.500    2.000 
#    2.250    0.625    0.000    0.000    0.000    0.000 
#    0.000    0.000    0.000    0.000    0.000    0.000 
#
# Total GULP energy -198329.743898 kJ/mol
# GULP energy per Si atom -12395.608994 kJ/mol
# Density = 2.031632 g / cm^3
# Si number density = 20.362663 Si / 1000 Ang^3
#
#
#
# Elastic Constant Matrix: (Units=GPa)
#
#
# Indices 1 2 3 4 5 6 
#
# 1 111.8124 53.8208 47.2119 -6.0999 8.7195 -10.7407
# 2 53.8208 116.2817 46.7678 1.2001 2.6811 -10.2024
# 3 47.2119 46.7678 129.5803 6.0356 6.8370 -13.4817
# 4 -6.0999 1.2001 6.0356 32.3799 5.2178 0.1920
# 5 8.7195 2.6811 6.8370 5.2178 32.1988 -0.0957
# 6 -10.7407 -10.2024 -13.4817 0.1920 -0.0957 45.8768
#
#
#
# Elastic Compliance Matrix: (Units=1/GPa)
#
#
# Indices 1 2 3 4 5 6 
#
# 1 0.012992 -0.004705 -0.002927 0.003660 -0.003095 0.001114
# 2 -0.004705 0.011832 -0.002476 -0.001027 0.000983 0.000808
# 3 -0.002927 -0.002476 0.009998 -0.002211 -0.000761 0.001710
# 4 0.003660 -0.001027 -0.002211 0.032955 -0.005777 -0.000171
# 5 -0.003095 0.000983 -0.000761 -0.005777 0.032909 -0.000637
# 6 0.001114 0.000808 0.001710 -0.000171 -0.000637 0.022740
#
#
# Mechanical properties :
#
#
# Convention : Reuss Voigt Hill
#
# Bulk Modulus (GPa) = 68.46156 72.58618 70.52387
# Shear Modulus (GPa) = 33.66750 36.08269 34.87509
#
# Velocity S-wave (km/s) = 4.07061 4.21408 4.14297
# Velocity P-wave (km/s) = 7.46908 7.70727 7.58911
#
# Compressibility (1/GPa) = 0.01460674
#
# Stress axis : x y z
#
# Youngs Moduli (GPa) = 76.97026 84.51491 100.01679
#
# Poissons Ratio (x) = 0.39763 0.29273
# Poissons Ratio (y) = 0.36214 0.24766
# Poissons Ratio (z) = 0.22528 0.20928
#
# Static dielectric constant tensor:
#      x y z
#    x 1.846870 -0.335510 -0.593270 
#    y -0.335510 4.051620 -0.107180 
#    z -0.593270 -0.107180 3.375570 
# 
# 
# High freq. dielectric constant tensor:
#      x y z
#    x 1.793630 0.007890 0.010850 
#    y 0.007890 1.814750 0.000770 
#    z 0.010850 0.000770 1.792930 
# 
# From -- ./inp_files/190781.got.cif
#   From: 2010.06.25/outbox.cif.g09.slc.cpg/sg2_96_cif.got.tgz:190781.got - 2010.06.27 13:26:56.
