data_PCOD8019544
_publ_section_title
;
Structure prediction by ZEFSAII (Michael W. Deem and Ramdas Pophale) SiO2 
 PCOD8019544
Probable space group: P -1
;
_chemical_formula_sum "Si O2"
_cell_formula_units_Z 16
_cell_length_a 14.622545
_cell_length_b 8.779835
_cell_length_c 11.798259
_cell_angle_alpha 84.648556
_cell_angle_beta 148.749654
_cell_angle_gamma 85.576625
_cell_volume 745.420449
_symmetry_space_group_name_H-M "P -1"
_symmetry_group_IT_number 2
_symmetry_cell_setting 'triclinic'
loop_
_space_group_symop_operation_xyz
x,y,z
-x,-y,-z
loop_
_atom_site_type_symbol
_atom_site_label
_atom_site_fract_x
_atom_site_fract_y
_atom_site_fract_z
Si Si1 0.907936 0.631103 0.642086
Si Si2 0.911075 0.687003 0.398835
Si Si3 0.462449 0.237921 0.120408
Si Si4 0.828255 0.312426 0.515871
Si Si5 0.828378 0.124031 0.752832
Si Si6 0.310891 0.452552 0.160819
Si Si7 0.614943 0.925436 0.420967
Si Si8 0.452755 0.707445 0.384313
O O1 0.942505 0.728920 0.559959
O O2 0.812466 0.496310 0.514520
O O3 0.774807 0.763671 0.570725
O O4 0.094773 0.545900 0.913866
O O5 0.000000 0.500000 0.500000
O O6 0.016438 0.763423 0.411530
O O7 0.692004 0.728670 0.142099
O O8 0.631604 0.304267 0.259767
O O9 0.373667 0.323986 0.136361
O O10 0.533536 0.044177 0.221901
O O11 0.887113 0.203676 0.698179
O O12 0.724108 0.260897 0.721701
O O13 0.685911 0.028065 0.579501
O O14 0.000000 0.000000 0.000000
O O15 0.430198 0.578405 0.276553
O O16 0.356587 0.360821 0.336625
O O17 0.450954 0.869917 0.307219
#
# Coordination Sequence:
#
# PCOD8019544 Si02
#       8
#     2   2   2   2   2   2   2   2
#     4  11  24  43  64  99 128 166 222 270 315 388
#     4  10  22  42  70  96 125 170 221 265 328 372
#     4  11  22  44  66  96 132 166 215 271 313 397
#     4  10  22  41  68  96 126 172 218 267 318 385
#     4  11  24  39  62  96 130 170 216 261 329 388
#     4  11  22  41  65  90 133 162 226 262 307 389
#     4  11  25  40  62  93 135 165 211 267 330 378
#     4  11  24  40  63  95 126 179 211 262 327 382
#
# _framework density 21.464397000000002
#
# number of rings (size 3 to 8) (size 9 to 14) (size 15 to 20)
#    0.000    1.250    5.000    1.875    5.250    3.000 
#    2.250    2.500    0.000    0.000    0.000    0.000 
#    0.000    0.000    0.000    0.000    0.000    0.000 
#
# Total GULP energy -198337.220432 kJ/mol
# GULP energy per Si atom -12396.076277 kJ/mol
# Density = 2.141554 g / cm^3
# Si number density = 21.464397 Si / 1000 Ang^3
#
#
#
# Elastic Constant Matrix: (Units=GPa)
#
#
# Indices 1 2 3 4 5 6 
#
# 1 91.3768 20.1545 24.1706 -6.7446 4.9841 14.8426
# 2 20.1545 83.2584 16.9681 -12.3950 1.0571 13.8977
# 3 24.1706 16.9681 148.2906 -22.1278 10.7380 7.2348
# 4 -6.7446 -12.3950 -22.1278 24.1861 -1.8501 3.2807
# 5 4.9841 1.0571 10.7380 -1.8501 20.6234 0.4450
# 6 14.8426 13.8977 7.2348 3.2807 0.4450 32.0350
#
#
#
# Elastic Compliance Matrix: (Units=1/GPa)
#
#
# Indices 1 2 3 4 5 6 
#
# 1 0.012717 -0.001637 -0.001160 0.002181 -0.002079 -0.005114
# 2 -0.001637 0.014658 0.000068 0.008028 0.000468 -0.006445
# 3 -0.001160 0.000068 0.008376 0.007400 -0.003375 -0.002095
# 4 0.002181 0.008028 0.007400 0.054458 0.000347 -0.011746
# 5 -0.002079 0.000468 -0.003375 0.000347 0.050739 0.000782
# 6 -0.005114 -0.006445 -0.002095 -0.011746 0.000782 0.038046
#
#
# Mechanical properties :
#
#
# Convention : Reuss Voigt Hill
#
# Bulk Modulus (GPa) = 33.01190 49.50136 41.25663
# Shear Modulus (GPa) = 25.70036 32.81107 29.25572
#
# Velocity S-wave (km/s) = 3.46403 3.91401 3.69587
# Velocity P-wave (km/s) = 5.60469 6.59834 6.12171
#
# Compressibility (1/GPa) = 0.03029211
#
# Stress axis : x y z
#
# Youngs Moduli (GPa) = 78.63657 68.22121 119.39404
#
# Poissons Ratio (x) = 0.11170 0.13849
# Poissons Ratio (y) = 0.12875 -0.00812
# Poissons Ratio (z) = 0.09122 -0.00464
#
# Static dielectric constant tensor:
#      x y z
#    x 6.404540 -1.307520 2.069380 
#    y -1.307520 4.722580 -1.274440 
#    z 2.069380 -1.274440 5.643310 
# 
# 
# High freq. dielectric constant tensor:
#      x y z
#    x 1.835680 0.001270 -0.000420 
#    y 0.001270 1.837290 -0.008950 
#    z -0.000420 -0.008950 1.845860 
# 
# From -- ./inp_files/306223.got.cif
#   From: 2010.06.25/outbox.cif.g09.slc.cpg/sg2_154_cif.got.tgz:306223.got - 2010.06.27 13:26:56.
