data_PCOD8019129
_publ_section_title
;
Structure prediction by ZEFSAII (Michael W. Deem and Ramdas Pophale) SiO2 
 PCOD8019129
Probable space group: P -1
;
_chemical_formula_sum "Si O2"
_cell_formula_units_Z 16
_cell_length_a 10.413084
_cell_length_b 15.965013
_cell_length_c 10.647836
_cell_angle_alpha 25.310050
_cell_angle_beta 111.376298
_cell_angle_gamma 106.785407
_cell_volume 701.012343
_symmetry_space_group_name_H-M "P -1"
_symmetry_group_IT_number 2
_symmetry_cell_setting 'triclinic'
loop_
_space_group_symop_operation_xyz
x,y,z
-x,-y,-z
loop_
_atom_site_type_symbol
_atom_site_label
_atom_site_fract_x
_atom_site_fract_y
_atom_site_fract_z
Si Si1 0.016596 0.195732 0.544761
Si Si2 0.178501 0.518969 0.286455
Si Si3 0.224776 0.811085 0.708931
Si Si4 0.729811 0.747726 0.105921
Si Si5 0.292849 0.230516 0.208959
Si Si6 0.803508 0.370624 0.410016
Si Si7 0.407821 0.836643 0.500169
Si Si8 0.954568 0.241618 0.872148
O O1 0.924769 0.239294 0.327249
O O2 0.908731 0.199679 0.616973
O O3 0.121019 0.358360 0.390519
O O4 0.098007 0.977041 0.854643
O O5 0.282159 0.411992 0.572084
O O6 0.057205 0.654671 0.135578
O O7 0.264032 0.662603 0.039224
O O8 0.346018 0.788818 0.679587
O O9 0.209781 0.038567 0.442188
O O10 0.889654 0.783863 0.088665
O O11 0.662905 0.703520 0.006634
O O12 0.642366 0.943832 0.859490
O O13 0.426451 0.196301 0.391532
O O14 0.192774 0.426392 0.945861
O O15 0.647308 0.307762 0.428396
O O16 0.854225 0.389460 0.546603
#
# Coordination Sequence:
#
# PCOD8019129 Si02
#       8
#     2   2   2   2   2   2   2   2
#     4  11  22  38  60  92 129 163 198 249 307 375
#     4  12  24  37  61  93 132 163 194 250 317 368
#     4  10  23  41  56  91 127 164 203 248 309 366
#     4  11  19  38  61  90 118 160 204 250 298 365
#     4  11  21  41  64  88 118 166 215 252 296 362
#     4  11  20  37  66  93 121 154 212 259 299 358
#     4  10  22  41  65  87 119 164 215 257 295 354
#     4  12  21  39  63  96 127 156 205 252 309 371
#
# _framework density 22.824135999999999
#
# number of rings (size 3 to 8) (size 9 to 14) (size 15 to 20)
#    0.000    1.000    6.250    4.500    0.000    0.500 
#    4.500    2.500    0.000    0.750    0.000    0.000 
#    0.000    0.000    0.000    0.000    0.000    0.000 
#
# Total GULP energy -198273.790748 kJ/mol
# GULP energy per Si atom -12392.111922 kJ/mol
# Density = 2.277219 g / cm^3
# Si number density = 22.824136 Si / 1000 Ang^3
#
#
#
# Elastic Constant Matrix: (Units=GPa)
#
#
# Indices 1 2 3 4 5 6 
#
# 1 30.4229 14.3226 27.3205 5.5791 9.5014 3.4666
# 2 14.3226 74.7734 21.4852 -4.8073 11.5273 21.3730
# 3 27.3205 21.4852 144.7061 1.5324 5.7202 -3.8996
# 4 5.5791 -4.8073 1.5324 41.3754 -7.8688 5.5546
# 5 9.5014 11.5273 5.7202 -7.8688 26.7250 5.8738
# 6 3.4666 21.3730 -3.8996 5.5546 5.8738 22.8165
#
#
#
# Elastic Compliance Matrix: (Units=1/GPa)
#
#
# Indices 1 2 3 4 5 6 
#
# 1 0.049710 -0.006755 -0.007445 -0.011174 -0.017495 0.004726
# 2 -0.006755 0.022022 -0.002653 0.006507 0.000151 -0.021679
# 3 -0.007445 -0.002653 0.008815 -0.000151 0.000770 0.004962
# 4 -0.011174 0.006507 -0.000151 0.031148 0.013788 -0.015556
# 5 -0.017495 0.000151 0.000770 0.013788 0.050480 -0.013704
# 6 0.004726 -0.021679 0.004962 -0.015556 -0.013704 0.071580
#
#
# Mechanical properties :
#
#
# Convention : Reuss Voigt Hill
#
# Bulk Modulus (GPa) = 21.34924 41.79544 31.57234
# Shear Modulus (GPa) = 17.66318 30.63498 24.14908
#
# Velocity S-wave (km/s) = 2.78489 3.66760 3.25630
# Velocity P-wave (km/s) = 4.44015 6.02385 5.29158
#
# Compressibility (1/GPa) = 0.04684007
#
# Stress axis : x y z
#
# Youngs Moduli (GPa) = 20.11655 45.40994 113.44261
#
# Poissons Ratio (x) = 0.30674 0.84459
# Poissons Ratio (y) = 0.13589 0.30101
# Poissons Ratio (z) = 0.14977 0.12049
#
# Static dielectric constant tensor:
#      x y z
#    x 3.361550 0.008390 0.290760 
#    y 0.008390 4.477880 -0.083110 
#    z 0.290760 -0.083110 4.464260 
# 
# 
# High freq. dielectric constant tensor:
#      x y z
#    x 1.824220 0.005200 0.028870 
#    y 0.005200 1.914110 -0.013710 
#    z 0.028870 -0.013710 1.918350 
# 
# From -- ./inp_files/426475.got.cif
#   From: 2010.06.25/outbox.cif.g09.slc.cpg/sg2_214_cif.got.tgz:426475.got - 2010.06.27 13:26:56.
