data_PCOD8019910
_publ_section_title
;
Structure prediction by ZEFSAII (Michael W. Deem and Ramdas Pophale) SiO2 
 PCOD8019910
Probable space group: P -1
;
_chemical_formula_sum "Si O2"
_cell_formula_units_Z 12
_cell_length_a 9.272769
_cell_length_b 5.957982
_cell_length_c 14.241634
_cell_angle_alpha 70.893111
_cell_angle_beta 83.126609
_cell_angle_gamma 51.123812
_cell_volume 574.840357
_symmetry_space_group_name_H-M "P -1"
_symmetry_group_IT_number 2
_symmetry_cell_setting 'triclinic'
loop_
_space_group_symop_operation_xyz
x,y,z
-x,-y,-z
loop_
_atom_site_type_symbol
_atom_site_label
_atom_site_fract_x
_atom_site_fract_y
_atom_site_fract_z
Si Si1 0.879739 0.131168 0.899555
Si Si2 0.690999 0.813477 0.243591
Si Si3 0.594489 0.144943 0.016161
Si Si4 0.993290 0.359785 0.614051
Si Si5 0.022149 0.843837 0.738398
Si Si6 0.731631 0.743076 0.741732
O O1 0.768017 0.493408 0.847053
O O2 0.736214 0.059848 0.932061
O O3 0.021304 0.959596 0.825667
O O4 0.000000 0.000000 0.000000
O O5 0.825359 0.777891 0.317846
O O6 0.776482 0.475394 0.250569
O O7 0.692248 0.978399 0.129472
O O8 0.487675 0.977151 0.280644
O O9 0.500000 0.500000 0.000000
O O10 0.500000 0.000000 0.000000
O O11 0.000000 0.500000 0.500000
O O12 0.800708 0.611405 0.649344
O O13 0.994436 0.077639 0.630083
O O14 0.845775 0.853304 0.750107
#
# Coordination Sequence:
#
# PCOD8019910 Si02
#       6
#     2   2   2   2   2   2
#     4  11  23  40  61  91 138 179 227 272 338 397
#     4  11  24  41  67  96 132 177 228 277 341 402
#     4  12  26  41  67 101 141 184 233 276 336 411
#     4  10  24  45  67  94 130 168 222 287 352 412
#     4  10  23  41  64  90 129 172 224 282 337 408
#     4  10  22  42  62  94 128 171 220 276 337 409
#
# _framework density 20.875361999999999
#
# number of rings (size 3 to 8) (size 9 to 14) (size 15 to 20)
#    0.000    1.333    1.667    4.000    4.667    7.333 
#    0.000    1.667    0.000    0.000    0.000    0.000 
#    0.000    0.000    0.000    0.000    0.000    0.000 
#
# Total GULP energy -148657.624293 kJ/mol
# GULP energy per Si atom -12388.135358 kJ/mol
# Density = 2.082785 g / cm^3
# Si number density = 20.875362 Si / 1000 Ang^3
#
#
#
# Elastic Constant Matrix: (Units=GPa)
#
#
# Indices 1 2 3 4 5 6 
#
# 1 125.1336 69.8524 67.6997 -16.8133 -15.5821 -4.2186
# 2 69.8524 146.9398 52.7699 -14.6088 -13.3021 -13.1299
# 3 67.6997 52.7699 170.3294 -10.5074 -26.8069 2.8693
# 4 -16.8133 -14.6088 -10.5074 17.8074 3.8409 -4.9521
# 5 -15.5821 -13.3021 -26.8069 3.8409 35.1075 -0.4394
# 6 -4.2186 -13.1299 2.8693 -4.9521 -0.4394 46.7011
#
#
#
# Elastic Compliance Matrix: (Units=1/GPa)
#
#
# Indices 1 2 3 4 5 6 
#
# 1 0.013300 -0.004212 -0.003409 0.007166 0.000932 0.000995
# 2 -0.004212 0.009939 -0.001095 0.004209 0.000637 0.002933
# 3 -0.003409 -0.001095 0.008247 -0.000518 0.004411 -0.001136
# 4 0.007166 0.004209 -0.000518 0.069288 -0.003086 0.009181
# 5 0.000932 0.000637 0.004411 -0.003086 0.032845 -0.000026
# 6 0.000995 0.002933 -0.001136 0.009181 -0.000026 0.023370
#
#
# Mechanical properties :
#
#
# Convention : Reuss Voigt Hill
#
# Bulk Modulus (GPa) = 71.15693 91.44963 81.30328
# Shear Modulus (GPa) = 27.91649 36.72859 32.32254
#
# Velocity S-wave (km/s) = 3.66087 4.19910 3.93919
# Velocity P-wave (km/s) = 7.21317 8.21051 7.72795
#
# Compressibility (1/GPa) = 0.01405345
#
# Stress axis : x y z
#
# Youngs Moduli (GPa) = 75.18933 100.61009 121.26319
#
# Poissons Ratio (x) = 0.42381 0.41340
# Poissons Ratio (y) = 0.31673 0.13273
# Poissons Ratio (z) = 0.25633 0.11013
#
# Static dielectric constant tensor:
#      x y z
#    x -4.061980 2.626320 1.700840 
#    y 2.626320 3.267830 -0.738240 
#    z 1.700840 -0.738240 3.332740 
# 
# 
# High freq. dielectric constant tensor:
#      x y z
#    x 1.823980 0.003650 -0.020570 
#    y 0.003650 1.828260 -0.002790 
#    z -0.020570 -0.002790 1.809710 
# 
# From -- ./inp_files/30556.got.cif
#   From: 2010.06.25/outbox.cif.g09.slc.cpg/sg2_16_cif.got.tgz:30556.got - 2010.06.27 13:26:56.
