data_PCOD8019398
_publ_section_title
;
Structure prediction by ZEFSAII (Michael W. Deem and Ramdas Pophale) SiO2 
 PCOD8019398
Probable space group: P -1
;
_chemical_formula_sum "Si O2"
_cell_formula_units_Z 14
_cell_length_a 12.623870
_cell_length_b 9.324359
_cell_length_c 9.241399
_cell_angle_alpha 43.813841
_cell_angle_beta 101.310222
_cell_angle_gamma 75.494028
_cell_volume 602.923568
_symmetry_space_group_name_H-M "P -1"
_symmetry_group_IT_number 2
_symmetry_cell_setting 'triclinic'
loop_
_space_group_symop_operation_xyz
x,y,z
-x,-y,-z
loop_
_atom_site_type_symbol
_atom_site_label
_atom_site_fract_x
_atom_site_fract_y
_atom_site_fract_z
Si Si1 0.938937 0.215267 0.947038
Si Si2 0.883139 0.954788 0.616193
Si Si3 0.526045 0.514128 0.329932
Si Si4 0.254947 0.496591 0.761371
Si Si5 0.971006 0.657330 0.563875
Si Si6 0.690970 0.970186 0.754421
Si Si7 0.751617 0.094051 0.991190
O O1 0.949327 0.441450 0.746011
O O2 0.788174 0.299033 0.855769
O O3 0.005651 0.088313 0.211689
O O4 0.000000 0.000000 0.000000
O O5 0.951929 0.805944 0.597722
O O6 0.803632 0.855441 0.744450
O O7 0.783718 0.256577 0.337048
O O8 0.500000 0.500000 0.500000
O O9 0.645635 0.544429 0.311101
O O10 0.386644 0.767919 0.055113
O O11 0.563186 0.246139 0.466678
O O12 0.121467 0.532275 0.639435
O O13 0.335895 0.242499 0.067902
O O14 0.865693 0.833669 0.286489
O O15 0.743642 0.024927 0.874123
#
# Coordination Sequence:
#
# PCOD8019398 Si02
#       7
#     2   2   2   2   2   2   2
#     4  12  24  40  67  99 139 164 216 276 327 380
#     4  11  23  42  63 100 136 174 209 266 332 398
#     4   9  23  43  62  92 134 177 219 264 325 389
#     4  11  22  39  69  92 129 172 223 263 324 385
#     4  12  26  39  70 103 132 169 218 269 336 382
#     4  10  22  41  67  94 132 177 219 262 330 388
#     4  11  24  40  64  99 132 168 222 277 319 384
#
# _framework density 23.220189999999999
#
# number of rings (size 3 to 8) (size 9 to 14) (size 15 to 20)
#    0.000    1.143    4.286    0.857    2.000    4.571 
#    0.000    2.857    0.000    5.143    0.000    0.000 
#    0.000    0.000    0.000    0.000    0.000    0.000 
#
# Total GULP energy -173446.526085 kJ/mol
# GULP energy per Si atom -12389.037578 kJ/mol
# Density = 2.316734 g / cm^3
# Si number density = 23.220190 Si / 1000 Ang^3
#
#
#
# Elastic Constant Matrix: (Units=GPa)
#
#
# Indices 1 2 3 4 5 6 
#
# 1 155.5608 37.1567 36.2774 -18.9126 -20.5174 -24.7161
# 2 37.1567 76.7489 -2.2410 4.5738 -6.9048 -0.6226
# 3 36.2774 -2.2410 62.7849 -20.3477 -18.1699 -2.5652
# 4 -18.9126 4.5738 -20.3477 34.6943 4.6591 -7.0353
# 5 -20.5174 -6.9048 -18.1699 4.6591 40.4451 -9.8258
# 6 -24.7161 -0.6226 -2.5652 -7.0353 -9.8258 37.5849
#
#
#
# Elastic Compliance Matrix: (Units=1/GPa)
#
#
# Indices 1 2 3 4 5 6 
#
# 1 0.011441 -0.005459 -0.002715 0.006657 0.005284 0.009875
# 2 -0.005459 0.016033 0.002220 -0.004653 0.000553 -0.003899
# 3 -0.002715 0.002220 0.024596 0.012309 0.009798 0.004796
# 4 0.006657 -0.004653 0.012309 0.042380 0.006841 0.014862
# 5 0.005284 0.000553 0.009798 0.006841 0.034633 0.014488
# 6 0.009875 -0.003899 0.004796 0.014862 0.014488 0.039933
#
#
# Mechanical properties :
#
#
# Convention : Reuss Voigt Hill
#
# Bulk Modulus (GPa) = 24.90041 48.60895 36.75468
# Shear Modulus (GPa) = 25.73169 37.47162 31.60166
#
# Velocity S-wave (km/s) = 3.33252 4.02151 3.69312
# Velocity P-wave (km/s) = 5.05514 6.52248 5.83512
#
# Compressibility (1/GPa) = 0.04015999
#
# Stress axis : x y z
#
# Youngs Moduli (GPa) = 87.40558 62.37194 40.65628
#
# Poissons Ratio (x) = 0.34051 0.11040
# Poissons Ratio (y) = 0.47718 -0.09024
# Poissons Ratio (z) = 0.23734 -0.13844
#
# Static dielectric constant tensor:
#      x y z
#    x 5.237960 -0.304550 0.267490 
#    y -0.304550 4.112710 -0.523830 
#    z 0.267490 -0.523830 4.928860 
# 
# 
# High freq. dielectric constant tensor:
#      x y z
#    x 1.922010 -0.018280 -0.020750 
#    y -0.018280 1.897850 -0.026220 
#    z -0.020750 -0.026220 1.921520 
# 
# From -- ./inp_files/297467.got.cif
#   From: 2010.06.25/outbox.cif.g09.slc.cpg/sg2_149_cif.got.tgz:297467.got - 2010.06.27 13:26:56.
