data_PCOD8019288
_publ_section_title
;
Structure prediction by ZEFSAII (Michael W. Deem and Ramdas Pophale) SiO2 
 PCOD8019288
Probable space group: P -1
;
_chemical_formula_sum "Si O2"
_cell_formula_units_Z 16
_cell_length_a 10.600655
_cell_length_b 11.232229
_cell_length_c 11.975266
_cell_angle_alpha 112.370510
_cell_angle_beta 115.723981
_cell_angle_gamma 36.008419
_cell_volume 754.033255
_symmetry_space_group_name_H-M "P -1"
_symmetry_group_IT_number 2
_symmetry_cell_setting 'triclinic'
loop_
_space_group_symop_operation_xyz
x,y,z
-x,-y,-z
loop_
_atom_site_type_symbol
_atom_site_label
_atom_site_fract_x
_atom_site_fract_y
_atom_site_fract_z
Si Si1 0.361740 0.110327 0.145297
Si Si2 0.834408 0.204879 0.579900
Si Si3 0.352395 0.453227 0.525912
Si Si4 0.484966 0.222251 0.062081
Si Si5 0.908272 0.298745 0.276898
Si Si6 0.324311 0.173440 0.405538
Si Si7 0.028517 0.034376 0.823445
Si Si8 0.119090 0.650278 0.966536
O O1 0.426728 0.202322 0.152557
O O2 0.415356 0.070260 0.282232
O O3 0.105319 0.270102 0.078094
O O4 0.508453 0.894238 0.069732
O O5 0.611081 0.283783 0.542490
O O6 0.787908 0.371455 0.558574
O O7 0.000000 0.000000 0.500000
O O8 0.943975 0.164124 0.725118
O O9 0.292638 0.554349 0.660393
O O10 0.284970 0.353026 0.460932
O O11 0.709475 0.140571 0.130392
O O12 0.302263 0.453732 0.041018
O O13 0.031964 0.073130 0.242541
O O14 0.807144 0.396835 0.150760
O O15 0.089563 0.274201 0.374215
O O16 0.500000 0.000000 0.500000
O O17 0.914102 0.181556 0.939097
#
# Coordination Sequence:
#
# PCOD8019288 Si02
#       8
#     2   2   2   2   2   2   2   2
#     4   9  22  42  60  96 130 166 219 273 319 390
#     4  11  25  46  69  99 135 170 219 283 326 391
#     4  11  26  44  70  98 131 179 222 264 340 393
#     4  10  22  41  66  94 126 172 221 268 331 378
#     4  11  24  46  62  98 139 169 226 270 324 397
#     4  11  25  42  69  95 137 178 219 270 333 391
#     4  11  24  41  67  97 132 170 218 273 329 389
#     4  10  23  41  67  93 129 175 215 273 325 390
#
# _framework density 21.219223
#
# number of rings (size 3 to 8) (size 9 to 14) (size 15 to 20)
#    0.000    1.500    1.250    1.875    7.000    0.500 
#    6.750    0.000    0.000    0.000    0.000    0.000 
#    0.000    0.000    0.000    0.000    0.000    0.000 
#
# Total GULP energy -198501.552189 kJ/mol
# GULP energy per Si atom -12406.347012 kJ/mol
# Density = 2.117093 g / cm^3
# Si number density = 21.219223 Si / 1000 Ang^3
#
#
#
# Elastic Constant Matrix: (Units=GPa)
#
#
# Indices 1 2 3 4 5 6 
#
# 1 107.9525 58.5298 41.2879 7.4024 0.0446 13.1230
# 2 58.5298 127.2735 46.5228 -4.0084 7.5375 4.5057
# 3 41.2879 46.5228 107.6459 -5.0652 -1.5121 -1.2487
# 4 7.4024 -4.0084 -5.0652 29.1520 2.9353 -2.9243
# 5 0.0446 7.5375 -1.5121 2.9353 34.4450 10.0033
# 6 13.1230 4.5057 -1.2487 -2.9243 10.0033 31.8998
#
#
#
# Elastic Compliance Matrix: (Units=1/GPa)
#
#
# Indices 1 2 3 4 5 6 
#
# 1 0.015112 -0.005788 -0.003626 -0.006373 0.003752 -0.007302
# 2 -0.005788 0.011758 -0.002739 0.003169 -0.003541 0.002014
# 3 -0.003626 -0.002739 0.012032 0.002878 0.000141 0.002569
# 4 -0.006373 0.003169 0.002878 0.038238 -0.006051 0.007690
# 5 0.003752 -0.003541 0.000141 -0.006051 0.033870 -0.012214
# 6 -0.007302 0.002014 0.002569 0.007690 -0.012214 0.038703
#
#
# Mechanical properties :
#
#
# Convention : Reuss Voigt Hill
#
# Bulk Modulus (GPa) = 68.51956 70.61699 69.56827
# Shear Modulus (GPa) = 27.95091 32.20147 30.07619
#
# Velocity S-wave (km/s) = 3.63332 3.89981 3.76893
# Velocity P-wave (km/s) = 7.06843 7.32325 7.19697
#
# Compressibility (1/GPa) = 0.01459437
#
# Stress axis : x y z
#
# Youngs Moduli (GPa) = 66.17369 85.04586 83.11464
#
# Poissons Ratio (x) = 0.49227 0.30141
# Poissons Ratio (y) = 0.38303 0.22764
# Poissons Ratio (z) = 0.23997 0.23293
#
# Static dielectric constant tensor:
#      x y z
#    x 3.942580 0.041660 -0.157650 
#    y 0.041660 3.733810 0.031930 
#    z -0.157650 0.031930 3.997580 
# 
# 
# High freq. dielectric constant tensor:
#      x y z
#    x 1.838680 0.003960 -0.007700 
#    y 0.003960 1.833120 0.002790 
#    z -0.007700 0.002790 1.842140 
# 
# From -- ./inp_files/427228.got.cif
#   From: 2010.06.25/outbox.cif.g09.slc.cpg/sg2_214_cif.got.tgz:427228.got - 2010.06.27 13:26:56.
