data_PCOD8019759
_publ_section_title
;
Structure prediction by ZEFSAII (Michael W. Deem and Ramdas Pophale) SiO2 
 PCOD8019759
Probable space group: P -1
;
_chemical_formula_sum "Si O2"
_cell_formula_units_Z 16
_cell_length_a 18.561682
_cell_length_b 9.838418
_cell_length_c 8.403234
_cell_angle_alpha 82.571176
_cell_angle_beta 66.655598
_cell_angle_gamma 32.946636
_cell_volume 699.930886
_symmetry_space_group_name_H-M "P -1"
_symmetry_group_IT_number 2
_symmetry_cell_setting 'triclinic'
loop_
_space_group_symop_operation_xyz
x,y,z
-x,-y,-z
loop_
_atom_site_type_symbol
_atom_site_label
_atom_site_fract_x
_atom_site_fract_y
_atom_site_fract_z
Si Si1 0.503343 0.331453 0.047492
Si Si2 0.954869 0.299041 0.507178
Si Si3 0.794905 0.282937 0.598114
Si Si4 0.851969 0.180451 0.205617
Si Si5 0.276678 0.210075 0.924639
Si Si6 0.575628 0.729553 0.174987
Si Si7 0.057930 0.252665 0.747133
Si Si8 0.264822 0.197391 0.578182
O O1 0.389056 0.468676 0.274488
O O2 0.668460 0.014554 0.003375
O O3 0.500000 0.500000 0.000000
O O4 0.436376 0.353816 0.950540
O O5 0.839107 0.349494 0.654588
O O6 0.980871 0.360987 0.623009
O O7 0.882147 0.487728 0.393291
O O8 0.121042 0.979249 0.362522
O O9 0.859488 0.220468 0.374865
O O10 0.691950 0.480493 0.231964
O O11 0.850922 0.018850 0.234249
O O12 0.000000 0.000000 0.000000
O O13 0.355822 0.223242 0.939001
O O14 0.326240 0.145153 0.706561
O O15 0.088008 0.493510 0.048746
O O16 0.405020 0.003973 0.360353
O O17 0.199924 0.142786 0.645640
#
# Coordination Sequence:
#
# PCOD8019759 Si02
#       8
#     2   2   2   2   2   2   2   2
#     4  12  29  44  71 104 143 183 232 293 354 405
#     4  10  22  41  71  96 138 181 232 274 353 406
#     4  10  23  43  69 100 138 182 235 283 337 429
#     4  11  24  45  73 103 137 182 234 283 354 413
#     4  12  25  48  69 101 140 188 240 283 343 424
#     4  12  26  46  75  97 143 186 235 282 349 421
#     4  11  25  42  70 103 143 179 230 292 347 413
#     4  12  26  42  72 104 139 184 230 295 348 409
#
# _framework density 22.859399
#
# number of rings (size 3 to 8) (size 9 to 14) (size 15 to 20)
#    0.000    0.750    1.250    5.250   10.500    0.500 
#    0.000    0.000    0.000    0.000    0.000    0.000 
#    0.000    0.000    0.000    0.000    0.000    0.000 
#
# Total GULP energy -198374.020464 kJ/mol
# GULP energy per Si atom -12398.376279 kJ/mol
# Density = 2.280737 g / cm^3
# Si number density = 22.859399 Si / 1000 Ang^3
#
#
#
# Elastic Constant Matrix: (Units=GPa)
#
#
# Indices 1 2 3 4 5 6 
#
# 1 101.2815 28.2994 30.8548 -3.3190 4.6162 13.0898
# 2 28.2994 129.5373 -5.1086 -17.2487 7.8109 10.2633
# 3 30.8548 -5.1086 66.2568 4.5552 -0.5553 3.9759
# 4 -3.3190 -17.2487 4.5552 33.8821 -7.0305 -3.7550
# 5 4.6162 7.8109 -0.5553 -7.0305 31.2550 0.2174
# 6 13.0898 10.2633 3.9759 -3.7550 0.2174 34.6717
#
#
#
# Elastic Compliance Matrix: (Units=1/GPa)
#
#
# Indices 1 2 3 4 5 6 
#
# 1 0.012981 -0.002721 -0.006066 0.000055 -0.001309 -0.003386
# 2 -0.002721 0.009056 0.001787 0.003740 -0.000978 -0.001447
# 3 -0.006066 0.001787 0.018239 -0.002138 0.000297 -0.000563
# 4 0.000055 0.003740 -0.002138 0.033359 0.006504 0.002689
# 5 -0.001309 -0.000978 0.000297 0.006504 0.033892 0.001242
# 6 -0.003386 -0.001447 -0.000563 0.002689 0.001242 0.030897
#
#
# Mechanical properties :
#
#
# Convention : Reuss Voigt Hill
#
# Bulk Modulus (GPa) = 38.05826 45.01854 41.53840
# Shear Modulus (GPa) = 31.02077 36.16375 33.59226
#
# Velocity S-wave (km/s) = 3.68778 3.98176 3.83759
# Velocity P-wave (km/s) = 5.90067 6.39341 6.15197
#
# Compressibility (1/GPa) = 0.02627551
#
# Stress axis : x y z
#
# Youngs Moduli (GPa) = 77.03737 110.42036 54.82821
#
# Poissons Ratio (x) = 0.30040 0.33260
# Poissons Ratio (y) = 0.20958 -0.09796
# Poissons Ratio (z) = 0.46733 -0.19729
#
# Static dielectric constant tensor:
#      x y z
#    x 4.134710 0.093690 0.089550 
#    y 0.093690 4.447120 0.057880 
#    z 0.089550 0.057880 3.996270 
# 
# 
# High freq. dielectric constant tensor:
#      x y z
#    x 1.903560 0.004930 0.003400 
#    y 0.004930 1.921820 0.004750 
#    z 0.003400 0.004750 1.894770 
# 
# From -- ./inp_files/328846.got.cif
#   From: 2010.06.25/outbox.cif.g09.slc.cpg/sg2_165_cif.got.tgz:328846.got - 2010.06.27 13:26:56.
