data_PCOD8019310
_publ_section_title
;
Structure prediction by ZEFSAII (Michael W. Deem and Ramdas Pophale) SiO2 
 PCOD8019310
Probable space group: P -1
;
_chemical_formula_sum "Si O2"
_cell_formula_units_Z 12
_cell_length_a 5.327082
_cell_length_b 9.509475
_cell_length_c 12.384351
_cell_angle_alpha 105.238577
_cell_angle_beta 105.327517
_cell_angle_gamma 73.936818
_cell_volume 569.115560
_symmetry_space_group_name_H-M "P -1"
_symmetry_group_IT_number 2
_symmetry_cell_setting 'triclinic'
loop_
_space_group_symop_operation_xyz
x,y,z
-x,-y,-z
loop_
_atom_site_type_symbol
_atom_site_label
_atom_site_fract_x
_atom_site_fract_y
_atom_site_fract_z
Si Si1 0.794981 0.904689 0.494286
Si Si2 0.547232 0.472486 0.124866
Si Si3 0.127367 0.289209 0.123018
Si Si4 0.132832 0.083011 0.263658
Si Si5 0.431539 0.211057 0.748134
Si Si6 0.255700 0.077819 0.913478
O O1 0.906316 0.831111 0.607688
O O2 0.782447 0.787217 0.373039
O O3 0.500000 0.000000 0.500000
O O4 0.000000 0.000000 0.500000
O O5 0.339873 0.383613 0.131921
O O6 0.493049 0.629143 0.213317
O O7 0.854209 0.388120 0.159413
O O8 0.500000 0.500000 0.000000
O O9 0.264002 0.179062 0.213370
O O10 0.942811 0.807899 0.006177
O O11 0.308467 0.917662 0.270686
O O12 0.859564 0.057877 0.174871
O O13 0.319378 0.181732 0.846183
O O14 0.500000 0.000000 0.000000
#
# Coordination Sequence:
#
# PCOD8019310 Si02
#       6
#     2   2   2   2   2   2
#     4  10  22  41  66  96 124 166 218 272 313 367
#     4  12  26  42  61  94 138 169 209 257 328 390
#     4  12  26  41  62  97 132 171 205 264 328 383
#     4  11  24  42  68  94 131 165 224 268 319 378
#     4  11  24  41  68  94 128 172 219 263 317 384
#     4  12  22  38  67 100 130 162 217 270 325 379
#
# _framework density 21.085348
#
# number of rings (size 3 to 8) (size 9 to 14) (size 15 to 20)
#    0.000    0.667    5.000    3.000    2.333    0.000 
#    0.000    1.667    0.000    0.000    0.000    0.000 
#    0.000    0.000    0.000    0.000    0.000    0.000 
#
# Total GULP energy -148752.436878 kJ/mol
# GULP energy per Si atom -12396.036407 kJ/mol
# Density = 2.103736 g / cm^3
# Si number density = 21.085348 Si / 1000 Ang^3
#
#
#
# Elastic Constant Matrix: (Units=GPa)
#
#
# Indices 1 2 3 4 5 6 
#
# 1 112.5771 34.6352 40.7587 -8.9772 7.4851 20.5473
# 2 34.6352 98.3068 57.6779 6.9481 6.5476 16.0344
# 3 40.7587 57.6779 194.5667 2.3104 -6.1666 23.4979
# 4 -8.9772 6.9481 2.3104 19.6529 7.5031 -2.1041
# 5 7.4851 6.5476 -6.1666 7.5031 33.7524 -1.7879
# 6 20.5473 16.0344 23.4979 -2.1041 -1.7879 41.3637
#
#
#
# Elastic Compliance Matrix: (Units=1/GPa)
#
#
# Indices 1 2 3 4 5 6 
#
# 1 0.011915 -0.003063 -0.001365 0.007910 -0.004254 -0.003737
# 2 -0.003063 0.014030 -0.003201 -0.005674 -0.001496 -0.002452
# 3 -0.001365 -0.003201 0.006689 -0.001375 0.002354 -0.001849
# 4 0.007910 -0.005674 -0.001375 0.062448 -0.014702 0.001592
# 5 -0.004254 -0.001496 0.002354 -0.014702 0.034671 0.002107
# 6 -0.003737 -0.002452 -0.001849 0.001592 0.002107 0.028205
#
#
# Mechanical properties :
#
#
# Convention : Reuss Voigt Hill
#
# Bulk Modulus (GPa) = 57.55494 74.62157 66.08826
# Shear Modulus (GPa) = 27.93151 37.11239 32.52195
#
# Velocity S-wave (km/s) = 3.64358 4.19991 3.93160
# Velocity P-wave (km/s) = 6.71240 7.68024 7.21257
#
# Compressibility (1/GPa) = 0.01737470
#
# Stress axis : x y z
#
# Youngs Moduli (GPa) = 83.92599 71.27427 149.50134
#
# Poissons Ratio (x) = 0.21831 0.20414
# Poissons Ratio (y) = 0.25706 0.47862
# Poissons Ratio (z) = 0.11460 0.22818
#
# Static dielectric constant tensor:
#      x y z
#    x 3.810920 0.014920 -0.133950 
#    y 0.014920 3.924480 0.166290 
#    z -0.133950 0.166290 4.641990 
# 
# 
# High freq. dielectric constant tensor:
#      x y z
#    x 1.831700 0.009940 -0.004420 
#    y 0.009940 1.803870 0.000320 
#    z -0.004420 0.000320 1.842030 
# 
# From -- ./inp_files/478628.got.cif
#   From: 2010.06.25/outbox.cif.g09.slc.cpg/sg2_240_cif.got.tgz:478628.got - 2010.06.27 13:26:56.
