data_PCOD8019313
_publ_section_title
;
Structure prediction by ZEFSAII (Michael W. Deem and Ramdas Pophale) SiO2 
 PCOD8019313
Probable space group: P -1
;
_chemical_formula_sum "Si O2"
_cell_formula_units_Z 14
_cell_length_a 14.228526
_cell_length_b 7.064076
_cell_length_c 8.276351
_cell_angle_alpha 125.116528
_cell_angle_beta 98.887871
_cell_angle_gamma 109.392270
_cell_volume 573.904832
_symmetry_space_group_name_H-M "P -1"
_symmetry_group_IT_number 2
_symmetry_cell_setting 'triclinic'
loop_
_space_group_symop_operation_xyz
x,y,z
-x,-y,-z
loop_
_atom_site_type_symbol
_atom_site_label
_atom_site_fract_x
_atom_site_fract_y
_atom_site_fract_z
Si Si1 0.881860 0.114482 0.944566
Si Si2 0.670232 0.290429 0.433268
Si Si3 0.673070 0.922129 0.985731
Si Si4 0.125236 0.396030 0.158396
Si Si5 0.567506 0.937193 0.661085
Si Si6 0.720154 0.559494 0.030948
Si Si7 0.275911 0.196967 0.510030
O O1 0.890531 0.861519 0.877300
O O2 0.835528 0.065436 0.722766
O O3 0.006630 0.381232 0.117725
O O4 0.795009 0.142381 0.050472
O O5 0.776237 0.338775 0.591629
O O6 0.692120 0.560974 0.486847
O O7 0.640763 0.062559 0.182081
O O8 0.562415 0.178750 0.469097
O O9 0.673941 0.665811 0.929928
O O10 0.579206 0.798735 0.760572
O O11 0.164246 0.404967 0.987182
O O12 0.625112 0.870548 0.495480
O O13 0.628084 0.250434 0.884366
O O14 0.746488 0.737754 0.285992
#
# Coordination Sequence:
#
# PCOD8019313 Si02
#       7
#     2   2   2   2   2   2   2
#     4   8  18  41  65  88 130 167 208 266 316 375
#     4  11  22  42  67  92 132 174 210 259 325 376
#     4  10  22  41  66  96 129 167 213 261 321 380
#     4   9  20  39  63  94 126 167 215 260 314 382
#     4  11  24  45  63  93 135 170 210 266 311 384
#     4  11  24  41  65  99 130 165 217 260 318 382
#     4  10  22  41  67  94 127 171 212 262 322 375
#
# _framework density 24.394286999999998
#
# number of rings (size 3 to 8) (size 9 to 14) (size 15 to 20)
#    0.000    2.000    1.429    1.714    2.000    2.286 
#    0.000    2.857    0.000    0.000    0.000    0.000 
#    0.000    0.000    0.000    0.000    0.000    0.000 
#
# Total GULP energy -173592.103395 kJ/mol
# GULP energy per Si atom -12399.435957 kJ/mol
# Density = 2.433876 g / cm^3
# Si number density = 24.394287 Si / 1000 Ang^3
#
#
#
# Elastic Constant Matrix: (Units=GPa)
#
#
# Indices 1 2 3 4 5 6 
#
# 1 99.4111 13.3505 28.6092 -1.1463 16.9134 32.4399
# 2 13.3505 45.2265 9.9433 -12.9324 9.8483 11.8616
# 3 28.6092 9.9433 77.8298 -20.6919 -4.8696 21.8852
# 4 -1.1463 -12.9324 -20.6919 30.1146 8.2219 -2.8139
# 5 16.9134 9.8483 -4.8696 8.2219 44.1205 0.0207
# 6 32.4399 11.8616 21.8852 -2.8139 0.0207 29.3328
#
#
#
# Elastic Compliance Matrix: (Units=1/GPa)
#
#
# Indices 1 2 3 4 5 6 
#
# 1 0.017847 0.001967 -0.001730 0.000611 -0.007577 -0.019178
# 2 0.001967 0.032608 0.003916 0.018225 -0.010989 -0.016527
# 3 -0.001730 0.003916 0.020722 0.014754 -0.000667 -0.013714
# 4 0.000611 0.018225 0.014754 0.053334 -0.012606 -0.013929
# 5 -0.007577 -0.010989 -0.000667 -0.012606 0.030292 0.012090
# 6 -0.019178 -0.016527 -0.013714 -0.013929 0.012090 0.070872
#
#
# Mechanical properties :
#
#
# Convention : Reuss Voigt Hill
#
# Bulk Modulus (GPa) = 12.58151 36.25259 24.41705
# Shear Modulus (GPa) = 20.50313 32.08452 26.29383
#
# Velocity S-wave (km/s) = 2.90226 3.63057 3.28665
# Velocity P-wave (km/s) = 4.04964 5.69808 4.94306
#
# Compressibility (1/GPa) = 0.07948169
#
# Stress axis : x y z
#
# Youngs Moduli (GPa) = 56.03038 30.66727 48.25874
#
# Poissons Ratio (x) = -0.06031 0.08351
# Poissons Ratio (y) = -0.11019 -0.18899
# Poissons Ratio (z) = 0.09696 -0.12010
#
# Static dielectric constant tensor:
#      x y z
#    x 4.708410 -0.015380 0.165970 
#    y -0.015380 4.499660 -0.055430 
#    z 0.165970 -0.055430 4.523050 
# 
# 
# High freq. dielectric constant tensor:
#      x y z
#    x 1.970180 -0.011850 0.003170 
#    y -0.011850 1.981260 -0.006880 
#    z 0.003170 -0.006880 1.954150 
# 
# From -- ./inp_files/180869.got.cif
#   From: 2010.06.25/outbox.cif.g09.slc.cpg/sg2_91_cif.got.tgz:180869.got - 2010.06.27 13:26:56.
