data_PCOD8019326
_publ_section_title
;
Structure prediction by ZEFSAII (Michael W. Deem and Ramdas Pophale) SiO2 
 PCOD8019326
Probable space group: P -1
;
_chemical_formula_sum "Si O2"
_cell_formula_units_Z 16
_cell_length_a 13.942342
_cell_length_b 12.066262
_cell_length_c 9.230686
_cell_angle_alpha 108.202363
_cell_angle_beta 69.179933
_cell_angle_gamma 50.876748
_cell_volume 757.303626
_symmetry_space_group_name_H-M "P -1"
_symmetry_group_IT_number 2
_symmetry_cell_setting 'triclinic'
loop_
_space_group_symop_operation_xyz
x,y,z
-x,-y,-z
loop_
_atom_site_type_symbol
_atom_site_label
_atom_site_fract_x
_atom_site_fract_y
_atom_site_fract_z
Si Si1 0.546190 0.728559 0.211904
Si Si2 0.911060 0.473415 0.961766
Si Si3 0.878279 0.856095 0.885150
Si Si4 0.810925 0.986715 0.285254
Si Si5 0.292640 0.650575 0.145597
Si Si6 0.381495 0.020113 0.160315
Si Si7 0.948378 0.543794 0.380070
Si Si8 0.963900 0.084216 0.342019
O O1 0.368616 0.868940 0.461461
O O2 0.497061 0.822009 0.116639
O O3 0.688773 0.679291 0.200768
O O4 0.682129 0.489295 0.018096
O O5 0.925050 0.484333 0.786454
O O6 0.018176 0.253888 0.852313
O O7 0.000000 0.500000 0.000000
O O8 0.021091 0.617021 0.759918
O O9 0.005412 0.841857 0.758221
O O10 0.738696 0.943410 0.871939
O O11 0.763624 0.005758 0.150223
O O12 0.871642 0.062597 0.301256
O O13 0.182827 0.728952 0.384974
O O14 0.500000 0.500000 0.000000
O O15 0.166344 0.862917 0.211842
O O16 0.263871 0.209763 0.415677
O O17 0.500000 0.000000 0.000000
O O18 0.000000 0.500000 0.500000
#
# Coordination Sequence:
#
# PCOD8019326 Si02
#       8
#     2   2   2   2   2   2   2   2
#     4  12  25  43  74 100 138 178 230 288 338 410
#     4  12  25  45  69 100 137 179 225 282 346 409
#     4  11  25  45  68  97 145 186 220 284 347 403
#     4  12  25  47  68 103 140 183 229 276 351 414
#     4  11  23  42  70 103 129 177 233 283 339 393
#     4  11  25  42  67 107 137 176 238 281 339 408
#     4  10  22  41  66  97 136 177 222 276 339 397
#     4  11  25  43  71  99 138 179 235 282 335 414
#
# _framework density 21.127589
#
# number of rings (size 3 to 8) (size 9 to 14) (size 15 to 20)
#    0.000    0.750    5.000    2.625    7.000    1.500 
#    0.000    0.625    0.000    0.000    0.000    0.000 
#    0.000    0.000    0.000    0.000    0.000    0.000 
#
# Total GULP energy -198341.335785 kJ/mol
# GULP energy per Si atom -12396.333487 kJ/mol
# Density = 2.107950 g / cm^3
# Si number density = 21.127589 Si / 1000 Ang^3
#
#
#
# Elastic Constant Matrix: (Units=GPa)
#
#
# Indices 1 2 3 4 5 6 
#
# 1 140.6907 36.2073 52.7684 -2.1409 -17.1857 0.7081
# 2 36.2073 80.0162 39.9998 -6.6240 -13.2719 8.9298
# 3 52.7684 39.9998 126.0638 -4.3969 -10.8955 -2.7131
# 4 -2.1409 -6.6240 -4.3969 34.7546 -2.3698 -6.3766
# 5 -17.1857 -13.2719 -10.8955 -2.3698 40.2857 -2.4026
# 6 0.7081 8.9298 -2.7131 -6.3766 -2.4026 35.2838
#
#
#
# Elastic Compliance Matrix: (Units=1/GPa)
#
#
# Indices 1 2 3 4 5 6 
#
# 1 0.009058 -0.002328 -0.002843 -0.000022 0.002347 0.000345
# 2 -0.002328 0.016736 -0.004063 0.002041 0.003308 -0.003907
# 3 -0.002843 -0.004063 0.010524 0.000793 0.000465 0.002070
# 4 -0.000022 0.002041 0.000793 0.030427 0.002980 0.005247
# 5 0.002347 0.003308 0.000465 0.002980 0.027308 0.001549
# 6 0.000345 -0.003907 0.002070 0.005247 0.001549 0.030536
#
#
# Mechanical properties :
#
#
# Convention : Reuss Voigt Hill
#
# Bulk Modulus (GPa) = 56.02407 67.19131 61.60769
# Shear Modulus (GPa) = 33.55545 36.58448 35.06997
#
# Velocity S-wave (km/s) = 3.98958 4.16576 4.07862
# Velocity P-wave (km/s) = 6.91353 7.41686 7.16961
#
# Compressibility (1/GPa) = 0.01784947
#
# Stress axis : x y z
#
# Youngs Moduli (GPa) = 110.39859 59.75260 95.02021
#
# Poissons Ratio (x) = 0.13913 0.27017
# Poissons Ratio (y) = 0.25705 0.38602
# Poissons Ratio (z) = 0.31389 0.24275
#
# Static dielectric constant tensor:
#      x y z
#    x 4.644790 0.439310 -0.070270 
#    y 0.439310 4.159470 0.259720 
#    z -0.070270 0.259720 4.901560 
# 
# 
# High freq. dielectric constant tensor:
#      x y z
#    x 1.832060 0.009870 -0.000330 
#    y 0.009870 1.832930 -0.001110 
#    z -0.000330 -0.001110 1.838390 
# 
# From -- ./inp_files/307951.got.cif
#   From: 2010.06.25/outbox.cif.g09.slc.cpg/sg2_154_cif.got.tgz:307951.got - 2010.06.27 13:26:56.
