data_PCOD8019444
_publ_section_title
;
Structure prediction by ZEFSAII (Michael W. Deem and Ramdas Pophale) SiO2 
 PCOD8019444
Probable space group: P -1
;
_chemical_formula_sum "Si O2"
_cell_formula_units_Z 16
_cell_length_a 17.022462
_cell_length_b 11.686945
_cell_length_c 12.037283
_cell_angle_alpha 63.149923
_cell_angle_beta 60.572473
_cell_angle_gamma 20.387454
_cell_volume 726.288787
_symmetry_space_group_name_H-M "P -1"
_symmetry_group_IT_number 2
_symmetry_cell_setting 'triclinic'
loop_
_space_group_symop_operation_xyz
x,y,z
-x,-y,-z
loop_
_atom_site_type_symbol
_atom_site_label
_atom_site_fract_x
_atom_site_fract_y
_atom_site_fract_z
Si Si1 0.881425 0.841612 0.748959
Si Si2 0.734879 0.142077 0.938117
Si Si3 0.843783 0.236271 0.140013
Si Si4 0.448146 0.196402 0.326177
Si Si5 0.647884 0.664994 0.426691
Si Si6 0.519305 0.333724 0.606219
Si Si7 0.151827 0.617806 0.134951
Si Si8 0.922943 0.684919 0.167769
O O1 0.114356 0.621132 0.678282
O O2 0.938962 0.619586 0.839911
O O3 0.707670 0.134704 0.830994
O O4 0.768241 0.990440 0.640444
O O5 0.500000 0.500000 0.000000
O O6 0.915706 0.020256 0.871916
O O7 0.841360 0.877989 0.037784
O O8 0.670074 0.453460 0.265165
O O9 0.731121 0.471455 0.017045
O O10 0.906536 0.012180 0.149386
O O11 0.301432 0.423506 0.438482
O O12 0.322297 0.414287 0.208895
O O13 0.472132 0.012539 0.379952
O O14 0.699459 0.931245 0.283250
O O15 0.513912 0.717449 0.451007
O O16 0.500000 0.500000 0.500000
O O17 0.092816 0.545358 0.190019
#
# Coordination Sequence:
#
# PCOD8019444 Si02
#       8
#     2   2   2   2   2   2   2   2
#     4  11  25  45  67  97 138 177 225 279 340 393
#     4  11  23  43  71 103 138 178 219 278 341 404
#     4  10  24  43  63 100 138 170 226 281 325 411
#     4  10  22  41  74  91 131 176 220 278 339 394
#     4  10  24  47  62 101 132 171 230 279 327 405
#     4  12  28  43  67  95 136 184 223 277 336 399
#     4  10  22  41  67  97 132 169 220 277 337 391
#     4  10  23  41  69 103 131 175 223 277 334 409
#
# _framework density 22.029803999999999
#
# number of rings (size 3 to 8) (size 9 to 14) (size 15 to 20)
#    0.000    1.500    1.250    1.875   10.500    1.500 
#    0.000    5.625    0.000    0.000    0.000    0.000 
#    0.000    0.000    0.000    0.000    0.000    0.000 
#
# Total GULP energy -198423.354590 kJ/mol
# GULP energy per Si atom -12401.459662 kJ/mol
# Density = 2.197966 g / cm^3
# Si number density = 22.029804 Si / 1000 Ang^3
#
#
#
# Elastic Constant Matrix: (Units=GPa)
#
#
# Indices 1 2 3 4 5 6 
#
# 1 129.9226 40.2273 58.0384 -10.1681 8.3153 15.1920
# 2 40.2273 84.2863 45.7962 -6.5628 12.1695 9.2423
# 3 58.0384 45.7962 118.9306 -7.2280 11.3281 6.3448
# 4 -10.1681 -6.5628 -7.2280 34.9792 4.6503 9.2335
# 5 8.3153 12.1695 11.3281 4.6503 32.4850 -5.0780
# 6 15.1920 9.2423 6.3448 9.2335 -5.0780 27.7190
#
#
#
# Elastic Compliance Matrix: (Units=1/GPa)
#
#
# Indices 1 2 3 4 5 6 
#
# 1 0.011276 -0.001845 -0.003964 0.004145 -0.002419 -0.006482
# 2 -0.001845 0.017039 -0.004528 0.004110 -0.005871 -0.006078
# 3 -0.003964 -0.004528 0.012258 0.000647 -0.001599 0.000368
# 4 0.004145 0.004110 0.000647 0.036930 -0.010941 -0.018096
# 5 -0.002419 -0.005871 -0.001599 -0.010941 0.037953 0.014247
# 6 -0.006482 -0.006078 0.000368 -0.018096 0.014247 0.050209
#
#
# Mechanical properties :
#
#
# Convention : Reuss Voigt Hill
#
# Bulk Modulus (GPa) = 50.25181 69.02924 59.64053
# Shear Modulus (GPa) = 25.91051 31.64181 28.77616
#
# Velocity S-wave (km/s) = 3.43324 3.79399 3.61811
# Velocity P-wave (km/s) = 6.21100 7.11302 6.67726
#
# Compressibility (1/GPa) = 0.01989978
#
# Stress axis : x y z
#
# Youngs Moduli (GPa) = 88.68247 58.68876 81.57845
#
# Poissons Ratio (x) = 0.10828 0.32339
# Poissons Ratio (y) = 0.16363 0.36935
# Poissons Ratio (z) = 0.35155 0.26572
#
# Static dielectric constant tensor:
#      x y z
#    x 4.250960 0.013100 -0.063910 
#    y 0.013100 3.764210 -0.022750 
#    z -0.063910 -0.022750 4.013580 
# 
# 
# High freq. dielectric constant tensor:
#      x y z
#    x 1.882200 0.002950 -0.003100 
#    y 0.002950 1.852730 -0.001710 
#    z -0.003100 -0.001710 1.870010 
# 
# From -- ./inp_files/390464.got.cif
#   From: 2010.06.25/outbox.cif.g09.slc.cpg/sg2_196_cif.got.tgz:390464.got - 2010.06.27 13:26:56.
