data_PCOD8019865
_publ_section_title
;
Structure prediction by ZEFSAII (Michael W. Deem and Ramdas Pophale) SiO2 
 PCOD8019865
Probable space group: P -1
;
_chemical_formula_sum "Si O2"
_cell_formula_units_Z 16
_cell_length_a 9.846102
_cell_length_b 14.195055
_cell_length_c 12.862426
_cell_angle_alpha 147.042257
_cell_angle_beta 122.503213
_cell_angle_gamma 72.076894
_cell_volume 783.644618
_symmetry_space_group_name_H-M "P -1"
_symmetry_group_IT_number 2
_symmetry_cell_setting 'triclinic'
loop_
_space_group_symop_operation_xyz
x,y,z
-x,-y,-z
loop_
_atom_site_type_symbol
_atom_site_label
_atom_site_fract_x
_atom_site_fract_y
_atom_site_fract_z
Si Si1 0.395466 0.131807 0.782415
Si Si2 0.802183 0.613329 0.990352
Si Si3 0.043445 0.579116 0.477939
Si Si4 0.668429 0.468300 0.585718
Si Si5 0.761668 0.296141 0.012066
Si Si6 0.192954 0.748440 0.247001
Si Si7 0.497093 0.934499 0.822192
Si Si8 0.145547 0.916778 0.958094
O O1 0.561492 0.256435 0.905667
O O2 0.309601 0.943707 0.514068
O O3 0.443691 0.083768 0.872433
O O4 0.273888 0.254884 0.853291
O O5 0.743093 0.604830 0.837971
O O6 0.739487 0.413315 0.832304
O O7 0.002351 0.706665 0.169755
O O8 0.191602 0.508373 0.424986
O O9 0.000000 0.500000 0.500000
O O10 0.103083 0.796013 0.722305
O O11 0.872824 0.510219 0.272795
O O12 0.500000 0.500000 0.500000
O O13 0.631712 0.266394 0.430590
O O14 0.800974 0.237888 0.861295
O O15 0.833073 0.188412 0.027075
O O16 0.680048 0.926221 0.851147
O O17 0.500000 0.000000 0.000000
O O18 0.000000 0.000000 0.000000
#
# Coordination Sequence:
#
# PCOD8019865 Si02
#       8
#     2   2   2   2   2   2   2   2
#     4  11  24  44  65  95 130 170 218 273 325 382
#     4  11  25  42  70  96 127 172 217 270 327 386
#     4  10  22  42  61  91 131 171 207 268 322 387
#     4  12  24  40  69  97 130 174 217 270 333 386
#     4  10  23  42  66  88 132 172 213 269 319 388
#     4  11  23  47  65  95 132 167 225 265 321 391
#     4  11  22  39  62  95 130 165 216 272 321 389
#     4  10  23  39  61  95 130 171 213 261 330 390
#
# _framework density 20.41742
#
# number of rings (size 3 to 8) (size 9 to 14) (size 15 to 20)
#    0.000    1.250    3.750    1.500    7.000    1.500 
#    2.250    0.000    0.000    0.000    0.000    0.000 
#    0.000    0.000    0.000    0.000    0.000    0.000 
#
# Total GULP energy -198373.815919 kJ/mol
# GULP energy per Si atom -12398.363495 kJ/mol
# Density = 2.037095 g / cm^3
# Si number density = 20.417420 Si / 1000 Ang^3
#
#
#
# Elastic Constant Matrix: (Units=GPa)
#
#
# Indices 1 2 3 4 5 6 
#
# 1 137.1292 45.4060 50.4059 4.3384 -1.6479 -0.7623
# 2 45.4060 58.1165 32.4458 -2.6633 -6.1618 -3.8706
# 3 50.4059 32.4458 121.7824 -10.0846 0.4241 1.3227
# 4 4.3384 -2.6633 -10.0846 30.0129 0.9745 -4.2339
# 5 -1.6479 -6.1618 0.4241 0.9745 36.7640 0.5348
# 6 -0.7623 -3.8706 1.3227 -4.2339 0.5348 31.9279
#
#
#
# Elastic Compliance Matrix: (Units=1/GPa)
#
#
# Indices 1 2 3 4 5 6 
#
# 1 0.010776 -0.007114 -0.002822 -0.003247 -0.000578 -0.000909
# 2 -0.007114 0.025591 -0.003725 0.002392 0.003901 0.003339
# 3 -0.002822 -0.003725 0.010681 0.003632 -0.000964 -0.000464
# 4 -0.003247 0.002392 0.003632 0.035930 -0.000809 0.004840
# 5 -0.000578 0.003901 -0.000964 -0.000809 0.027862 -0.000075
# 6 -0.000909 0.003339 -0.000464 0.004840 -0.000075 0.032366
#
#
# Mechanical properties :
#
#
# Convention : Reuss Voigt Hill
#
# Bulk Modulus (GPa) = 50.69700 63.72705 57.21203
# Shear Modulus (GPa) = 28.23212 32.32564 30.27888
#
# Velocity S-wave (km/s) = 3.72256 3.98331 3.85514
# Velocity P-wave (km/s) = 6.58489 7.24124 6.92085
#
# Compressibility (1/GPa) = 0.01972503
#
# Stress axis : x y z
#
# Youngs Moduli (GPa) = 92.79834 39.07689 93.62530
#
# Poissons Ratio (x) = 0.27801 0.26418
# Poissons Ratio (y) = 0.66021 0.34876
# Poissons Ratio (z) = 0.26185 0.14556
#
# Static dielectric constant tensor:
#      x y z
#    x 3.848770 0.270840 0.444500 
#    y 0.270840 2.997760 -0.393690 
#    z 0.444500 -0.393690 4.097100 
# 
# 
# High freq. dielectric constant tensor:
#      x y z
#    x 1.810670 0.012930 0.009330 
#    y 0.012930 1.780160 -0.007600 
#    z 0.009330 -0.007600 1.812560 
# 
# From -- ./inp_files/400151.got.cif
#   From: 2010.06.25/outbox.cif.g09.slc.cpg/sg2_201_cif.got.tgz:400151.got - 2010.06.27 13:26:56.
