data_PCOD8019733
_publ_section_title
;
Structure prediction by ZEFSAII (Michael W. Deem and Ramdas Pophale) SiO2 
 PCOD8019733
Probable space group: P -1
;
_chemical_formula_sum "Si O2"
_cell_formula_units_Z 12
_cell_length_a 14.682527
_cell_length_b 8.764033
_cell_length_c 11.379010
_cell_angle_alpha 40.077203
_cell_angle_beta 148.306391
_cell_angle_gamma 133.810287
_cell_volume 491.583492
_symmetry_space_group_name_H-M "P -1"
_symmetry_group_IT_number 2
_symmetry_cell_setting 'triclinic'
loop_
_space_group_symop_operation_xyz
x,y,z
-x,-y,-z
loop_
_atom_site_type_symbol
_atom_site_label
_atom_site_fract_x
_atom_site_fract_y
_atom_site_fract_z
Si Si1 0.290453 0.464095 0.076984
Si Si2 0.644791 0.988204 0.454341
Si Si3 0.009588 0.738633 0.717820
Si Si4 0.711441 0.971215 0.038142
Si Si5 0.200903 0.498395 0.699723
Si Si6 0.358703 0.219179 0.678208
O O1 0.273543 0.193815 0.263773
O O2 0.462958 0.602880 0.245641
O O3 0.108820 0.566004 0.847352
O O4 0.310359 0.464057 0.958630
O O5 0.685759 0.944613 0.388457
O O6 0.725238 0.252292 0.425869
O O7 0.434760 0.970645 0.248768
O O8 0.809661 0.628467 0.588210
O O9 0.131776 0.808004 0.926737
O O10 0.000000 0.000000 0.500000
O O11 0.776280 0.715375 0.237865
O O12 0.630825 0.953925 0.094354
O O13 0.000000 0.500000 0.500000
#
# Coordination Sequence:
#
# PCOD8019733 Si02
#       6
#     2   2   2   2   2   2
#     4  12  26  46  70 103 138 177 229 280 341 403
#     4  12  25  44  71 101 137 181 225 283 338 403
#     4  10  22  41  71 102 130 177 228 275 334 400
#     4  11  22  43  71  99 136 185 227 271 345 403
#     4  12  26  48  68  97 141 184 226 281 338 405
#     4  11  22  44  71 100 138 175 223 284 339 393
#
# _framework density 24.410909
#
# number of rings (size 3 to 8) (size 9 to 14) (size 15 to 20)
#    0.000    0.667    3.333    6.500    0.000    2.000 
#    3.000    0.000    0.000    0.000    0.000    0.000 
#    0.000    0.000    0.000    0.000    0.000    0.000 
#
# Total GULP energy -148774.818266 kJ/mol
# GULP energy per Si atom -12397.901522 kJ/mol
# Density = 2.435535 g / cm^3
# Si number density = 24.410909 Si / 1000 Ang^3
#
#
#
# Elastic Constant Matrix: (Units=GPa)
#
#
# Indices 1 2 3 4 5 6 
#
# 1 38.4789 7.5043 13.5032 -11.3836 8.6444 -2.3979
# 2 7.5043 48.2626 8.7684 -0.6801 -13.0557 -6.1634
# 3 13.5032 8.7684 113.5635 -13.7816 10.3410 25.6974
# 4 -11.3836 -0.6801 -13.7816 46.4582 11.2347 13.5234
# 5 8.6444 -13.0557 10.3410 11.2347 39.2831 4.2833
# 6 -2.3979 -6.1634 25.6974 13.5234 4.2833 26.7241
#
#
#
# Elastic Compliance Matrix: (Units=1/GPa)
#
#
# Indices 1 2 3 4 5 6 
#
# 1 0.034494 -0.009527 0.000312 0.012886 -0.014126 -0.003659
# 2 -0.009527 0.030454 -0.008703 -0.013967 0.016435 0.018971
# 3 0.000312 -0.008703 0.017694 0.014661 -0.009091 -0.024956
# 4 0.012886 -0.013967 0.014661 0.043916 -0.020062 -0.035170
# 5 -0.014126 0.016435 -0.009091 -0.020062 0.040530 0.014920
# 6 -0.003659 0.018971 -0.024956 -0.035170 0.014920 0.080869
#
#
# Mechanical properties :
#
#
# Convention : Reuss Voigt Hill
#
# Bulk Modulus (GPa) = 21.36410 28.87297 25.11853
# Shear Modulus (GPa) = 16.70025 33.86170 25.28098
#
# Velocity S-wave (km/s) = 2.61843 3.72849 3.22163
# Velocity P-wave (km/s) = 4.23231 5.51263 4.91434
#
# Compressibility (1/GPa) = 0.04680749
#
# Stress axis : x y z
#
# Youngs Moduli (GPa) = 28.99023 32.83617 56.51484
#
# Poissons Ratio (x) = 0.31283 -0.01765
# Poissons Ratio (y) = 0.27619 0.49184
# Poissons Ratio (z) = -0.00905 0.28577
#
# Static dielectric constant tensor:
#      x y z
#    x 4.258920 -0.042220 0.483150 
#    y -0.042220 4.804130 0.511340 
#    z 0.483150 0.511340 4.982620 
# 
# 
# High freq. dielectric constant tensor:
#      x y z
#    x 1.941130 -0.009830 0.027800 
#    y -0.009830 1.966220 0.013640 
#    z 0.027800 0.013640 1.992010 
# 
# From -- ./inp_files/185820.got.cif
#   From: 2010.06.25/outbox.cif.g09.slc.cpg/sg2_93_cif.got.tgz:185820.got - 2010.06.27 13:26:56.
