data_PCOD8019010
_publ_section_title
;
Structure prediction by ZEFSAII (Michael W. Deem and Ramdas Pophale) SiO2 
 PCOD8019010
Probable space group: P -1
;
_chemical_formula_sum "Si O2"
_cell_formula_units_Z 16
_cell_length_a 13.624897
_cell_length_b 7.633321
_cell_length_c 13.210413
_cell_angle_alpha 118.949716
_cell_angle_beta 32.626438
_cell_angle_gamma 122.034298
_cell_volume 625.872924
_symmetry_space_group_name_H-M "P -1"
_symmetry_group_IT_number 2
_symmetry_cell_setting 'triclinic'
loop_
_space_group_symop_operation_xyz
x,y,z
-x,-y,-z
loop_
_atom_site_type_symbol
_atom_site_label
_atom_site_fract_x
_atom_site_fract_y
_atom_site_fract_z
Si Si1 0.791091 0.753870 0.916393
Si Si2 0.441115 0.605235 0.781413
Si Si3 0.928289 0.007689 0.684897
Si Si4 0.045933 0.529274 0.169179
Si Si5 0.507639 0.080037 0.669972
Si Si6 0.316099 0.936842 0.289346
Si Si7 0.552271 0.687962 0.917904
Si Si8 0.634112 0.319496 0.426655
O O1 0.922281 0.618855 0.808861
O O2 0.636087 0.611795 0.929342
O O3 0.925348 0.940376 0.786682
O O4 0.686538 0.854910 0.121125
O O5 0.524166 0.848413 0.783010
O O6 0.488826 0.524631 0.832709
O O7 0.523231 0.496765 0.588848
O O8 0.216634 0.555399 0.948055
O O9 0.099673 0.942809 0.458849
O O10 0.964940 0.253311 0.713372
O O11 0.725219 0.880695 0.777905
O O12 0.854082 0.425982 0.248042
O O13 0.664357 0.153314 0.640951
O O14 0.447771 0.826883 0.638561
O O15 0.608500 0.179326 0.509077
O O16 0.374208 0.783035 0.116126
#
# Coordination Sequence:
#
# PCOD8019010 Si02
#       8
#     2   2   2   2   2   2   2   2
#     4   9  21  44  66  94 132 173 215 269 325 383
#     4  12  23  42  63  99 132 168 221 266 323 392
#     4  10  22  41  64 102 129 173 219 262 325 389
#     4  12  22  41  66  97 133 170 220 264 325 389
#     4  10  22  47  67  90 131 170 219 271 336 379
#     4  11  21  42  68  90 131 173 212 269 323 387
#     4   9  23  41  63  96 133 174 211 268 327 380
#     4  11  25  42  66  97 125 172 220 273 324 393
#
# _framework density 25.564294
#
# number of rings (size 3 to 8) (size 9 to 14) (size 15 to 20)
#    0.750    0.750    3.750    1.125    0.000    3.000 
#    2.250    1.875    0.000    0.000    0.000    0.000 
#    0.000    0.000    0.000    0.000    0.000    0.000 
#
# Total GULP energy -198417.798394 kJ/mol
# GULP energy per Si atom -12401.112400 kJ/mol
# Density = 2.550611 g / cm^3
# Si number density = 25.564294 Si / 1000 Ang^3
#
#
#
# Elastic Constant Matrix: (Units=GPa)
#
#
# Indices 1 2 3 4 5 6 
#
# 1 43.5937 0.4559 37.0848 6.5010 -2.0896 7.9934
# 2 0.4559 83.4099 37.8583 17.7940 -3.0324 1.8818
# 3 37.0848 37.8583 159.0900 1.7590 -26.5433 10.4235
# 4 6.5010 17.7940 1.7590 40.2618 2.7604 -6.1881
# 5 -2.0896 -3.0324 -26.5433 2.7604 39.4994 4.8599
# 6 7.9934 1.8818 10.4235 -6.1881 4.8599 37.9622
#
#
#
# Elastic Compliance Matrix: (Units=1/GPa)
#
#
# Indices 1 2 3 4 5 6 
#
# 1 0.032562 0.005609 -0.008892 -0.008045 -0.002561 -0.005677
# 2 0.005609 0.015958 -0.005094 -0.007922 -0.001136 -0.001719
# 3 -0.008892 -0.005094 0.010665 0.002610 0.006268 -0.001181
# 4 -0.008045 -0.007922 0.002610 0.030702 -0.002245 0.006662
# 5 -0.002561 -0.001136 0.006268 -0.002245 0.030121 -0.005348
# 6 -0.005677 -0.001719 -0.001181 0.006662 -0.005348 0.029717
#
#
# Mechanical properties :
#
#
# Convention : Reuss Voigt Hill
#
# Bulk Modulus (GPa) = 23.56741 48.54351 36.05546
# Shear Modulus (GPa) = 27.68193 37.59101 32.63647
#
# Velocity S-wave (km/s) = 3.29422 3.83880 3.57689
# Velocity P-wave (km/s) = 4.86909 6.21921 5.58510
#
# Compressibility (1/GPa) = 0.04243147
#
# Stress axis : x y z
#
# Youngs Moduli (GPa) = 30.71032 62.66398 93.76412
#
# Poissons Ratio (x) = -0.35149 0.83372
# Poissons Ratio (y) = -0.17226 0.47767
# Poissons Ratio (z) = 0.27307 0.31923
#
# Static dielectric constant tensor:
#      x y z
#    x 4.706020 -0.231310 0.216450 
#    y -0.231310 4.781790 -0.248020 
#    z 0.216450 -0.248020 4.610210 
# 
# 
# High freq. dielectric constant tensor:
#      x y z
#    x 2.022620 -0.023090 0.010190 
#    y -0.023090 2.038510 -0.013810 
#    z 0.010190 -0.013810 2.025050 
# 
# From -- ./inp_files/528907.got.cif
#   From: 2010.06.25/outbox.cif.g09.slc.cpg/sg2_265_cif.got.tgz:528907.got - 2010.06.27 13:26:56.
