data_PCOD8019853
_publ_section_title
;
Structure prediction by ZEFSAII (Michael W. Deem and Ramdas Pophale) SiO2 
 PCOD8019853
Probable space group: P -1
;
_chemical_formula_sum "Si O2"
_cell_formula_units_Z 16
_cell_length_a 11.297271
_cell_length_b 6.649362
_cell_length_c 12.429912
_cell_angle_alpha 126.797112
_cell_angle_beta 77.054207
_cell_angle_gamma 101.734116
_cell_volume 725.822202
_symmetry_space_group_name_H-M "P -1"
_symmetry_group_IT_number 2
_symmetry_cell_setting 'triclinic'
loop_
_space_group_symop_operation_xyz
x,y,z
-x,-y,-z
loop_
_atom_site_type_symbol
_atom_site_label
_atom_site_fract_x
_atom_site_fract_y
_atom_site_fract_z
Si Si1 0.115695 0.499623 0.897815
Si Si2 0.349540 0.775248 0.047076
Si Si3 0.448130 0.310928 0.179161
Si Si4 0.853919 0.390022 0.312044
Si Si5 0.571004 0.277378 0.363215
Si Si6 0.844190 0.957583 0.551816
Si Si7 0.602320 0.171026 0.705024
Si Si8 0.950135 0.032213 0.339225
O O1 0.113416 0.655899 0.835347
O O2 0.128801 0.210510 0.771343
O O3 0.231605 0.612995 0.976233
O O4 0.000000 0.500000 0.000000
O O5 0.362875 0.716043 0.149983
O O6 0.342913 0.077123 0.123397
O O7 0.471894 0.681169 0.941822
O O8 0.540228 0.262306 0.239660
O O9 0.394609 0.582854 0.293534
O O10 0.716330 0.302724 0.350213
O O11 0.876133 0.680001 0.427685
O O12 0.948838 0.247857 0.318718
O O13 0.500000 0.500000 0.500000
O O14 0.524644 0.004139 0.336174
O O15 0.911571 0.032615 0.676587
O O16 0.701798 0.981090 0.593348
O O17 0.894504 0.125778 0.493515
#
# Coordination Sequence:
#
# PCOD8019853 Si02
#       8
#     2   2   2   2   2   2   2   2
#     4  11  24  44  66  94 129 167 222 274 315 385
#     4  10  22  42  60  92 134 162 222 269 310 385
#     4  10  23  41  63  94 130 175 206 266 325 380
#     4  11  23  42  67  94 133 173 209 270 327 382
#     4  11  23  39  61 103 138 160 211 263 320 393
#     4  10  22  43  60  97 131 161 223 269 309 397
#     4  11  23  37  68  94 129 174 212 257 329 385
#     4  10  24  41  68  90 126 177 214 265 331 371
#
# _framework density 22.043966000000001
#
# number of rings (size 3 to 8) (size 9 to 14) (size 15 to 20)
#    0.000    1.500    2.500    1.500    3.500    2.000 
#    0.000    6.250    0.000    0.000    0.000    0.000 
#    0.000    0.000    0.000    0.000    0.000    0.000 
#
# Total GULP energy -198299.612126 kJ/mol
# GULP energy per Si atom -12393.725758 kJ/mol
# Density = 2.199379 g / cm^3
# Si number density = 22.043966 Si / 1000 Ang^3
#
#
#
# Elastic Constant Matrix: (Units=GPa)
#
#
# Indices 1 2 3 4 5 6 
#
# 1 84.8179 26.8275 14.4230 -2.1878 2.2274 16.2437
# 2 26.8275 86.5696 12.9993 7.0623 -3.2736 -0.9310
# 3 14.4230 12.9993 63.6537 3.0682 4.0764 3.2348
# 4 -2.1878 7.0623 3.0682 32.8794 8.5260 1.6563
# 5 2.2274 -3.2736 4.0764 8.5260 32.7964 5.3561
# 6 16.2437 -0.9310 3.2348 1.6563 5.3561 30.6315
#
#
#
# Elastic Compliance Matrix: (Units=1/GPa)
#
#
# Indices 1 2 3 4 5 6 
#
# 1 0.015299 -0.004756 -0.002179 0.002820 -0.000659 -0.008065
# 2 -0.004756 0.013743 -0.001848 -0.003880 0.002457 0.002915
# 3 -0.002179 -0.001848 0.016755 -0.000815 -0.001858 -0.000301
# 4 0.002820 -0.003880 -0.000815 0.033937 -0.009008 -0.001787
# 5 -0.000659 0.002457 -0.001858 -0.009008 0.034148 -0.004864
# 6 -0.008065 0.002915 -0.000301 -0.001787 -0.004864 0.037990
#
#
# Mechanical properties :
#
#
# Convention : Reuss Voigt Hill
#
# Bulk Modulus (GPa) = 35.42035 38.17118 36.79577
# Shear Modulus (GPa) = 27.95657 31.31421 29.63539
#
# Velocity S-wave (km/s) = 3.56507 3.77309 3.67055
# Velocity P-wave (km/s) = 5.74885 6.02786 5.89000
#
# Compressibility (1/GPa) = 0.02823235
#
# Stress axis : x y z
#
# Youngs Moduli (GPa) = 65.36249 72.76242 59.68489
#
# Poissons Ratio (x) = 0.34603 0.13007
# Poissons Ratio (y) = 0.31084 0.11027
# Poissons Ratio (z) = 0.14244 0.13443
#
# Static dielectric constant tensor:
#      x y z
#    x 3.893630 0.199740 0.172720 
#    y 0.199740 4.095630 -0.119490 
#    z 0.172720 -0.119490 4.124770 
# 
# 
# High freq. dielectric constant tensor:
#      x y z
#    x 1.854530 0.013810 0.014130 
#    y 0.013810 1.869570 -0.005070 
#    z 0.014130 -0.005070 1.874020 
# 
# From -- ./inp_files/68635.got.cif
#   From: 2010.06.25/outbox.cif.g09.slc.cpg/sg2_35_cif.got.tgz:68635.got - 2010.06.27 13:26:56.
