data_PCOD8019672
_publ_section_title
;
Structure prediction by ZEFSAII (Michael W. Deem and Ramdas Pophale) SiO2 
 PCOD8019672
Probable space group: P -1
;
_chemical_formula_sum "Si O2"
_cell_formula_units_Z 14
_cell_length_a 9.104893
_cell_length_b 7.965262
_cell_length_c 9.410276
_cell_angle_alpha 113.100533
_cell_angle_beta 110.655392
_cell_angle_gamma 85.603914
_cell_volume 585.873706
_symmetry_space_group_name_H-M "P -1"
_symmetry_group_IT_number 2
_symmetry_cell_setting 'triclinic'
loop_
_space_group_symop_operation_xyz
x,y,z
-x,-y,-z
loop_
_atom_site_type_symbol
_atom_site_label
_atom_site_fract_x
_atom_site_fract_y
_atom_site_fract_z
Si Si1 0.266342 0.563073 0.777915
Si Si2 0.626044 0.110575 0.893619
Si Si3 0.953081 0.708744 0.791045
Si Si4 0.129662 0.080756 0.912156
Si Si5 0.713849 0.844728 0.291509
Si Si6 0.326074 0.555985 0.478198
Si Si7 0.324450 0.906459 0.407446
O O1 0.328213 0.362601 0.744093
O O2 0.297253 0.635438 0.651904
O O3 0.081872 0.563400 0.754950
O O4 0.364575 0.691095 0.964470
O O5 0.441872 0.059863 0.785365
O O6 0.726803 0.113194 0.781360
O O7 0.704334 0.966460 0.974703
O O8 0.788720 0.626436 0.644644
O O9 0.007554 0.903124 0.802113
O O10 0.938330 0.752210 0.968551
O O11 0.155920 0.150337 0.784583
O O12 0.778973 0.959361 0.489950
O O13 0.500000 0.500000 0.500000
O O14 0.299248 0.706448 0.400755
O O15 0.500000 0.000000 0.500000
#
# Coordination Sequence:
#
# PCOD8019672 Si02
#       7
#     2   2   2   2   2   2   2
#     4  11  25  45  67 103 139 183 224 282 341 410
#     4  10  22  41  69  99 140 175 234 284 332 403
#     4  10  25  46  67  99 141 182 229 273 351 406
#     4  10  23  44  71  97 138 185 226 283 338 402
#     4  11  23  40  70 103 138 178 236 276 342 395
#     4  12  26  44  74  99 139 179 230 285 342 400
#     4  10  23  42  63 106 135 173 223 282 343 395
#
# _framework density 23.895935000000001
#
# number of rings (size 3 to 8) (size 9 to 14) (size 15 to 20)
#    0.000    1.429    0.000    4.714   10.000    0.571 
#    5.143    1.429    0.000    0.000    0.000    0.000 
#    0.000    0.000    0.000    0.000    0.000    0.000 
#
# Total GULP energy -173586.312989 kJ/mol
# GULP energy per Si atom -12399.022356 kJ/mol
# Density = 2.384155 g / cm^3
# Si number density = 23.895935 Si / 1000 Ang^3
#
#
#
# Elastic Constant Matrix: (Units=GPa)
#
#
# Indices 1 2 3 4 5 6 
#
# 1 102.2833 4.6828 36.8819 2.3011 -13.0641 3.1578
# 2 4.6828 63.6655 28.2312 -0.4279 -13.2612 4.9662
# 3 36.8819 28.2312 155.5159 5.2302 -33.4303 16.4241
# 4 2.3011 -0.4279 5.2302 33.1245 8.6901 -9.2244
# 5 -13.0641 -13.2612 -33.4303 8.6901 55.4811 -0.9479
# 6 3.1578 4.9662 16.4241 -9.2244 -0.9479 35.9993
#
#
#
# Elastic Compliance Matrix: (Units=1/GPa)
#
#
# Indices 1 2 3 4 5 6 
#
# 1 0.010787 0.000528 -0.002316 -0.000776 0.001390 -0.000125
# 2 0.000528 0.017483 -0.002525 -0.000539 0.002843 -0.001369
# 3 -0.002316 -0.002525 0.009075 -0.003810 0.004840 -0.004438
# 4 -0.000776 -0.000539 -0.003810 0.035984 -0.008058 0.010889
# 5 0.001390 0.002843 0.004840 -0.008058 0.023138 -0.004178
# 6 -0.000125 -0.001369 -0.004438 0.010889 -0.004178 0.032683
#
#
# Mechanical properties :
#
#
# Convention : Reuss Voigt Hill
#
# Bulk Modulus (GPa) = 34.82095 51.22853 43.02474
# Shear Modulus (GPa) = 33.93287 41.69891 37.81589
#
# Velocity S-wave (km/s) = 3.77241 4.18188 3.98241
# Velocity P-wave (km/s) = 5.79468 6.69344 6.26021
#
# Compressibility (1/GPa) = 0.02871834
#
# Stress axis : x y z
#
# Youngs Moduli (GPa) = 92.70837 57.19747 110.19107
#
# Poissons Ratio (x) = -0.03017 0.25518
# Poissons Ratio (y) = -0.04891 0.27824
# Poissons Ratio (z) = 0.21469 0.14443
#
# Static dielectric constant tensor:
#      x y z
#    x 4.295620 0.079520 -0.416510 
#    y 0.079520 4.155980 0.050810 
#    z -0.416510 0.050810 4.806060 
# 
# 
# High freq. dielectric constant tensor:
#      x y z
#    x 1.946930 0.002570 -0.021970 
#    y 0.002570 1.929200 0.006450 
#    z -0.021970 0.006450 1.966530 
# 
# From -- ./inp_files/160253.got.cif
#   From: 2010.06.25/outbox.cif.g09.slc.cpg/sg2_81_cif.got.tgz:160253.got - 2010.06.27 13:26:56.
