data_PCOD8019908
_publ_section_title
;
Structure prediction by ZEFSAII (Michael W. Deem and Ramdas Pophale) SiO2 
 PCOD8019908
Probable space group: P -1
;
_chemical_formula_sum "Si O2"
_cell_formula_units_Z 16
_cell_length_a 14.022731
_cell_length_b 6.737923
_cell_length_c 15.657623
_cell_angle_alpha 113.275404
_cell_angle_beta 148.699665
_cell_angle_gamma 60.353586
_cell_volume 666.730097
_symmetry_space_group_name_H-M "P -1"
_symmetry_group_IT_number 2
_symmetry_cell_setting 'triclinic'
loop_
_space_group_symop_operation_xyz
x,y,z
-x,-y,-z
loop_
_atom_site_type_symbol
_atom_site_label
_atom_site_fract_x
_atom_site_fract_y
_atom_site_fract_z
Si Si1 0.438067 0.486923 0.821254
Si Si2 0.771324 0.580216 0.192246
Si Si3 0.847503 0.036658 0.315548
Si Si4 0.515617 0.872675 0.347208
Si Si5 0.407298 0.488673 0.519968
Si Si6 0.291194 0.327940 0.175950
Si Si7 0.051524 0.702612 0.182767
Si Si8 0.069618 0.127988 0.339342
O O1 0.290392 0.402707 0.752368
O O2 0.333601 0.747665 0.758108
O O3 0.502026 0.324775 0.761555
O O4 0.631286 0.474250 0.016646
O O5 0.986027 0.400713 0.306343
O O6 0.768642 0.827117 0.202658
O O7 0.943110 0.075846 0.308757
O O8 0.000000 0.000000 0.500000
O O9 0.537199 0.769579 0.443188
O O10 0.704075 0.939448 0.477997
O O11 0.331915 0.104669 0.231774
O O12 0.500000 0.500000 0.500000
O O13 0.502216 0.634460 0.680713
O O14 0.171798 0.598155 0.345217
O O15 0.161707 0.560439 0.162206
O O16 0.172636 0.299899 0.994941
O O17 0.045869 0.966257 0.215397
#
# Coordination Sequence:
#
# PCOD8019908 Si02
#       8
#     2   2   2   2   2   2   2   2
#     4  10  23  40  63  97 129 176 224 270 330 401
#     4  10  22  42  62  93 140 170 217 279 331 390
#     4  11  23  39  63  93 133 171 216 268 332 392
#     4  12  24  41  71  97 132 178 228 279 335 408
#     4  10  24  45  65  96 131 173 223 281 340 397
#     4  10  23  46  66  97 131 174 223 285 334 405
#     4  10  22  45  67  94 138 169 222 282 338 401
#     4  11  24  39  64  99 128 174 221 271 330 406
#
# _framework density 23.997716
#
# number of rings (size 3 to 8) (size 9 to 14) (size 15 to 20)
#    0.000    1.500    1.250    2.625    3.500    6.000 
#    2.250    3.125    0.000    0.000    0.000    0.000 
#    0.000    0.000    0.000    0.000    0.000    0.000 
#
# Total GULP energy -198246.417097 kJ/mol
# GULP energy per Si atom -12390.401069 kJ/mol
# Density = 2.394310 g / cm^3
# Si number density = 23.997716 Si / 1000 Ang^3
#
#
#
# Elastic Constant Matrix: (Units=GPa)
#
#
# Indices 1 2 3 4 5 6 
#
# 1 49.4232 29.3725 1.4979 0.7635 -4.2978 -1.4929
# 2 29.3725 122.4150 15.7160 5.6455 -1.9986 3.0480
# 3 1.4979 15.7160 149.2638 1.0937 -8.3241 9.0734
# 4 0.7635 5.6455 1.0937 43.7871 -2.9895 -2.7552
# 5 -4.2978 -1.9986 -8.3241 -2.9895 21.3083 2.5696
# 6 -1.4929 3.0480 9.0734 -2.7552 2.5696 32.4792
#
#
#
# Elastic Compliance Matrix: (Units=1/GPa)
#
#
# Indices 1 2 3 4 5 6 
#
# 1 0.024105 -0.005843 0.000544 0.000701 0.004479 0.001209
# 2 -0.005843 0.009762 -0.000939 -0.001241 -0.000687 -0.000973
# 3 0.000544 -0.000939 0.007091 0.000010 0.003047 -0.002108
# 4 0.000701 -0.001241 0.000010 0.023313 0.003073 0.001881
# 5 0.004479 -0.000687 0.003047 0.003073 0.049905 -0.004269
# 6 0.001209 -0.000973 -0.002108 0.001881 -0.004269 0.032022
#
#
# Mechanical properties :
#
#
# Convention : Reuss Voigt Hill
#
# Bulk Modulus (GPa) = 35.10997 46.03055 40.57026
# Shear Modulus (GPa) = 29.73222 37.81595 33.77408
#
# Velocity S-wave (km/s) = 3.52371 3.97396 3.75559
# Velocity P-wave (km/s) = 5.58727 6.34660 5.97900
#
# Compressibility (1/GPa) = 0.02848194
#
# Stress axis : x y z
#
# Youngs Moduli (GPa) = 41.48584 102.44061 141.02402
#
# Poissons Ratio (x) = 0.59855 -0.07678
# Poissons Ratio (y) = 0.24240 0.13245
# Poissons Ratio (z) = -0.02259 0.09621
#
# Static dielectric constant tensor:
#      x y z
#    x 3.969510 0.267460 -0.228110 
#    y 0.267460 5.592730 -0.527160 
#    z -0.228110 -0.527160 5.449080 
# 
# 
# High freq. dielectric constant tensor:
#      x y z
#    x 1.913520 -0.012150 -0.000130 
#    y -0.012150 1.966110 0.002750 
#    z -0.000130 0.002750 1.970040 
# 
# From -- ./inp_files/571768.got.cif
#   From: 2010.06.25/outbox.cif.g09.slc.cpg/sg2_286_cif.got.tgz:571768.got - 2010.06.27 13:26:56.
