data_PCOD8019518
_publ_section_title
;
Structure prediction by ZEFSAII (Michael W. Deem and Ramdas Pophale) SiO2 
 PCOD8019518
Probable space group: P -1
;
_chemical_formula_sum "Si O2"
_cell_formula_units_Z 14
_cell_length_a 7.718457
_cell_length_b 14.397621
_cell_length_c 10.379576
_cell_angle_alpha 69.244321
_cell_angle_beta 63.528378
_cell_angle_gamma 119.613582
_cell_volume 605.331868
_symmetry_space_group_name_H-M "P -1"
_symmetry_group_IT_number 2
_symmetry_cell_setting 'triclinic'
loop_
_space_group_symop_operation_xyz
x,y,z
-x,-y,-z
loop_
_atom_site_type_symbol
_atom_site_label
_atom_site_fract_x
_atom_site_fract_y
_atom_site_fract_z
Si Si1 0.181011 0.433325 0.995296
Si Si2 0.914793 0.249303 0.926867
Si Si3 0.679329 0.333117 0.830529
Si Si4 0.787232 0.328496 0.401570
Si Si5 0.740850 0.813745 0.201818
Si Si6 0.730583 0.736092 0.801935
Si Si7 0.634663 0.047301 0.574685
O O1 0.504532 0.618196 0.817290
O O2 0.203963 0.331724 0.093731
O O3 0.113654 0.399871 0.882058
O O4 0.904397 0.382379 0.187150
O O5 0.611462 0.094336 0.177260
O O6 0.823730 0.280351 0.819723
O O7 0.108711 0.234142 0.819046
O O8 0.523683 0.285127 0.768932
O O9 0.944290 0.521875 0.667831
O O10 0.418132 0.237609 0.074731
O O11 0.452332 0.247264 0.571669
O O12 0.741359 0.195885 0.521221
O O13 0.000000 0.000000 0.000000
O O14 0.061858 0.902636 0.553759
O O15 0.500000 0.000000 0.500000
#
# Coordination Sequence:
#
# PCOD8019518 Si02
#       7
#     2   2   2   2   2   2   2
#     4   9  18  38  66  96 120 169 212 258 318 381
#     4  12  24  41  70  97 131 163 221 269 318 387
#     4  11  25  43  66  99 127 169 222 265 320 384
#     4  10  22  41  68  93 130 174 216 259 321 386
#     4  12  25  45  69  89 132 179 208 270 327 380
#     4   9  18  35  64  91 129 162 210 256 318 380
#     4  11  19  38  66  99 130 172 211 259 327 386
#
# _framework density 23.127811000000001
#
# number of rings (size 3 to 8) (size 9 to 14) (size 15 to 20)
#    0.000    1.429    5.714    1.286    0.000    4.000 
#    0.000    1.429    3.143    0.000    0.000    0.000 
#    0.000    0.000    0.000    0.000    0.000    0.000 
#
# Total GULP energy -173580.797765 kJ/mol
# GULP energy per Si atom -12398.628412 kJ/mol
# Density = 2.307517 g / cm^3
# Si number density = 23.127811 Si / 1000 Ang^3
#
#
#
# Elastic Constant Matrix: (Units=GPa)
#
#
# Indices 1 2 3 4 5 6 
#
# 1 101.9628 35.6411 33.1205 6.3184 -25.1303 -17.1084
# 2 35.6411 89.2480 29.7704 -4.8847 -16.1589 -14.6860
# 3 33.1205 29.7704 115.9307 -1.4073 -41.6129 -6.1172
# 4 6.3184 -4.8847 -1.4073 28.8336 -7.8361 -13.4145
# 5 -25.1303 -16.1589 -41.6129 -7.8361 35.8783 5.9861
# 6 -17.1084 -14.6860 -6.1172 -13.4145 5.9861 20.7012
#
#
#
# Elastic Compliance Matrix: (Units=1/GPa)
#
#
# Indices 1 2 3 4 5 6 
#
# 1 0.013994 -0.002425 -0.000067 0.003075 0.007704 0.009590
# 2 -0.002425 0.016596 -0.000899 0.011975 0.004695 0.015906
# 3 -0.000067 -0.000899 0.016036 0.007393 0.019214 0.003280
# 4 0.003075 0.011975 0.007393 0.065271 0.022185 0.049102
# 5 0.007704 0.004695 0.019214 0.022185 0.060467 0.012266
# 6 0.009590 0.015906 0.003280 0.049102 0.012266 0.096757
#
#
# Mechanical properties :
#
#
# Convention : Reuss Voigt Hill
#
# Bulk Modulus (GPa) = 25.09804 56.02286 40.56045
# Shear Modulus (GPa) = 17.29010 30.98991 24.14001
#
# Velocity S-wave (km/s) = 2.73717 3.66449 3.23424
# Velocity P-wave (km/s) = 4.56782 6.49464 5.61451
#
# Compressibility (1/GPa) = 0.03984375
#
# Stress axis : x y z
#
# Youngs Moduli (GPa) = 71.45839 60.25570 62.36162
#
# Poissons Ratio (x) = 0.14613 0.00415
# Poissons Ratio (y) = 0.17330 0.05607
# Poissons Ratio (z) = 0.00476 0.05418
#
# Static dielectric constant tensor:
#      x y z
#    x 4.022850 -0.151370 -0.397310 
#    y -0.151370 4.341640 -0.026140 
#    z -0.397310 -0.026140 4.613700 
# 
# 
# High freq. dielectric constant tensor:
#      x y z
#    x 1.889550 -0.009310 -0.028370 
#    y -0.009310 1.916010 -0.006100 
#    z -0.028370 -0.006100 1.921980 
# 
# From -- ./inp_files/397347.got.cif
#   From: 2010.06.25/outbox.cif.g09.slc.cpg/sg2_199_cif.got.tgz:397347.got - 2010.06.27 13:26:56.
