data_PCOD8019702
_publ_section_title
;
Structure prediction by ZEFSAII (Michael W. Deem and Ramdas Pophale) SiO2 
 PCOD8019702
Probable space group: P -1
;
_chemical_formula_sum "Si O2"
_cell_formula_units_Z 16
_cell_length_a 14.368181
_cell_length_b 11.267499
_cell_length_c 11.525903
_cell_angle_alpha 95.078119
_cell_angle_beta 32.165732
_cell_angle_gamma 115.021696
_cell_volume 746.551039
_symmetry_space_group_name_H-M "P -1"
_symmetry_group_IT_number 2
_symmetry_cell_setting 'triclinic'
loop_
_space_group_symop_operation_xyz
x,y,z
-x,-y,-z
loop_
_atom_site_type_symbol
_atom_site_label
_atom_site_fract_x
_atom_site_fract_y
_atom_site_fract_z
Si Si1 0.274364 0.154922 0.406243
Si Si2 0.811680 0.340949 0.252608
Si Si3 0.132540 0.325926 0.448072
Si Si4 0.460692 0.294808 0.465572
Si Si5 0.159371 0.205846 0.174090
Si Si6 0.354539 0.816637 0.121145
Si Si7 0.647658 0.336905 0.675496
Si Si8 0.825458 0.667140 0.074291
O O1 0.179582 0.243202 0.484294
O O2 0.346276 0.181149 0.466494
O O3 0.496087 0.220175 0.100398
O O4 0.076677 0.970883 0.573261
O O5 0.576309 0.241916 0.417265
O O6 0.773178 0.377476 0.424028
O O7 0.000000 0.500000 0.000000
O O8 0.918086 0.256179 0.145011
O O9 0.194235 0.309154 0.253790
O O10 0.297787 0.508524 0.320182
O O11 0.867154 0.251961 0.729654
O O12 0.646927 0.477347 0.248443
O O13 0.256360 0.262020 0.752825
O O14 0.369490 0.205440 0.943712
O O15 0.151034 0.283391 0.077482
O O16 0.270846 0.729369 0.327090
O O17 0.500000 0.000000 0.000000
#
# Coordination Sequence:
#
# PCOD8019702 Si02
#       8
#     2   2   2   2   2   2   2   2
#     4  12  27  43  69 100 141 187 218 278 348 408
#     4  10  23  42  67  99 133 167 226 289 336 387
#     4  12  26  44  71 102 134 176 233 282 333 407
#     4  10  23  43  67  95 131 175 231 280 336 396
#     4  12  23  45  67  97 141 178 221 279 344 405
#     4  12  26  46  70 102 146 178 221 278 350 410
#     4  12  25  44  75 103 131 184 230 282 340 402
#     4  10  22  41  70  93 132 174 225 288 332 392
#
# _framework density 21.431891
#
# number of rings (size 3 to 8) (size 9 to 14) (size 15 to 20)
#    0.000    0.750    3.750    3.375    8.750    0.500 
#    0.000    0.625    0.000    0.000    0.000    0.000 
#    0.000    0.000    0.000    0.000    0.000    0.000 
#
# Total GULP energy -198458.903983 kJ/mol
# GULP energy per Si atom -12403.681499 kJ/mol
# Density = 2.138311 g / cm^3
# Si number density = 21.431891 Si / 1000 Ang^3
#
#
#
# Elastic Constant Matrix: (Units=GPa)
#
#
# Indices 1 2 3 4 5 6 
#
# 1 165.6407 53.4955 50.7691 17.4601 -10.8199 2.1854
# 2 53.4955 55.7897 35.1650 5.8404 1.0979 1.7947
# 3 50.7691 35.1650 114.9386 23.5549 -8.9794 4.0859
# 4 17.4601 5.8404 23.5549 25.6494 -5.7976 -0.5271
# 5 -10.8199 1.0979 -8.9794 -5.7976 47.1843 12.6129
# 6 2.1854 1.7947 4.0859 -0.5271 12.6129 28.9908
#
#
#
# Elastic Compliance Matrix: (Units=1/GPa)
#
#
# Indices 1 2 3 4 5 6 
#
# 1 0.009431 -0.008219 -0.000753 -0.003410 0.002075 -0.001061
# 2 -0.008219 0.029559 -0.006595 0.004114 -0.003697 0.001402
# 3 -0.000753 -0.006595 0.013300 -0.009807 0.001959 -0.002440
# 4 -0.003410 0.004114 -0.009807 0.050113 0.003168 0.000917
# 5 0.002075 -0.003697 0.001959 0.003168 0.025525 -0.011251
# 6 -0.001061 0.001402 -0.002440 0.000917 -0.011251 0.039742
#
#
# Mechanical properties :
#
#
# Convention : Reuss Voigt Hill
#
# Bulk Modulus (GPa) = 47.26375 68.35867 57.81121
# Shear Modulus (GPa) = 24.28877 33.49418 28.89148
#
# Velocity S-wave (km/s) = 3.37011 3.95754 3.67558
# Velocity P-wave (km/s) = 6.10282 7.26965 6.71164
#
# Compressibility (1/GPa) = 0.02115787
#
# Stress axis : x y z
#
# Youngs Moduli (GPa) = 106.03126 33.83059 75.18746
#
# Poissons Ratio (x) = 0.27804 0.05659
# Poissons Ratio (y) = 0.87144 0.49586
# Poissons Ratio (z) = 0.07980 0.22311
#
# Static dielectric constant tensor:
#      x y z
#    x 4.353320 -0.148900 -0.294810 
#    y -0.148900 3.611660 0.206300 
#    z -0.294810 0.206300 4.184080 
# 
# 
# High freq. dielectric constant tensor:
#      x y z
#    x 1.863170 -0.005830 -0.006840 
#    y -0.005830 1.818320 0.014900 
#    z -0.006840 0.014900 1.854610 
# 
# From -- ./inp_files/306260.got.cif
#   From: 2010.06.25/outbox.cif.g09.slc.cpg/sg2_154_cif.got.tgz:306260.got - 2010.06.27 13:26:56.
