data_PCOD8019944
_publ_section_title
;
Structure prediction by ZEFSAII (Michael W. Deem and Ramdas Pophale) SiO2 
 PCOD8019944
Probable space group: P -1
;
_chemical_formula_sum "Si O2"
_cell_formula_units_Z 14
_cell_length_a 12.368273
_cell_length_b 13.857028
_cell_length_c 12.080590
_cell_angle_alpha 70.959065
_cell_angle_beta 90.666044
_cell_angle_gamma 28.395170
_cell_volume 695.704884
_symmetry_space_group_name_H-M "P -1"
_symmetry_group_IT_number 2
_symmetry_cell_setting 'triclinic'
loop_
_space_group_symop_operation_xyz
x,y,z
-x,-y,-z
loop_
_atom_site_type_symbol
_atom_site_label
_atom_site_fract_x
_atom_site_fract_y
_atom_site_fract_z
Si Si1 0.147069 0.336351 0.386425
Si Si2 0.121939 0.687506 0.888738
Si Si3 0.790309 0.032740 0.191528
Si Si4 0.181325 0.218498 0.650053
Si Si5 0.140914 0.765694 0.090129
Si Si6 0.145508 0.856169 0.675543
Si Si7 0.152460 0.287605 0.164470
O O1 0.022982 0.371683 0.469719
O O2 0.003103 0.443915 0.224406
O O3 0.052689 0.534950 0.350074
O O4 0.500000 0.000000 0.500000
O O5 0.038114 0.844599 0.734588
O O6 0.925806 0.760003 0.842152
O O7 0.027144 0.810547 0.961953
O O8 0.483659 0.349858 0.017681
O O9 0.721435 0.983921 0.261254
O O10 0.027688 0.804382 0.181462
O O11 0.939525 0.975241 0.306769
O O12 0.484932 0.020208 0.725762
O O13 0.497898 0.458443 0.217766
O O14 0.000000 0.000000 0.000000
O O15 0.000000 0.000000 0.500000
O O16 0.000000 0.500000 0.000000
#
# Coordination Sequence:
#
# PCOD8019944 Si02
#       7
#     2   2   2   2   2   2   2
#     4   9  22  42  60  84 130 167 209 258 312 371
#     4  11  23  42  64  92 131 167 209 264 316 377
#     4  11  22  41  69  89 123 171 212 258 320 381
#     4  10  22  42  63  93 124 171 212 254 319 381
#     4  11  21  43  66  88 123 170 213 256 317 381
#     4  11  25  43  64  97 129 161 215 272 321 372
#     4  11  23  39  62  95 130 163 210 263 312 375
#
# _framework density 20.123476
#
# number of rings (size 3 to 8) (size 9 to 14) (size 15 to 20)
#    0.000    1.429    4.286    0.857    4.000    3.429 
#    5.143    0.000    0.000    0.000    0.000    0.000 
#    0.000    0.000    0.000    0.000    0.000    0.000 
#
# Total GULP energy -173538.763926 kJ/mol
# GULP energy per Si atom -12395.625995 kJ/mol
# Density = 2.007767 g / cm^3
# Si number density = 20.123476 Si / 1000 Ang^3
#
#
#
# Elastic Constant Matrix: (Units=GPa)
#
#
# Indices 1 2 3 4 5 6 
#
# 1 149.4369 51.3097 58.0279 21.9806 -14.1052 14.7377
# 2 51.3097 142.6965 53.1053 26.6199 -6.9065 10.9974
# 3 58.0279 53.1053 123.4268 35.2900 -18.7822 11.2205
# 4 21.9806 26.6199 35.2900 35.8954 0.9310 -1.7727
# 5 -14.1052 -6.9065 -18.7822 0.9310 23.4708 -3.6096
# 6 14.7377 10.9974 11.2205 -1.7727 -3.6096 29.4557
#
#
#
# Elastic Compliance Matrix: (Units=1/GPa)
#
#
# Indices 1 2 3 4 5 6 
#
# 1 0.008989 -0.001626 -0.002141 -0.002410 0.002865 -0.002869
# 2 -0.001626 0.009213 -0.001779 -0.004199 0.000141 -0.002184
# 3 -0.002141 -0.001779 0.015584 -0.013149 0.010615 -0.003692
# 4 -0.002410 -0.004199 -0.013149 0.046169 -0.013671 0.008886
# 5 0.002865 0.000141 0.010615 -0.013671 0.053436 0.000196
# 6 -0.002869 -0.002184 -0.003692 0.008886 0.000196 0.038165
#
#
# Mechanical properties :
#
#
# Convention : Reuss Voigt Hill
#
# Bulk Modulus (GPa) = 44.06226 82.27177 63.16702
# Shear Modulus (GPa) = 26.28619 34.63888 30.46253
#
# Velocity S-wave (km/s) = 3.61812 4.15338 3.89495
# Velocity P-wave (km/s) = 6.27677 7.99831 7.18926
#
# Compressibility (1/GPa) = 0.02269516
#
# Stress axis : x y z
#
# Youngs Moduli (GPa) = 111.24386 108.54061 64.16769
#
# Poissons Ratio (x) = 0.17652 0.13736
# Poissons Ratio (y) = 0.18091 0.11414
# Poissons Ratio (z) = 0.23813 0.19307
#
# Static dielectric constant tensor:
#      x y z
#    x 3.583390 -0.090690 -0.123390 
#    y -0.090690 5.088830 0.484600 
#    z -0.123390 0.484600 3.891910 
# 
# 
# High freq. dielectric constant tensor:
#      x y z
#    x 1.776490 0.004170 -0.017840 
#    y 0.004170 1.802580 0.010570 
#    z -0.017840 0.010570 1.787070 
# 
# From -- ./inp_files/27540.got.cif
#   From: 2010.06.25/outbox.cif.g09.slc.cpg/sg2_14_cif.got.tgz:27540.got - 2010.06.27 13:26:56.
