data_PCOD8019303
_publ_section_title
;
Structure prediction by ZEFSAII (Michael W. Deem and Ramdas Pophale) SiO2 
 PCOD8019303
Probable space group: P -1
;
_chemical_formula_sum "Si O2"
_cell_formula_units_Z 16
_cell_length_a 9.126266
_cell_length_b 9.450144
_cell_length_c 22.734630
_cell_angle_alpha 41.322053
_cell_angle_beta 40.401090
_cell_angle_gamma 42.475302
_cell_volume 773.698662
_symmetry_space_group_name_H-M "P -1"
_symmetry_group_IT_number 2
_symmetry_cell_setting 'triclinic'
loop_
_space_group_symop_operation_xyz
x,y,z
-x,-y,-z
loop_
_atom_site_type_symbol
_atom_site_label
_atom_site_fract_x
_atom_site_fract_y
_atom_site_fract_z
Si Si1 0.080548 0.644907 0.836971
Si Si2 0.458523 0.180287 0.009103
Si Si3 0.475552 0.416103 0.197102
Si Si4 0.972569 0.615468 0.349927
Si Si5 0.381223 0.086235 0.728522
Si Si6 0.851091 0.181646 0.537994
Si Si7 0.624520 0.823299 0.167349
Si Si8 0.924247 0.104022 0.672012
O O1 0.272536 0.645545 0.826724
O O2 0.167056 0.399961 0.854461
O O3 0.829867 0.687938 0.933652
O O4 0.050573 0.839482 0.736796
O O5 0.595649 0.047134 0.067011
O O6 0.571580 0.369354 0.899657
O O7 0.500000 0.000000 0.000000
O O8 0.256093 0.480174 0.290375
O O9 0.486238 0.191987 0.227798
O O10 0.845342 0.812360 0.278472
O O11 0.837162 0.438165 0.448431
O O12 0.955225 0.739608 0.379481
O O13 0.574835 0.199412 0.618248
O O14 0.282846 0.147240 0.805631
O O15 0.982210 0.102533 0.585733
O O16 0.000000 0.000000 0.500000
O O17 0.366010 0.792831 0.258173
#
# Coordination Sequence:
#
# PCOD8019303 Si02
#       8
#     2   2   2   2   2   2   2   2
#     4  11  21  41  69  94 127 168 213 258 316 375
#     4  11  23  39  68  99 128 164 214 263 312 373
#     4  12  23  40  67  96 128 166 217 262 308 380
#     4  12  23  43  66  93 128 169 215 263 312 378
#     4  11  26  43  64  94 133 168 207 263 328 371
#     4  11  24  44  64  94 131 168 208 265 324 375
#     4  10  23  41  64  95 129 170 209 259 319 374
#     4  10  22  41  66  95 126 166 218 259 310 378
#
# _framework density 20.679887000000001
#
# number of rings (size 3 to 8) (size 9 to 14) (size 15 to 20)
#    0.000    1.000    5.000    1.875    1.750    1.500 
#    0.000    2.500    0.000    0.000    0.000    0.000 
#    0.000    0.000    0.000    0.000    0.000    0.000 
#
# Total GULP energy -198489.202585 kJ/mol
# GULP energy per Si atom -12405.575162 kJ/mol
# Density = 2.063282 g / cm^3
# Si number density = 20.679887 Si / 1000 Ang^3
#
#
#
# Elastic Constant Matrix: (Units=GPa)
#
#
# Indices 1 2 3 4 5 6 
#
# 1 107.1283 50.8325 27.9657 0.3508 19.3067 21.6710
# 2 50.8325 128.1920 53.5926 -0.6807 3.1711 5.6676
# 3 27.9657 53.5926 106.3750 -14.1549 9.0735 13.2641
# 4 0.3508 -0.6807 -14.1549 37.2634 6.1002 1.7991
# 5 19.3067 3.1711 9.0735 6.1002 30.8190 -1.5405
# 6 21.6710 5.6676 13.2641 1.7991 -1.5405 26.2601
#
#
#
# Elastic Compliance Matrix: (Units=1/GPa)
#
#
# Indices 1 2 3 4 5 6 
#
# 1 0.017077 -0.006719 0.002178 0.003220 -0.012018 -0.014668
# 2 -0.006719 0.012685 -0.006395 -0.003401 0.005791 0.006610
# 3 0.002178 -0.006395 0.014643 0.006963 -0.006830 -0.008691
# 4 0.003220 -0.003401 0.006963 0.031480 -0.010358 -0.008204
# 5 -0.012018 0.005791 -0.006830 -0.010358 0.044213 0.015422
# 6 -0.014668 0.006610 -0.008691 -0.008204 0.015422 0.054616
#
#
# Mechanical properties :
#
#
# Convention : Reuss Voigt Hill
#
# Bulk Modulus (GPa) = 44.38023 67.38634 55.88328
# Shear Modulus (GPa) = 24.49816 32.82212 28.66014
#
# Velocity S-wave (km/s) = 3.44559 3.98823 3.72680
# Velocity P-wave (km/s) = 6.11037 7.33922 6.75281
#
# Compressibility (1/GPa) = 0.02253256
#
# Stress axis : x y z
#
# Youngs Moduli (GPa) = 58.55841 78.83111 68.29283
#
# Poissons Ratio (x) = 0.52970 -0.14877
# Poissons Ratio (y) = 0.39348 0.43675
# Poissons Ratio (z) = -0.12756 0.50415
#
# Static dielectric constant tensor:
#      x y z
#    x 3.741850 0.059440 0.111120 
#    y 0.059440 3.790360 -0.134740 
#    z 0.111120 -0.134740 3.858690 
# 
# 
# High freq. dielectric constant tensor:
#      x y z
#    x 1.809730 0.003450 0.008370 
#    y 0.003450 1.818700 -0.006410 
#    z 0.008370 -0.006410 1.810770 
# 
# From -- ./inp_files/38085.got.cif
#   From: 2010.06.25/outbox.cif.g09.slc.cpg/sg2_20_cif.got.tgz:38085.got - 2010.06.27 13:26:56.
