data_PCOD8019017
_publ_section_title
;
Structure prediction by ZEFSAII (Michael W. Deem and Ramdas Pophale) SiO2 
 PCOD8019017
Probable space group: P -1
;
_chemical_formula_sum "Si O2"
_cell_formula_units_Z 16
_cell_length_a 13.875103
_cell_length_b 16.237568
_cell_length_c 13.267281
_cell_angle_alpha 49.604930
_cell_angle_beta 21.212951
_cell_angle_gamma 48.462443
_cell_volume 804.629599
_symmetry_space_group_name_H-M "P -1"
_symmetry_group_IT_number 2
_symmetry_cell_setting 'triclinic'
loop_
_space_group_symop_operation_xyz
x,y,z
-x,-y,-z
loop_
_atom_site_type_symbol
_atom_site_label
_atom_site_fract_x
_atom_site_fract_y
_atom_site_fract_z
Si Si1 0.277711 0.943808 0.888437
Si Si2 0.714952 0.313123 0.244967
Si Si3 0.912546 0.339039 0.449653
Si Si4 0.159533 0.414097 0.632059
Si Si5 0.452177 0.253222 0.084926
Si Si6 0.206906 0.579232 0.718984
Si Si7 0.299260 0.912125 0.666395
Si Si8 0.292282 0.422683 0.281163
O O1 0.399440 0.866484 0.924462
O O2 0.305685 0.878978 0.805122
O O3 0.425401 0.046851 0.658996
O O4 0.958643 0.989377 0.184305
O O5 0.403685 0.384001 0.498565
O O6 0.833941 0.326661 0.229033
O O7 0.713380 0.188059 0.316560
O O8 0.903477 0.358861 0.944227
O O9 0.957750 0.454655 0.359255
O O10 0.852071 0.350451 0.381325
O O11 0.192264 0.248554 0.270585
O O12 0.659924 0.306455 0.776730
O O13 0.311445 0.368085 0.416666
O O14 0.335526 0.324252 0.238872
O O15 0.500000 0.500000 0.500000
O O16 0.000000 0.500000 0.000000
O O17 0.000000 0.500000 0.500000
O O18 0.500000 0.500000 0.000000
#
# Coordination Sequence:
#
# PCOD8019017 Si02
#       8
#     2   2   2   2   2   2   2   2
#     4  10  22  41  64  89 117 155 202 248 303 361
#     4  12  23  39  63  88 119 156 200 260 302 342
#     4  12  23  38  58  85 125 163 198 237 291 364
#     4  12  22  36  57  87 124 160 194 235 298 363
#     4  12  23  39  59  85 124 165 194 239 305 360
#     4  12  23  39  61  87 121 163 206 246 296 351
#     4  10  22  41  65  89 116 151 205 258 298 349
#     4  12  22  33  51  81 120 156 187 225 279 363
#
# _framework density 19.884924999999999
#
# number of rings (size 3 to 8) (size 9 to 14) (size 15 to 20)
#    0.000    0.500    5.000    4.500    0.000    3.000 
#    0.000    0.000    0.000    4.500    0.000    0.000 
#    0.000    0.000    0.000    0.000    0.000    0.000 
#
# Total GULP energy -198425.068116 kJ/mol
# GULP energy per Si atom -12401.566757 kJ/mol
# Density = 1.983967 g / cm^3
# Si number density = 19.884925 Si / 1000 Ang^3
#
#
#
# Elastic Constant Matrix: (Units=GPa)
#
#
# Indices 1 2 3 4 5 6 
#
# 1 125.2528 44.7839 23.4456 -5.4328 0.7488 -1.7010
# 2 44.7839 61.8859 16.7026 0.8007 0.0630 -4.3511
# 3 23.4456 16.7026 103.8161 6.1334 -7.5994 1.1208
# 4 -5.4328 0.8007 6.1334 25.1121 -7.5410 -11.7089
# 5 0.7488 0.0630 -7.5994 -7.5410 31.9480 0.5068
# 6 -1.7010 -4.3511 1.1208 -11.7089 0.5068 39.8904
#
#
#
# Elastic Compliance Matrix: (Units=1/GPa)
#
#
# Indices 1 2 3 4 5 6 
#
# 1 0.011159 -0.007673 -0.001479 0.003392 0.000192 0.000674
# 2 -0.007673 0.022355 -0.001855 -0.001272 -0.000634 0.001798
# 3 -0.001479 -0.001855 0.010593 -0.002962 0.001882 -0.001456
# 4 0.003392 -0.001272 -0.002962 0.051735 0.011190 0.015133
# 5 0.000192 -0.000634 0.001882 0.011190 0.034343 0.002734
# 6 0.000674 0.001798 -0.001456 0.015133 0.002734 0.029742
#
#
# Mechanical properties :
#
#
# Convention : Reuss Voigt Hill
#
# Bulk Modulus (GPa) = 45.26028 51.20211 48.23120
# Shear Modulus (GPa) = 26.41218 33.12496 29.76857
#
# Velocity S-wave (km/s) = 3.64847 4.08589 3.87336
# Velocity P-wave (km/s) = 6.36859 6.93285 6.65670
#
# Compressibility (1/GPa) = 0.02209443
#
# Stress axis : x y z
#
# Youngs Moduli (GPa) = 89.61114 44.73205 94.39866
#
# Poissons Ratio (x) = 0.34323 0.13965
# Poissons Ratio (y) = 0.68758 0.17506
# Poissons Ratio (z) = 0.13257 0.08296
#
# Static dielectric constant tensor:
#      x y z
#    x 3.824120 -0.134700 -0.110260 
#    y -0.134700 3.360120 0.138530 
#    z -0.110260 0.138530 3.726310 
# 
# 
# High freq. dielectric constant tensor:
#      x y z
#    x 1.777220 -0.012350 -0.009400 
#    y -0.012350 1.749370 0.010680 
#    z -0.009400 0.010680 1.797780 
# 
# From -- ./inp_files/80602.got.cif
#   From: 2010.06.25/outbox.cif.g09.slc.cpg/sg2_41_cif.got.tgz:80602.got - 2010.06.27 13:26:56.
