data_PCOD8019806
_publ_section_title
;
Structure prediction by ZEFSAII (Michael W. Deem and Ramdas Pophale) SiO2 
 PCOD8019806
Probable space group: P -1
;
_chemical_formula_sum "Si O2"
_cell_formula_units_Z 16
_cell_length_a 8.144087
_cell_length_b 11.471358
_cell_length_c 8.176242
_cell_angle_alpha 66.547067
_cell_angle_beta 103.378916
_cell_angle_gamma 93.988910
_cell_volume 681.516129
_symmetry_space_group_name_H-M "P -1"
_symmetry_group_IT_number 2
_symmetry_cell_setting 'triclinic'
loop_
_space_group_symop_operation_xyz
x,y,z
-x,-y,-z
loop_
_atom_site_type_symbol
_atom_site_label
_atom_site_fract_x
_atom_site_fract_y
_atom_site_fract_z
Si Si1 0.110861 0.438406 0.302832
Si Si2 0.693216 0.246553 0.544163
Si Si3 0.767539 0.803395 0.959718
Si Si4 0.259320 0.973533 0.570429
Si Si5 0.563472 0.043392 0.815393
Si Si6 0.048436 0.350036 0.677033
Si Si7 0.432977 0.396880 0.173024
Si Si8 0.992265 0.812545 0.728841
O O1 0.992111 0.566283 0.212814
O O2 0.277713 0.452508 0.219923
O O3 0.995953 0.322705 0.284770
O O4 0.149496 0.422935 0.516052
O O5 0.712411 0.110718 0.535898
O O6 0.875589 0.298890 0.592688
O O7 0.579975 0.349383 0.358976
O O8 0.608744 0.194243 0.724584
O O9 0.723057 0.951255 0.868122
O O10 0.624496 0.722973 0.879736
O O11 0.946160 0.788523 0.917825
O O12 0.812101 0.756329 0.178954
O O13 0.430972 0.017517 0.658510
O O14 0.169100 0.881483 0.730605
O O15 0.151324 0.101585 0.441111
O O16 0.500000 0.000000 0.000000
O O17 0.500000 0.500000 0.000000
#
# Coordination Sequence:
#
# PCOD8019806 Si02
#       8
#     2   2   2   2   2   2   2   2
#     4  10  24  48  67 100 142 187 230 290 356 413
#     4  12  25  48  71 103 143 188 227 290 360 420
#     4  11  25  44  68 103 140 178 241 287 343 418
#     4  11  22  43  69 101 136 183 231 284 358 421
#     4  12  27  42  69 104 148 181 231 292 358 416
#     4  11  27  44  71 104 144 184 236 296 349 414
#     4  11  27  46  74 101 138 191 241 284 349 431
#     4  10  22  41  73  98 132 188 233 287 343 426
#
# _framework density 23.477066000000001
#
# number of rings (size 3 to 8) (size 9 to 14) (size 15 to 20)
#    0.000    1.000    3.750    1.875    8.750    5.000 
#    0.000    0.000    0.000    0.000    0.000    0.000 
#    0.000    0.000    0.000    0.000    0.000    0.000 
#
# Total GULP energy -198229.012313 kJ/mol
# GULP energy per Si atom -12389.313270 kJ/mol
# Density = 2.342363 g / cm^3
# Si number density = 23.477066 Si / 1000 Ang^3
#
#
#
# Elastic Constant Matrix: (Units=GPa)
#
#
# Indices 1 2 3 4 5 6 
#
# 1 71.8393 23.9565 43.5986 -10.9213 -5.7836 -0.4260
# 2 23.9565 65.3622 20.0453 -4.3584 -9.7163 1.4104
# 3 43.5986 20.0453 126.7224 -23.5646 -11.3112 5.1719
# 4 -10.9213 -4.3584 -23.5646 32.9475 3.0581 -6.2775
# 5 -5.7836 -9.7163 -11.3112 3.0581 46.5027 5.5884
# 6 -0.4260 1.4104 5.1719 -6.2775 5.5884 25.4741
#
#
#
# Elastic Compliance Matrix: (Units=1/GPa)
#
#
# Indices 1 2 3 4 5 6 
#
# 1 0.019399 -0.005385 -0.005546 0.002258 -0.000500 0.002415
# 2 -0.005385 0.017970 -0.000742 -0.000568 0.003154 -0.001766
# 3 -0.005546 -0.000742 0.011168 0.005652 0.001655 -0.001289
# 4 0.002258 -0.000568 0.005652 0.036847 -0.001898 0.008418
# 5 -0.000500 0.003154 0.001655 -0.001898 0.023363 -0.006112
# 6 0.002415 -0.001766 -0.001289 0.008418 -0.006112 0.043071
#
#
# Mechanical properties :
#
#
# Convention : Reuss Voigt Hill
#
# Bulk Modulus (GPa) = 39.69602 48.79162 44.24382
# Shear Modulus (GPa) = 27.23926 32.73976 29.98951
#
# Velocity S-wave (km/s) = 3.40994 3.73841 3.57795
# Velocity P-wave (km/s) = 5.69638 6.28188 5.99628
#
# Compressibility (1/GPa) = 0.02519144
#
# Stress axis : x y z
#
# Youngs Moduli (GPa) = 51.55010 55.64928 89.54278
#
# Poissons Ratio (x) = 0.29968 0.49656
# Poissons Ratio (y) = 0.27760 0.06641
# Poissons Ratio (z) = 0.28587 0.04128
#
# Static dielectric constant tensor:
#      x y z
#    x 4.468620 -0.413590 -0.565410 
#    y -0.413590 5.190000 0.108640 
#    z -0.565410 0.108640 4.778650 
# 
# 
# High freq. dielectric constant tensor:
#      x y z
#    x 1.927750 -0.003330 -0.016280 
#    y -0.003330 1.922200 -0.016090 
#    z -0.016280 -0.016090 1.947430 
# 
# From -- ./inp_files/175353.got.cif
#   From: 2010.06.25/outbox.cif.g09.slc.cpg/sg2_88_cif.got.tgz:175353.got - 2010.06.27 13:26:56.
