data_PCOD8019075
_publ_section_title
;
Structure prediction by ZEFSAII (Michael W. Deem and Ramdas Pophale) SiO2 
 PCOD8019075
Probable space group: P -1
;
_chemical_formula_sum "Si O2"
_cell_formula_units_Z 16
_cell_length_a 14.140215
_cell_length_b 8.970233
_cell_length_c 11.431264
_cell_angle_alpha 106.247653
_cell_angle_beta 134.560761
_cell_angle_gamma 51.159421
_cell_volume 770.393577
_symmetry_space_group_name_H-M "P -1"
_symmetry_group_IT_number 2
_symmetry_cell_setting 'triclinic'
loop_
_space_group_symop_operation_xyz
x,y,z
-x,-y,-z
loop_
_atom_site_type_symbol
_atom_site_label
_atom_site_fract_x
_atom_site_fract_y
_atom_site_fract_z
Si Si1 0.354629 0.199991 0.352893
Si Si2 0.767722 0.346830 0.966284
Si Si3 0.437034 0.679728 0.402378
Si Si4 0.302228 0.673024 0.850023
Si Si5 0.871767 0.862142 0.736470
Si Si6 0.277367 0.020053 0.789187
Si Si7 0.375822 0.206239 0.091944
Si Si8 0.008169 0.675678 0.559672
O O1 0.388258 0.348891 0.463579
O O2 0.179812 0.253223 0.258700
O O3 0.365255 0.187682 0.218224
O O4 0.500000 0.000000 0.500000
O O5 0.626067 0.354640 0.776605
O O6 0.711191 0.568536 0.973818
O O7 0.776712 0.248668 0.073797
O O8 0.964932 0.193175 0.059266
O O9 0.500000 0.500000 0.500000
O O10 0.280088 0.901241 0.361010
O O11 0.277302 0.843879 0.791046
O O12 0.201072 0.599529 0.691063
O O13 0.500000 0.500000 0.000000
O O14 0.934311 0.768499 0.642956
O O15 0.427951 0.940521 0.809862
O O16 0.100796 0.167046 0.601940
O O17 0.282294 0.133602 0.928660
O O18 0.000000 0.500000 0.500000
#
# Coordination Sequence:
#
# PCOD8019075 Si02
#       8
#     2   2   2   2   2   2   2   2
#     4  10  22  41  64  94 127 169 221 265 325 396
#     4  11  23  43  63  94 133 172 217 270 334 390
#     4  11  22  41  65  95 127 173 218 270 324 385
#     4  11  24  42  67 100 131 173 224 275 330 401
#     4  10  24  43  65  93 135 171 214 271 327 395
#     4  11  23  41  69  97 133 176 222 281 327 392
#     4  11  23  41  68  94 134 177 223 272 337 392
#     4  11  25  46  70  99 135 173 221 277 339 391
#
# _framework density 20.768605999999998
#
# number of rings (size 3 to 8) (size 9 to 14) (size 15 to 20)
#    0.000    1.250    2.500    3.750    5.250    1.500 
#    0.000    2.500    0.000    0.000    0.000    0.000 
#    0.000    0.000    0.000    0.000    0.000    0.000 
#
# Total GULP energy -198229.405153 kJ/mol
# GULP energy per Si atom -12389.337822 kJ/mol
# Density = 2.072134 g / cm^3
# Si number density = 20.768606 Si / 1000 Ang^3
#
#
#
# Elastic Constant Matrix: (Units=GPa)
#
#
# Indices 1 2 3 4 5 6 
#
# 1 120.6279 38.6015 74.6469 4.8312 12.2667 24.4588
# 2 38.6015 105.6981 42.3757 4.4113 10.0006 21.3354
# 3 74.6469 42.3757 159.0097 8.0712 13.0530 12.1263
# 4 4.8312 4.4113 8.0712 40.2581 6.2997 3.0251
# 5 12.2667 10.0006 13.0530 6.2997 41.2104 -3.5034
# 6 24.4588 21.3354 12.1263 3.0251 -3.5034 32.6127
#
#
#
# Elastic Compliance Matrix: (Units=1/GPa)
#
#
# Indices 1 2 3 4 5 6 
#
# 1 0.013888 -0.001006 -0.005421 0.000603 -0.002955 -0.008115
# 2 -0.001006 0.012274 -0.002071 0.000111 -0.002618 -0.006796
# 3 -0.005421 -0.002071 0.009329 -0.001064 -0.000506 0.001996
# 4 0.000603 0.000111 -0.001064 0.025828 -0.004070 -0.002962
# 5 -0.002955 -0.002618 -0.000506 -0.004070 0.027193 0.007416
# 6 -0.008115 -0.006796 0.001996 -0.002962 0.007416 0.041525
#
#
# Mechanical properties :
#
#
# Convention : Reuss Voigt Hill
#
# Bulk Modulus (GPa) = 54.06947 77.39822 65.73385
# Shear Modulus (GPa) = 32.63754 38.13035 35.38395
#
# Velocity S-wave (km/s) = 3.96850 4.28946 4.13210
# Velocity P-wave (km/s) = 6.86217 7.86641 7.38139
#
# Compressibility (1/GPa) = 0.01849472
#
# Stress axis : x y z
#
# Youngs Moduli (GPa) = 72.00304 81.47608 107.19283
#
# Poissons Ratio (x) = 0.08199 0.58107
# Poissons Ratio (y) = 0.07246 0.22199
# Poissons Ratio (z) = 0.39032 0.16873
#
# Static dielectric constant tensor:
#      x y z
#    x 4.494940 0.185750 0.649090 
#    y 0.185750 3.703770 0.012370 
#    z 0.649090 0.012370 4.700270 
# 
# 
# High freq. dielectric constant tensor:
#      x y z
#    x 1.815500 0.020360 0.007350 
#    y 0.020360 1.805860 -0.000220 
#    z 0.007350 -0.000220 1.839080 
# 
# From -- ./inp_files/274353.got.cif
#   From: 2010.06.25/outbox.cif.g09.slc.cpg/sg2_138_cif.got.tgz:274353.got - 2010.06.27 13:26:56.
