data_PCOD8019501
_publ_section_title
;
Structure prediction by ZEFSAII (Michael W. Deem and Ramdas Pophale) SiO2 
 PCOD8019501
Probable space group: P -1
;
_chemical_formula_sum "Si O2"
_cell_formula_units_Z 10
_cell_length_a 24.985715
_cell_length_b 10.728823
_cell_length_c 22.375899
_cell_angle_alpha 22.206681
_cell_angle_beta 168.720702
_cell_angle_gamma 159.426471
_cell_volume 409.689368
_symmetry_space_group_name_H-M "P -1"
_symmetry_group_IT_number 2
_symmetry_cell_setting 'triclinic'
loop_
_space_group_symop_operation_xyz
x,y,z
-x,-y,-z
loop_
_atom_site_type_symbol
_atom_site_label
_atom_site_fract_x
_atom_site_fract_y
_atom_site_fract_z
Si Si1 0.435128 0.686050 0.437030
Si Si2 0.220756 0.414839 0.689419
Si Si3 0.663437 0.753221 0.362143
Si Si4 0.670835 0.734572 0.248575
Si Si5 0.929215 0.942157 0.770141
O O1 0.482807 0.550185 0.614590
O O2 0.754022 0.866608 0.674895
O O3 0.237705 0.347816 0.332757
O O4 0.260790 0.953104 0.136579
O O5 0.342205 0.526088 0.705142
O O6 0.044977 0.672383 0.398137
O O7 0.500000 0.500000 0.000000
O O8 0.013832 0.990676 0.654264
O O9 0.587714 0.548282 0.305757
O O10 0.528408 0.051634 0.082782
O O11 0.000000 0.000000 0.500000
#
# Coordination Sequence:
#
# PCOD8019501 Si02
#       5
#     2   2   2   2   2
#     4  10  23  41  63  90 133 176 206 260 331 385
#     4  11  24  38  67  99 128 163 218 273 316 375
#     4  10  22  41  68  90 125 177 215 259 322 389
#     4   9  21  40  64  92 129 163 221 263 319 378
#     4  10  24  40  60  96 135 164 213 267 322 381
#
# _framework density 24.408736999999999
#
# number of rings (size 3 to 8) (size 9 to 14) (size 15 to 20)
#    0.000    2.000    0.000    1.200   16.800    1.600 
#    0.000    2.000    0.000    0.000    0.000    0.000 
#    0.000    0.000    0.000    0.000    0.000    0.000 
#
# Total GULP energy -123924.137296 kJ/mol
# GULP energy per Si atom -12392.413730 kJ/mol
# Density = 2.435318 g / cm^3
# Si number density = 24.408737 Si / 1000 Ang^3
#
#
#
# Elastic Constant Matrix: (Units=GPa)
#
#
# Indices 1 2 3 4 5 6 
#
# 1 141.6919 24.9558 67.8715 -9.8979 -3.7861 5.0578
# 2 24.9558 50.0580 17.8733 -3.3909 -3.7682 1.1922
# 3 67.8715 17.8733 98.1453 -0.4133 -3.7624 -1.6937
# 4 -9.8979 -3.3909 -0.4133 32.8247 3.7198 -2.0634
# 5 -3.7861 -3.7682 -3.7624 3.7198 41.5036 -2.8237
# 6 5.0578 1.1922 -1.6937 -2.0634 -2.8237 33.9486
#
#
#
# Elastic Compliance Matrix: (Units=1/GPa)
#
#
# Indices 1 2 3 4 5 6 
#
# 1 0.011341 -0.002803 -0.007361 0.002955 -0.000275 -0.001802
# 2 -0.002803 0.022314 -0.002069 0.001252 0.001452 -0.000272
# 3 -0.007361 -0.002069 0.015714 -0.002218 0.000893 0.001893
# 4 0.002955 0.001252 -0.002218 0.031822 -0.002593 0.001124
# 5 -0.000275 0.001452 0.000893 -0.002593 0.024646 0.001927
# 6 -0.001802 -0.000272 0.001893 0.001124 0.001927 0.030057
#
#
# Mechanical properties :
#
#
# Convention : Reuss Voigt Hill
#
# Bulk Modulus (GPa) = 40.15778 56.81071 48.48425
# Shear Modulus (GPa) = 29.64543 33.60170 31.62356
#
# Velocity S-wave (km/s) = 3.48881 3.71432 3.60333
# Velocity P-wave (km/s) = 5.71988 6.45911 6.10070
#
# Compressibility (1/GPa) = 0.02490178
#
# Stress axis : x y z
#
# Youngs Moduli (GPa) = 88.17714 44.81588 63.63770
#
# Poissons Ratio (x) = 0.12562 0.46846
# Poissons Ratio (y) = 0.24716 0.13166
# Poissons Ratio (z) = 0.64910 0.09272
#
# Static dielectric constant tensor:
#      x y z
#    x 5.539260 -0.365620 0.038430 
#    y -0.365620 3.936070 -0.057510 
#    z 0.038430 -0.057510 4.327950 
# 
# 
# High freq. dielectric constant tensor:
#      x y z
#    x 1.986050 -0.002690 0.011160 
#    y -0.002690 1.951300 0.005260 
#    z 0.011160 0.005260 1.971020 
# 
# From -- ./inp_files/15852.got.cif
#   From: 2010.06.25/outbox.cif.g09.slc.cpg/sg2_8_cif.got.tgz:15852.got - 2010.06.27 13:26:56.
