data_PCOD8019267
_publ_section_title
;
Structure prediction by ZEFSAII (Michael W. Deem and Ramdas Pophale) SiO2 
 PCOD8019267
Probable space group: P -1
;
_chemical_formula_sum "Si O2"
_cell_formula_units_Z 16
_cell_length_a 17.846539
_cell_length_b 9.065791
_cell_length_c 17.730997
_cell_angle_alpha 47.872325
_cell_angle_beta 21.604664
_cell_angle_gamma 47.327746
_cell_volume 767.835479
_symmetry_space_group_name_H-M "P -1"
_symmetry_group_IT_number 2
_symmetry_cell_setting 'triclinic'
loop_
_space_group_symop_operation_xyz
x,y,z
-x,-y,-z
loop_
_atom_site_type_symbol
_atom_site_label
_atom_site_fract_x
_atom_site_fract_y
_atom_site_fract_z
Si Si1 0.701341 0.391578 0.304960
Si Si2 0.082855 0.716549 0.580276
Si Si3 0.190463 0.104020 0.807929
Si Si4 0.309251 0.049041 0.218790
Si Si5 0.378691 0.040675 0.500577
Si Si6 0.114261 0.382675 0.546119
Si Si7 0.003332 0.455511 0.119873
Si Si8 0.289735 0.432092 0.204631
O O1 0.500000 0.500000 0.500000
O O2 0.891733 0.335729 0.204741
O O3 0.661207 0.185899 0.376839
O O4 0.762391 0.537495 0.130891
O O5 0.170857 0.525090 0.510682
O O6 0.885368 0.859082 0.681086
O O7 0.004972 0.647631 0.756615
O O8 0.266196 0.845797 0.370529
O O9 0.299319 0.158643 0.610932
O O10 0.113275 0.310644 0.853275
O O11 0.371764 0.965307 0.737704
O O12 0.000000 0.000000 0.000000
O O13 0.342043 0.205201 0.199960
O O14 0.500000 0.000000 0.000000
O O15 0.240688 0.155473 0.522041
O O16 0.184136 0.450388 0.377946
O O17 0.861800 0.414496 0.763832
O O18 0.500000 0.500000 0.000000
#
# Coordination Sequence:
#
# PCOD8019267 Si02
#       8
#     2   2   2   2   2   2   2   2
#     4  11  24  42  62  90 135 168 216 267 323 387
#     4  10  22  42  66  89 125 165 217 264 319 385
#     4  11  22  41  64  93 126 165 216 267 316 382
#     4  10  22  42  64  95 128 165 209 265 321 388
#     4  11  23  40  65  93 126 171 212 270 322 383
#     4  10  22  41  66  92 125 165 213 266 323 376
#     4  11  23  42  64  91 126 175 211 272 324 384
#     4  10  22  42  64  95 128 164 210 268 322 385
#
# _framework density 20.837796999999998
#
# number of rings (size 3 to 8) (size 9 to 14) (size 15 to 20)
#    0.000    1.500    3.750    0.750    1.750    3.000 
#    2.250    0.000    0.000    0.000    0.000    0.000 
#    0.000    0.000    0.000    0.000    0.000    0.000 
#
# Total GULP energy -198289.186053 kJ/mol
# GULP energy per Si atom -12393.074128 kJ/mol
# Density = 2.079037 g / cm^3
# Si number density = 20.837797 Si / 1000 Ang^3
#
#
#
# Elastic Constant Matrix: (Units=GPa)
#
#
# Indices 1 2 3 4 5 6 
#
# 1 101.5776 39.2176 50.4898 -14.1161 1.7723 4.2421
# 2 39.2176 73.0396 54.0284 -5.3541 -5.1017 -1.5875
# 3 50.4898 54.0284 148.6190 -7.1050 -2.5792 1.9338
# 4 -14.1161 -5.3541 -7.1050 29.9513 5.3202 -0.4743
# 5 1.7723 -5.1017 -2.5792 5.3202 48.9484 1.6139
# 6 4.2421 -1.5875 1.9338 -0.4743 1.6139 35.8786
#
#
#
# Elastic Compliance Matrix: (Units=1/GPa)
#
#
# Indices 1 2 3 4 5 6 
#
# 1 0.014044 -0.005415 -0.002557 0.005327 -0.001733 -0.001614
# 2 -0.005415 0.021055 -0.005826 -0.000512 0.002080 0.001786
# 3 -0.002557 -0.005826 0.009724 0.000051 0.000008 -0.000479
# 4 0.005327 -0.000512 0.000051 0.036568 -0.004219 0.000018
# 5 -0.001733 0.002080 0.000008 -0.004219 0.021192 -0.000712
# 6 -0.001614 0.001786 -0.000479 0.000018 -0.000712 0.028200
#
#
# Mechanical properties :
#
#
# Convention : Reuss Voigt Hill
#
# Bulk Modulus (GPa) = 58.04895 67.85641 62.95268
# Shear Modulus (GPa) = 30.46507 34.92235 32.69371
#
# Velocity S-wave (km/s) = 3.82777 4.09823 3.96531
# Velocity P-wave (km/s) = 6.88867 7.41814 7.15830
#
# Compressibility (1/GPa) = 0.01722684
#
# Stress axis : x y z
#
# Youngs Moduli (GPa) = 71.20332 47.49445 102.83636
#
# Poissons Ratio (x) = 0.25718 0.26296
# Poissons Ratio (y) = 0.38557 0.59915
# Poissons Ratio (z) = 0.18207 0.27671
#
# Static dielectric constant tensor:
#      x y z
#    x 3.800960 0.215390 -0.023170 
#    y 0.215390 3.795130 -0.052920 
#    z -0.023170 -0.052920 3.875500 
# 
# 
# High freq. dielectric constant tensor:
#      x y z
#    x 1.817190 0.018360 -0.003600 
#    y 0.018360 1.807910 0.011870 
#    z -0.003600 0.011870 1.824200 
# 
# From -- ./inp_files/81086.got.cif
#   From: 2010.06.25/outbox.cif.g09.slc.cpg/sg2_41_cif.got.tgz:81086.got - 2010.06.27 13:26:56.
