data_PCOD8019218
_publ_section_title
;
Structure prediction by ZEFSAII (Michael W. Deem and Ramdas Pophale) SiO2 
 PCOD8019218
Probable space group: P -1
;
_chemical_formula_sum "Si O2"
_cell_formula_units_Z 16
_cell_length_a 8.395858
_cell_length_b 16.559043
_cell_length_c 12.476711
_cell_angle_alpha 27.491213
_cell_angle_beta 92.116795
_cell_angle_gamma 83.330236
_cell_volume 757.330217
_symmetry_space_group_name_H-M "P -1"
_symmetry_group_IT_number 2
_symmetry_cell_setting 'triclinic'
loop_
_space_group_symop_operation_xyz
x,y,z
-x,-y,-z
loop_
_atom_site_type_symbol
_atom_site_label
_atom_site_fract_x
_atom_site_fract_y
_atom_site_fract_z
Si Si1 0.710490 0.761346 0.469277
Si Si2 0.210081 0.648354 0.086361
Si Si3 0.310618 0.725374 0.777641
Si Si4 0.309681 0.339590 0.177530
Si Si5 0.169438 0.130470 0.240651
Si Si6 0.629370 0.927643 0.903412
Si Si7 0.405383 0.701627 0.222134
Si Si8 0.178298 0.020125 0.956580
O O1 0.752637 0.567736 0.638160
O O2 0.757873 0.728686 0.634895
O O3 0.823517 0.867649 0.286507
O O4 0.512631 0.873166 0.319551
O O5 0.254251 0.727224 0.104469
O O6 0.330520 0.674778 0.963272
O O7 0.018767 0.749894 0.930999
O O8 0.487910 0.733192 0.729216
O O9 0.174480 0.929543 0.522079
O O10 0.251264 0.565710 0.904198
O O11 0.240172 0.250855 0.182438
O O12 0.280036 0.087068 0.189051
O O13 0.544536 0.769517 0.088551
O O14 0.765721 0.885108 0.052150
O O15 0.500000 0.500000 0.500000
O O16 0.318848 0.819618 0.184204
O O17 0.000000 0.000000 0.000000
#
# Coordination Sequence:
#
# PCOD8019218 Si02
#       8
#     2   2   2   2   2   2   2   2
#     4  10  22  43  66  89 133 171 220 267 319 400
#     4  11  24  41  63 105 131 167 216 275 334 381
#     4  10  22  41  65  97 141 172 225 260 323 405
#     4  10  22  42  67  98 129 184 219 264 325 394
#     4  12  24  41  66 100 140 172 218 275 325 388
#     4  11  23  43  66  94 125 176 220 265 329 394
#     4  11  23  43  70  92 125 172 223 271 323 402
#     4  11  24  43  65  95 127 167 216 278 336 378
#
# _framework density 21.126847000000001
#
# number of rings (size 3 to 8) (size 9 to 14) (size 15 to 20)
#    0.000    1.250    1.250    5.250    3.500    3.000 
#   11.250    2.500    0.000    0.000    0.000    0.000 
#    0.000    0.000    0.000    0.000    0.000    0.000 
#
# Total GULP energy -198391.191536 kJ/mol
# GULP energy per Si atom -12399.449471 kJ/mol
# Density = 2.107876 g / cm^3
# Si number density = 21.126847 Si / 1000 Ang^3
#
#
#
# Elastic Constant Matrix: (Units=GPa)
#
#
# Indices 1 2 3 4 5 6 
#
# 1 99.4778 48.5274 53.9437 5.6356 -12.0708 -0.3046
# 2 48.5274 122.3227 51.9112 2.6432 -9.6646 16.8677
# 3 53.9437 51.9112 144.0449 -15.8942 -6.3482 10.3591
# 4 5.6356 2.6432 -15.8942 31.6455 -3.2993 -4.5791
# 5 -12.0708 -9.6646 -6.3482 -3.2993 21.8332 7.9658
# 6 -0.3046 16.8677 10.3591 -4.5791 7.9658 30.2342
#
#
#
# Elastic Compliance Matrix: (Units=1/GPa)
#
#
# Indices 1 2 3 4 5 6 
#
# 1 0.015257 -0.003989 -0.004722 -0.004012 0.003821 0.002383
# 2 -0.003989 0.012278 -0.002386 -0.002106 0.005033 -0.007717
# 3 -0.004722 -0.002386 0.010397 0.006124 0.000857 -0.001577
# 4 -0.004012 -0.002106 0.006124 0.036405 0.002734 0.003830
# 5 0.003821 0.005033 0.000857 0.002734 0.057277 -0.017740
# 6 0.002383 -0.007717 -0.001577 0.003830 -0.017740 0.043199
#
#
# Mechanical properties :
#
#
# Convention : Reuss Voigt Hill
#
# Bulk Modulus (GPa) = 63.54042 74.95665 69.24854
# Shear Modulus (GPa) = 24.72150 30.84013 27.78081
#
# Velocity S-wave (km/s) = 3.42445 3.82483 3.63016
# Velocity P-wave (km/s) = 6.76585 7.42038 7.10066
#
# Compressibility (1/GPa) = 0.01573801
#
# Stress axis : x y z
#
# Youngs Moduli (GPa) = 65.54340 81.44939 96.17754
#
# Poissons Ratio (x) = 0.32489 0.45413
# Poissons Ratio (y) = 0.26144 0.22952
# Poissons Ratio (z) = 0.30948 0.19437
#
# Static dielectric constant tensor:
#      x y z
#    x 3.655810 -0.149840 -0.008940 
#    y -0.149840 4.470410 -0.081610 
#    z -0.008940 -0.081610 3.589300 
# 
# 
# High freq. dielectric constant tensor:
#      x y z
#    x 1.819460 -0.009590 -0.007450 
#    y -0.009590 1.839280 -0.005560 
#    z -0.007450 -0.005560 1.837530 
# 
# From -- ./inp_files/398209.got.cif
#   From: 2010.06.25/outbox.cif.g09.slc.cpg/sg2_200_cif.got.tgz:398209.got - 2010.06.27 13:26:56.
