data_PCOD8019647
_publ_section_title
;
Structure prediction by ZEFSAII (Michael W. Deem and Ramdas Pophale) SiO2 
 PCOD8019647
Probable space group: P -1
;
_chemical_formula_sum "Si O2"
_cell_formula_units_Z 14
_cell_length_a 11.382057
_cell_length_b 9.841941
_cell_length_c 8.216608
_cell_angle_alpha 52.575750
_cell_angle_beta 118.105807
_cell_angle_gamma 97.601904
_cell_volume 629.000346
_symmetry_space_group_name_H-M "P -1"
_symmetry_group_IT_number 2
_symmetry_cell_setting 'triclinic'
loop_
_space_group_symop_operation_xyz
x,y,z
-x,-y,-z
loop_
_atom_site_type_symbol
_atom_site_label
_atom_site_fract_x
_atom_site_fract_y
_atom_site_fract_z
Si Si1 0.166167 0.824629 0.823032
Si Si2 0.075156 0.950590 0.328949
Si Si3 0.444153 0.917741 0.873395
Si Si4 0.614183 0.603694 0.046574
Si Si5 0.147253 0.483484 0.186707
Si Si6 0.697780 0.839384 0.646948
Si Si7 0.881350 0.407197 0.541303
O O1 0.089399 0.847469 0.584174
O O2 0.292983 0.912458 0.832062
O O3 0.219173 0.617112 0.037510
O O4 0.067607 0.906595 0.850296
O O5 0.069995 0.805075 0.291955
O O6 0.197481 0.047998 0.296272
O O7 0.433225 0.031742 0.615772
O O8 0.546164 0.732011 0.051835
O O9 0.500000 0.000000 0.000000
O O10 0.747834 0.470301 0.296353
O O11 0.500000 0.500000 0.000000
O O12 0.651837 0.721244 0.840267
O O13 0.229495 0.285376 0.360878
O O14 0.150133 0.538077 0.334924
O O15 0.000000 0.500000 0.000000
O O16 0.000000 0.500000 0.500000
#
# Coordination Sequence:
#
# PCOD8019647 Si02
#       7
#     2   2   2   2   2   2   2
#     4  10  22  41  69  96 139 179 224 279 351 409
#     4  10  22  42  70 101 133 175 235 284 343 409
#     4  11  25  42  66 101 136 183 230 284 341 417
#     4  12  26  48  70 100 145 185 233 285 352 422
#     4  12  23  43  66 102 138 181 226 288 356 409
#     4  11  23  44  73  98 136 186 234 283 352 410
#     4  12  28  43  70 106 142 181 236 292 348 415
#
# _framework density 22.257538
#
# number of rings (size 3 to 8) (size 9 to 14) (size 15 to 20)
#    0.000    0.857    1.429    6.429    6.000    2.857 
#    0.000    2.857    0.000    0.000    0.000    0.000 
#    0.000    0.000    0.000    0.000    0.000    0.000 
#
# Total GULP energy -173605.329731 kJ/mol
# GULP energy per Si atom -12400.380695 kJ/mol
# Density = 2.220688 g / cm^3
# Si number density = 22.257538 Si / 1000 Ang^3
#
#
#
# Elastic Constant Matrix: (Units=GPa)
#
#
# Indices 1 2 3 4 5 6 
#
# 1 79.5384 37.0071 20.3456 2.5094 -6.9692 10.0925
# 2 37.0071 157.9171 15.1579 -9.6999 -3.6969 -0.5386
# 3 20.3456 15.1579 56.7008 -4.3582 -3.0164 15.7657
# 4 2.5094 -9.6999 -4.3582 40.7694 -0.9068 2.5553
# 5 -6.9692 -3.6969 -3.0164 -0.9068 44.0534 -9.5812
# 6 10.0925 -0.5386 15.7657 2.5553 -9.5812 32.6565
#
#
#
# Elastic Compliance Matrix: (Units=1/GPa)
#
#
# Indices 1 2 3 4 5 6 
#
# 1 0.015689 -0.003378 -0.004161 -0.002038 0.001364 -0.002336
# 2 -0.003378 0.007348 -0.001057 0.001748 0.000406 0.001658
# 3 -0.004161 -0.001057 0.022402 0.003007 -0.001366 -0.010183
# 4 -0.002038 0.001748 0.003007 0.025566 -0.000055 -0.002810
# 5 0.001364 0.000406 -0.001366 -0.000055 0.024471 0.007428
# 6 -0.002336 0.001658 -0.010183 -0.002810 0.007428 0.038686
#
#
# Mechanical properties :
#
#
# Convention : Reuss Voigt Hill
#
# Bulk Modulus (GPa) = 35.40332 48.79748 42.10040
# Shear Modulus (GPa) = 31.10031 38.27224 34.68628
#
# Velocity S-wave (km/s) = 3.74209 4.15121 3.95195
# Velocity P-wave (km/s) = 5.88318 6.70435 6.30714
#
# Compressibility (1/GPa) = 0.02824593
#
# Stress axis : x y z
#
# Youngs Moduli (GPa) = 63.73908 136.08795 44.63918
#
# Poissons Ratio (x) = 0.45976 0.18574
# Poissons Ratio (y) = 0.21534 0.04719
# Poissons Ratio (z) = 0.26521 0.14387
#
# Static dielectric constant tensor:
#      x y z
#    x 3.912280 -0.078650 -0.069110 
#    y -0.078650 4.200470 -0.379260 
#    z -0.069110 -0.379260 4.285420 
# 
# 
# High freq. dielectric constant tensor:
#      x y z
#    x 1.878920 -0.003100 -0.002030 
#    y -0.003100 1.891240 -0.016290 
#    z -0.002030 -0.016290 1.878400 
# 
# From -- ./inp_files/216303.got.cif
#   From: 2010.06.25/outbox.cif.g09.slc.cpg/sg2_109_cif.got.tgz:216303.got - 2010.06.27 13:26:56.
