data_PCOD8019178
_publ_section_title
;
Structure prediction by ZEFSAII (Michael W. Deem and Ramdas Pophale) SiO2 
 PCOD8019178
Probable space group: P -1
;
_chemical_formula_sum "Si O2"
_cell_formula_units_Z 12
_cell_length_a 8.290733
_cell_length_b 9.190557
_cell_length_c 15.075513
_cell_angle_alpha 57.245638
_cell_angle_beta 57.533983
_cell_angle_gamma 30.770029
_cell_volume 487.272710
_symmetry_space_group_name_H-M "P -1"
_symmetry_group_IT_number 2
_symmetry_cell_setting 'triclinic'
loop_
_space_group_symop_operation_xyz
x,y,z
-x,-y,-z
loop_
_atom_site_type_symbol
_atom_site_label
_atom_site_fract_x
_atom_site_fract_y
_atom_site_fract_z
Si Si1 0.654175 0.749217 0.776853
Si Si2 0.431065 0.526077 0.223092
Si Si3 0.859199 0.925642 0.878661
Si Si4 0.737822 0.804247 0.121386
Si Si5 0.861151 0.258771 0.569227
Si Si6 0.430344 0.828010 0.430838
O O1 0.612674 0.612626 0.774709
O O2 0.008158 0.495742 0.799790
O O3 0.384735 0.941252 0.870131
O O4 0.565239 0.982779 0.669618
O O5 0.254874 0.811391 0.129794
O O6 0.234960 0.652492 0.330291
O O7 0.807980 0.295513 0.200151
O O8 0.579489 0.079542 0.841004
O O9 0.901624 0.749940 0.000023
O O10 0.774799 0.500292 0.462915
O O11 0.702804 0.202661 0.594509
O O12 0.237700 0.963169 0.537161
#
# Coordination Sequence:
#
# PCOD8019178 Si02
#       6
#     2   2   2   2   2   2
#     4  12  25  41  67 101 135 170 212 272 334 385
#     4  12  25  41  67 101 135 170 212 272 334 385
#     4  11  25  45  68  94 129 176 224 267 318 388
#     4  11  25  45  68  94 129 176 224 267 318 388
#     4  10  22  41  65  94 129 172 219 266 319 385
#     4  10  22  41  65  94 129 172 219 266 319 385
#
# _framework density 24.626867000000001
#
# number of rings (size 3 to 8) (size 9 to 14) (size 15 to 20)
#    0.000    1.000    0.000    6.000    0.000   13.333 
#    0.000    0.000    0.000    0.000    0.000    0.000 
#    0.000    0.000    0.000    0.000    0.000    0.000 
#
# Total GULP energy -148736.827700 kJ/mol
# GULP energy per Si atom -12394.735642 kJ/mol
# Density = 2.457082 g / cm^3
# Si number density = 24.626867 Si / 1000 Ang^3
#
#
#
# Elastic Constant Matrix: (Units=GPa)
#
#
# Indices 1 2 3 4 5 6 
#
# 1 68.4438 24.3242 37.1606 -0.7180 0.4630 10.3340
# 2 24.3242 112.2402 20.1299 0.6976 0.0244 17.0230
# 3 37.1606 20.1299 96.7509 1.4446 -0.9195 11.0257
# 4 -0.7180 0.6976 1.4446 41.6407 13.9685 0.0064
# 5 0.4630 0.0244 -0.9195 13.9685 10.4272 -0.1368
# 6 10.3340 17.0230 11.0257 0.0064 -0.1368 44.4972
#
#
#
# Elastic Compliance Matrix: (Units=1/GPa)
#
#
# Indices 1 2 3 4 5 6 
#
# 1 0.019623 -0.002764 -0.006825 0.002037 -0.004220 -0.001822
# 2 -0.002764 0.010095 -0.000682 -0.000349 0.000467 -0.003050
# 3 -0.006825 -0.000682 0.013331 -0.001923 0.004037 -0.001445
# 4 0.002037 -0.000349 -0.001923 0.043969 -0.059161 -0.000051
# 5 -0.004220 0.000467 0.004037 -0.059161 0.175704 0.000350
# 6 -0.001822 -0.003050 -0.001445 -0.000051 0.000350 0.024422
#
#
# Mechanical properties :
#
#
# Convention : Reuss Voigt Hill
#
# Bulk Modulus (GPa) = 44.42790 48.96270 46.69530
# Shear Modulus (GPa) = 15.86354 32.36770 24.11562
#
# Velocity S-wave (km/s) = 2.54078 3.62929 3.13268
# Velocity P-wave (km/s) = 5.16594 6.12269 5.66455
#
# Compressibility (1/GPa) = 0.02250838
#
# Stress axis : x y z
#
# Youngs Moduli (GPa) = 50.95986 99.05563 75.01512
#
# Poissons Ratio (x) = 0.27380 0.51196
# Poissons Ratio (y) = 0.14086 0.05113
# Poissons Ratio (z) = 0.34779 0.06751
#
# Static dielectric constant tensor:
#      x y z
#    x 4.098830 0.130010 -0.005920 
#    y 0.130010 5.143060 0.013520 
#    z -0.005920 0.013520 4.309940 
# 
# 
# High freq. dielectric constant tensor:
#      x y z
#    x 1.949690 0.012400 -0.000950 
#    y 0.012400 2.017750 0.000830 
#    z -0.000950 0.000830 1.980880 
# 
# From -- ./inp_files/494452.got.cif
#   From: 2010.06.25/outbox.cif.g09.slc.cpg/sg2_248_cif.got.tgz:494452.got - 2010.06.27 13:26:56.
