data_PCOD8019529
_publ_section_title
;
Structure prediction by ZEFSAII (Michael W. Deem and Ramdas Pophale) SiO2 
 PCOD8019529
Probable space group: P -1
;
_chemical_formula_sum "Si O2"
_cell_formula_units_Z 16
_cell_length_a 14.476664
_cell_length_b 9.314512
_cell_length_c 5.173784
_cell_angle_alpha 107.016994
_cell_angle_beta 89.390811
_cell_angle_gamma 78.249150
_cell_volume 651.282986
_symmetry_space_group_name_H-M "P -1"
_symmetry_group_IT_number 2
_symmetry_cell_setting 'triclinic'
loop_
_space_group_symop_operation_xyz
x,y,z
-x,-y,-z
loop_
_atom_site_type_symbol
_atom_site_label
_atom_site_fract_x
_atom_site_fract_y
_atom_site_fract_z
Si Si1 0.940283 0.400341 0.102585
Si Si2 0.632060 0.469958 0.678786
Si Si3 0.269658 0.457738 0.773020
Si Si4 0.394159 0.134291 0.614526
Si Si5 0.493493 0.207262 0.157216
Si Si6 0.348995 0.837849 0.255495
Si Si7 0.867494 0.130279 0.680771
Si Si8 0.002108 0.863745 0.733182
O O1 0.842758 0.513166 0.245531
O O2 0.007967 0.310564 0.282246
O O3 0.919837 0.245852 0.893242
O O4 0.000000 0.500000 0.000000
O O5 0.687411 0.446585 0.393933
O O6 0.597385 0.312320 0.659498
O O7 0.702993 0.497763 0.918061
O O8 0.539521 0.607647 0.734435
O O9 0.310848 0.278279 0.623801
O O10 0.430714 0.140979 0.909836
O O11 0.350239 0.986480 0.503746
O O12 0.479878 0.130131 0.397916
O O13 0.601518 0.163572 0.028519
O O14 0.241115 0.827831 0.212725
O O15 0.891219 0.165327 0.404906
O O16 0.912802 0.945006 0.602195
O O17 0.000000 0.000000 0.000000
#
# Coordination Sequence:
#
# PCOD8019529 Si02
#       8
#     2   2   2   2   2   2   2   2
#     4  11  23  41  67  94 129 173 220 274 338 400
#     4  10  22  41  68  94 135 170 226 271 324 392
#     4  10  22  44  63  96 133 174 218 273 327 398
#     4  10  24  43  65  95 139 175 220 268 334 394
#     4  10  23  45  63  98 137 179 216 274 331 395
#     4  12  22  40  69  98 127 176 225 276 326 395
#     4  10  22  43  64  96 128 170 222 273 333 394
#     4   9  21  43  64  91 134 162 217 277 332 397
#
# _framework density 24.566893
#
# number of rings (size 3 to 8) (size 9 to 14) (size 15 to 20)
#    0.000    1.750    1.250    1.875    0.000    5.500 
#   15.750    3.750    0.000    0.000    0.000    0.000 
#    0.000    0.000    0.000    0.000    0.000    0.000 
#
# Total GULP energy -198243.538085 kJ/mol
# GULP energy per Si atom -12390.221130 kJ/mol
# Density = 2.451098 g / cm^3
# Si number density = 24.566893 Si / 1000 Ang^3
#
#
#
# Elastic Constant Matrix: (Units=GPa)
#
#
# Indices 1 2 3 4 5 6 
#
# 1 93.7779 24.4394 9.7739 2.9552 -31.4028 7.8248
# 2 24.4394 103.8917 -1.7417 6.1537 2.8734 25.3201
# 3 9.7739 -1.7417 68.3344 -14.0936 -15.7628 11.0940
# 4 2.9552 6.1537 -14.0936 44.3821 -2.5341 -3.4484
# 5 -31.4028 2.8734 -15.7628 -2.5341 35.9572 0.8925
# 6 7.8248 25.3201 11.0940 -3.4484 0.8925 30.1557
#
#
#
# Elastic Compliance Matrix: (Units=1/GPa)
#
#
# Indices 1 2 3 4 5 6 
#
# 1 0.017040 -0.003952 0.001639 0.000685 0.016016 -0.002102
# 2 -0.003952 0.013480 0.001335 -0.002250 -0.003831 -0.010928
# 3 0.001639 0.001335 0.019393 0.005813 0.010442 -0.008325
# 4 0.000685 -0.002250 0.005813 0.025110 0.005039 0.002295
# 5 0.016016 -0.003831 0.010442 0.005039 0.047176 -0.005601
# 6 -0.002102 -0.010928 -0.008325 0.002295 -0.005601 0.046373
#
#
# Mechanical properties :
#
#
# Convention : Reuss Voigt Hill
#
# Bulk Modulus (GPa) = 20.85202 36.77190 28.81196
# Shear Modulus (GPa) = 26.80771 37.66783 32.23777
#
# Velocity S-wave (km/s) = 3.30693 3.91996 3.62642
# Velocity P-wave (km/s) = 4.80493 5.95723 5.41184
#
# Compressibility (1/GPa) = 0.04795697
#
# Stress axis : x y z
#
# Youngs Moduli (GPa) = 58.68662 74.18350 51.56537
#
# Poissons Ratio (x) = 0.29319 -0.08452
# Poissons Ratio (y) = 0.23195 -0.06886
# Poissons Ratio (z) = -0.09619 -0.09907
#
# Static dielectric constant tensor:
#      x y z
#    x 11.709160 -6.852530 -0.794230 
#    y -6.852530 10.615470 0.414670 
#    z -0.794230 0.414670 4.724010 
# 
# 
# High freq. dielectric constant tensor:
#      x y z
#    x 1.951590 -0.020500 -0.013260 
#    y -0.020500 2.007300 0.004970 
#    z -0.013260 0.004970 1.984840 
# 
# From -- ./inp_files/90929.got.cif
#   From: 2010.06.25/outbox.cif.g09.slc.cpg/sg2_46_cif.got.tgz:90929.got - 2010.06.27 13:26:56.
