data_PCOD8019509
_publ_section_title
;
Structure prediction by ZEFSAII (Michael W. Deem and Ramdas Pophale) SiO2 
 PCOD8019509
Probable space group: P -1
;
_chemical_formula_sum "Si O2"
_cell_formula_units_Z 16
_cell_length_a 12.917869
_cell_length_b 12.587416
_cell_length_c 5.271374
_cell_angle_alpha 69.405453
_cell_angle_beta 119.722248
_cell_angle_gamma 114.096225
_cell_volume 667.344570
_symmetry_space_group_name_H-M "P -1"
_symmetry_group_IT_number 2
_symmetry_cell_setting 'triclinic'
loop_
_space_group_symop_operation_xyz
x,y,z
-x,-y,-z
loop_
_atom_site_type_symbol
_atom_site_label
_atom_site_fract_x
_atom_site_fract_y
_atom_site_fract_z
Si Si1 0.858288 0.427492 0.899470
Si Si2 0.641836 0.072206 0.101856
Si Si3 0.315883 0.687423 0.830346
Si Si4 0.089643 0.236335 0.063093
Si Si5 0.695179 0.873813 0.589002
Si Si6 0.589756 0.736164 0.065170
Si Si7 0.184082 0.812616 0.168398
Si Si8 0.195087 0.373997 0.586921
O O1 0.860894 0.292834 0.002265
O O2 0.790600 0.484357 0.546880
O O3 0.780138 0.430103 0.063084
O O4 0.000000 0.500000 0.000000
O O5 0.639811 0.206966 0.000142
O O6 0.709280 0.015406 0.454538
O O7 0.720260 0.069638 0.938835
O O8 0.500000 0.000000 0.000000
O O9 0.250446 0.749711 0.498749
O O10 0.444309 0.661073 0.927245
O O11 0.167667 0.141958 0.211207
O O12 0.123562 0.308695 0.305294
O O13 0.117561 0.327170 0.785033
O O14 0.944117 0.161275 0.925423
O O15 0.623478 0.808404 0.307479
O O16 0.617819 0.827195 0.787411
O O17 0.667799 0.641842 0.213040
#
# Coordination Sequence:
#
# PCOD8019509 Si02
#       8
#     2   2   2   2   2   2   2   2
#     4  11  23  41  64  94 127 171 213 260 323 376
#     4  11  23  41  64  94 127 171 213 260 323 376
#     4  11  25  39  64  97 129 165 217 267 311 386
#     4  10  22  42  65  95 128 165 217 260 315 383
#     4  10  22  41  68  92 126 173 209 262 319 377
#     4  10  22  42  65  95 128 165 217 260 315 383
#     4  11  25  39  64  97 129 165 217 267 311 386
#     4  10  22  41  68  92 126 173 209 262 319 377
#
# _framework density 23.975618000000001
#
# number of rings (size 3 to 8) (size 9 to 14) (size 15 to 20)
#    0.000    1.500    2.500    1.500    7.000    3.000 
#    0.000    1.250    0.000    0.000    0.000    0.000 
#    0.000    0.000    0.000    0.000    0.000    0.000 
#
# Total GULP energy -198212.524668 kJ/mol
# GULP energy per Si atom -12388.282792 kJ/mol
# Density = 2.392105 g / cm^3
# Si number density = 23.975618 Si / 1000 Ang^3
#
#
#
# Elastic Constant Matrix: (Units=GPa)
#
#
# Indices 1 2 3 4 5 6 
#
# 1 170.9009 44.0120 72.5607 -11.9807 16.0407 67.2660
# 2 44.0120 50.4119 18.1359 -23.3800 1.0445 29.7557
# 3 72.5607 18.1359 149.0114 -25.0237 -4.8177 37.0414
# 4 -11.9807 -23.3800 -25.0237 43.3798 -2.1274 0.7020
# 5 16.0407 1.0445 -4.8177 -2.1274 51.0009 0.6909
# 6 67.2660 29.7557 37.0414 0.7020 0.6909 50.5015
#
#
#
# Elastic Compliance Matrix: (Units=1/GPa)
#
#
# Indices 1 2 3 4 5 6 
#
# 1 0.014196 -0.000319 -0.002397 0.002427 -0.004354 -0.016937
# 2 -0.000319 0.059388 0.010013 0.038481 0.002010 -0.042473
# 3 -0.002397 0.010013 0.011513 0.011671 0.002277 -0.011345
# 4 0.002427 0.038481 0.011671 0.051872 0.002192 -0.035217
# 5 -0.004354 0.002010 0.002277 0.002192 0.021207 0.002624
# 6 -0.016937 -0.042473 -0.011345 -0.035217 0.002624 0.076161
#
#
# Mechanical properties :
#
#
# Convention : Reuss Voigt Hill
#
# Bulk Modulus (GPa) = 10.03104 71.08240 40.55672
# Shear Modulus (GPa) = 19.76481 44.68413 32.22447
#
# Velocity S-wave (km/s) = 2.87430 4.32178 3.67011
# Velocity P-wave (km/s) = 3.89980 7.39025 5.90865
#
# Compressibility (1/GPa) = 0.09969055
#
# Stress axis : x y z
#
# Youngs Moduli (GPa) = 70.44007 16.83838 86.85742
#
# Poissons Ratio (x) = 0.00537 0.20821
# Poissons Ratio (y) = 0.02247 -0.86967
# Poissons Ratio (z) = 0.16885 -0.16860
#
# Static dielectric constant tensor:
#      x y z
#    x 5.327920 -1.188540 0.478680 
#    y -1.188540 8.825610 -2.123460 
#    z 0.478680 -2.123460 5.434280 
# 
# 
# High freq. dielectric constant tensor:
#      x y z
#    x 1.971800 0.007220 0.002850 
#    y 0.007220 1.926800 -0.009670 
#    z 0.002850 -0.009670 1.964230 
# 
# From -- ./inp_files/10561.got.cif
#   From: 2010.06.25/outbox.cif.g09.slc.cpg/sg2_6_cif.got.tgz:10561.got - 2010.06.27 13:26:56.
