data_PCOD8019270
_publ_section_title
;
Structure prediction by ZEFSAII (Michael W. Deem and Ramdas Pophale) SiO2 
 PCOD8019270
Probable space group: P -1
;
_chemical_formula_sum "Si O2"
_cell_formula_units_Z 16
_cell_length_a 8.622945
_cell_length_b 8.762872
_cell_length_c 20.880581
_cell_angle_alpha 129.324951
_cell_angle_beta 119.577742
_cell_angle_gamma 100.270192
_cell_volume 725.482318
_symmetry_space_group_name_H-M "P -1"
_symmetry_group_IT_number 2
_symmetry_cell_setting 'triclinic'
loop_
_space_group_symop_operation_xyz
x,y,z
-x,-y,-z
loop_
_atom_site_type_symbol
_atom_site_label
_atom_site_fract_x
_atom_site_fract_y
_atom_site_fract_z
Si Si1 0.024636 0.668070 0.158163
Si Si2 0.137109 0.870338 0.611892
Si Si3 0.360425 0.574718 0.191482
Si Si4 0.153566 0.161179 0.931699
Si Si5 0.506534 0.100536 0.958567
Si Si6 0.631413 0.580011 0.709513
Si Si7 0.291534 0.234197 0.434910
Si Si8 0.304564 0.692222 0.693652
O O1 0.889092 0.678963 0.076625
O O2 0.231167 0.679552 0.175230
O O3 0.805929 0.363266 0.068624
O O4 0.180272 0.939686 0.308694
O O5 0.314309 0.850739 0.678356
O O6 0.950513 0.814904 0.613360
O O7 0.972634 0.645748 0.459278
O O8 0.337521 0.187279 0.706190
O O9 0.341202 0.526729 0.250166
O O10 0.216606 0.279658 0.048151
O O11 0.388384 0.224743 0.966934
O O12 0.904978 0.817261 0.791454
O O13 0.337377 0.826737 0.803811
O O14 0.500000 0.000000 0.000000
O O15 0.432405 0.304159 0.549498
O O16 0.540787 0.729757 0.744956
O O17 0.500000 0.500000 0.500000
#
# Coordination Sequence:
#
# PCOD8019270 Si02
#       8
#     2   2   2   2   2   2   2   2
#     4  12  25  42  67  94 130 174 220 266 318 388
#     4  10  23  41  68  94 124 171 216 269 317 383
#     4  12  25  41  65  99 132 165 222 265 328 385
#     4  12  23  42  67  90 135 174 217 265 319 389
#     4  12  25  41  65  99 135 170 213 270 326 384
#     4  11  24  42  66  95 132 175 206 276 325 376
#     4  11  24  44  68  95 132 166 224 265 321 384
#     4  10  22  41  66  92 127 166 221 252 326 383
#
# _framework density 22.054293999999999
#
# number of rings (size 3 to 8) (size 9 to 14) (size 15 to 20)
#    0.000    0.750    1.250    6.375    3.500    3.500 
#    0.000    0.000    0.000    0.000    0.000    0.000 
#    0.000    0.000    0.000    0.000    0.000    0.000 
#
# Total GULP energy -198472.007753 kJ/mol
# GULP energy per Si atom -12404.500485 kJ/mol
# Density = 2.200410 g / cm^3
# Si number density = 22.054294 Si / 1000 Ang^3
#
#
#
# Elastic Constant Matrix: (Units=GPa)
#
#
# Indices 1 2 3 4 5 6 
#
# 1 111.5807 18.6894 40.5865 1.6160 -0.5748 -1.8276
# 2 18.6894 70.8977 26.6710 0.0115 14.8433 16.8216
# 3 40.5865 26.6710 127.7380 -7.3899 -16.6019 2.7860
# 4 1.6160 0.0115 -7.3899 35.0546 8.9365 1.3226
# 5 -0.5748 14.8433 -16.6019 8.9365 42.7679 4.5998
# 6 -1.8276 16.8216 2.7860 1.3226 4.5998 30.4211
#
#
#
# Elastic Compliance Matrix: (Units=1/GPa)
#
#
# Indices 1 2 3 4 5 6 
#
# 1 0.010465 -0.002050 -0.003051 -0.001122 -0.000328 0.002140
# 2 -0.002050 0.020272 -0.004318 0.001591 -0.008018 -0.009794
# 3 -0.003051 -0.004318 0.010431 0.000985 0.005256 0.000411
# 4 -0.001122 0.001591 0.000985 0.030471 -0.006402 -0.001394
# 5 -0.000328 -0.008018 0.005256 -0.006402 0.029567 -0.000260
# 6 0.002140 -0.009794 0.000411 -0.001394 -0.000260 0.038478
#
#
# Mechanical properties :
#
#
# Convention : Reuss Voigt Hill
#
# Bulk Modulus (GPa) = 44.78324 53.56780 49.17552
# Shear Modulus (GPa) = 30.12708 36.60004 33.36356
#
# Velocity S-wave (km/s) = 3.70001 4.07817 3.89368
# Velocity P-wave (km/s) = 6.21316 6.82034 6.52382
#
# Compressibility (1/GPa) = 0.02232978
#
# Stress axis : x y z
#
# Youngs Moduli (GPa) = 95.55725 49.32986 95.87001
#
# Poissons Ratio (x) = 0.10111 0.29253
# Poissons Ratio (y) = 0.19586 0.41395
# Poissons Ratio (z) = 0.29158 0.21300
#
# Static dielectric constant tensor:
#      x y z
#    x 4.024590 -0.052110 0.041780 
#    y -0.052110 3.728360 -0.098140 
#    z 0.041780 -0.098140 4.202260 
# 
# 
# High freq. dielectric constant tensor:
#      x y z
#    x 1.873450 -0.000550 0.003130 
#    y -0.000550 1.856150 -0.004790 
#    z 0.003130 -0.004790 1.887440 
# 
# From -- ./inp_files/205717.got.cif
#   From: 2010.06.25/outbox.cif.g09.slc.cpg/sg2_103_cif.got.tgz:205717.got - 2010.06.27 13:26:56.
