data_PCOD8019198
_publ_section_title
;
Structure prediction by ZEFSAII (Michael W. Deem and Ramdas Pophale) SiO2 
 PCOD8019198
Probable space group: P -1
;
_chemical_formula_sum "Si O2"
_cell_formula_units_Z 16
_cell_length_a 7.649519
_cell_length_b 4.996415
_cell_length_c 18.845487
_cell_angle_alpha 85.950883
_cell_angle_beta 92.523385
_cell_angle_gamma 109.592294
_cell_volume 676.722994
_symmetry_space_group_name_H-M "P -1"
_symmetry_group_IT_number 2
_symmetry_cell_setting 'triclinic'
loop_
_space_group_symop_operation_xyz
x,y,z
-x,-y,-z
loop_
_atom_site_type_symbol
_atom_site_label
_atom_site_fract_x
_atom_site_fract_y
_atom_site_fract_z
Si Si1 0.691407 0.713743 0.965983
Si Si2 0.136312 0.342126 0.853894
Si Si3 0.087829 0.800235 0.946057
Si Si4 0.412466 0.884159 0.272411
Si Si5 0.717727 0.829263 0.379091
Si Si6 0.464390 0.431598 0.183140
Si Si7 0.010517 0.723561 0.298991
Si Si8 0.130261 0.605866 0.567067
O O1 0.664712 0.728893 0.881140
O O2 0.881674 0.620533 0.981250
O O3 0.500000 0.500000 0.000000
O O4 0.749237 0.027685 0.997997
O O5 0.162564 0.612489 0.899316
O O6 0.343666 0.340902 0.843401
O O7 0.037710 0.386954 0.779743
O O8 0.033118 0.041560 0.895498
O O9 0.527371 0.820914 0.340631
O O10 0.365004 0.617801 0.222141
O O11 0.225025 0.915905 0.299977
O O12 0.515965 0.192090 0.233940
O O13 0.706309 0.535697 0.423773
O O14 0.877055 0.899438 0.318860
O O15 0.773617 0.057294 0.439441
O O16 0.986392 0.469065 0.359847
O O17 0.000000 0.500000 0.500000
#
# Coordination Sequence:
#
# PCOD8019198 Si02
#       8
#     2   2   2   2   2   2   2   2
#     4  11  25  48  64  99 128 184 224 286 348 415
#     4  12  23  45  66  99 128 177 222 287 337 398
#     4  11  27  44  68  91 137 172 232 281 344 413
#     4  12  24  43  65 102 132 172 227 280 335 391
#     4  10  22  41  65  95 134 172 217 267 329 387
#     4  12  25  41  68  95 134 172 227 285 338 403
#     4  10  25  38  72  94 136 172 224 274 337 394
#     4  10  22  43  69  97 137 178 214 265 329 395
#
# _framework density 23.643355
#
# number of rings (size 3 to 8) (size 9 to 14) (size 15 to 20)
#    0.750    0.250    2.500    4.125    3.500    3.500 
#    0.000    1.250    0.000    0.000    0.000    0.000 
#    0.000    0.000    0.000    0.000    0.000    0.000 
#
# Total GULP energy -198262.813482 kJ/mol
# GULP energy per Si atom -12391.425843 kJ/mol
# Density = 2.358954 g / cm^3
# Si number density = 23.643355 Si / 1000 Ang^3
#
#
#
# Elastic Constant Matrix: (Units=GPa)
#
#
# Indices 1 2 3 4 5 6 
#
# 1 92.7201 5.3073 -3.7487 14.2524 10.6757 25.1048
# 2 5.3073 84.0869 7.8536 19.1629 -6.7124 1.2142
# 3 -3.7487 7.8536 96.6789 20.6498 22.2467 4.8469
# 4 14.2524 19.1629 20.6498 27.7944 2.4347 -0.4024
# 5 10.6757 -6.7124 22.2467 2.4347 26.0304 8.5690
# 6 25.1048 1.2142 4.8469 -0.4024 8.5690 35.6078
#
#
#
# Elastic Compliance Matrix: (Units=1/GPa)
#
#
# Indices 1 2 3 4 5 6 
#
# 1 0.016632 0.001035 0.005276 -0.012780 -0.006204 -0.011131
# 2 0.001035 0.014861 0.000220 -0.011430 0.005157 -0.002637
# 3 0.005276 0.000220 0.017042 -0.014293 -0.014435 -0.002735
# 4 -0.012780 -0.011430 -0.014293 0.060724 0.005288 0.010759
# 5 -0.006204 0.005157 -0.014435 0.005288 0.056565 -0.007390
# 6 -0.011131 -0.002637 -0.002735 0.010759 -0.007390 0.038294
#
#
# Mechanical properties :
#
#
# Convention : Reuss Voigt Hill
#
# Bulk Modulus (GPa) = 16.23446 32.47893 24.35670
# Shear Modulus (GPa) = 23.63092 35.49144 29.56118
#
# Velocity S-wave (km/s) = 3.16488 3.87863 3.53979
# Velocity P-wave (km/s) = 4.49851 5.81594 5.19912
#
# Compressibility (1/GPa) = 0.06159736
#
# Stress axis : x y z
#
# Youngs Moduli (GPa) = 60.12610 67.28936 58.67926
#
# Poissons Ratio (x) = -0.06967 -0.30959
# Poissons Ratio (y) = -0.06226 -0.01290
# Poissons Ratio (z) = -0.31722 -0.01480
#
# Static dielectric constant tensor:
#      x y z
#    x 4.165320 -0.041920 0.053320 
#    y -0.041920 4.178950 0.001810 
#    z 0.053320 0.001810 4.217700 
# 
# 
# High freq. dielectric constant tensor:
#      x y z
#    x 1.933290 -0.004640 0.009510 
#    y -0.004640 1.932860 0.008390 
#    z 0.009510 0.008390 1.935680 
# 
# From -- ./inp_files/552704.got.cif
#   From: 2010.06.25/outbox.cif.g09.slc.cpg/sg2_277_cif.got.tgz:552704.got - 2010.06.27 13:26:56.
