data_PCOD8019801
_publ_section_title
;
Structure prediction by ZEFSAII (Michael W. Deem and Ramdas Pophale) SiO2 
 PCOD8019801
Probable space group: P -1
;
_chemical_formula_sum "Si O2"
_cell_formula_units_Z 14
_cell_length_a 10.104848
_cell_length_b 16.131478
_cell_length_c 13.413497
_cell_angle_alpha 155.821144
_cell_angle_beta 44.342430
_cell_angle_gamma 136.810418
_cell_volume 603.083594
_symmetry_space_group_name_H-M "P -1"
_symmetry_group_IT_number 2
_symmetry_cell_setting 'triclinic'
loop_
_space_group_symop_operation_xyz
x,y,z
-x,-y,-z
loop_
_atom_site_type_symbol
_atom_site_label
_atom_site_fract_x
_atom_site_fract_y
_atom_site_fract_z
Si Si1 0.888576 0.275666 0.353584
Si Si2 0.457738 0.308686 0.593549
Si Si3 0.711799 0.920791 0.389819
Si Si4 0.910871 0.081818 0.936290
Si Si5 0.600165 0.336403 0.862934
Si Si6 0.993750 0.529467 0.297597
Si Si7 0.663972 0.673310 0.545668
O O1 0.654876 0.239144 0.431857
O O2 0.000000 0.500000 0.500000
O O3 0.957788 0.278391 0.435170
O O4 0.948352 0.103547 0.060402
O O5 0.279933 0.150824 0.578271
O O6 0.400917 0.291321 0.490727
O O7 0.485230 0.548822 0.877005
O O8 0.557869 0.719653 0.202223
O O9 0.915373 0.976914 0.282568
O O10 0.631036 0.123956 0.657881
O O11 0.711362 0.899130 0.823295
O O12 0.882365 0.304818 0.158566
O O13 0.803342 0.489822 0.880617
O O14 0.859285 0.589742 0.350838
O O15 0.500000 0.500000 0.500000
#
# Coordination Sequence:
#
# PCOD8019801 Si02
#       7
#     2   2   2   2   2   2   2
#     4  10  22  41  73 103 131 182 231 278 348 404
#     4  12  25  45  71  98 142 186 225 284 344 407
#     4  11  23  42  73 108 135 176 232 287 351 400
#     4  11  24  45  72 100 142 181 228 292 342 409
#     4  11  22  42  72 106 140 170 229 292 338 410
#     4  11  22  45  70 103 138 177 230 285 345 407
#     4  12  29  47  65 101 143 188 233 279 345 413
#
# _framework density 23.214029
#
# number of rings (size 3 to 8) (size 9 to 14) (size 15 to 20)
#    0.000    0.857    4.286    3.857    0.000    6.286 
#    0.000    0.000    0.000    0.000    0.000    0.000 
#    0.000    0.000    0.000    0.000    0.000    0.000 
#
# Total GULP energy -173597.268060 kJ/mol
# GULP energy per Si atom -12399.804861 kJ/mol
# Density = 2.316119 g / cm^3
# Si number density = 23.214029 Si / 1000 Ang^3
#
#
#
# Elastic Constant Matrix: (Units=GPa)
#
#
# Indices 1 2 3 4 5 6 
#
# 1 91.0631 34.6060 11.2970 -4.3986 17.1368 -3.3176
# 2 34.6060 125.3728 43.1513 0.6371 21.9266 2.1208
# 3 11.2970 43.1513 92.9149 4.6185 17.6607 2.0028
# 4 -4.3986 0.6371 4.6185 39.4735 6.0425 3.9691
# 5 17.1368 21.9266 17.6607 6.0425 31.1066 -5.7385
# 6 -3.3176 2.1208 2.0028 3.9691 -5.7385 35.4959
#
#
#
# Elastic Compliance Matrix: (Units=1/GPa)
#
#
# Indices 1 2 3 4 5 6 
#
# 1 0.013250 -0.002858 0.000767 0.002365 -0.006161 0.000105
# 2 -0.002858 0.010879 -0.003893 0.000769 -0.004307 -0.001480
# 3 0.000767 -0.003893 0.013581 -0.000461 -0.005541 -0.001306
# 4 0.002365 0.000769 -0.000461 0.027215 -0.007622 -0.004074
# 5 -0.006161 -0.004307 -0.005541 -0.007622 0.044693 0.008072
# 6 0.000105 -0.001480 -0.001306 -0.004074 0.008072 0.030105
#
#
# Mechanical properties :
#
#
# Convention : Reuss Voigt Hill
#
# Bulk Modulus (GPa) = 38.84424 54.16215 46.50320
# Shear Modulus (GPa) = 31.19736 35.90163 33.54949
#
# Velocity S-wave (km/s) = 3.66990 3.93688 3.80574
# Velocity P-wave (km/s) = 5.89296 6.63685 6.27593
#
# Compressibility (1/GPa) = 0.02574384
#
# Stress axis : x y z
#
# Youngs Moduli (GPa) = 75.47396 91.91894 73.63012
#
# Poissons Ratio (x) = 0.26268 -0.05650
# Poissons Ratio (y) = 0.21568 0.28663
# Poissons Ratio (z) = -0.05791 0.35782
#
# Static dielectric constant tensor:
#      x y z
#    x 4.147440 -0.068660 0.101840 
#    y -0.068660 4.519780 -0.049750 
#    z 0.101840 -0.049750 4.348600 
# 
# 
# High freq. dielectric constant tensor:
#      x y z
#    x 1.904340 -0.005820 -0.010940 
#    y -0.005820 1.927070 0.007660 
#    z -0.010940 0.007660 1.924260 
# 
# From -- ./inp_files/399909.got.cif
#   From: 2010.06.25/outbox.cif.g09.slc.cpg/sg2_200_cif.got.tgz:399909.got - 2010.06.27 13:26:56.
