data_PCOD8019205
_publ_section_title
;
Structure prediction by ZEFSAII (Michael W. Deem and Ramdas Pophale) SiO2 
 PCOD8019205
Probable space group: P -1
;
_chemical_formula_sum "Si O2"
_cell_formula_units_Z 16
_cell_length_a 17.962377
_cell_length_b 12.149597
_cell_length_c 8.634716
_cell_angle_alpha 40.574003
_cell_angle_beta 97.689676
_cell_angle_gamma 127.758853
_cell_volume 741.089998
_symmetry_space_group_name_H-M "P -1"
_symmetry_group_IT_number 2
_symmetry_cell_setting 'triclinic'
loop_
_space_group_symop_operation_xyz
x,y,z
-x,-y,-z
loop_
_atom_site_type_symbol
_atom_site_label
_atom_site_fract_x
_atom_site_fract_y
_atom_site_fract_z
Si Si1 0.363916 0.043097 0.160368
Si Si2 0.428465 0.706615 0.829230
Si Si3 0.031712 0.511777 0.320748
Si Si4 0.777965 0.495881 0.844735
Si Si5 0.317989 0.960150 0.885685
Si Si6 0.000412 0.939249 0.239135
Si Si7 0.126954 0.471030 0.864440
Si Si8 0.533088 0.478083 0.197179
O O1 0.495202 0.252604 0.058811
O O2 0.254993 0.746570 0.525246
O O3 0.370360 0.012810 0.014064
O O4 0.354971 0.230410 0.988518
O O5 0.413771 0.604431 0.760808
O O6 0.500000 0.000000 0.500000
O O7 0.292113 0.489261 0.090332
O O8 0.979141 0.229330 0.565926
O O9 0.000000 0.500000 0.500000
O O10 0.971267 0.553251 0.158127
O O11 0.178847 0.783381 0.046813
O O12 0.868249 0.748017 0.480398
O O13 0.855634 0.512714 0.963792
O O14 0.679888 0.209927 0.027977
O O15 0.410631 0.250948 0.512940
O O16 0.000000 0.000000 0.000000
O O17 0.094772 0.226773 0.051062
O O18 0.500000 0.500000 0.000000
#
# Coordination Sequence:
#
# PCOD8019205 Si02
#       8
#     2   2   2   2   2   2   2   2
#     4  11  23  40  68  96 134 174 218 279 335 395
#     4  11  21  44  66  93 130 172 218 271 335 394
#     4  11  23  44  70  99 133 178 220 279 344 394
#     4  11  24  43  69  98 137 178 223 279 334 401
#     4  11  22  42  66  96 135 170 221 279 331 399
#     4  11  24  44  69 101 138 176 226 283 334 401
#     4  12  23  44  68  99 140 177 226 277 336 403
#     4  10  22  41  65  96 133 173 220 275 331 402
#
# _framework density 21.589818999999999
#
# number of rings (size 3 to 8) (size 9 to 14) (size 15 to 20)
#    0.000    1.000    5.000    2.250    0.000    5.500 
#    0.000    0.000    0.000    0.000    0.000    0.000 
#    0.000    0.000    0.000    0.000    0.000    0.000 
#
# Total GULP energy -198238.741625 kJ/mol
# GULP energy per Si atom -12389.921352 kJ/mol
# Density = 2.154068 g / cm^3
# Si number density = 21.589819 Si / 1000 Ang^3
#
#
#
# Elastic Constant Matrix: (Units=GPa)
#
#
# Indices 1 2 3 4 5 6 
#
# 1 104.3369 31.0294 35.3523 -4.1170 -5.1964 -12.9841
# 2 31.0294 137.5248 48.5955 -0.7918 11.3168 -17.4152
# 3 35.3523 48.5955 153.7521 -1.4640 -9.6633 -20.2380
# 4 -4.1170 -0.7918 -1.4640 47.0360 -13.9617 9.4413
# 5 -5.1964 11.3168 -9.6633 -13.9617 38.6625 -3.0939
# 6 -12.9841 -17.4152 -20.2380 9.4413 -3.0939 39.7120
#
#
#
# Elastic Compliance Matrix: (Units=1/GPa)
#
#
# Indices 1 2 3 4 5 6 
#
# 1 0.011062 -0.001886 -0.001547 0.001168 0.002226 0.001897
# 2 -0.001886 0.009160 -0.002431 -0.001723 -0.003983 0.002261
# 3 -0.001547 -0.002431 0.008173 0.000394 0.002907 0.002726
# 4 0.001168 -0.001723 0.000394 0.025239 0.009439 -0.005438
# 5 0.002226 -0.003983 0.002907 0.009439 0.031519 0.000674
# 6 0.001897 0.002261 0.002726 -0.005438 0.000674 0.029528
#
#
# Mechanical properties :
#
#
# Convention : Reuss Voigt Hill
#
# Bulk Modulus (GPa) = 59.99084 69.50757 64.74920
# Shear Modulus (GPa) = 37.88915 43.79121 40.84018
#
# Velocity S-wave (km/s) = 4.19376 4.50858 4.35402
# Velocity P-wave (km/s) = 7.16220 7.70503 7.43857
#
# Compressibility (1/GPa) = 0.01666921
#
# Stress axis : x y z
#
# Youngs Moduli (GPa) = 90.39740 109.17112 122.35087
#
# Poissons Ratio (x) = 0.20584 0.18926
# Poissons Ratio (y) = 0.17045 0.29740
# Poissons Ratio (z) = 0.13983 0.26537
#
# Static dielectric constant tensor:
#      x y z
#    x 4.941180 -0.898350 0.282870 
#    y -0.898350 4.637580 -0.058270 
#    z 0.282870 -0.058270 4.257680 
# 
# 
# High freq. dielectric constant tensor:
#      x y z
#    x 1.835810 -0.024940 0.000580 
#    y -0.024940 1.857230 -0.000560 
#    z 0.000580 -0.000560 1.863510 
# 
# From -- ./inp_files/332742.got.cif
#   From: 2010.06.25/outbox.cif.g09.slc.cpg/sg2_167_cif.got.tgz:332742.got - 2010.06.27 13:26:56.
