data_PCOD8019469
_publ_section_title
;
Structure prediction by ZEFSAII (Michael W. Deem and Ramdas Pophale) SiO2 
 PCOD8019469
Probable space group: P -1
;
_chemical_formula_sum "Si O2"
_cell_formula_units_Z 16
_cell_length_a 9.285083
_cell_length_b 20.268881
_cell_length_c 18.010577
_cell_angle_alpha 160.735897
_cell_angle_beta 142.827216
_cell_angle_gamma 36.048930
_cell_volume 648.175253
_symmetry_space_group_name_H-M "P -1"
_symmetry_group_IT_number 2
_symmetry_cell_setting 'triclinic'
loop_
_space_group_symop_operation_xyz
x,y,z
-x,-y,-z
loop_
_atom_site_type_symbol
_atom_site_label
_atom_site_fract_x
_atom_site_fract_y
_atom_site_fract_z
Si Si1 0.706822 0.746113 0.021857
Si Si2 0.104355 0.768273 0.688502
Si Si3 0.601590 0.192246 0.767020
Si Si4 0.415798 0.179068 0.424543
Si Si5 0.722523 0.383256 0.868965
Si Si6 0.424181 0.225475 0.171415
Si Si7 0.669304 0.465440 0.323854
Si Si8 0.010195 0.790650 0.938922
O O1 0.985702 0.683629 0.097255
O O2 0.536894 0.936559 0.202722
O O3 0.675996 0.790470 0.969068
O O4 0.607027 0.550523 0.793977
O O5 0.337130 0.671006 0.622248
O O6 0.153251 0.657760 0.670362
O O7 0.815171 0.784176 0.571688
O O8 0.121840 0.008719 0.953739
O O9 0.668659 0.286303 0.819662
O O10 0.853951 0.123711 0.846619
O O11 0.500000 0.000000 0.500000
O O12 0.386667 0.366101 0.906911
O O13 0.611903 0.285817 0.652032
O O14 0.341175 0.290553 0.430672
O O15 0.183796 0.337328 0.243791
O O16 0.500000 0.000000 0.000000
O O17 0.782329 0.377517 0.197730
#
# Coordination Sequence:
#
# PCOD8019469 Si02
#       8
#     2   2   2   2   2   2   2   2
#     4  11  24  44  68  99 139 184 230 283 338 403
#     4  10  22  41  67  99 136 181 229 281 341 407
#     4  11  24  43  73  99 136 180 226 282 352 407
#     4  12  24  41  69  99 141 186 230 274 346 403
#     4  11  25  45  66 103 139 178 230 287 332 415
#     4   9  21  39  71  95 132 179 227 282 338 397
#     4  11  24  41  68  99 138 181 228 286 335 411
#     4  11  19  43  70  97 132 182 221 283 354 395
#
# _framework density 24.684683
#
# number of rings (size 3 to 8) (size 9 to 14) (size 15 to 20)
#    0.000    1.250    3.750    1.875    3.500    1.500 
#    0.000    0.625    5.500    0.000    0.000    0.000 
#    0.000    0.000    0.000    0.000    0.000    0.000 
#
# Total GULP energy -198217.444678 kJ/mol
# GULP energy per Si atom -12388.590292 kJ/mol
# Density = 2.462850 g / cm^3
# Si number density = 24.684683 Si / 1000 Ang^3
#
#
#
# Elastic Constant Matrix: (Units=GPa)
#
#
# Indices 1 2 3 4 5 6 
#
# 1 134.7132 53.3450 24.2797 -10.2036 22.0162 -27.4204
# 2 53.3450 94.5879 13.4208 -1.4995 17.5027 -22.5363
# 3 24.2797 13.4208 58.9581 -8.4911 15.4590 -9.9257
# 4 -10.2036 -1.4995 -8.4911 28.7142 -8.3546 9.7642
# 5 22.0162 17.5027 15.4590 -8.3546 40.6551 -5.1027
# 6 -27.4204 -22.5363 -9.9257 9.7642 -5.1027 49.2798
#
#
#
# Elastic Compliance Matrix: (Units=1/GPa)
#
#
# Indices 1 2 3 4 5 6 
#
# 1 0.010692 -0.004569 -0.002054 0.001248 -0.002416 0.002949
# 2 -0.004569 0.014959 -0.000216 -0.003636 -0.004059 0.004555
# 3 -0.002054 -0.000216 0.020027 0.003005 -0.005590 0.001618
# 4 0.001248 -0.003636 0.003005 0.040656 0.007138 -0.007680
# 5 -0.002416 -0.004059 -0.005590 0.007138 0.030926 -0.002538
# 6 0.002949 0.004555 0.001618 -0.007680 -0.002538 0.025601
#
#
# Mechanical properties :
#
#
# Convention : Reuss Voigt Hill
#
# Bulk Modulus (GPa) = 31.25025 52.26115 41.75570
# Shear Modulus (GPa) = 29.90334 36.87742 33.39038
#
# Velocity S-wave (km/s) = 3.48431 3.86934 3.68186
# Velocity P-wave (km/s) = 5.37350 6.41716 5.91838
#
# Compressibility (1/GPa) = 0.03199975
#
# Stress axis : x y z
#
# Youngs Moduli (GPa) = 93.52569 66.85161 49.93318
#
# Poissons Ratio (x) = 0.30547 0.10254
# Poissons Ratio (y) = 0.42736 0.01078
# Poissons Ratio (z) = 0.19206 0.01443
#
# Static dielectric constant tensor:
#      x y z
#    x 5.129950 -0.462190 0.738850 
#    y -0.462190 5.092830 -0.590690 
#    z 0.738850 -0.590690 5.500240 
# 
# 
# High freq. dielectric constant tensor:
#      x y z
#    x 2.001820 -0.003250 0.024660 
#    y -0.003250 1.993980 0.009890 
#    z 0.024660 0.009890 1.967520 
# 
# From -- ./inp_files/563002.got.cif
#   From: 2010.06.25/outbox.cif.g09.slc.cpg/sg2_282_cif.got.tgz:563002.got - 2010.06.27 13:26:56.
