data_PCOD8019482
_publ_section_title
;
Structure prediction by ZEFSAII (Michael W. Deem and Ramdas Pophale) SiO2 
 PCOD8019482
Probable space group: P -1
;
_chemical_formula_sum "Si O2"
_cell_formula_units_Z 16
_cell_length_a 9.414941
_cell_length_b 12.210605
_cell_length_c 15.035979
_cell_angle_alpha 27.855616
_cell_angle_beta 94.375095
_cell_angle_gamma 107.404694
_cell_volume 698.682018
_symmetry_space_group_name_H-M "P -1"
_symmetry_group_IT_number 2
_symmetry_cell_setting 'triclinic'
loop_
_space_group_symop_operation_xyz
x,y,z
-x,-y,-z
loop_
_atom_site_type_symbol
_atom_site_label
_atom_site_fract_x
_atom_site_fract_y
_atom_site_fract_z
Si Si1 0.888784 0.281160 0.914636
Si Si2 0.050155 0.403111 0.484275
Si Si3 0.206098 0.990446 0.376200
Si Si4 0.228195 0.421816 0.184147
Si Si5 0.445318 0.292734 0.413792
Si Si6 0.234693 0.500298 0.798768
Si Si7 0.667629 0.730457 0.380071
Si Si8 0.579120 0.253496 0.200292
O O1 0.884384 0.358146 0.756990
O O2 0.895659 0.516586 0.810349
O O3 0.049450 0.245995 0.966157
O O4 0.727183 0.998185 0.131259
O O5 0.198744 0.361591 0.549178
O O6 0.000000 0.500000 0.500000
O O7 0.897672 0.125630 0.636634
O O8 0.131074 0.141405 0.324414
O O9 0.397420 0.217610 0.205069
O O10 0.198195 0.744521 0.606210
O O11 0.352985 0.406352 0.269774
O O12 0.329955 0.670650 0.943889
O O13 0.643040 0.507286 0.265565
O O14 0.368203 0.215556 0.561593
O O15 0.431756 0.021646 0.565686
O O16 0.315185 0.515281 0.888009
O O17 0.500000 0.500000 0.500000
#
# Coordination Sequence:
#
# PCOD8019482 Si02
#       8
#     2   2   2   2   2   2   2   2
#     4  11  27  47  71 110 139 182 238 294 362 418
#     4  11  28  50  73 103 144 187 240 297 345 413
#     4  10  22  41  69 106 148 183 227 287 353 419
#     4  12  22  39  71 106 143 183 228 283 362 420
#     4  11  22  45  67 101 143 186 229 291 345 422
#     4  10  22  41  68 102 149 181 226 283 353 422
#     4  12  29  51  73 100 137 191 242 297 354 411
#     4  11  21  38  67 105 147 184 229 274 353 431
#
# _framework density 22.900259999999999
#
# number of rings (size 3 to 8) (size 9 to 14) (size 15 to 20)
#    0.000    1.000    5.000    1.125    7.000    4.500 
#    2.250    0.000    0.000    0.000    0.000    0.000 
#    0.000    0.000    0.000    0.000    0.000    0.000 
#
# Total GULP energy -198375.788164 kJ/mol
# GULP energy per Si atom -12398.486760 kJ/mol
# Density = 2.284814 g / cm^3
# Si number density = 22.900260 Si / 1000 Ang^3
#
#
#
# Elastic Constant Matrix: (Units=GPa)
#
#
# Indices 1 2 3 4 5 6 
#
# 1 132.1180 60.5066 34.3491 1.5934 -3.2837 -5.9555
# 2 60.5066 121.3971 38.8373 1.0776 -6.6866 -7.6296
# 3 34.3491 38.8373 71.5389 10.5554 -12.4893 2.7590
# 4 1.5934 1.0776 10.5554 37.0417 1.1603 -9.9254
# 5 -3.2837 -6.6866 -12.4893 1.1603 31.7326 6.4342
# 6 -5.9555 -7.6296 2.7590 -9.9254 6.4342 45.9366
#
#
#
# Elastic Compliance Matrix: (Units=1/GPa)
#
#
# Indices 1 2 3 4 5 6 
#
# 1 0.010281 -0.004135 -0.003104 0.000930 -0.001310 0.001217
# 2 -0.004135 0.011980 -0.004937 0.001836 -0.000359 0.002197
# 3 -0.003104 -0.004937 0.020855 -0.007315 0.008168 -0.005200
# 4 0.000930 0.001836 -0.007315 0.031398 -0.005244 0.008383
# 5 -0.001310 -0.000359 0.008168 -0.005244 0.036110 -0.006911
# 6 0.001217 0.002197 -0.005200 0.008383 -0.006911 0.025384
#
#
# Mechanical properties :
#
#
# Convention : Reuss Voigt Hill
#
# Bulk Modulus (GPa) = 53.29457 65.82668 59.56062
# Shear Modulus (GPa) = 30.00962 35.69956 32.85459
#
# Velocity S-wave (km/s) = 3.62394 3.95259 3.79183
# Velocity P-wave (km/s) = 6.39012 7.04542 6.72576
#
# Compressibility (1/GPa) = 0.01876364
#
# Stress axis : x y z
#
# Youngs Moduli (GPa) = 97.26800 83.47470 47.95078
#
# Poissons Ratio (x) = 0.34517 0.14885
# Poissons Ratio (y) = 0.40220 0.23671
# Poissons Ratio (z) = 0.30195 0.41207
#
# Static dielectric constant tensor:
#      x y z
#    x 4.309810 0.202530 -0.018850 
#    y 0.202530 3.826270 -0.109260 
#    z -0.018850 -0.109260 3.939080 
# 
# 
# High freq. dielectric constant tensor:
#      x y z
#    x 1.918410 -0.003610 -0.004630 
#    y -0.003610 1.882880 0.017830 
#    z -0.004630 0.017830 1.912920 
# 
# From -- ./inp_files/499757.got.cif
#   From: 2010.06.25/outbox.cif.g09.slc.cpg/sg2_250_cif.got.tgz:499757.got - 2010.06.27 13:26:56.
