data_PCOD8019229
_publ_section_title
;
Structure prediction by ZEFSAII (Michael W. Deem and Ramdas Pophale) SiO2 
 PCOD8019229
Probable space group: P -1
;
_chemical_formula_sum "Si O2"
_cell_formula_units_Z 16
_cell_length_a 15.687038
_cell_length_b 8.883348
_cell_length_c 12.149797
_cell_angle_alpha 110.619338
_cell_angle_beta 145.721528
_cell_angle_gamma 50.050562
_cell_volume 665.692839
_symmetry_space_group_name_H-M "P -1"
_symmetry_group_IT_number 2
_symmetry_cell_setting 'triclinic'
loop_
_space_group_symop_operation_xyz
x,y,z
-x,-y,-z
loop_
_atom_site_type_symbol
_atom_site_label
_atom_site_fract_x
_atom_site_fract_y
_atom_site_fract_z
Si Si1 0.371343 0.348347 0.007233
Si Si2 0.018890 0.393046 0.721212
Si Si3 0.939976 0.117046 0.580727
Si Si4 0.270127 0.958355 0.523943
Si Si5 0.187378 0.309720 0.225753
Si Si6 0.499413 0.589416 0.229221
Si Si7 0.683239 0.706323 0.307054
Si Si8 0.616809 0.141294 0.617709
O O1 0.378114 0.246129 0.873815
O O2 0.200069 0.392157 0.913318
O O3 0.576187 0.186877 0.251190
O O4 0.345907 0.558342 0.011870
O O5 0.094407 0.159802 0.778131
O O6 0.841418 0.583007 0.660886
O O7 0.902702 0.463381 0.496521
O O8 0.938758 0.978641 0.637998
O O9 0.724078 0.359418 0.413484
O O10 0.000000 0.000000 0.500000
O O11 0.314561 0.841359 0.424225
O O12 0.270777 0.148774 0.558571
O O13 0.402519 0.208470 0.379071
O O14 0.207545 0.103110 0.211328
O O15 0.000000 0.500000 0.000000
O O16 0.502553 0.741751 0.189920
O O17 0.414818 0.693418 0.286723
#
# Coordination Sequence:
#
# PCOD8019229 Si02
#       8
#     2   2   2   2   2   2   2   2
#     4  11  24  38  66 103 137 183 239 288 343 435
#     4  11  22  44  62  98 138 180 232 289 363 410
#     4  10  22  41  65  98 137 183 233 285 352 419
#     4  11  23  41  70 103 133 186 235 284 363 418
#     4  11  22  42  73 107 139 185 240 290 356 430
#     4  10  23  44  69 100 138 195 230 287 365 418
#     4  11  20  42  66  94 138 179 232 287 351 424
#     4  11  21  46  74 100 150 185 232 298 360 424
#
# _framework density 24.035108000000001
#
# number of rings (size 3 to 8) (size 9 to 14) (size 15 to 20)
#    0.000    1.250    3.750    3.375    0.000    4.000 
#    2.250    5.625    0.000    0.000    0.000    0.000 
#    0.000    0.000    0.000    0.000    0.000    0.000 
#
# Total GULP energy -198221.075585 kJ/mol
# GULP energy per Si atom -12388.817224 kJ/mol
# Density = 2.398040 g / cm^3
# Si number density = 24.035108 Si / 1000 Ang^3
#
#
#
# Elastic Constant Matrix: (Units=GPa)
#
#
# Indices 1 2 3 4 5 6 
#
# 1 145.3931 49.5588 17.1844 26.7304 10.6487 19.7319
# 2 49.5588 120.3339 19.7953 24.3371 8.4978 2.5030
# 3 17.1844 19.7953 64.6659 -6.1759 -9.8862 10.6863
# 4 26.7304 24.3371 -6.1759 33.8540 10.5848 -0.7216
# 5 10.6487 8.4978 -9.8862 10.5848 39.6309 20.6030
# 6 19.7319 2.5030 10.6863 -0.7216 20.6030 47.7035
#
#
#
# Elastic Compliance Matrix: (Units=1/GPa)
#
#
# Indices 1 2 3 4 5 6 
#
# 1 0.009557 -0.002351 -0.001515 -0.006715 0.001572 -0.004271
# 2 -0.002351 0.011356 -0.004173 -0.006298 -0.002314 0.002215
# 3 -0.001515 -0.004173 0.020207 0.004943 0.008894 -0.007447
# 4 -0.006715 -0.006298 0.004943 0.043953 -0.011267 0.007532
# 5 0.001572 -0.002314 0.008894 -0.011267 0.041180 -0.020477
# 6 -0.004271 0.002215 -0.007447 0.007532 -0.020477 0.033240
#
#
# Mechanical properties :
#
#
# Convention : Reuss Voigt Hill
#
# Bulk Modulus (GPa) = 39.93323 55.94111 47.93717
# Shear Modulus (GPa) = 27.18596 40.49465 33.84031
#
# Velocity S-wave (km/s) = 3.36682 4.10910 3.75634
# Velocity P-wave (km/s) = 5.63601 6.77039 6.22908
#
# Compressibility (1/GPa) = 0.02504180
#
# Stress axis : x y z
#
# Youngs Moduli (GPa) = 104.63056 88.05978 49.48847
#
# Poissons Ratio (x) = 0.20702 0.07499
# Poissons Ratio (y) = 0.24598 0.20651
# Poissons Ratio (z) = 0.15855 0.36746
#
# Static dielectric constant tensor:
#      x y z
#    x 5.048130 0.642140 0.360420 
#    y 0.642140 4.799380 0.376380 
#    z 0.360420 0.376380 4.109580 
# 
# 
# High freq. dielectric constant tensor:
#      x y z
#    x 1.969420 0.010760 0.004070 
#    y 0.010760 1.955980 0.011670 
#    z 0.004070 0.011670 1.928140 
# 
# From -- ./inp_files/447918.got.cif
#   From: 2010.06.25/outbox.cif.g09.slc.cpg/sg2_224_cif.got.tgz:447918.got - 2010.06.27 13:26:56.
