data_PCOD8019929
_publ_section_title
;
Structure prediction by ZEFSAII (Michael W. Deem and Ramdas Pophale) SiO2 
 PCOD8019929
Probable space group: P -1
;
_chemical_formula_sum "Si O2"
_cell_formula_units_Z 14
_cell_length_a 20.260617
_cell_length_b 16.902330
_cell_length_c 8.692832
_cell_angle_alpha 132.480793
_cell_angle_beta 39.543529
_cell_angle_gamma 160.291625
_cell_volume 621.125446
_symmetry_space_group_name_H-M "P -1"
_symmetry_group_IT_number 2
_symmetry_cell_setting 'triclinic'
loop_
_space_group_symop_operation_xyz
x,y,z
-x,-y,-z
loop_
_atom_site_type_symbol
_atom_site_label
_atom_site_fract_x
_atom_site_fract_y
_atom_site_fract_z
Si Si1 0.544545 0.845153 0.947319
Si Si2 0.748795 0.260987 0.212821
Si Si3 0.489675 0.529363 0.310715
Si Si4 0.125958 0.469473 0.414591
Si Si5 0.794593 0.869567 0.487426
Si Si6 0.265380 0.398183 0.258661
Si Si7 0.585640 0.972874 0.727502
O O1 0.280204 0.584591 0.139986
O O2 0.658181 0.055544 0.096706
O O3 0.699709 0.887212 0.769640
O O4 0.537433 0.837095 0.762956
O O5 0.779458 0.329566 0.423149
O O6 0.569396 0.179205 0.347116
O O7 0.000000 0.500000 0.000000
O O8 0.688863 0.762150 0.365606
O O9 0.270478 0.292800 0.502783
O O10 0.420457 0.555332 0.341875
O O11 0.583090 0.509856 0.030732
O O12 0.150047 0.402564 0.418007
O O13 0.858164 0.230585 0.530424
O O14 0.070146 0.130931 0.310416
O O15 0.500000 0.000000 0.000000
#
# Coordination Sequence:
#
# PCOD8019929 Si02
#       7
#     2   2   2   2   2   2   2
#     4  11  23  41  63  92 130 163 211 256 306 382
#     4  11  22  43  65  91 125 166 206 258 313 367
#     4  10  24  40  66  91 123 165 210 258 314 364
#     4  12  23  41  64  93 131 165 208 257 312 373
#     4  11  21  43  63  91 124 166 206 257 318 361
#     4  11  22  41  65  93 126 161 209 262 303 373
#     4  10  22  42  63  88 124 168 202 259 306 369
#
# _framework density 22.539729999999999
#
# number of rings (size 3 to 8) (size 9 to 14) (size 15 to 20)
#    0.000    1.143    5.714    1.286    2.000    2.286 
#    2.571    0.000    0.000    0.000    0.000    0.000 
#    0.000    0.000    0.000    0.000    0.000    0.000 
#
# Total GULP energy -173566.777156 kJ/mol
# GULP energy per Si atom -12397.626940 kJ/mol
# Density = 2.248843 g / cm^3
# Si number density = 22.539730 Si / 1000 Ang^3
#
#
#
# Elastic Constant Matrix: (Units=GPa)
#
#
# Indices 1 2 3 4 5 6 
#
# 1 71.9723 34.9875 21.8747 -3.9415 -5.6958 11.3479
# 2 34.9875 65.7617 24.6377 -19.7439 10.9463 20.1538
# 3 21.8747 24.6377 62.9450 -19.9455 14.7766 8.6957
# 4 -3.9415 -19.7439 -19.9455 41.0309 -2.4892 -1.1224
# 5 -5.6958 10.9463 14.7766 -2.4892 33.3987 -1.6315
# 6 11.3479 20.1538 8.6957 -1.1224 -1.6315 30.6131
#
#
#
# Elastic Compliance Matrix: (Units=1/GPa)
#
#
# Indices 1 2 3 4 5 6 
#
# 1 0.023737 -0.015247 -0.008333 -0.008252 0.012310 0.003959
# 2 -0.015247 0.035089 0.002422 0.015189 -0.014938 -0.018376
# 3 -0.008333 0.002422 0.025414 0.011774 -0.012873 -0.005979
# 4 -0.008252 0.015189 0.011774 0.035783 -0.009391 -0.009473
# 5 0.012310 -0.014938 -0.012873 -0.009391 0.042462 0.010846
# 6 0.003959 -0.018376 -0.005979 -0.009473 0.010846 0.045225
#
#
# Mechanical properties :
#
#
# Convention : Reuss Voigt Hill
#
# Bulk Modulus (GPa) = 23.85230 40.40877 32.13053
# Shear Modulus (GPa) = 18.93949 28.95382 23.94665
#
# Velocity S-wave (km/s) = 2.90189 3.58798 3.26301
# Velocity P-wave (km/s) = 4.67261 5.92718 5.33689
#
# Compressibility (1/GPa) = 0.04192468
#
# Stress axis : x y z
#
# Youngs Moduli (GPa) = 42.12866 28.49890 39.34908
#
# Poissons Ratio (x) = 0.43452 0.32789
# Poissons Ratio (y) = 0.64233 -0.09532
# Poissons Ratio (z) = 0.35105 -0.06904
#
# Static dielectric constant tensor:
#      x y z
#    x 4.609390 0.178880 0.004200 
#    y 0.178880 4.086050 -0.028240 
#    z 0.004200 -0.028240 4.027580 
# 
# 
# High freq. dielectric constant tensor:
#      x y z
#    x 1.885180 -0.000130 0.002070 
#    y -0.000130 1.880550 -0.010850 
#    z 0.002070 -0.010850 1.890850 
# 
# From -- ./inp_files/314945.got.cif
#   From: 2010.06.25/outbox.cif.g09.slc.cpg/sg2_158_cif.got.tgz:314945.got - 2010.06.27 13:26:56.
