data_PCOD8019657
_publ_section_title
;
Structure prediction by ZEFSAII (Michael W. Deem and Ramdas Pophale) SiO2 
 PCOD8019657
Probable space group: P -1
;
_chemical_formula_sum "Si O2"
_cell_formula_units_Z 16
_cell_length_a 13.246314
_cell_length_b 8.230636
_cell_length_c 8.795315
_cell_angle_alpha 69.906417
_cell_angle_beta 125.779196
_cell_angle_gamma 98.299963
_cell_volume 728.580832
_symmetry_space_group_name_H-M "P -1"
_symmetry_group_IT_number 2
_symmetry_cell_setting 'triclinic'
loop_
_space_group_symop_operation_xyz
x,y,z
-x,-y,-z
loop_
_atom_site_type_symbol
_atom_site_label
_atom_site_fract_x
_atom_site_fract_y
_atom_site_fract_z
Si Si1 0.471618 0.629748 0.798938
Si Si2 0.230773 0.052574 0.433529
Si Si3 0.257013 0.894939 0.051024
Si Si4 0.021944 0.472249 0.849527
Si Si5 0.386189 0.915220 0.860505
Si Si6 0.281760 0.240274 0.130767
Si Si7 0.982275 0.145664 0.307268
Si Si8 0.766936 0.306051 0.607474
O O1 0.427211 0.807768 0.782923
O O2 0.602505 0.640192 0.822598
O O3 0.355709 0.580202 0.604992
O O4 0.500000 0.500000 0.000000
O O5 0.307966 0.152107 0.346152
O O6 0.101665 0.163577 0.302274
O O7 0.289374 0.058226 0.652740
O O8 0.202477 0.860686 0.416876
O O9 0.277573 0.751403 0.246320
O O10 0.296512 0.085428 0.069651
O O11 0.325149 0.821052 0.979856
O O12 0.112624 0.919634 0.877605
O O13 0.050461 0.654355 0.731783
O O14 0.893272 0.406627 0.688323
O O15 0.145388 0.343671 0.965421
O O16 0.000000 0.500000 0.000000
O O17 0.500000 0.000000 0.000000
O O18 0.000000 0.000000 0.500000
#
# Coordination Sequence:
#
# PCOD8019657 Si02
#       8
#     2   2   2   2   2   2   2   2
#     4  11  27  45  65  98 145 179 227 286 351 401
#     4  10  22  41  69  97 137 175 228 275 348 406
#     4  11  22  41  72  98 133 178 232 275 347 405
#     4  12  24  43  70 102 138 171 235 286 338 402
#     4  11  23  41  66  97 136 178 227 279 335 415
#     4  11  24  44  70 100 135 181 227 287 338 413
#     4  12  24  41  68 101 134 176 225 283 340 406
#     4  10  24  44  71 100 135 184 226 284 340 412
#
# _framework density 21.9605
#
# number of rings (size 3 to 8) (size 9 to 14) (size 15 to 20)
#    0.000    1.000    5.000    0.750    3.500    5.500 
#    0.000    3.125    0.000    0.000    0.000    0.000 
#    0.000    0.000    0.000    0.000    0.000    0.000 
#
# Total GULP energy -198225.053977 kJ/mol
# GULP energy per Si atom -12389.065874 kJ/mol
# Density = 2.191052 g / cm^3
# Si number density = 21.960500 Si / 1000 Ang^3
#
#
#
# Elastic Constant Matrix: (Units=GPa)
#
#
# Indices 1 2 3 4 5 6 
#
# 1 115.7604 17.3383 49.9648 5.7511 10.0889 8.1840
# 2 17.3383 64.6068 35.9854 -7.5367 -0.5801 14.5276
# 3 49.9648 35.9854 165.2924 5.3310 6.2501 17.6375
# 4 5.7511 -7.5367 5.3310 37.0095 8.2106 -1.1437
# 5 10.0889 -0.5801 6.2501 8.2106 41.6003 4.7016
# 6 8.1840 14.5276 17.6375 -1.1437 4.7016 25.3861
#
#
#
# Elastic Compliance Matrix: (Units=1/GPa)
#
#
# Indices 1 2 3 4 5 6 
#
# 1 0.010225 -0.001315 -0.002657 -0.001078 -0.001840 -0.000405
# 2 -0.001315 0.020128 -0.003218 0.004213 0.001258 -0.008902
# 3 -0.002657 -0.003218 0.007906 -0.001476 0.000027 -0.002866
# 4 -0.001078 0.004213 -0.001476 0.029502 -0.005427 0.001297
# 5 -0.001840 0.001258 0.000027 -0.005427 0.026161 -0.005235
# 6 -0.000405 -0.008902 -0.002866 0.001297 -0.005235 0.047636
#
#
# Mechanical properties :
#
#
# Convention : Reuss Voigt Hill
#
# Bulk Modulus (GPa) = 41.87835 61.35964 51.61900
# Shear Modulus (GPa) = 30.50680 36.95725 33.73203
#
# Velocity S-wave (km/s) = 3.73120 4.10676 3.92348
# Velocity P-wave (km/s) = 6.13789 7.10555 6.63937
#
# Compressibility (1/GPa) = 0.02387868
#
# Stress axis : x y z
#
# Youngs Moduli (GPa) = 97.80046 49.68186 126.48630
#
# Poissons Ratio (x) = 0.06535 0.33605
# Poissons Ratio (y) = 0.12864 0.40703
# Poissons Ratio (z) = 0.25984 0.15988
#
# Static dielectric constant tensor:
#      x y z
#    x 3.563900 0.085590 0.239100 
#    y 0.085590 3.811260 0.070840 
#    z 0.239100 0.070840 3.667030 
# 
# 
# High freq. dielectric constant tensor:
#      x y z
#    x 1.871910 0.006940 0.006080 
#    y 0.006940 1.845660 0.000290 
#    z 0.006080 0.000290 1.881410 
# 
# From -- ./inp_files/298003.got.cif
#   From: 2010.06.25/outbox.cif.g09.slc.cpg/sg2_150_cif.got.tgz:298003.got - 2010.06.27 13:26:56.
