data_PCOD8019762
_publ_section_title
;
Structure prediction by ZEFSAII (Michael W. Deem and Ramdas Pophale) SiO2 
 PCOD8019762
Probable space group: P -1
;
_chemical_formula_sum "Si O2"
_cell_formula_units_Z 12
_cell_length_a 7.683053
_cell_length_b 8.572710
_cell_length_c 7.451500
_cell_angle_alpha 75.367454
_cell_angle_beta 83.246356
_cell_angle_gamma 100.729290
_cell_volume 459.520276
_symmetry_space_group_name_H-M "P -1"
_symmetry_group_IT_number 2
_symmetry_cell_setting 'triclinic'
loop_
_space_group_symop_operation_xyz
x,y,z
-x,-y,-z
loop_
_atom_site_type_symbol
_atom_site_label
_atom_site_fract_x
_atom_site_fract_y
_atom_site_fract_z
Si Si1 0.022801 0.849619 0.918346
Si Si2 0.167927 0.658331 0.476063
Si Si3 0.370215 0.587639 0.149761
Si Si4 0.295090 0.965674 0.592520
Si Si5 0.257855 0.451559 0.842213
Si Si6 0.831560 0.739853 0.611465
O O1 0.923825 0.846706 0.738460
O O2 0.235593 0.882410 0.821690
O O3 0.938715 0.673595 0.075167
O O4 0.000000 0.000000 0.000000
O O5 0.256146 0.683143 0.261212
O O6 0.192310 0.846129 0.486449
O O7 0.263036 0.549211 0.627230
O O8 0.946735 0.615566 0.530701
O O9 0.585186 0.653825 0.134754
O O10 0.341506 0.392712 0.260514
O O11 0.296186 0.590775 0.954908
O O12 0.500000 0.000000 0.500000
O O13 0.231144 0.138909 0.556015
#
# Coordination Sequence:
#
# PCOD8019762 Si02
#       6
#     2   2   2   2   2   2
#     4  10  23  41  66  97 136 179 209 281 338 389
#     4  11  22  41  69  99 132 186 218 277 343 393
#     4  10  22  41  71  98 134 177 223 286 328 396
#     4  11  25  45  68  96 136 176 227 274 338 412
#     4  10  23  42  66 104 137 167 237 276 331 403
#     4  10  23  46  63  98 135 169 230 272 334 409
#
# _framework density 26.114187999999999
#
# number of rings (size 3 to 8) (size 9 to 14) (size 15 to 20)
#    0.000    1.667    0.000    4.000    4.667    6.000 
#   15.000    0.833    0.000    0.000    0.000    0.000 
#    0.000    0.000    0.000    0.000    0.000    0.000 
#
# Total GULP energy -148672.398805 kJ/mol
# GULP energy per Si atom -12389.366567 kJ/mol
# Density = 2.605475 g / cm^3
# Si number density = 26.114188 Si / 1000 Ang^3
#
#
#
# Elastic Constant Matrix: (Units=GPa)
#
#
# Indices 1 2 3 4 5 6 
#
# 1 91.8193 17.0957 33.7761 9.3183 -27.8342 -11.0643
# 2 17.0957 72.2568 25.8791 28.5054 -4.0301 -16.9470
# 3 33.7761 25.8791 88.4160 36.9102 -28.0169 0.1140
# 4 9.3183 28.5054 36.9102 54.7090 -4.5742 -6.6388
# 5 -27.8342 -4.0301 -28.0169 -4.5742 46.8442 4.3333
# 6 -11.0643 -16.9470 0.1140 -6.6388 4.3333 34.0122
#
#
#
# Elastic Compliance Matrix: (Units=1/GPa)
#
#
# Indices 1 2 3 4 5 6 
#
# 1 0.014769 -0.001647 -0.004111 0.002062 0.006041 0.003631
# 2 -0.001647 0.020000 -0.002973 -0.007335 -0.002523 0.008329
# 3 -0.004111 -0.002973 0.022229 -0.012721 0.009969 -0.006646
# 4 0.002062 -0.007335 -0.012721 0.030396 -0.004374 0.003549
# 5 0.006041 -0.002523 0.009969 -0.004374 0.030632 -0.004082
# 6 0.003631 0.008329 -0.006646 0.003549 -0.004082 0.035968
#
#
# Mechanical properties :
#
#
# Convention : Reuss Voigt Hill
#
# Bulk Modulus (GPa) = 25.29353 45.11044 35.20198
# Shear Modulus (GPa) = 27.08033 38.82916 32.95475
#
# Velocity S-wave (km/s) = 3.22374 3.86022 3.55624
# Velocity P-wave (km/s) = 4.85422 6.09755 5.51106
#
# Compressibility (1/GPa) = 0.03953581
#
# Stress axis : x y z
#
# Youngs Moduli (GPa) = 67.70776 49.99888 44.98675
#
# Poissons Ratio (x) = 0.08234 0.18496
# Poissons Ratio (y) = 0.11150 0.13375
# Poissons Ratio (z) = 0.27837 0.14865
#
# Static dielectric constant tensor:
#      x y z
#    x 4.922070 0.517200 -0.748150 
#    y 0.517200 4.871020 0.036600 
#    z -0.748150 0.036600 4.962070 
# 
# 
# High freq. dielectric constant tensor:
#      x y z
#    x 2.034950 0.011050 -0.029990 
#    y 0.011050 2.051670 0.015040 
#    z -0.029990 0.015040 2.051400 
# 
# From -- ./inp_files/157234.got.cif
#   From: 2010.06.25/outbox.cif.g09.slc.cpg/sg2_79_cif.got.tgz:157234.got - 2010.06.27 13:26:56.
