data_PCOD8019023
_publ_section_title
;
Structure prediction by ZEFSAII (Michael W. Deem and Ramdas Pophale) SiO2 
 PCOD8019023
Probable space group: P -1
;
_chemical_formula_sum "Si O2"
_cell_formula_units_Z 14
_cell_length_a 17.036247
_cell_length_b 8.283955
_cell_length_c 8.283668
_cell_angle_alpha 108.339606
_cell_angle_beta 36.032561
_cell_angle_gamma 118.021058
_cell_volume 602.261201
_symmetry_space_group_name_H-M "P -1"
_symmetry_group_IT_number 2
_symmetry_cell_setting 'triclinic'
loop_
_space_group_symop_operation_xyz
x,y,z
-x,-y,-z
loop_
_atom_site_type_symbol
_atom_site_label
_atom_site_fract_x
_atom_site_fract_y
_atom_site_fract_z
Si Si1 0.506317 0.229455 0.453015
Si Si2 0.251315 0.143220 0.412453
Si Si3 0.999986 0.753622 0.246380
Si Si4 0.251316 0.915094 0.640600
Si Si5 0.506309 0.465637 0.216839
Si Si6 0.766091 0.399308 0.639872
Si Si7 0.766116 0.172108 0.867081
O O1 0.497119 0.344059 0.349830
O O2 0.500012 0.338770 0.661226
O O3 0.371243 0.032880 0.609318
O O4 0.655045 0.196855 0.189885
O O5 0.371245 0.351779 0.290391
O O6 0.104191 0.138944 0.577893
O O7 0.216691 0.052185 0.618807
O O8 0.310096 0.021946 0.160711
O O9 0.092505 0.828281 0.277865
O O10 0.907444 0.537097 0.356692
O O11 0.104166 0.786311 0.930597
O O12 0.310126 0.780929 0.401733
O O13 0.655033 0.499972 0.886775
O O14 0.813410 0.338943 0.712092
#
# Coordination Sequence:
#
# PCOD8019023 Si02
#       7
#     2   2   2   2   2   2   2
#     4   9  19  38  65  92 118 154 202 254 303 353
#     4  10  22  41  64  90 122 160 202 249 301 358
#     4  12  24  38  60  92 126 162 202 246 298 360
#     4  10  22  41  64  90 122 160 202 249 301 358
#     4   9  19  38  65  92 118 154 202 254 303 353
#     4  10  22  41  64  90 122 160 202 249 301 358
#     4  10  22  41  64  90 122 160 202 249 301 358
#
# _framework density 23.245726999999999
#
# number of rings (size 3 to 8) (size 9 to 14) (size 15 to 20)
#    0.000    2.000    0.000    2.571    0.000    9.143 
#    0.000    5.714    0.000    0.000    0.000    0.000 
#    0.000    0.000    0.000    0.000    0.000    0.000 
#
# Total GULP energy -173607.786247 kJ/mol
# GULP energy per Si atom -12400.556160 kJ/mol
# Density = 2.319282 g / cm^3
# Si number density = 23.245727 Si / 1000 Ang^3
#
#
#
# Elastic Constant Matrix: (Units=GPa)
#
#
# Indices 1 2 3 4 5 6 
#
# 1 91.7939 49.4633 32.0458 -10.6100 -9.6094 12.9566
# 2 49.4633 129.2602 53.0147 3.5239 0.8690 33.1307
# 3 32.0458 53.0147 81.6726 -9.0075 -15.0738 18.9074
# 4 -10.6100 3.5239 -9.0075 35.5724 5.2414 7.0351
# 5 -9.6094 0.8690 -15.0738 5.2414 25.4465 -5.7330
# 6 12.9566 33.1307 18.9074 7.0351 -5.7330 31.0593
#
#
#
# Elastic Compliance Matrix: (Units=1/GPa)
#
#
# Indices 1 2 3 4 5 6 
#
# 1 0.015186 -0.005523 -0.001133 0.004110 0.004436 0.000133
# 2 -0.005523 0.015957 -0.007378 -0.001423 -0.009327 -0.011625
# 3 -0.001133 -0.007378 0.020710 0.004797 0.010328 -0.003445
# 4 0.004110 -0.001423 0.004797 0.033770 -0.005154 -0.011717
# 5 0.004436 -0.009327 0.010328 -0.005154 0.051275 0.012443
# 6 0.000133 -0.011625 -0.003445 -0.011717 0.012443 0.051589
#
#
# Mechanical properties :
#
#
# Convention : Reuss Voigt Hill
#
# Bulk Modulus (GPa) = 42.04043 63.53049 52.78546
# Shear Modulus (GPa) = 22.27354 29.62916 25.95135
#
# Velocity S-wave (km/s) = 3.09880 3.57404 3.34487
# Velocity P-wave (km/s) = 5.56129 6.66490 6.13795
#
# Compressibility (1/GPa) = 0.02378662
#
# Stress axis : x y z
#
# Youngs Moduli (GPa) = 65.85109 62.66948 48.28515
#
# Poissons Ratio (x) = 0.34610 0.05469
# Poissons Ratio (y) = 0.36367 0.35624
# Poissons Ratio (z) = 0.07458 0.46237
#
# Static dielectric constant tensor:
#      x y z
#    x 4.158120 -0.015870 0.090280 
#    y -0.015870 4.192490 0.029100 
#    z 0.090280 0.029100 4.004160 
# 
# 
# High freq. dielectric constant tensor:
#      x y z
#    x 1.930370 -0.009850 0.010010 
#    y -0.009850 1.920280 -0.003070 
#    z 0.010010 -0.003070 1.908400 
# 
# From -- ./inp_files/274933.got.cif
#   From: 2010.06.25/outbox.cif.g09.slc.cpg/sg2_138_cif.got.tgz:274933.got - 2010.06.27 13:26:56.
