data_PCOD8019969
_publ_section_title
;
Structure prediction by ZEFSAII (Michael W. Deem and Ramdas Pophale) SiO2 
 PCOD8019969
Probable space group: P -1
;
_chemical_formula_sum "Si O2"
_cell_formula_units_Z 14
_cell_length_a 12.139001
_cell_length_b 5.112206
_cell_length_c 18.008261
_cell_angle_alpha 86.140122
_cell_angle_beta 41.212642
_cell_angle_gamma 94.809470
_cell_volume 719.089696
_symmetry_space_group_name_H-M "P -1"
_symmetry_group_IT_number 2
_symmetry_cell_setting 'triclinic'
loop_
_space_group_symop_operation_xyz
x,y,z
-x,-y,-z
loop_
_atom_site_type_symbol
_atom_site_label
_atom_site_fract_x
_atom_site_fract_y
_atom_site_fract_z
Si Si1 0.796579 0.377456 0.748575
Si Si2 0.650516 0.862788 0.347227
Si Si3 0.773636 0.451873 0.932866
Si Si4 0.155834 0.584316 0.752400
Si Si5 0.981881 0.948632 0.596501
Si Si6 0.718208 0.125306 0.455358
Si Si7 0.561817 0.909491 0.048569
O O1 0.799445 0.390449 0.835254
O O2 0.846402 0.673697 0.683855
O O3 0.605431 0.241982 0.819056
O O4 0.925546 0.195515 0.660507
O O5 0.746305 0.645524 0.268783
O O6 0.451959 0.796803 0.425283
O O7 0.749296 0.147392 0.258396
O O8 0.660246 0.871880 0.433100
O O9 0.958025 0.511295 0.877842
O O10 0.690156 0.708853 0.977783
O O11 0.659208 0.184299 0.033876
O O12 0.171528 0.631125 0.653873
O O13 0.168201 0.938383 0.533517
O O14 0.000000 0.000000 0.500000
O O15 0.500000 0.000000 0.000000
#
# Coordination Sequence:
#
# PCOD8019969 Si02
#       7
#     2   2   2   2   2   2   2
#     4  11  20  37  48  66 104 134 172 213 242 284
#     4   9  18  29  47  71  92 138 154 197 262 297
#     4  11  18  30  50  77  99 130 161 202 260 315
#     4  10  17  28  46  72 100 124 154 192 254 302
#     4  12  24  35  51  72  99 145 182 201 232 288
#     4   9  20  30  49  65 102 129 168 200 246 291
#     4  10  20  29  49  73  97 131 168 199 257 311
#
# _framework density 19.469059000000001
#
# number of rings (size 3 to 8) (size 9 to 14) (size 15 to 20)
#    0.857    0.857    1.429    6.857    0.000    0.000 
#    0.000    0.000    0.000    0.000    0.000    0.000 
#    0.000   22.857    0.000    0.000    0.000    0.000 
#
# Total GULP energy -173513.300162 kJ/mol
# GULP energy per Si atom -12393.807154 kJ/mol
# Density = 1.942475 g / cm^3
# Si number density = 19.469059 Si / 1000 Ang^3
#
#
#
# Elastic Constant Matrix: (Units=GPa)
#
#
# Indices 1 2 3 4 5 6 
#
# 1 46.7020 -7.0400 17.0915 16.7261 -12.4464 3.9525
# 2 -7.0400 74.7436 -14.7900 23.4401 7.9308 -5.1160
# 3 17.0915 -14.7900 30.9092 10.2280 -11.5536 8.8990
# 4 16.7261 23.4401 10.2280 24.1757 -15.3275 -25.3822
# 5 -12.4464 7.9308 -11.5536 -15.3275 28.1211 -4.5477
# 6 3.9525 -5.1160 8.8990 -25.3822 -4.5477 12.4132
#
#
#
# Elastic Compliance Matrix: (Units=1/GPa)
#
#
# Indices 1 2 3 4 5 6 
#
# 1 0.028035 -0.001205 -0.015529 0.001274 0.008249 0.007336
# 2 -0.001205 0.012871 0.001348 0.004935 0.001569 0.015389
# 3 -0.015529 0.001348 0.041540 0.013009 0.018367 0.009050
# 4 0.001274 0.004935 0.013009 -0.012245 -0.007921 -0.035638
# 5 0.008249 0.001569 0.018367 -0.007921 0.039254 -0.016963
# 6 0.007336 0.015389 0.009050 -0.035638 -0.016963 -0.001008
#
#
# Mechanical properties :
#
#
# Convention : Reuss Voigt Hill
#
# Bulk Modulus (GPa) = 19.35190 15.87531 17.61361
# Shear Modulus (GPa) = 31.96015 23.41489 27.68752
#
# Velocity S-wave (km/s) = 4.05605 3.47172 3.77520
# Velocity P-wave (km/s) = 5.64772 4.92364 5.29807
#
# Compressibility (1/GPa) = 0.05167450
#
# Stress axis : x y z
#
# Youngs Moduli (GPa) = 35.66936 77.69207 24.07307
#
# Poissons Ratio (x) = 0.09361 0.37384
# Poissons Ratio (y) = 0.04298 -0.03245
# Poissons Ratio (z) = 0.55392 -0.10473
#
# Static dielectric constant tensor:
#      x y z
#    x 3.110790 0.025650 -0.540030 
#    y 0.025650 3.793250 -0.403960 
#    z -0.540030 -0.403960 3.680110 
# 
# 
# High freq. dielectric constant tensor:
#      x y z
#    x 1.710750 -0.010880 -0.056340 
#    y -0.010880 1.773310 -0.014100 
#    z -0.056340 -0.014100 1.739010 
# 
# From -- ./inp_files/563854.got.cif
#   From: 2010.06.25/outbox.cif.g09.slc.cpg/sg2_282_cif.got.tgz:563854.got - 2010.06.27 13:26:56.
