data_PCOD8019179
_publ_section_title
;
Structure prediction by ZEFSAII (Michael W. Deem and Ramdas Pophale) SiO2 
 PCOD8019179
Probable space group: P -1
;
_chemical_formula_sum "Si O2"
_cell_formula_units_Z 16
_cell_length_a 20.410838
_cell_length_b 8.973910
_cell_length_c 9.535461
_cell_angle_alpha 60.111379
_cell_angle_beta 62.194301
_cell_angle_gamma 29.084988
_cell_volume 734.099228
_symmetry_space_group_name_H-M "P -1"
_symmetry_group_IT_number 2
_symmetry_cell_setting 'triclinic'
loop_
_space_group_symop_operation_xyz
x,y,z
-x,-y,-z
loop_
_atom_site_type_symbol
_atom_site_label
_atom_site_fract_x
_atom_site_fract_y
_atom_site_fract_z
Si Si1 0.806680 0.400868 0.903579
Si Si2 0.704597 0.615936 0.354061
Si Si3 0.349816 0.624539 0.027295
Si Si4 0.415985 0.040973 0.966975
Si Si5 0.646340 0.362830 0.657076
Si Si6 0.919578 0.056247 0.231364
Si Si7 0.661914 0.062408 0.324505
Si Si8 0.840491 0.850881 0.487007
O O1 0.723474 0.417102 0.896911
O O2 0.720462 0.719260 0.916767
O O3 0.894323 0.136738 0.056482
O O4 0.917800 0.275052 0.748772
O O5 0.606951 0.812933 0.223733
O O6 0.669393 0.520318 0.529372
O O7 0.858549 0.313192 0.281768
O O8 0.686801 0.821299 0.363901
O O9 0.340597 0.697977 0.162369
O O10 0.508297 0.285924 0.985928
O O11 0.292081 0.889077 0.863432
O O12 0.500000 0.000000 0.000000
O O13 0.496432 0.604115 0.637974
O O14 0.759205 0.017992 0.637240
O O15 0.831114 0.060345 0.341664
O O16 0.756530 0.894290 0.445002
O O17 0.000000 0.500000 0.500000
#
# Coordination Sequence:
#
# PCOD8019179 Si02
#       8
#     2   2   2   2   2   2   2   2
#     4   9  18  37  64  92 123 171 209 261 314 382
#     4  10  22  41  65  94 130 170 216 265 316 390
#     4  11  22  39  65 102 130 161 216 276 321 379
#     4   9  19  35  63  98 131 162 215 262 316 384
#     4  11  25  44  68  94 134 171 216 262 333 391
#     4   9  19  41  64  88 124 170 218 253 313 389
#     4  12  24  44  67  97 134 170 214 275 325 379
#     4  11  26  47  63  94 131 174 216 273 325 387
#
# _framework density 21.795418999999999
#
# number of rings (size 3 to 8) (size 9 to 14) (size 15 to 20)
#    0.000    1.750    2.500    1.125    1.750    3.000 
#    6.750    3.750    0.000    0.000    0.000    0.000 
#    0.000    0.000    0.000    0.000    0.000    0.000 
#
# Total GULP energy -198232.540511 kJ/mol
# GULP energy per Si atom -12389.533782 kJ/mol
# Density = 2.174581 g / cm^3
# Si number density = 21.795419 Si / 1000 Ang^3
#
#
#
# Elastic Constant Matrix: (Units=GPa)
#
#
# Indices 1 2 3 4 5 6 
#
# 1 105.8872 54.0996 44.4159 18.1660 16.4864 -2.4518
# 2 54.0996 138.9701 40.7853 26.6929 26.4364 -5.3491
# 3 44.4159 40.7853 66.7937 7.3160 16.1647 8.6538
# 4 18.1660 26.6929 7.3160 30.5598 4.3580 -4.3227
# 5 16.4864 26.4364 16.1647 4.3580 29.2605 2.4700
# 6 -2.4518 -5.3491 8.6538 -4.3227 2.4700 30.5762
#
#
#
# Elastic Compliance Matrix: (Units=1/GPa)
#
#
# Indices 1 2 3 4 5 6 
#
# 1 0.015058 -0.002223 -0.008132 -0.004474 -0.001538 0.002612
# 2 -0.002223 0.011805 -0.003723 -0.006809 -0.006554 0.002507
# 3 -0.008132 -0.003723 0.024730 0.001852 -0.005350 -0.007609
# 4 -0.004474 -0.006809 0.001852 0.041233 0.001200 0.003658
# 5 -0.001538 -0.006554 -0.005350 0.001200 0.044005 -0.003141
# 6 0.002612 0.002507 -0.007609 0.003658 -0.003141 0.036278
#
#
# Mechanical properties :
#
#
# Convention : Reuss Voigt Hill
#
# Bulk Modulus (GPa) = 42.66768 65.58361 54.12564
# Shear Modulus (GPa) = 23.91450 29.56930 26.74190
#
# Velocity S-wave (km/s) = 3.31603 3.68730 3.50659
# Velocity P-wave (km/s) = 5.85495 6.94868 6.42513
#
# Compressibility (1/GPa) = 0.02343694
#
# Stress axis : x y z
#
# Youngs Moduli (GPa) = 66.40807 84.71004 40.43651
#
# Poissons Ratio (x) = 0.18831 0.32884
# Poissons Ratio (y) = 0.14763 0.15054
# Poissons Ratio (z) = 0.54005 0.31538
#
# Static dielectric constant tensor:
#      x y z
#    x 3.955550 -0.135740 -0.126260 
#    y -0.135740 4.673930 0.363950 
#    z -0.126260 0.363950 3.988340 
# 
# 
# High freq. dielectric constant tensor:
#      x y z
#    x 1.849140 0.002150 -0.001610 
#    y 0.002150 1.866390 0.010980 
#    z -0.001610 0.010980 1.852660 
# 
# From -- ./inp_files/343425.got.cif
#   From: 2010.06.25/outbox.cif.g09.slc.cpg/sg2_172_cif.got.tgz:343425.got - 2010.06.27 13:26:56.
