data_PCOD8019942
_publ_section_title
;
Structure prediction by ZEFSAII (Michael W. Deem and Ramdas Pophale) SiO2 
 PCOD8019942
Probable space group: P -1
;
_chemical_formula_sum "Si O2"
_cell_formula_units_Z 14
_cell_length_a 21.841547
_cell_length_b 4.751598
_cell_length_c 5.809632
_cell_angle_alpha 89.090885
_cell_angle_beta 78.589371
_cell_angle_gamma 67.815986
_cell_volume 546.118825
_symmetry_space_group_name_H-M "P -1"
_symmetry_group_IT_number 2
_symmetry_cell_setting 'triclinic'
loop_
_space_group_symop_operation_xyz
x,y,z
-x,-y,-z
loop_
_atom_site_type_symbol
_atom_site_label
_atom_site_fract_x
_atom_site_fract_y
_atom_site_fract_z
Si Si1 0.549061 0.218402 0.820032
Si Si2 0.893904 0.692875 0.631185
Si Si3 0.355589 0.821085 0.617155
Si Si4 0.197365 0.095097 0.700535
Si Si5 0.007795 0.727332 0.811482
Si Si6 0.417349 0.218278 0.800481
Si Si7 0.869189 0.288324 0.033672
O O1 0.601338 0.328726 0.642138
O O2 0.497177 0.136015 0.692439
O O3 0.500000 0.500000 0.000000
O O4 0.590669 0.922140 0.945950
O O5 0.949913 0.453355 0.432770
O O6 0.930682 0.892076 0.753044
O O7 0.835288 0.941631 0.520994
O O8 0.865496 0.484381 0.805751
O O9 0.277043 0.939365 0.623434
O O10 0.376795 0.585523 0.818276
O O11 0.379571 0.098600 0.638707
O O12 0.170176 0.943268 0.933234
O O13 0.172532 0.455750 0.751802
O O14 0.052766 0.892666 0.915653
O O15 0.000000 0.500000 0.000000
#
# Coordination Sequence:
#
# PCOD8019942 Si02
#       7
#     2   2   2   2   2   2   2
#     4  11  25  44  72 103 126 164 222 273 329 390
#     4   9  19  39  65  93 130 170 212 275 320 372
#     4  12  26  42  67  95 136 176 212 268 332 389
#     4  11  25  42  61  92 130 176 219 254 318 396
#     4   8  16  36  66  97 124 164 219 271 326 370
#     4  11  25  44  68  98 130 165 212 274 327 386
#     4  10  22  42  63  92 129 169 221 269 317 381
#
# _framework density 25.635449000000001
#
# number of rings (size 3 to 8) (size 9 to 14) (size 15 to 20)
#    0.000    1.714    1.429    1.714    4.000    5.143 
#    0.000   24.286    0.000    0.000    0.000    0.000 
#    0.000    0.000    0.000    0.000    0.000    0.000 
#
# Total GULP energy -173487.152818 kJ/mol
# GULP energy per Si atom -12391.939487 kJ/mol
# Density = 2.557710 g / cm^3
# Si number density = 25.635449 Si / 1000 Ang^3
#
#
#
# Elastic Constant Matrix: (Units=GPa)
#
#
# Indices 1 2 3 4 5 6 
#
# 1 195.1610 53.4234 74.4981 -10.0072 -17.3458 -27.7966
# 2 53.4234 95.4684 30.2688 -25.4989 -13.0898 -8.5565
# 3 74.4981 30.2688 111.7407 -16.8279 -8.8085 -15.4815
# 4 -10.0072 -25.4989 -16.8279 31.2128 -5.8060 3.9117
# 5 -17.3458 -13.0898 -8.8085 -5.8060 36.8122 -3.5250
# 6 -27.7966 -8.5565 -15.4815 3.9117 -3.5250 50.3833
#
#
#
# Elastic Compliance Matrix: (Units=1/GPa)
#
#
# Indices 1 2 3 4 5 6 
#
# 1 0.008131 -0.003412 -0.004385 -0.002638 0.001427 0.002864
# 2 -0.003412 0.017049 0.000417 0.014269 0.006854 0.000513
# 3 -0.004385 0.000417 0.013070 0.006245 0.002323 0.001345
# 4 -0.002638 0.014269 0.006245 0.048631 0.012997 0.000020
# 5 0.001427 0.006854 0.002323 0.012997 0.033262 0.003983
# 6 0.002864 0.000513 0.001345 0.000020 0.003983 0.022205
#
#
# Mechanical properties :
#
#
# Convention : Reuss Voigt Hill
#
# Bulk Modulus (GPa) = 42.57220 79.86121 61.21670
# Shear Modulus (GPa) = 30.31431 39.96031 35.13731
#
# Velocity S-wave (km/s) = 3.44250 3.95244 3.70625
# Velocity P-wave (km/s) = 5.69596 7.21452 6.49974
#
# Compressibility (1/GPa) = 0.02348951
#
# Stress axis : x y z
#
# Youngs Moduli (GPa) = 122.98097 58.65497 76.51263
#
# Poissons Ratio (x) = 0.20015 0.33550
# Poissons Ratio (y) = 0.41964 -0.03190
# Poissons Ratio (z) = 0.53926 -0.02446
#
# Static dielectric constant tensor:
#      x y z
#    x 5.042250 0.160000 0.019620 
#    y 0.160000 4.708830 0.112070 
#    z 0.019620 0.112070 4.521500 
# 
# 
# High freq. dielectric constant tensor:
#      x y z
#    x 2.025030 0.013420 0.007410 
#    y 0.013420 2.030870 0.004390 
#    z 0.007410 0.004390 2.034090 
# 
# From -- ./inp_files/114413.got.cif
#   From: 2010.06.25/outbox.cif.g09.slc.cpg/sg2_58_cif.got.tgz:114413.got - 2010.06.27 13:26:56.
