data_PCOD8019568
_publ_section_title
;
Structure prediction by ZEFSAII (Michael W. Deem and Ramdas Pophale) SiO2 
 PCOD8019568
Probable space group: P -1
;
_chemical_formula_sum "Si O2"
_cell_formula_units_Z 14
_cell_length_a 8.295143
_cell_length_b 15.509109
_cell_length_c 9.309183
_cell_angle_alpha 96.992068
_cell_angle_beta 100.091361
_cell_angle_gamma 32.405744
_cell_volume 631.114246
_symmetry_space_group_name_H-M "P -1"
_symmetry_group_IT_number 2
_symmetry_cell_setting 'triclinic'
loop_
_space_group_symop_operation_xyz
x,y,z
-x,-y,-z
loop_
_atom_site_type_symbol
_atom_site_label
_atom_site_fract_x
_atom_site_fract_y
_atom_site_fract_z
Si Si1 0.287795 0.537348 0.875372
Si Si2 0.267625 0.539062 0.543303
Si Si3 0.312198 0.792593 0.048405
Si Si4 0.577263 0.867088 0.449478
Si Si5 0.485175 0.743294 0.600746
Si Si6 0.958024 0.947781 0.766864
Si Si7 0.217915 0.339447 0.084107
O O1 0.247025 0.582611 0.712971
O O2 0.448537 0.371772 0.862548
O O3 0.953132 0.676819 0.924006
O O4 0.500000 0.500000 0.000000
O O5 0.500000 0.500000 0.500000
O O6 0.387740 0.386671 0.515287
O O7 0.938087 0.694874 0.447798
O O8 0.081016 0.936030 0.156682
O O9 0.475167 0.800981 0.990143
O O10 0.131639 0.818955 0.898800
O O11 0.460413 0.848076 0.542321
O O12 0.500000 0.000000 0.500000
O O13 0.378375 0.939791 0.289579
O O14 0.721637 0.646155 0.747419
O O15 0.155611 0.861523 0.634127
O O16 0.000000 0.500000 0.000000
#
# Coordination Sequence:
#
# PCOD8019568 Si02
#       7
#     2   2   2   2   2   2   2
#     4  11  24  40  67  96 139 175 233 287 337 406
#     4  12  28  44  70 106 137 185 239 286 348 407
#     4   9  21  40  67  96 130 178 228 276 343 417
#     4  12  26  41  67  98 144 180 225 284 348 414
#     4  11  23  45  71  96 141 182 234 285 341 419
#     4  10  22  41  68  98 135 176 223 281 350 408
#     4   9  20  37  67  97 129 175 231 276 346 398
#
# _framework density 22.182987000000001
#
# number of rings (size 3 to 8) (size 9 to 14) (size 15 to 20)
#    0.000    1.429    1.429    2.571   12.000    1.143 
#    0.000    0.000    0.000    6.000    0.000    0.000 
#    0.000    0.000    0.000    0.000    0.000    0.000 
#
# Total GULP energy -173440.590389 kJ/mol
# GULP energy per Si atom -12388.613599 kJ/mol
# Density = 2.213250 g / cm^3
# Si number density = 22.182987 Si / 1000 Ang^3
#
#
#
# Elastic Constant Matrix: (Units=GPa)
#
#
# Indices 1 2 3 4 5 6 
#
# 1 107.4445 35.2304 38.0535 -6.6678 8.6524 -17.6764
# 2 35.2304 101.4007 31.0337 -5.9858 5.8937 -18.4538
# 3 38.0535 31.0337 93.7383 -12.9467 14.9138 -13.8718
# 4 -6.6678 -5.9858 -12.9467 42.1139 -2.0318 10.1877
# 5 8.6524 5.8937 14.9138 -2.0318 32.2569 -7.2716
# 6 -17.6764 -18.4538 -13.8718 10.1877 -7.2716 45.4155
#
#
#
# Elastic Compliance Matrix: (Units=1/GPa)
#
#
# Indices 1 2 3 4 5 6 
#
# 1 0.011833 -0.002565 -0.003535 -0.000194 -0.000533 0.002442
# 2 -0.002565 0.012096 -0.002578 -0.000246 0.000386 0.003246
# 3 -0.003535 -0.002578 0.014225 0.003104 -0.004861 0.000447
# 4 -0.000194 -0.000246 0.003104 0.025841 -0.000875 -0.005164
# 5 -0.000533 0.000386 -0.004861 -0.000875 0.034198 0.004137
# 6 0.002442 0.003246 0.000447 -0.005164 0.004137 0.026245
#
#
# Mechanical properties :
#
#
# Convention : Reuss Voigt Hill
#
# Bulk Modulus (GPa) = 48.08531 56.80209 52.44370
# Shear Modulus (GPa) = 33.61843 37.17499 35.39671
#
# Velocity S-wave (km/s) = 3.89717 4.09814 3.99892
# Velocity P-wave (km/s) = 6.47876 6.93215 6.70929
#
# Compressibility (1/GPa) = 0.02079637
#
# Stress axis : x y z
#
# Youngs Moduli (GPa) = 84.51051 82.67180 70.29916
#
# Poissons Ratio (x) = 0.21209 0.24851
# Poissons Ratio (y) = 0.21681 0.18125
# Poissons Ratio (z) = 0.29875 0.21315
#
# Static dielectric constant tensor:
#      x y z
#    x 4.868320 -0.888190 -0.105610 
#    y -0.888190 4.666770 -0.198210 
#    z -0.105610 -0.198210 4.223730 
# 
# 
# High freq. dielectric constant tensor:
#      x y z
#    x 1.858940 -0.022550 0.004590 
#    y -0.022550 1.880890 -0.020770 
#    z 0.004590 -0.020770 1.877550 
# 
# From -- ./inp_files/158553.got.cif
#   From: 2010.06.25/outbox.cif.g09.slc.cpg/sg2_80_cif.got.tgz:158553.got - 2010.06.27 13:26:56.
