data_PCOD8019307
_publ_section_title
;
Structure prediction by ZEFSAII (Michael W. Deem and Ramdas Pophale) SiO2 
 PCOD8019307
Probable space group: P -1
;
_chemical_formula_sum "Si O2"
_cell_formula_units_Z 16
_cell_length_a 9.580536
_cell_length_b 13.796968
_cell_length_c 11.142621
_cell_angle_alpha 147.444196
_cell_angle_beta 76.870704
_cell_angle_gamma 92.522321
_cell_volume 740.676039
_symmetry_space_group_name_H-M "P -1"
_symmetry_group_IT_number 2
_symmetry_cell_setting 'triclinic'
loop_
_space_group_symop_operation_xyz
x,y,z
-x,-y,-z
loop_
_atom_site_type_symbol
_atom_site_label
_atom_site_fract_x
_atom_site_fract_y
_atom_site_fract_z
Si Si1 0.333099 0.093053 0.085879
Si Si2 0.336709 0.388832 0.840455
Si Si3 0.803816 0.010104 0.224752
Si Si4 0.192720 0.088697 0.615014
Si Si5 0.851138 0.246177 0.852684
Si Si6 0.648584 0.506821 0.545865
Si Si7 0.644626 0.417155 0.720007
Si Si8 0.855477 0.141054 0.016186
O O1 0.297344 0.318272 0.330005
O O2 0.315198 0.021837 0.880777
O O3 0.500000 0.000000 0.000000
O O4 0.218556 0.029153 0.128746
O O5 0.224603 0.536675 0.930914
O O6 0.315118 0.454113 0.051200
O O7 0.298778 0.191695 0.633943
O O8 0.502517 0.351707 0.720755
O O9 0.782228 0.906686 0.243013
O O10 0.780644 0.230131 0.482923
O O11 0.970704 0.926926 0.053845
O O12 0.022549 0.196057 0.726668
O O13 0.233696 0.875264 0.336558
O O14 0.831576 0.205272 0.951711
O O15 0.500000 0.500000 0.500000
O O16 0.614309 0.531304 0.720223
O O17 0.778184 0.315074 0.298869
#
# Coordination Sequence:
#
# PCOD8019307 Si02
#       8
#     2   2   2   2   2   2   2   2
#     4  12  25  43  71  98 132 179 219 269 337 392
#     4  11  23  42  65  97 128 175 219 271 334 387
#     4  11  23  47  68  99 137 170 226 274 332 398
#     4  10  22  42  67  95 130 173 214 279 326 391
#     4  10  22  41  66  95 132 169 221 268 330 393
#     4  12  24  45  67  98 138 171 220 276 328 396
#     4  11  24  42  67  94 134 173 218 278 325 392
#     4  11  25  44  69  98 137 179 216 276 330 394
#
# _framework density 21.601887000000001
#
# number of rings (size 3 to 8) (size 9 to 14) (size 15 to 20)
#    0.000    1.000    3.750    2.250    0.000    4.000 
#    4.500    0.000    0.000    0.000    0.000    0.000 
#    0.000    0.000    0.000    0.000    0.000    0.000 
#
# Total GULP energy -198488.901701 kJ/mol
# GULP energy per Si atom -12405.556356 kJ/mol
# Density = 2.155272 g / cm^3
# Si number density = 21.601887 Si / 1000 Ang^3
#
#
#
# Elastic Constant Matrix: (Units=GPa)
#
#
# Indices 1 2 3 4 5 6 
#
# 1 95.0503 43.5532 26.7317 1.7217 6.4495 -10.4314
# 2 43.5532 124.5646 27.7619 5.3393 10.5626 6.9299
# 3 26.7317 27.7619 74.4076 1.5505 -4.3900 2.4937
# 4 1.7217 5.3393 1.5505 39.9540 -1.7011 9.6717
# 5 6.4495 10.5626 -4.3900 -1.7011 31.5982 6.5827
# 6 -10.4314 6.9299 2.4937 9.6717 6.5827 35.6283
#
#
#
# Elastic Compliance Matrix: (Units=1/GPa)
#
#
# Indices 1 2 3 4 5 6 
#
# 1 0.014556 -0.004169 -0.004067 -0.001628 -0.003576 0.006460
# 2 -0.004169 0.010403 -0.002435 -0.000631 -0.002490 -0.002442
# 3 -0.004067 -0.002435 0.016158 0.000767 0.004533 -0.002894
# 4 -0.001628 -0.000631 0.000767 0.027394 0.003909 -0.008566
# 5 -0.003576 -0.002490 0.004533 0.003909 0.035833 -0.008562
# 6 0.006460 -0.002442 -0.002894 -0.008566 -0.008562 0.034544
#
#
# Mechanical properties :
#
#
# Convention : Reuss Voigt Hill
#
# Bulk Modulus (GPa) = 50.57527 54.45735 52.51631
# Shear Modulus (GPa) = 29.97199 34.50114 32.23657
#
# Velocity S-wave (km/s) = 3.72892 4.00075 3.86723
# Velocity P-wave (km/s) = 6.48097 6.82683 6.65615
#
# Compressibility (1/GPa) = 0.01977251
#
# Stress axis : x y z
#
# Youngs Moduli (GPa) = 68.69921 96.13041 61.88960
#
# Poissons Ratio (x) = 0.40080 0.25173
# Poissons Ratio (y) = 0.28643 0.15072
# Poissons Ratio (z) = 0.27943 0.23410
#
# Static dielectric constant tensor:
#      x y z
#    x 3.889720 -0.077680 0.014890 
#    y -0.077680 4.051650 0.004530 
#    z 0.014890 0.004530 3.870630 
# 
# 
# High freq. dielectric constant tensor:
#      x y z
#    x 1.847170 -0.010390 -0.000320 
#    y -0.010390 1.866930 0.000570 
#    z -0.000320 0.000570 1.843220 
# 
# From -- ./inp_files/398090.got.cif
#   From: 2010.06.25/outbox.cif.g09.slc.cpg/sg2_200_cif.got.tgz:398090.got - 2010.06.27 13:26:56.
