data_PCOD8019473
_publ_section_title
;
Structure prediction by ZEFSAII (Michael W. Deem and Ramdas Pophale) SiO2 
 PCOD8019473
Probable space group: P -1
;
_chemical_formula_sum "Si O2"
_cell_formula_units_Z 14
_cell_length_a 5.176904
_cell_length_b 9.528949
_cell_length_c 14.178821
_cell_angle_alpha 97.962321
_cell_angle_beta 72.753246
_cell_angle_gamma 79.281249
_cell_volume 642.212660
_symmetry_space_group_name_H-M "P -1"
_symmetry_group_IT_number 2
_symmetry_cell_setting 'triclinic'
loop_
_space_group_symop_operation_xyz
x,y,z
-x,-y,-z
loop_
_atom_site_type_symbol
_atom_site_label
_atom_site_fract_x
_atom_site_fract_y
_atom_site_fract_z
Si Si1 0.243430 0.715343 0.710673
Si Si2 0.786430 0.732685 0.067573
Si Si3 0.142543 0.355686 0.417498
Si Si4 0.648006 0.446634 0.074966
Si Si5 0.281991 0.257636 0.131939
Si Si6 0.272242 0.051304 0.450525
Si Si7 0.561756 0.021483 0.228007
O O1 0.569304 0.628032 0.662538
O O2 0.231519 0.887596 0.740378
O O3 0.076187 0.686430 0.634323
O O4 0.057355 0.674390 0.814522
O O5 0.720899 0.595369 0.120175
O O6 0.741545 0.870397 0.153807
O O7 0.621437 0.778696 0.990335
O O8 0.099092 0.686389 0.993277
O O9 0.217272 0.226618 0.473409
O O10 0.000000 0.500000 0.500000
O O11 0.443565 0.381260 0.159928
O O12 0.500000 0.500000 0.000000
O O13 0.371828 0.116507 0.175794
O O14 0.369108 0.987617 0.330147
O O15 0.500000 0.000000 0.500000
O O16 0.000000 0.000000 0.500000
#
# Coordination Sequence:
#
# PCOD8019473 Si02
#       7
#     2   2   2   2   2   2   2
#     4  11  22  41  69 105 139 177 223 297 346 406
#     4  10  22  41  68 100 143 186 229 281 350 411
#     4  11  24  47  73 102 139 178 242 293 353 422
#     4   9  21  42  59  95 148 183 224 284 339 411
#     4  11  21  40  69 102 143 177 233 287 343 413
#     4  11  24  47  69  96 138 180 226 297 355 405
#     4  11  24  42  70 102 134 183 239 283 346 424
#
# _framework density 21.799633
#
# number of rings (size 3 to 8) (size 9 to 14) (size 15 to 20)
#    0.000    1.429    2.857    3.429    0.000    4.571 
#    2.571    4.286    0.000    0.000    0.000    0.000 
#    0.000    0.000    0.000    0.000    0.000    0.000 
#
# Total GULP energy -173435.961686 kJ/mol
# GULP energy per Si atom -12388.282978 kJ/mol
# Density = 2.175002 g / cm^3
# Si number density = 21.799633 Si / 1000 Ang^3
#
#
#
# Elastic Constant Matrix: (Units=GPa)
#
#
# Indices 1 2 3 4 5 6 
#
# 1 134.3738 53.8515 57.3021 10.3265 -18.3432 20.6672
# 2 53.8515 125.2102 98.5747 28.6479 -24.7162 0.7951
# 3 57.3021 98.5747 144.9955 13.3915 -13.8031 6.4621
# 4 10.3265 28.6479 13.3915 50.0995 5.2957 -1.6672
# 5 -18.3432 -24.7162 -13.8031 5.2957 35.5779 -13.1462
# 6 20.6672 0.7951 6.4621 -1.6672 -13.1462 37.7597
#
#
#
# Elastic Compliance Matrix: (Units=1/GPa)
#
#
# Indices 1 2 3 4 5 6 
#
# 1 0.010208 -0.002506 -0.001979 -0.000412 0.001020 -0.004859
# 2 -0.002506 0.026862 -0.014938 -0.012317 0.016581 0.008592
# 3 -0.001979 -0.014938 0.016869 0.005055 -0.006970 -0.003693
# 4 -0.000412 -0.012317 0.005055 0.026900 -0.012066 -0.003393
# 5 0.001020 0.016581 -0.006970 -0.012066 0.044933 0.015396
# 6 -0.004859 0.008592 -0.003693 -0.003393 0.015396 0.034804
#
#
# Mechanical properties :
#
#
# Convention : Reuss Voigt Hill
#
# Bulk Modulus (GPa) = 66.25890 91.55955 78.90922
# Shear Modulus (GPa) = 24.45555 37.67751 31.06653
#
# Velocity S-wave (km/s) = 3.35301 4.16186 3.77914
# Velocity P-wave (km/s) = 6.74172 8.07381 7.43765
#
# Compressibility (1/GPa) = 0.01509231
#
# Stress axis : x y z
#
# Youngs Moduli (GPa) = 97.95862 37.22797 59.28170
#
# Poissons Ratio (x) = 0.09330 0.11731
# Poissons Ratio (y) = 0.24550 0.88556
# Poissons Ratio (z) = 0.19384 0.55612
#
# Static dielectric constant tensor:
#      x y z
#    x 4.134040 0.178980 -0.202810 
#    y 0.178980 4.531080 -0.470190 
#    z -0.202810 -0.470190 4.056510 
# 
# 
# High freq. dielectric constant tensor:
#      x y z
#    x 1.878680 0.007580 0.000970 
#    y 0.007580 1.844050 -0.020190 
#    z 0.000970 -0.020190 1.851640 
# 
# From -- ./inp_files/480620.got.cif
#   From: 2010.06.25/outbox.cif.g09.slc.cpg/sg2_241_cif.got.tgz:480620.got - 2010.06.27 13:26:56.
