data_PCOD8019993
_publ_section_title
;
Structure prediction by ZEFSAII (Michael W. Deem and Ramdas Pophale) SiO2 
 PCOD8019993
Probable space group: P -1
;
_chemical_formula_sum "Si O2"
_cell_formula_units_Z 16
_cell_length_a 9.585578
_cell_length_b 17.659883
_cell_length_c 11.707895
_cell_angle_alpha 152.085216
_cell_angle_beta 127.340410
_cell_angle_gamma 59.602868
_cell_volume 735.285012
_symmetry_space_group_name_H-M "P -1"
_symmetry_group_IT_number 2
_symmetry_cell_setting 'triclinic'
loop_
_space_group_symop_operation_xyz
x,y,z
-x,-y,-z
loop_
_atom_site_type_symbol
_atom_site_label
_atom_site_fract_x
_atom_site_fract_y
_atom_site_fract_z
Si Si1 0.538832 0.090867 0.341183
Si Si2 0.078392 0.681425 0.763693
Si Si3 0.641196 0.740486 0.927711
Si Si4 0.674892 0.100449 0.671850
Si Si5 0.077395 0.114121 0.587401
Si Si6 0.226931 0.775196 0.549601
Si Si7 0.272815 0.576451 0.517658
Si Si8 0.150086 0.054661 0.056960
O O1 0.638361 0.143248 0.578380
O O2 0.600321 0.207893 0.422838
O O3 0.332303 0.103026 0.279427
O O4 0.591915 0.913739 0.085303
O O5 0.141218 0.678582 0.659721
O O6 0.000000 0.500000 0.500000
O O7 0.918392 0.795225 0.846793
O O8 0.249936 0.739938 0.006220
O O9 0.465399 0.636379 0.738462
O O10 0.747263 0.620996 0.738133
O O11 0.758647 0.767950 0.134075
O O12 0.500000 0.000000 0.500000
O O13 0.843627 0.992761 0.616318
O O14 0.938761 0.232391 0.627994
O O15 0.000000 0.000000 0.500000
O O16 0.241892 0.615292 0.419913
O O17 0.205697 0.925341 0.821845
O O18 0.000000 0.000000 0.000000
#
# Coordination Sequence:
#
# PCOD8019993 Si02
#       8
#     2   2   2   2   2   2   2   2
#     4  11  24  41  71  97 124 179 234 276 328 396
#     4  12  27  42  68 101 138 181 223 279 346 403
#     4  10  22  42  64  91 137 170 219 269 335 401
#     4  11  23  43  68  97 134 180 230 273 330 413
#     4  11  22  39  67  97 125 173 227 273 322 398
#     4  12  23  39  67 102 131 168 229 280 333 398
#     4  11  25  41  63 100 138 172 213 281 346 395
#     4  12  23  43  65  99 134 175 231 277 338 409
#
# _framework density 21.760269000000001
#
# number of rings (size 3 to 8) (size 9 to 14) (size 15 to 20)
#    0.000    0.750    6.250    2.625    3.500    1.500 
#    0.000    0.625    0.000    0.000    0.000    0.000 
#    0.000    0.000    0.000    0.000    0.000    0.000 
#
# Total GULP energy -198212.528671 kJ/mol
# GULP energy per Si atom -12388.283042 kJ/mol
# Density = 2.171074 g / cm^3
# Si number density = 21.760269 Si / 1000 Ang^3
#
#
#
# Elastic Constant Matrix: (Units=GPa)
#
#
# Indices 1 2 3 4 5 6 
#
# 1 115.3005 45.1123 24.0319 -7.2025 6.3173 1.4767
# 2 45.1123 113.8882 50.6995 -11.9473 13.3221 -7.8565
# 3 24.0319 50.6995 98.5192 -5.6722 11.0339 -0.2447
# 4 -7.2025 -11.9473 -5.6722 24.9346 -6.0671 2.4841
# 5 6.3173 13.3221 11.0339 -6.0671 31.7203 -5.4454
# 6 1.4767 -7.8565 -0.2447 2.4841 -5.4454 40.9708
#
#
#
# Elastic Compliance Matrix: (Units=1/GPa)
#
#
# Indices 1 2 3 4 5 6 
#
# 1 0.010371 -0.003836 -0.000462 0.001103 -0.000291 -0.001218
# 2 -0.003836 0.013536 -0.005612 0.003408 -0.001933 0.002237
# 3 -0.000462 -0.005612 0.013412 -0.000247 -0.002486 -0.001295
# 4 0.001103 0.003408 -0.000247 0.043721 0.006598 -0.001162
# 5 -0.000291 -0.001933 -0.002486 0.006598 0.035192 0.003902
# 6 -0.001218 0.002237 -0.001295 -0.001162 0.003902 0.025462
#
#
# Mechanical properties :
#
#
# Convention : Reuss Voigt Hill
#
# Bulk Modulus (GPa) = 57.15003 63.04391 60.09697
# Shear Modulus (GPa) = 29.87775 33.38276 31.63025
#
# Velocity S-wave (km/s) = 3.70948 3.92103 3.81672
# Velocity P-wave (km/s) = 6.68337 7.03805 6.86300
#
# Compressibility (1/GPa) = 0.01749780
#
# Stress axis : x y z
#
# Youngs Moduli (GPa) = 96.42424 73.87498 74.55979
#
# Poissons Ratio (x) = 0.28341 0.03448
# Poissons Ratio (y) = 0.36992 0.41843
# Poissons Ratio (z) = 0.04459 0.41458
#
# Static dielectric constant tensor:
#      x y z
#    x 4.482230 -0.456340 -0.133760 
#    y -0.456340 4.266290 -0.151990 
#    z -0.133760 -0.151990 4.071920 
# 
# 
# High freq. dielectric constant tensor:
#      x y z
#    x 1.865740 -0.013010 0.002050 
#    y -0.013010 1.848390 -0.016710 
#    z 0.002050 -0.016710 1.844540 
# 
# From -- ./inp_files/402542.got.cif
#   From: 2010.06.25/outbox.cif.g09.slc.cpg/sg2_202_cif.got.tgz:402542.got - 2010.06.27 13:26:56.
