data_PCOD8019667
_publ_section_title
;
Structure prediction by ZEFSAII (Michael W. Deem and Ramdas Pophale) SiO2 
 PCOD8019667
Probable space group: P -1
;
_chemical_formula_sum "Si O2"
_cell_formula_units_Z 16
_cell_length_a 12.881644
_cell_length_b 8.539666
_cell_length_c 13.772700
_cell_angle_alpha 123.599764
_cell_angle_beta 114.293028
_cell_angle_gamma 110.790380
_cell_volume 737.417092
_symmetry_space_group_name_H-M "P -1"
_symmetry_group_IT_number 2
_symmetry_cell_setting 'triclinic'
loop_
_space_group_symop_operation_xyz
x,y,z
-x,-y,-z
loop_
_atom_site_type_symbol
_atom_site_label
_atom_site_fract_x
_atom_site_fract_y
_atom_site_fract_z
Si Si1 0.404687 0.530048 0.405448
Si Si2 0.829273 0.200876 0.381991
Si Si3 0.853955 0.479944 0.667417
Si Si4 0.153441 0.205008 0.706321
Si Si5 0.759026 0.171756 0.726159
Si Si6 0.532941 0.684988 0.988221
Si Si7 0.084070 0.331225 0.914971
Si Si8 0.208759 0.138155 0.010664
O O1 0.500000 0.500000 0.500000
O O2 0.268846 0.495915 0.398426
O O3 0.290384 0.276963 0.194836
O O4 0.555917 0.852070 0.525537
O O5 0.804913 0.247759 0.496617
O O6 0.000000 0.500000 0.500000
O O7 0.843167 0.993397 0.309619
O O8 0.650412 0.011723 0.184415
O O9 0.817953 0.367208 0.723394
O O10 0.062769 0.788857 0.842252
O O11 0.124279 0.325212 0.818018
O O12 0.333083 0.492034 0.815712
O O13 0.000000 0.000000 0.500000
O O14 0.880355 0.140968 0.775800
O O15 0.783139 0.332729 0.886244
O O16 0.500000 0.500000 0.000000
O O17 0.627211 0.706938 0.941393
O O18 0.106351 0.190354 0.950356
#
# Coordination Sequence:
#
# PCOD8019667 Si02
#       8
#     2   2   2   2   2   2   2   2
#     4  12  29  46  70 102 138 180 235 284 346 407
#     4  11  22  43  68 100 136 178 228 278 344 409
#     4  12  25  44  71 102 143 180 226 287 347 408
#     4  11  24  42  70  99 138 182 227 282 344 410
#     4  11  27  42  71 104 134 179 235 287 336 408
#     4  10  22  41  69  99 131 181 229 274 339 415
#     4  11  23  44  70  97 141 178 233 276 349 401
#     4  12  24  46  72  97 141 184 225 282 354 410
#
# _framework density 21.697353
#
# number of rings (size 3 to 8) (size 9 to 14) (size 15 to 20)
#    0.000    0.750    5.000    2.250   10.500    0.000 
#    0.000    0.625    0.000    0.000    0.000    0.000 
#    0.000    0.000    0.000    0.000    0.000    0.000 
#
# Total GULP energy -198392.459268 kJ/mol
# GULP energy per Si atom -12399.528704 kJ/mol
# Density = 2.164797 g / cm^3
# Si number density = 21.697353 Si / 1000 Ang^3
#
#
#
# Elastic Constant Matrix: (Units=GPa)
#
#
# Indices 1 2 3 4 5 6 
#
# 1 127.9862 34.4162 65.1231 -6.0457 -14.9959 17.6584
# 2 34.4162 73.2794 30.4563 -0.9920 7.6589 5.1905
# 3 65.1231 30.4563 160.3834 6.1433 10.7786 5.9052
# 4 -6.0457 -0.9920 6.1433 42.9330 6.4246 6.7358
# 5 -14.9959 7.6589 10.7786 6.4246 42.2340 0.2804
# 6 17.6584 5.1905 5.9052 6.7358 0.2804 27.2127
#
#
#
# Elastic Compliance Matrix: (Units=1/GPa)
#
#
# Indices 1 2 3 4 5 6 
#
# 1 0.013379 -0.004365 -0.004862 0.002699 0.006422 -0.007529
# 2 -0.004365 0.016638 -0.001109 0.000616 -0.004376 -0.000208
# 3 -0.004862 -0.001109 0.008648 -0.001733 -0.003481 0.001955
# 4 0.002699 0.000616 -0.001733 0.025537 -0.002544 -0.007788
# 5 0.006422 -0.004376 -0.003481 -0.002544 0.028042 -0.002237
# 6 -0.007529 -0.000208 0.001955 -0.007788 -0.002237 0.043199
#
#
# Mechanical properties :
#
#
# Convention : Reuss Voigt Hill
#
# Bulk Modulus (GPa) = 55.57206 69.07113 62.32159
# Shear Modulus (GPa) = 30.84287 37.91951 34.38119
#
# Velocity S-wave (km/s) = 3.77437 4.18503 3.98500
# Velocity P-wave (km/s) = 6.68300 7.43342 7.06817
#
# Compressibility (1/GPa) = 0.01799465
#
# Stress axis : x y z
#
# Youngs Moduli (GPa) = 74.74127 60.10464 115.63200
#
# Poissons Ratio (x) = 0.26233 0.56216
# Poissons Ratio (y) = 0.32622 0.12824
# Poissons Ratio (z) = 0.36337 0.06666
#
# Static dielectric constant tensor:
#      x y z
#    x 3.687900 0.124000 -0.728040 
#    y 0.124000 3.641470 0.214930 
#    z -0.728040 0.214930 3.119530 
# 
# 
# High freq. dielectric constant tensor:
#      x y z
#    x 1.856850 0.009380 0.001640 
#    y 0.009380 1.832060 0.001160 
#    z 0.001640 0.001160 1.881140 
# 
# From -- ./inp_files/299551.got.cif
#   From: 2010.06.25/outbox.cif.g09.slc.cpg/sg2_150_cif.got.tgz:299551.got - 2010.06.27 13:26:56.
