data_PCOD8019951
_publ_section_title
;
Structure prediction by ZEFSAII (Michael W. Deem and Ramdas Pophale) SiO2 
 PCOD8019951
Probable space group: P -1
;
_chemical_formula_sum "Si O2"
_cell_formula_units_Z 14
_cell_length_a 12.188396
_cell_length_b 11.196793
_cell_length_c 14.038599
_cell_angle_alpha 146.579003
_cell_angle_beta 128.334857
_cell_angle_gamma 37.859938
_cell_volume 643.370254
_symmetry_space_group_name_H-M "P -1"
_symmetry_group_IT_number 2
_symmetry_cell_setting 'triclinic'
loop_
_space_group_symop_operation_xyz
x,y,z
-x,-y,-z
loop_
_atom_site_type_symbol
_atom_site_label
_atom_site_fract_x
_atom_site_fract_y
_atom_site_fract_z
Si Si1 0.980924 0.465116 0.104839
Si Si2 0.602263 0.655144 0.056747
Si Si3 0.216738 0.318823 0.482964
Si Si4 0.515482 0.866554 0.818570
Si Si5 0.523679 0.686687 0.252905
Si Si6 0.849299 0.965931 0.239254
Si Si7 0.167619 0.532271 0.396150
O O1 0.804709 0.490595 0.021184
O O2 0.972203 0.693885 0.190368
O O3 0.015277 0.513233 0.263531
O O4 0.133364 0.152411 0.937222
O O5 0.598181 0.653596 0.166437
O O6 0.488380 0.959773 0.154400
O O7 0.522572 0.512372 0.877071
O O8 0.308084 0.423130 0.661236
O O9 0.255488 0.334330 0.403966
O O10 0.000000 0.500000 0.500000
O O11 0.333090 0.998930 0.368520
O O12 0.701646 0.565177 0.691470
O O13 0.358011 0.842728 0.712044
O O14 0.500000 0.000000 0.000000
O O15 0.911724 0.155260 0.408218
#
# Coordination Sequence:
#
# PCOD8019951 Si02
#       7
#     2   2   2   2   2   2   2
#     4  10  22  42  63  95 135 169 224 272 329 409
#     4  10  22  44  67  88 129 184 211 278 347 387
#     4  11  25  43  66 102 132 170 229 285 328 402
#     4  11  22  41  63  94 136 168 221 274 328 405
#     4  10  23  46  67  94 134 176 227 274 342 395
#     4  10  23  40  62  96 131 178 218 268 337 400
#     4  12  23  41  67  97 133 174 222 278 338 397
#
# _framework density 21.76041
#
# number of rings (size 3 to 8) (size 9 to 14) (size 15 to 20)
#    0.000    1.429    2.857    1.714    4.000    0.000 
#    0.000    2.143    0.000    0.000    0.000    0.000 
#    0.000    0.000    0.000    0.000    0.000    0.000 
#
# Total GULP energy -173474.839385 kJ/mol
# GULP energy per Si atom -12391.059956 kJ/mol
# Density = 2.171088 g / cm^3
# Si number density = 21.760410 Si / 1000 Ang^3
#
#
#
# Elastic Constant Matrix: (Units=GPa)
#
#
# Indices 1 2 3 4 5 6 
#
# 1 85.0659 29.1616 37.9394 -6.3951 4.9696 -7.6766
# 2 29.1616 87.7819 35.1114 -21.9519 1.8341 -16.3167
# 3 37.9394 35.1114 126.9282 -27.4543 1.1350 -5.9310
# 4 -6.3951 -21.9519 -27.4543 34.2481 -8.4695 -7.6099
# 5 4.9696 1.8341 1.1350 -8.4695 25.5182 0.6868
# 6 -7.6766 -16.3167 -5.9310 -7.6099 0.6868 32.8579
#
#
#
# Elastic Compliance Matrix: (Units=1/GPa)
#
#
# Indices 1 2 3 4 5 6 
#
# 1 0.015000 -0.004401 -0.004210 -0.004441 -0.003881 -0.000388
# 2 -0.004401 0.018595 -0.000199 0.014475 0.004026 0.011438
# 3 -0.004210 -0.000199 0.011435 0.009826 0.003501 0.003184
# 4 -0.004441 0.014475 0.009826 0.054153 0.016819 0.020114
# 5 -0.003881 0.004026 0.003501 0.016819 0.044955 0.004680
# 6 -0.000388 0.011438 0.003184 0.020114 0.004680 0.041159
#
#
# Mechanical properties :
#
#
# Convention : Reuss Voigt Hill
#
# Bulk Modulus (GPa) = 36.48330 56.02232 46.25281
# Shear Modulus (GPa) = 23.57905 31.69573 27.63739
#
# Velocity S-wave (km/s) = 3.29534 3.82065 3.56768
# Velocity P-wave (km/s) = 5.59297 6.72786 6.18650
#
# Compressibility (1/GPa) = 0.02740980
#
# Stress axis : x y z
#
# Youngs Moduli (GPa) = 66.66782 53.77748 87.45228
#
# Poissons Ratio (x) = 0.23665 0.36819
# Poissons Ratio (y) = 0.29338 0.01742
# Poissons Ratio (z) = 0.28068 0.01071
#
# Static dielectric constant tensor:
#      x y z
#    x 3.861580 0.009690 -0.040630 
#    y 0.009690 3.857420 -0.121590 
#    z -0.040630 -0.121590 3.986310 
# 
# 
# High freq. dielectric constant tensor:
#      x y z
#    x 1.852880 -0.005240 -0.004300 
#    y -0.005240 1.850850 -0.010900 
#    z -0.004300 -0.010900 1.860530 
# 
# From -- ./inp_files/425815.got.cif
#   From: 2010.06.25/outbox.cif.g09.slc.cpg/sg2_213_cif.got.tgz:425815.got - 2010.06.27 13:26:56.
