data_PCOD8019419
_publ_section_title
;
Structure prediction by ZEFSAII (Michael W. Deem and Ramdas Pophale) SiO2 
 PCOD8019419
Probable space group: P -1
;
_chemical_formula_sum "Si O2"
_cell_formula_units_Z 14
_cell_length_a 10.887211
_cell_length_b 10.417116
_cell_length_c 9.541906
_cell_angle_alpha 132.328412
_cell_angle_beta 51.106984
_cell_angle_gamma 112.192766
_cell_volume 620.783408
_symmetry_space_group_name_H-M "P -1"
_symmetry_group_IT_number 2
_symmetry_cell_setting 'triclinic'
loop_
_space_group_symop_operation_xyz
x,y,z
-x,-y,-z
loop_
_atom_site_type_symbol
_atom_site_label
_atom_site_fract_x
_atom_site_fract_y
_atom_site_fract_z
Si Si1 0.816955 0.314061 0.502389
Si Si2 0.864238 0.870644 0.470955
Si Si3 0.153515 0.329448 0.939849
Si Si4 0.660245 0.985174 0.283199
Si Si5 0.905429 0.594489 0.470675
Si Si6 0.383636 0.584348 0.028547
Si Si7 0.535521 0.068650 0.874074
O O1 0.762767 0.149941 0.339093
O O2 0.771120 0.486964 0.565537
O O3 0.749257 0.312997 0.706628
O O4 0.004858 0.312018 0.397836
O O5 0.912763 0.750483 0.213804
O O6 0.832284 0.745287 0.532368
O O7 0.701319 0.980737 0.632307
O O8 0.000000 0.000000 0.500000
O O9 0.220657 0.178783 0.885389
O O10 0.304032 0.443450 0.884890
O O11 0.013637 0.448830 0.199531
O O12 0.500000 0.000000 0.500000
O O13 0.609417 0.975499 0.151721
O O14 0.459078 0.721938 0.974292
O O15 0.500000 0.500000 0.000000
O O16 0.500000 0.000000 0.000000
#
# Coordination Sequence:
#
# PCOD8019419 Si02
#       7
#     2   2   2   2   2   2   2
#     4  10  22  41  67  95 132 178 232 282 333 406
#     4  12  25  45  67  92 148 183 225 281 353 413
#     4  11  22  40  72  96 126 183 234 270 343 413
#     4  12  21  43  68  97 128 182 231 275 343 404
#     4  10  24  40  65 103 133 177 230 283 339 408
#     4  11  21  41  68  94 131 174 223 278 338 402
#     4  12  28  43  67 106 138 177 229 292 348 400
#
# _framework density 22.552150000000001
#
# number of rings (size 3 to 8) (size 9 to 14) (size 15 to 20)
#    0.000    0.857    4.286    3.000    2.000    4.000 
#    0.000    1.429    0.000    0.000    0.000    0.000 
#    0.000    0.000    0.000    0.000    0.000    0.000 
#
# Total GULP energy -173532.119211 kJ/mol
# GULP energy per Si atom -12395.151372 kJ/mol
# Density = 2.250082 g / cm^3
# Si number density = 22.552150 Si / 1000 Ang^3
#
#
#
# Elastic Constant Matrix: (Units=GPa)
#
#
# Indices 1 2 3 4 5 6 
#
# 1 102.3047 57.9009 27.3909 23.5672 37.5591 4.9537
# 2 57.9009 186.7335 33.2022 19.8380 28.6467 -4.6884
# 3 27.3909 33.2022 47.2871 12.2039 26.9635 12.1464
# 4 23.5672 19.8380 12.2039 36.7006 0.1279 10.7064
# 5 37.5591 28.6467 26.9635 0.1279 48.7851 10.6421
# 6 4.9537 -4.6884 12.1464 10.7064 10.6421 44.8428
#
#
#
# Elastic Compliance Matrix: (Units=1/GPa)
#
#
# Indices 1 2 3 4 5 6 
#
# 1 0.018756 -0.002439 0.001323 -0.012185 -0.014507 0.003667
# 2 -0.002439 0.007115 -0.003065 -0.002016 -0.001169 0.002602
# 3 0.001323 -0.003065 0.036806 -0.010342 -0.018768 -0.003513
# 4 -0.012185 -0.002016 -0.010342 0.042637 0.018488 -0.010631
# 5 -0.014507 -0.001169 -0.018768 0.018488 0.044513 -0.008414
# 6 0.003667 0.002602 -0.003513 -0.010631 -0.008414 0.027654
#
#
# Mechanical properties :
#
#
# Convention : Reuss Voigt Hill
#
# Bulk Modulus (GPa) = 18.41078 63.70149 41.05614
# Shear Modulus (GPa) = 24.51590 40.58779 32.55184
#
# Velocity S-wave (km/s) = 3.30066 4.24693 3.80334
# Velocity P-wave (km/s) = 4.76521 7.23575 6.12631
#
# Compressibility (1/GPa) = 0.05431599
#
# Stress axis : x y z
#
# Youngs Moduli (GPa) = 53.31523 140.54414 27.16941
#
# Poissons Ratio (x) = 0.34278 -0.03594
# Poissons Ratio (y) = 0.13003 0.08327
# Poissons Ratio (z) = -0.07053 0.43075
#
# Static dielectric constant tensor:
#      x y z
#    x 4.068580 -0.213130 0.219660 
#    y -0.213130 3.803030 0.395620 
#    z 0.219660 0.395620 3.881230 
# 
# 
# High freq. dielectric constant tensor:
#      x y z
#    x 1.891430 -0.000850 0.007090 
#    y -0.000850 1.905820 0.013790 
#    z 0.007090 0.013790 1.872930 
# 
# From -- ./inp_files/245788.got.cif
#   From: 2010.06.25/outbox.cif.g09.slc.cpg/sg2_123_cif.got.tgz:245788.got - 2010.06.27 13:26:56.
