data_PCOD8019739
_publ_section_title
;
Structure prediction by ZEFSAII (Michael W. Deem and Ramdas Pophale) SiO2 
 PCOD8019739
Probable space group: P -1
;
_chemical_formula_sum "Si O2"
_cell_formula_units_Z 14
_cell_length_a 9.276365
_cell_length_b 12.436877
_cell_length_c 11.871650
_cell_angle_alpha 44.929413
_cell_angle_beta 53.572560
_cell_angle_gamma 38.457246
_cell_volume 599.151212
_symmetry_space_group_name_H-M "P -1"
_symmetry_group_IT_number 2
_symmetry_cell_setting 'triclinic'
loop_
_space_group_symop_operation_xyz
x,y,z
-x,-y,-z
loop_
_atom_site_type_symbol
_atom_site_label
_atom_site_fract_x
_atom_site_fract_y
_atom_site_fract_z
Si Si1 0.537626 0.947213 0.654223
Si Si2 0.883522 0.665868 0.027283
Si Si3 0.158365 0.048158 0.326165
Si Si4 0.754888 0.635772 0.458782
Si Si5 0.639141 0.553340 0.961075
Si Si6 0.627088 0.374709 0.319897
Si Si7 0.563389 0.646774 0.328919
O O1 0.327383 0.143899 0.673113
O O2 0.500000 0.000000 0.500000
O O3 0.774707 0.894836 0.633066
O O4 0.520613 0.778916 0.819797
O O5 0.644438 0.722386 0.140538
O O6 0.083145 0.586067 0.091034
O O7 0.806712 0.866248 0.862266
O O8 0.000000 0.500000 0.000000
O O9 0.881948 0.151536 0.383417
O O10 0.333989 0.813863 0.387188
O O11 0.561659 0.648353 0.614730
O O12 0.776269 0.543170 0.396384
O O13 0.000000 0.500000 0.500000
O O14 0.500000 0.500000 0.000000
O O15 0.633272 0.509257 0.128802
O O16 0.541320 0.494266 0.391283
#
# Coordination Sequence:
#
# PCOD8019739 Si02
#       7
#     2   2   2   2   2   2   2
#     4  11  23  42  68 101 142 184 223 284 353 417
#     4  11  19  40  71  97 139 181 218 292 350 403
#     4  10  22  41  71 106 131 183 239 280 348 416
#     4  11  28  45  65 102 142 189 227 287 359 413
#     4  11  23  41  71 103 134 185 231 282 353 410
#     4  11  23  48  72  98 143 180 234 300 340 406
#     4  11  22  40  72 101 137 177 240 283 344 420
#
# _framework density 23.366389000000002
#
# number of rings (size 3 to 8) (size 9 to 14) (size 15 to 20)
#    0.000    1.143    4.286    1.714    6.000    3.429 
#    7.714    0.714    0.000    0.000    0.000    0.000 
#    0.000    0.000    0.000    0.000    0.000    0.000 
#
# Total GULP energy -173481.453560 kJ/mol
# GULP energy per Si atom -12391.532397 kJ/mol
# Density = 2.331321 g / cm^3
# Si number density = 23.366389 Si / 1000 Ang^3
#
#
#
# Elastic Constant Matrix: (Units=GPa)
#
#
# Indices 1 2 3 4 5 6 
#
# 1 182.5503 77.6523 59.9733 -19.6609 -5.0433 -12.1206
# 2 77.6523 114.0134 64.1846 -5.4955 -11.8743 -2.7171
# 3 59.9733 64.1846 103.4252 -12.6983 -5.1067 -9.3478
# 4 -19.6609 -5.4955 -12.6983 45.0748 -0.2589 -2.8847
# 5 -5.0433 -11.8743 -5.1067 -0.2589 43.1366 -0.0852
# 6 -12.1206 -2.7171 -9.3478 -2.8847 -0.0852 43.0467
#
#
#
# Elastic Compliance Matrix: (Units=1/GPa)
#
#
# Indices 1 2 3 4 5 6 
#
# 1 0.008397 -0.004805 -0.001391 0.002807 -0.000485 0.001946
# 2 -0.004805 0.016627 -0.007872 -0.002408 0.003064 -0.002168
# 3 -0.001391 -0.007872 0.015974 0.003110 -0.000414 0.002788
# 4 0.002807 -0.002408 0.003110 0.024181 0.000184 0.002934
# 5 -0.000485 0.003064 -0.000414 0.000184 0.023921 0.000027
# 6 0.001946 -0.002168 0.002788 0.002934 0.000027 0.024444
#
#
# Mechanical properties :
#
#
# Convention : Reuss Voigt Hill
#
# Bulk Modulus (GPa) = 77.75008 89.28992 83.52000
# Shear Modulus (GPa) = 34.25445 39.46353 36.85899
#
# Velocity S-wave (km/s) = 3.83295 4.11408 3.97600
# Velocity P-wave (km/s) = 7.27566 7.80151 7.54317
#
# Compressibility (1/GPa) = 0.01286172
#
# Stress axis : x y z
#
# Youngs Moduli (GPa) = 119.09324 60.14456 62.60143
#
# Poissons Ratio (x) = 0.28898 0.08706
# Poissons Ratio (y) = 0.57222 0.49282
# Poissons Ratio (z) = 0.16562 0.47348
#
# Static dielectric constant tensor:
#      x y z
#    x 4.469320 -0.120400 -0.029320 
#    y -0.120400 4.283940 0.013570 
#    z -0.029320 0.013570 4.846320 
# 
# 
# High freq. dielectric constant tensor:
#      x y z
#    x 1.933490 0.000560 -0.009160 
#    y 0.000560 1.905920 -0.006800 
#    z -0.009160 -0.006800 1.965030 
# 
# From -- ./inp_files/391975.got.cif
#   From: 2010.06.25/outbox.cif.g09.slc.cpg/sg2_196_cif.got.tgz:391975.got - 2010.06.27 13:26:56.
