data_PCOD8019741
_publ_section_title
;
Structure prediction by ZEFSAII (Michael W. Deem and Ramdas Pophale) SiO2 
 PCOD8019741
Probable space group: P -1
;
_chemical_formula_sum "Si O2"
_cell_formula_units_Z 16
_cell_length_a 5.767769
_cell_length_b 17.851850
_cell_length_c 8.420837
_cell_angle_alpha 85.966230
_cell_angle_beta 51.291331
_cell_angle_gamma 85.106658
_cell_volume 673.966379
_symmetry_space_group_name_H-M "P -1"
_symmetry_group_IT_number 2
_symmetry_cell_setting 'triclinic'
loop_
_space_group_symop_operation_xyz
x,y,z
-x,-y,-z
loop_
_atom_site_type_symbol
_atom_site_label
_atom_site_fract_x
_atom_site_fract_y
_atom_site_fract_z
Si Si1 0.997196 0.272086 0.925233
Si Si2 0.409601 0.453573 0.897629
Si Si3 0.200795 0.600005 0.801949
Si Si4 0.954478 0.784519 0.423650
Si Si5 0.190110 0.923737 0.459740
Si Si6 0.363798 0.666559 0.398940
Si Si7 0.318211 0.847494 0.739225
Si Si8 0.651054 0.010118 0.108128
O O1 0.901715 0.247308 0.795677
O O2 0.344036 0.288605 0.770028
O O3 0.783469 0.344241 0.060060
O O4 0.941704 0.202381 0.075968
O O5 0.315639 0.514801 0.795351
O O6 0.662473 0.399364 0.712572
O O7 0.500000 0.500000 0.000000
O O8 0.150574 0.402604 0.080343
O O9 0.381139 0.631217 0.572198
O O10 0.595981 0.792336 0.572457
O O11 0.088472 0.864404 0.384075
O O12 0.072465 0.723589 0.513310
O O13 0.163718 0.893803 0.653909
O O14 0.528823 0.944280 0.280257
O O15 0.000000 0.000000 0.500000
O O16 0.445714 0.905241 0.805117
O O17 0.500000 0.000000 0.000000
O O18 0.000000 0.000000 0.000000
#
# Coordination Sequence:
#
# PCOD8019741 Si02
#       8
#     2   2   2   2   2   2   2   2
#     4  11  25  45  68 103 141 191 242 299 366 442
#     4  10  22  41  71 106 144 186 238 295 362 430
#     4  10  22  43  68 104 145 186 239 300 358 433
#     4  12  26  44  72 102 144 189 246 301 378 448
#     4  12  26  50  72 105 143 191 249 314 388 457
#     4  11  25  45  72 103 147 189 244 294 366 444
#     4  12  28  47  74 102 148 188 243 312 377 457
#     4  12  28  48  78 110 145 193 253 320 389 465
#
# _framework density 23.740057
#
# number of rings (size 3 to 8) (size 9 to 14) (size 15 to 20)
#    0.000    0.750    1.250    5.250    5.250    5.500 
#    0.000    0.000    0.000    0.000    0.000    0.000 
#    0.000    0.000    0.000    0.000    0.000    0.000 
#
# Total GULP energy -198337.444136 kJ/mol
# GULP energy per Si atom -12396.090259 kJ/mol
# Density = 2.368602 g / cm^3
# Si number density = 23.740057 Si / 1000 Ang^3
#
#
#
# Elastic Constant Matrix: (Units=GPa)
#
#
# Indices 1 2 3 4 5 6 
#
# 1 97.4449 42.2915 47.6509 0.8495 -0.5129 10.1429
# 2 42.2915 139.7314 62.0700 6.7519 1.8690 13.0714
# 3 47.6509 62.0700 137.8397 -17.1486 1.2441 10.9899
# 4 0.8495 6.7519 -17.1486 56.7881 5.5736 5.8923
# 5 -0.5129 1.8690 1.2441 5.5736 29.7722 12.9990
# 6 10.1429 13.0714 10.9899 5.8923 12.9990 49.5930
#
#
#
# Elastic Compliance Matrix: (Units=1/GPa)
#
#
# Indices 1 2 3 4 5 6 
#
# 1 0.013143 -0.002226 -0.003551 -0.000978 0.001379 -0.001560
# 2 -0.002226 0.009721 -0.003796 -0.002193 0.000406 -0.001112
# 3 -0.003551 -0.003796 0.010761 0.003912 -0.000581 -0.000970
# 4 -0.000978 -0.002193 0.003912 0.019528 -0.002989 -0.001626
# 5 0.001379 0.000406 -0.000581 -0.002989 0.038540 -0.010007
# 6 -0.001560 -0.001112 -0.000970 -0.001626 -0.010007 0.023807
#
#
# Mechanical properties :
#
#
# Convention : Reuss Voigt Hill
#
# Bulk Modulus (GPa) = 69.06286 75.44897 72.25592
# Shear Modulus (GPa) = 35.84982 42.09757 38.97370
#
# Velocity S-wave (km/s) = 3.89021 4.21559 4.05617
# Velocity P-wave (km/s) = 7.02373 7.45287 7.24148
#
# Compressibility (1/GPa) = 0.01447956
#
# Stress axis : x y z
#
# Youngs Moduli (GPa) = 76.08782 102.87080 92.92924
#
# Poissons Ratio (x) = 0.22897 0.32998
# Poissons Ratio (y) = 0.16935 0.35274
# Poissons Ratio (z) = 0.27018 0.39048
#
# Static dielectric constant tensor:
#      x y z
#    x 4.097420 0.144050 -0.027040 
#    y 0.144050 5.451550 0.026100 
#    z -0.027040 0.026100 4.623660 
# 
# 
# High freq. dielectric constant tensor:
#      x y z
#    x 1.928060 0.015190 0.004250 
#    y 0.015190 1.965220 0.004500 
#    z 0.004250 0.004500 1.944710 
# 
# From -- ./inp_files/138924.got.cif
#   From: 2010.06.25/outbox.cif.g09.slc.cpg/sg2_70_cif.got.tgz:138924.got - 2010.06.27 13:26:56.
