data_PCOD8019670
_publ_section_title
;
Structure prediction by ZEFSAII (Michael W. Deem and Ramdas Pophale) SiO2 
 PCOD8019670
Probable space group: P -1
;
_chemical_formula_sum "Si O2"
_cell_formula_units_Z 16
_cell_length_a 11.635127
_cell_length_b 16.580246
_cell_length_c 19.597501
_cell_angle_alpha 21.327079
_cell_angle_beta 148.356489
_cell_angle_gamma 141.075468
_cell_volume 719.109608
_symmetry_space_group_name_H-M "P -1"
_symmetry_group_IT_number 2
_symmetry_cell_setting 'triclinic'
loop_
_space_group_symop_operation_xyz
x,y,z
-x,-y,-z
loop_
_atom_site_type_symbol
_atom_site_label
_atom_site_fract_x
_atom_site_fract_y
_atom_site_fract_z
Si Si1 0.099035 0.201725 0.834351
Si Si2 0.638144 0.489890 0.676393
Si Si3 0.680137 0.478115 0.393800
Si Si4 0.452346 0.237607 0.253575
Si Si5 0.776605 0.277405 0.783531
Si Si6 0.708141 0.606285 0.818476
Si Si7 0.223181 0.390446 0.884414
Si Si8 0.046494 0.227138 0.306641
O O1 0.164287 0.333305 0.697027
O O2 0.250515 0.252551 0.935785
O O3 0.841943 0.273803 0.666764
O O4 0.120442 0.949588 0.019332
O O5 0.499133 0.406475 0.735426
O O6 0.738919 0.286953 0.839478
O O7 0.465854 0.660178 0.416012
O O8 0.837231 0.624279 0.696971
O O9 0.549685 0.391607 0.331353
O O10 0.271009 0.351558 0.123721
O O11 0.669493 0.374609 0.251229
O O12 0.500000 0.000000 0.500000
O O13 0.343083 0.231810 0.128247
O O14 0.963785 0.446835 0.726856
O O15 0.804762 0.796537 0.668658
O O16 0.825124 0.359038 0.062268
O O17 0.000000 0.000000 0.500000
#
# Coordination Sequence:
#
# PCOD8019670 Si02
#       8
#     2   2   2   2   2   2   2   2
#     4  11  23  41  71 101 135 186 220 287 352 413
#     4  10  23  42  63  99 136 177 229 290 334 415
#     4  10  22  41  69  99 138 170 234 285 337 418
#     4  11  26  42  69 100 139 184 220 294 349 405
#     4  11  24  41  66  98 140 179 227 281 351 408
#     4  10  22  43  63 101 137 169 234 282 335 418
#     4  11  24  44  66 101 140 177 241 281 342 423
#     4  10  23  42  72  95 133 187 227 286 345 409
#
# _framework density 22.249737
#
# number of rings (size 3 to 8) (size 9 to 14) (size 15 to 20)
#    0.000    1.500    2.500    1.125    3.500    4.500 
#    0.000    0.000    0.000    0.000    0.000    0.000 
#    0.000    0.000    0.000    0.000    0.000    0.000 
#
# Total GULP energy -198210.479103 kJ/mol
# GULP energy per Si atom -12388.154944 kJ/mol
# Density = 2.219910 g / cm^3
# Si number density = 22.249737 Si / 1000 Ang^3
#
#
#
# Elastic Constant Matrix: (Units=GPa)
#
#
# Indices 1 2 3 4 5 6 
#
# 1 116.9948 48.1865 33.7261 -5.5364 -12.5451 -3.9664
# 2 48.1865 107.1441 50.7977 12.1581 -4.2122 -4.5707
# 3 33.7261 50.7977 93.3605 5.1895 -18.6011 5.6386
# 4 -5.5364 12.1581 5.1895 30.3288 5.3813 -7.8117
# 5 -12.5451 -4.2122 -18.6011 5.3813 33.9832 -2.3672
# 6 -3.9664 -4.5707 5.6386 -7.8117 -2.3672 41.5539
#
#
#
# Elastic Compliance Matrix: (Units=1/GPa)
#
#
# Indices 1 2 3 4 5 6 
#
# 1 0.011435 -0.004802 -0.001399 0.004279 0.002300 0.001689
# 2 -0.004802 0.015282 -0.006919 -0.005052 -0.002793 0.001053
# 3 -0.001399 -0.006919 0.016935 -0.002647 0.008090 -0.003229
# 4 0.004279 -0.005052 -0.002647 0.039192 -0.006198 0.007227
# 5 0.002300 -0.002793 0.008090 -0.006198 0.035315 -0.000339
# 6 0.001689 0.001053 -0.003229 0.007227 -0.000339 0.026119
#
#
# Mechanical properties :
#
#
# Convention : Reuss Voigt Hill
#
# Bulk Modulus (GPa) = 57.43707 64.76889 61.10298
# Shear Modulus (GPa) = 28.35675 33.49246 30.92461
#
# Velocity S-wave (km/s) = 3.57385 3.88402 3.73216
# Velocity P-wave (km/s) = 6.54986 7.02049 6.78926
#
# Compressibility (1/GPa) = 0.01741036
#
# Stress axis : x y z
#
# Youngs Moduli (GPa) = 87.44989 65.43701 59.04788
#
# Poissons Ratio (x) = 0.31425 0.08264
# Poissons Ratio (y) = 0.41997 0.40856
# Poissons Ratio (z) = 0.12238 0.45277
#
# Static dielectric constant tensor:
#      x y z
#    x 4.637030 -0.093300 -0.015280 
#    y -0.093300 4.036090 0.268520 
#    z -0.015280 0.268520 3.808320 
# 
# 
# High freq. dielectric constant tensor:
#      x y z
#    x 1.903130 -0.000600 -0.005970 
#    y -0.000600 1.870180 0.028100 
#    z -0.005970 0.028100 1.852740 
# 
# From -- ./inp_files/595965.got.cif
#   From: 2010.06.25/outbox.cif.g09.slc.cpg/sg2_298_cif.got.tgz:595965.got - 2010.06.27 13:26:56.
