data_PCOD8019943
_publ_section_title
;
Structure prediction by ZEFSAII (Michael W. Deem and Ramdas Pophale) SiO2 
 PCOD8019943
Probable space group: P -1
;
_chemical_formula_sum "Si O2"
_cell_formula_units_Z 16
_cell_length_a 11.210038
_cell_length_b 8.698864
_cell_length_c 14.562277
_cell_angle_alpha 103.340007
_cell_angle_beta 119.586430
_cell_angle_gamma 39.963256
_cell_volume 764.925139
_symmetry_space_group_name_H-M "P -1"
_symmetry_group_IT_number 2
_symmetry_cell_setting 'triclinic'
loop_
_space_group_symop_operation_xyz
x,y,z
-x,-y,-z
loop_
_atom_site_type_symbol
_atom_site_label
_atom_site_fract_x
_atom_site_fract_y
_atom_site_fract_z
Si Si1 0.868786 0.188917 0.344462
Si Si2 0.535886 0.020126 0.275382
Si Si3 0.915041 0.919478 0.762358
Si Si4 0.539599 0.273128 0.794071
Si Si5 0.289557 0.787931 0.962978
Si Si6 0.907264 0.557662 0.732578
Si Si7 0.960514 0.785967 0.418375
Si Si8 0.661036 0.963335 0.112670
O O1 0.650533 0.427486 0.238620
O O2 0.067343 0.039164 0.330161
O O3 0.887705 0.285513 0.453282
O O4 0.875103 0.001864 0.349812
O O5 0.315539 0.271529 0.273870
O O6 0.556648 0.075500 0.189119
O O7 0.564322 0.807223 0.252069
O O8 0.744726 0.897489 0.394152
O O9 0.951325 0.700458 0.748381
O O10 0.083009 0.859798 0.884115
O O11 0.675704 0.175071 0.739502
O O12 0.705324 0.137302 0.923930
O O13 0.299779 0.903319 0.900392
O O14 0.500000 0.500000 0.000000
O O15 0.901466 0.461923 0.622830
O O16 0.105421 0.325893 0.838103
O O17 0.500000 0.000000 0.000000
#
# Coordination Sequence:
#
# PCOD8019943 Si02
#       8
#     2   2   2   2   2   2   2   2
#     4  11  23  44  64  90 120 158 204 253 311 359
#     4  10  22  42  63  93 122 161 204 248 303 359
#     4  11  23  41  62  92 125 161 204 249 301 362
#     4  11  24  41  62  90 126 162 204 250 299 362
#     4  12  23  40  60  90 127 166 205 245 298 355
#     4  10  23  41  62  93 125 158 204 249 301 364
#     4  10  24  42  66  89 120 158 202 257 306 364
#     4  11  21  39  61  87 125 166 202 246 294 352
#
# _framework density 20.917081
#
# number of rings (size 3 to 8) (size 9 to 14) (size 15 to 20)
#    0.000    1.250    2.500    4.125    0.000    5.500 
#    2.250    5.000    0.000    0.000    0.000    0.000 
#    0.000    0.000    0.000    0.000    0.000    0.000 
#
# Total GULP energy -198400.992210 kJ/mol
# GULP energy per Si atom -12400.062013 kJ/mol
# Density = 2.086947 g / cm^3
# Si number density = 20.917081 Si / 1000 Ang^3
#
#
#
# Elastic Constant Matrix: (Units=GPa)
#
#
# Indices 1 2 3 4 5 6 
#
# 1 126.9365 56.9332 36.4742 14.5626 2.3152 -2.1437
# 2 56.9332 80.5976 6.4472 5.7497 2.3775 -9.4218
# 3 36.4742 6.4472 62.7347 5.3456 0.6220 -0.2718
# 4 14.5626 5.7497 5.3456 24.6776 4.4715 1.9360
# 5 2.3152 2.3775 0.6220 4.4715 30.4677 4.5272
# 6 -2.1437 -9.4218 -0.2718 1.9360 4.5272 37.5440
#
#
#
# Elastic Compliance Matrix: (Units=1/GPa)
#
#
# Indices 1 2 3 4 5 6 
#
# 1 0.014864 -0.009764 -0.007231 -0.004945 0.000727 -0.001486
# 2 -0.009764 0.019565 0.003673 0.000338 -0.001586 0.004553
# 3 -0.007231 0.003673 0.019850 -0.000924 -0.000113 0.000714
# 4 -0.004945 0.000338 -0.000924 0.044779 -0.005936 -0.001798
# 5 0.000727 -0.001586 -0.000113 -0.005936 0.034387 -0.004198
# 6 -0.001486 0.004553 0.000714 -0.001798 -0.004198 0.028297
#
#
# Mechanical properties :
#
#
# Convention : Reuss Voigt Hill
#
# Bulk Modulus (GPa) = 36.18570 52.21977 44.20274
# Shear Modulus (GPa) = 25.30394 29.89881 27.60138
#
# Velocity S-wave (km/s) = 3.48189 3.78484 3.63652
# Velocity P-wave (km/s) = 5.78808 6.64224 6.22981
#
# Compressibility (1/GPa) = 0.02763523
#
# Stress axis : x y z
#
# Youngs Moduli (GPa) = 67.27764 51.11073 50.37879
#
# Poissons Ratio (x) = 0.49903 0.36428
# Poissons Ratio (y) = 0.65687 -0.18502
# Poissons Ratio (z) = 0.48647 -0.18771
#
# Static dielectric constant tensor:
#      x y z
#    x 3.979970 0.044420 0.038260 
#    y 0.044420 3.697640 0.190430 
#    z 0.038260 0.190430 4.339870 
# 
# 
# High freq. dielectric constant tensor:
#      x y z
#    x 1.835210 0.005980 0.006920 
#    y 0.005980 1.818290 0.013250 
#    z 0.006920 0.013250 1.820810 
# 
# From -- ./inp_files/270890.got.cif
#   From: 2010.06.25/outbox.cif.g09.slc.cpg/sg2_136_cif.got.tgz:270890.got - 2010.06.27 13:26:56.
