data_PCOD8019656
_publ_section_title
;
Structure prediction by ZEFSAII (Michael W. Deem and Ramdas Pophale) SiO2 
 PCOD8019656
Probable space group: P -1
;
_chemical_formula_sum "Si O2"
_cell_formula_units_Z 16
_cell_length_a 8.908206
_cell_length_b 7.815282
_cell_length_c 17.657786
_cell_angle_alpha 48.403974
_cell_angle_beta 64.141726
_cell_angle_gamma 91.145425
_cell_volume 734.596108
_symmetry_space_group_name_H-M "P -1"
_symmetry_group_IT_number 2
_symmetry_cell_setting 'triclinic'
loop_
_space_group_symop_operation_xyz
x,y,z
-x,-y,-z
loop_
_atom_site_type_symbol
_atom_site_label
_atom_site_fract_x
_atom_site_fract_y
_atom_site_fract_z
Si Si1 0.944075 0.403123 0.832606
Si Si2 0.830077 0.218249 0.632739
Si Si3 0.826678 0.492906 0.994797
Si Si4 0.248967 0.336871 0.717438
Si Si5 0.861823 0.052614 0.828582
Si Si6 0.972338 0.057133 0.403559
Si Si7 0.587584 0.865519 0.467649
Si Si8 0.424797 0.011795 0.734141
O O1 0.804395 0.140308 0.895250
O O2 0.149552 0.399753 0.793949
O O3 0.982050 0.647222 0.700145
O O4 0.852093 0.420589 0.925208
O O5 0.771486 0.147536 0.753988
O O6 0.648586 0.187733 0.635566
O O7 0.000000 0.500000 0.500000
O O8 0.882144 0.996308 0.661207
O O9 0.634891 0.274862 0.137518
O O10 0.000000 0.500000 0.000000
O O11 0.804465 0.751183 0.928310
O O12 0.430384 0.575611 0.573780
O O13 0.318321 0.122570 0.781401
O O14 0.089383 0.219016 0.721489
O O15 0.764892 0.872319 0.471132
O O16 0.000000 0.000000 0.500000
O O17 0.646593 0.002127 0.332588
O O18 0.500000 0.000000 0.500000
#
# Coordination Sequence:
#
# PCOD8019656 Si02
#       8
#     2   2   2   2   2   2   2   2
#     4  10  23  44  69 102 136 179 244 278 354 414
#     4  12  24  43  69 101 143 186 232 288 365 422
#     4  12  23  45  72 100 144 188 236 291 347 418
#     4  10  22  41  69  97 135 178 234 295 346 402
#     4  10  22  43  71  95 139 190 223 294 350 405
#     4  12  23  41  68 100 144 185 226 297 365 414
#     4  12  22  42  67 103 141 168 236 303 341 418
#     4  12  26  41  69 107 135 186 241 279 356 427
#
# _framework density 21.780674000000001
#
# number of rings (size 3 to 8) (size 9 to 14) (size 15 to 20)
#    0.750    0.000    3.750    4.875    0.000    2.500 
#    0.000    0.625    0.000    0.000    0.000    0.000 
#    0.000    0.000    0.000    0.000    0.000    0.000 
#
# Total GULP energy -198275.795940 kJ/mol
# GULP energy per Si atom -12392.237246 kJ/mol
# Density = 2.173110 g / cm^3
# Si number density = 21.780674 Si / 1000 Ang^3
#
#
#
# Elastic Constant Matrix: (Units=GPa)
#
#
# Indices 1 2 3 4 5 6 
#
# 1 108.2451 19.9577 24.4101 0.2662 2.5637 11.7364
# 2 19.9577 137.7409 41.1321 -5.4934 5.5919 4.9777
# 3 24.4101 41.1321 111.7244 -13.0480 7.9069 25.1696
# 4 0.2662 -5.4934 -13.0480 33.1510 -0.4489 3.9398
# 5 2.5637 5.5919 7.9069 -0.4489 31.4603 4.1833
# 6 11.7364 4.9777 25.1696 3.9398 4.1833 30.1603
#
#
#
# Elastic Compliance Matrix: (Units=1/GPa)
#
#
# Indices 1 2 3 4 5 6 
#
# 1 0.009993 -0.000988 -0.001288 -0.000442 0.000024 -0.002596
# 2 -0.000988 0.008327 -0.003213 -0.000105 -0.000836 0.001821
# 3 -0.001288 -0.003213 0.013710 0.006171 -0.001213 -0.011048
# 4 -0.000442 -0.000105 0.006171 0.033700 0.000234 -0.009395
# 5 0.000024 -0.000836 -0.001213 0.000234 0.032696 -0.003425
# 6 -0.002596 0.001821 -0.011048 -0.009395 -0.003425 0.044788
#
#
# Mechanical properties :
#
#
# Convention : Reuss Voigt Hill
#
# Bulk Modulus (GPa) = 47.50182 58.74557 53.12370
# Shear Modulus (GPa) = 31.01564 37.10169 34.05867
#
# Velocity S-wave (km/s) = 3.77768 4.13173 3.95867
# Velocity P-wave (km/s) = 6.39409 7.05631 6.73335
#
# Compressibility (1/GPa) = 0.02105182
#
# Stress axis : x y z
#
# Youngs Moduli (GPa) = 100.07072 120.09762 72.93789
#
# Poissons Ratio (x) = 0.11867 0.09394
# Poissons Ratio (y) = 0.09888 0.23435
# Poissons Ratio (z) = 0.12889 0.38587
#
# Static dielectric constant tensor:
#      x y z
#    x 2.830510 -0.807080 0.170080 
#    y -0.807080 3.565360 -0.052650 
#    z 0.170080 -0.052650 4.177990 
# 
# 
# High freq. dielectric constant tensor:
#      x y z
#    x 1.843000 -0.001130 0.004660 
#    y -0.001130 1.875280 -0.010280 
#    z 0.004660 -0.010280 1.841760 
# 
# From -- ./inp_files/556747.got.cif
#   From: 2010.06.25/outbox.cif.g09.slc.cpg/sg2_279_cif.got.tgz:556747.got - 2010.06.27 13:26:56.
