data_PCOD8019721
_publ_section_title
;
Structure prediction by ZEFSAII (Michael W. Deem and Ramdas Pophale) SiO2 
 PCOD8019721
Probable space group: P -1
;
_chemical_formula_sum "Si O2"
_cell_formula_units_Z 16
_cell_length_a 6.584324
_cell_length_b 14.285152
_cell_length_c 15.059706
_cell_angle_alpha 140.624130
_cell_angle_beta 104.804528
_cell_angle_gamma 61.972517
_cell_volume 778.427598
_symmetry_space_group_name_H-M "P -1"
_symmetry_group_IT_number 2
_symmetry_cell_setting 'triclinic'
loop_
_space_group_symop_operation_xyz
x,y,z
-x,-y,-z
loop_
_atom_site_type_symbol
_atom_site_label
_atom_site_fract_x
_atom_site_fract_y
_atom_site_fract_z
Si Si1 0.607847 0.068663 0.137324
Si Si2 0.145729 0.746264 0.356878
Si Si3 0.464299 0.425353 0.352443
Si Si4 0.959230 0.619539 0.400018
Si Si5 0.097312 0.907767 0.037782
Si Si6 0.662854 0.984786 0.421185
Si Si7 0.655729 0.907405 0.699613
Si Si8 0.613094 0.477032 0.227353
O O1 0.620667 0.230091 0.218257
O O2 0.477752 0.123127 0.255547
O O3 0.868304 0.925839 0.078991
O O4 0.500000 0.000000 0.000000
O O5 0.359090 0.573276 0.218736
O O6 0.039317 0.728334 0.425838
O O7 0.913392 0.820788 0.323930
O O8 0.274069 0.862995 0.464334
O O9 0.500000 0.500000 0.500000
O O10 0.546938 0.512216 0.349321
O O11 0.191832 0.460816 0.340496
O O12 0.833739 0.730127 0.552024
O O13 0.791899 0.554753 0.282386
O O14 0.211578 0.995541 0.175090
O O15 0.278853 0.716745 0.918178
O O16 0.000000 0.000000 0.000000
O O17 0.500000 0.000000 0.500000
O O18 0.519978 0.983413 0.316956
#
# Coordination Sequence:
#
# PCOD8019721 Si02
#       8
#     2   2   2   2   2   2   2   2
#     4  12  24  41  59  89 131 182 220 255 314 384
#     4  10  22  41  70  98 133 161 214 279 342 386
#     4  11  23  34  58  89 128 167 221 269 315 380
#     4  11  23  38  65  98 130 169 220 275 331 388
#     4  12  25  43  62  89 139 185 219 261 313 390
#     4  11  22  43  71 104 130 162 212 284 347 386
#     4  12  25  40  66  99 129 172 223 265 333 393
#     4  11  22  42  60  93 131 180 215 266 329 382
#
# _framework density 20.554258000000001
#
# number of rings (size 3 to 8) (size 9 to 14) (size 15 to 20)
#    0.000    0.750    5.000    2.250    3.500    2.000 
#    0.000    0.625    0.000    3.750    0.000    0.000 
#    0.000    0.000    0.000    0.000    0.000    0.000 
#
# Total GULP energy -198257.686461 kJ/mol
# GULP energy per Si atom -12391.105404 kJ/mol
# Density = 2.050748 g / cm^3
# Si number density = 20.554258 Si / 1000 Ang^3
#
#
#
# Elastic Constant Matrix: (Units=GPa)
#
#
# Indices 1 2 3 4 5 6 
#
# 1 117.9431 38.0219 23.0687 3.0534 -3.3750 -11.3254
# 2 38.0219 102.4141 33.2564 6.6883 -3.4490 -26.3748
# 3 23.0687 33.2564 80.7209 8.9371 4.8603 -11.7694
# 4 3.0534 6.6883 8.9371 38.9289 -9.5908 -6.6805
# 5 -3.3750 -3.4490 4.8603 -9.5908 35.4179 1.8814
# 6 -11.3254 -26.3748 -11.7694 -6.6805 1.8814 50.4731
#
#
#
# Elastic Compliance Matrix: (Units=1/GPa)
#
#
# Indices 1 2 3 4 5 6 
#
# 1 0.009819 -0.003051 -0.001615 0.000403 0.000956 0.000250
# 2 -0.003051 0.013659 -0.004048 0.000088 0.001328 0.005471
# 3 -0.001615 -0.004048 0.015224 -0.003432 -0.003607 0.000753
# 4 0.000403 0.000088 -0.003432 0.028941 0.008203 0.002861
# 5 0.000956 0.001328 -0.003607 0.008203 0.031171 -0.000009
# 6 0.000250 0.005471 0.000753 0.002861 -0.000009 0.023282
#
#
# Mechanical properties :
#
#
# Convention : Reuss Voigt Hill
#
# Bulk Modulus (GPa) = 47.00092 54.41913 50.71002
# Shear Modulus (GPa) = 34.10274 38.74606 36.42440
#
# Velocity S-wave (km/s) = 4.07769 4.34644 4.21421
# Velocity P-wave (km/s) = 6.71465 7.19180 6.95732
#
# Compressibility (1/GPa) = 0.02127618
#
# Stress axis : x y z
#
# Youngs Moduli (GPa) = 101.84408 73.21046 65.68391
#
# Poissons Ratio (x) = 0.22334 0.10608
# Poissons Ratio (y) = 0.31069 0.26586
# Poissons Ratio (z) = 0.16448 0.29633
#
# Static dielectric constant tensor:
#      x y z
#    x 4.273840 -0.290460 -0.215810 
#    y -0.290460 4.031750 0.147690 
#    z -0.215810 0.147690 3.470580 
# 
# 
# High freq. dielectric constant tensor:
#      x y z
#    x 1.833030 -0.014060 -0.005960 
#    y -0.014060 1.804550 0.018840 
#    z -0.005960 0.018840 1.778760 
# 
# From -- ./inp_files/484525.got.cif
#   From: 2010.06.25/outbox.cif.g09.slc.cpg/sg2_243_cif.got.tgz:484525.got - 2010.06.27 13:26:56.
