data_PCOD8019125
_publ_section_title
;
Structure prediction by ZEFSAII (Michael W. Deem and Ramdas Pophale) SiO2 
 PCOD8019125
Probable space group: P -1
;
_chemical_formula_sum "Si O2"
_cell_formula_units_Z 12
_cell_length_a 5.190619
_cell_length_b 11.539092
_cell_length_c 9.902002
_cell_angle_alpha 66.540756
_cell_angle_beta 73.578276
_cell_angle_gamma 81.860820
_cell_volume 521.580686
_symmetry_space_group_name_H-M "P -1"
_symmetry_group_IT_number 2
_symmetry_cell_setting 'triclinic'
loop_
_space_group_symop_operation_xyz
x,y,z
-x,-y,-z
loop_
_atom_site_type_symbol
_atom_site_label
_atom_site_fract_x
_atom_site_fract_y
_atom_site_fract_z
Si Si1 0.913282 0.759345 0.036308
Si Si2 0.803405 0.958375 0.745496
Si Si3 0.447002 0.602188 0.073092
Si Si4 0.539677 0.804226 0.314600
Si Si5 0.278646 0.109310 0.489539
Si Si6 0.716426 0.440270 0.595590
O O1 0.726951 0.668211 0.022027
O O2 0.801753 0.771851 0.199332
O O3 0.218532 0.706618 0.016883
O O4 0.905184 0.893490 0.898043
O O5 0.763623 0.852228 0.680763
O O6 0.539663 0.048373 0.771349
O O7 0.008775 0.058957 0.615089
O O8 0.358278 0.528177 0.254025
O O9 0.500000 0.500000 0.000000
O O10 0.619384 0.783034 0.472030
O O11 0.296489 0.711714 0.356220
O O12 0.500000 0.000000 0.500000
O O13 0.500000 0.500000 0.500000
O O14 0.000000 0.500000 0.500000
#
# Coordination Sequence:
#
# PCOD8019125 Si02
#       6
#     2   2   2   2   2   2
#     4  11  25  42  73  98 134 178 226 273 346 407
#     4  10  22  41  65 103 139 178 218 274 347 410
#     4  11  26  50  66 100 137 176 233 290 331 408
#     4  10  23  41  68  98 140 172 224 288 330 409
#     4   9  21  40  60  95 146 171 225 268 334 405
#     4  11  25  46  70 100 130 180 235 279 337 396
#
# _framework density 23.006988
#
# number of rings (size 3 to 8) (size 9 to 14) (size 15 to 20)
#    0.000    1.667    0.000    3.000   11.667    2.000 
#   12.000    0.000    0.000    0.000    0.000    0.000 
#    0.000    0.000    0.000    0.000    0.000    0.000 
#
# Total GULP energy -148725.341447 kJ/mol
# GULP energy per Si atom -12393.778454 kJ/mol
# Density = 2.295462 g / cm^3
# Si number density = 23.006988 Si / 1000 Ang^3
#
#
#
# Elastic Constant Matrix: (Units=GPa)
#
#
# Indices 1 2 3 4 5 6 
#
# 1 81.3771 17.3700 24.0270 14.5477 19.8995 3.9645
# 2 17.3700 99.1364 53.6381 33.2074 18.1545 6.2727
# 3 24.0270 53.6381 106.8794 13.6038 20.7695 10.2687
# 4 14.5477 33.2074 13.6038 40.9822 -0.1419 11.7466
# 5 19.8995 18.1545 20.7695 -0.1419 33.1246 -0.5351
# 6 3.9645 6.2727 10.2687 11.7466 -0.5351 37.7151
#
#
#
# Elastic Compliance Matrix: (Units=1/GPa)
#
#
# Indices 1 2 3 4 5 6 
#
# 1 0.016003 0.002476 -0.002101 -0.007189 -0.009675 0.000580
# 2 0.002476 0.020199 -0.007467 -0.015710 -0.007891 0.003194
# 3 -0.002101 -0.007467 0.014216 0.003041 -0.003601 -0.003406
# 4 -0.007189 -0.015710 0.003041 0.041657 0.011035 -0.010277
# 5 -0.009675 -0.007891 -0.003601 0.011035 0.042639 0.000478
# 6 0.000580 0.003194 -0.003406 -0.010277 0.000478 0.030057
#
#
# Mechanical properties :
#
#
# Convention : Reuss Voigt Hill
#
# Bulk Modulus (GPa) = 27.59863 53.05144 40.32504
# Shear Modulus (GPa) = 26.17344 35.18824 30.68084
#
# Velocity S-wave (km/s) = 3.37654 3.91507 3.65573
# Velocity P-wave (km/s) = 5.21758 6.59894 5.94849
#
# Compressibility (1/GPa) = 0.03623368
#
# Stress axis : x y z
#
# Youngs Moduli (GPa) = 62.48806 49.50785 70.34308
#
# Poissons Ratio (x) = -0.12257 0.14776
# Poissons Ratio (y) = -0.15471 0.52528
# Poissons Ratio (z) = 0.13126 0.36969
#
# Static dielectric constant tensor:
#      x y z
#    x 4.124010 0.370420 0.240580 
#    y 0.370420 4.244300 0.355230 
#    z 0.240580 0.355230 4.500340 
# 
# 
# High freq. dielectric constant tensor:
#      x y z
#    x 1.923070 0.006770 0.007980 
#    y 0.006770 1.894500 0.022690 
#    z 0.007980 0.022690 1.910340 
# 
# From -- ./inp_files/24663.got.cif
#   From: 2010.06.25/outbox.cif.g09.slc.cpg/sg2_13_cif.got.tgz:24663.got - 2010.06.27 13:26:56.
