data_PCOD8019526
_publ_section_title
;
Structure prediction by ZEFSAII (Michael W. Deem and Ramdas Pophale) SiO2 
 PCOD8019526
Probable space group: P -1
;
_chemical_formula_sum "Si O2"
_cell_formula_units_Z 12
_cell_length_a 16.698498
_cell_length_b 16.331100
_cell_length_c 9.006008
_cell_angle_alpha 45.607536
_cell_angle_beta 136.525855
_cell_angle_gamma 161.815902
_cell_volume 526.745727
_symmetry_space_group_name_H-M "P -1"
_symmetry_group_IT_number 2
_symmetry_cell_setting 'triclinic'
loop_
_space_group_symop_operation_xyz
x,y,z
-x,-y,-z
loop_
_atom_site_type_symbol
_atom_site_label
_atom_site_fract_x
_atom_site_fract_y
_atom_site_fract_z
Si Si1 0.116198 0.134062 0.147480
Si Si2 0.180747 0.959683 0.949078
Si Si3 0.783909 0.017939 0.375971
Si Si4 0.725743 0.409214 0.585980
Si Si5 0.213813 0.736491 0.372952
Si Si6 0.465070 0.337411 0.087603
O O1 0.068994 0.181065 0.160848
O O2 0.133294 0.023417 0.376293
O O3 0.395259 0.419519 0.082499
O O4 0.844615 0.910443 0.960294
O O5 0.243995 0.032466 0.770369
O O6 0.112098 0.768877 0.139203
O O7 0.441742 0.232215 0.047755
O O8 0.002239 0.309549 0.327600
O O9 0.499294 0.810436 0.314185
O O10 0.774572 0.333139 0.666894
O O11 0.635935 0.426539 0.328108
O O12 0.000000 0.500000 0.500000
O O13 0.500000 0.000000 0.500000
#
# Coordination Sequence:
#
# PCOD8019526 Si02
#       6
#     2   2   2   2   2   2
#     4  10  22  42  68  96 129 180 225 256 321 391
#     4  10  26  43  71  96 128 182 222 260 327 392
#     4  12  27  41  66  98 147 162 213 279 331 387
#     4  12  26  43  64 106 128 175 214 277 337 367
#     4  12  24  46  75  94 127 171 228 272 312 401
#     4  10  22  41  68  94 127 172 235 251 319 393
#
# _framework density 22.781389999999998
#
# number of rings (size 3 to 8) (size 9 to 14) (size 15 to 20)
#    1.000    0.000    1.667    4.500    2.333    6.000 
#    0.000    0.000    0.000    0.000    0.000    0.000 
#    0.000    0.000    0.000    0.000    0.000    0.000 
#
# Total GULP energy -148854.667259 kJ/mol
# GULP energy per Si atom -12404.555605 kJ/mol
# Density = 2.272954 g / cm^3
# Si number density = 22.781390 Si / 1000 Ang^3
#
#
#
# Elastic Constant Matrix: (Units=GPa)
#
#
# Indices 1 2 3 4 5 6 
#
# 1 174.3532 74.0869 37.7388 -13.8958 -5.0749 2.0988
# 2 74.0869 160.3934 23.9940 -22.1019 -13.8003 9.9853
# 3 37.7388 23.9940 66.4274 -16.1326 -11.1485 -4.2532
# 4 -13.8958 -22.1019 -16.1326 21.7755 -5.7904 -2.5127
# 5 -5.0749 -13.8003 -11.1485 -5.7904 49.2837 -5.6781
# 6 2.0988 9.9853 -4.2532 -2.5127 -5.6781 43.6048
#
#
#
# Elastic Compliance Matrix: (Units=1/GPa)
#
#
# Indices 1 2 3 4 5 6 
#
# 1 0.007833 -0.003354 -0.003849 -0.001609 -0.001220 -0.000236
# 2 -0.003354 0.009176 0.001296 0.008959 0.003472 -0.000845
# 3 -0.003849 0.001296 0.022779 0.018276 0.007747 0.004172
# 4 -0.001609 0.008959 0.018276 0.072393 0.015676 0.006021
# 5 -0.001220 0.003472 0.007747 0.015676 0.025216 0.004206
# 6 -0.000236 -0.000845 0.004172 0.006021 0.004206 0.024440
#
#
# Mechanical properties :
#
#
# Convention : Reuss Voigt Hill
#
# Bulk Modulus (GPa) = 35.74983 74.75705 55.25344
# Shear Modulus (GPa) = 27.32587 40.62308 33.97448
#
# Velocity S-wave (km/s) = 3.46711 4.22734 3.86596
# Velocity P-wave (km/s) = 5.63511 7.53083 6.65086
#
# Compressibility (1/GPa) = 0.02797216
#
# Stress axis : x y z
#
# Youngs Moduli (GPa) = 127.66413 108.97833 43.90065
#
# Poissons Ratio (x) = 0.36555 0.16898
# Poissons Ratio (y) = 0.42823 -0.05688
# Poissons Ratio (z) = 0.49140 -0.14119
#
# Static dielectric constant tensor:
#      x y z
#    x 4.635620 0.001600 0.014010 
#    y 0.001600 4.257400 -0.019150 
#    z 0.014010 -0.019150 3.818930 
# 
# 
# High freq. dielectric constant tensor:
#      x y z
#    x 1.943820 -0.006540 -0.000300 
#    y -0.006540 1.912350 -0.009900 
#    z -0.000300 -0.009900 1.880770 
# 
# From -- ./inp_files/42654.got.cif
#   From: 2010.06.25/outbox.cif.g09.slc.cpg/sg2_22_cif.got.tgz:42654.got - 2010.06.27 13:26:56.
