data_PCOD8019856
_publ_section_title
;
Structure prediction by ZEFSAII (Michael W. Deem and Ramdas Pophale) SiO2 
 PCOD8019856
Probable space group: P -1
;
_chemical_formula_sum "Si O2"
_cell_formula_units_Z 14
_cell_length_a 25.529571
_cell_length_b 8.918359
_cell_length_c 6.948334
_cell_angle_alpha 95.717726
_cell_angle_beta 119.385245
_cell_angle_gamma 37.832407
_cell_volume 712.310209
_symmetry_space_group_name_H-M "P -1"
_symmetry_group_IT_number 2
_symmetry_cell_setting 'triclinic'
loop_
_space_group_symop_operation_xyz
x,y,z
-x,-y,-z
loop_
_atom_site_type_symbol
_atom_site_label
_atom_site_fract_x
_atom_site_fract_y
_atom_site_fract_z
Si Si1 0.494476 0.261303 0.968889
Si Si2 0.106697 0.877269 0.137105
Si Si3 0.963449 0.736893 0.661397
Si Si4 0.814560 0.878074 0.148260
Si Si5 0.558770 0.360951 0.793249
Si Si6 0.317125 0.381754 0.716126
Si Si7 0.169879 0.826770 0.829630
O O1 0.464832 0.433857 0.112755
O O2 0.613852 0.921695 0.188691
O O3 0.504429 0.334272 0.799811
O O4 0.393622 0.355917 0.771376
O O5 0.216048 0.574264 0.405336
O O6 0.131814 0.820659 0.949132
O O7 0.075671 0.113688 0.183573
O O8 0.000000 0.000000 0.000000
O O9 0.098745 0.403541 0.867127
O O10 0.882449 0.766169 0.460107
O O11 0.939817 0.918547 0.481299
O O12 0.783601 0.105090 0.021990
O O13 0.697096 0.037207 0.987479
O O14 0.500000 0.500000 0.500000
O O15 0.270509 0.518921 0.863279
#
# Coordination Sequence:
#
# PCOD8019856 Si02
#       7
#     2   2   2   2   2   2   2
#     4  10  23  41  61  85 117 161 195 239 289 346
#     4  11  23  35  58  89 115 148 195 241 291 344
#     4   8  19  38  58  81 115 150 190 232 289 355
#     4   9  18  40  57  83 114 155 190 232 299 339
#     4  11  23  38  61  91 120 147 200 248 286 337
#     4  10  22  42  61  83 120 159 196 232 295 351
#     4   9  19  37  59  82 113 153 189 238 287 344
#
# _framework density 19.654357999999998
#
# number of rings (size 3 to 8) (size 9 to 14) (size 15 to 20)
#    0.857    1.429    1.429    0.000    2.000    7.429 
#    0.000    2.857    0.000    0.000    0.000    0.000 
#    0.000    0.000    0.000    0.000    0.000    0.000 
#
# Total GULP energy -173540.323227 kJ/mol
# GULP energy per Si atom -12395.737373 kJ/mol
# Density = 1.960962 g / cm^3
# Si number density = 19.654358 Si / 1000 Ang^3
#
#
#
# Elastic Constant Matrix: (Units=GPa)
#
#
# Indices 1 2 3 4 5 6 
#
# 1 79.4599 20.3433 43.7338 -6.4764 -2.5557 -17.3754
# 2 20.3433 96.6451 35.1593 -26.1938 1.3148 -18.9174
# 3 43.7338 35.1593 92.8431 -7.1770 -0.8326 -18.1231
# 4 -6.4764 -26.1938 -7.1770 22.0705 -7.4810 -1.8755
# 5 -2.5557 1.3148 -0.8326 -7.4810 28.8231 -0.9262
# 6 -17.3754 -18.9174 -18.1231 -1.8755 -0.9262 31.6791
#
#
#
# Elastic Compliance Matrix: (Units=1/GPa)
#
#
# Indices 1 2 3 4 5 6 
#
# 1 0.018564 0.002424 -0.007484 0.007781 0.003593 0.007914
# 2 0.002424 0.021823 -0.004447 0.028698 0.006980 0.013721
# 3 -0.007484 -0.004447 0.016283 -0.002132 -0.000466 0.002415
# 4 0.007781 0.028698 -0.002132 0.091278 0.023855 0.026287
# 5 0.003593 0.006980 -0.000466 0.023855 0.041145 0.008488
# 6 0.007914 0.013721 0.002415 0.026287 0.008488 0.047286
#
#
# Mechanical properties :
#
#
# Convention : Reuss Voigt Hill
#
# Bulk Modulus (GPa) = 26.55614 51.93565 39.24589
# Shear Modulus (GPa) = 18.66051 27.82866 23.24458
#
# Velocity S-wave (km/s) = 3.08463 3.76693 3.44273
# Velocity P-wave (km/s) = 5.12128 6.73807 5.98452
#
# Compressibility (1/GPa) = 0.03765608
#
# Stress axis : x y z
#
# Youngs Moduli (GPa) = 53.86865 45.82240 61.41493
#
# Poissons Ratio (x) = -0.11108 0.45963
# Poissons Ratio (y) = -0.13059 0.27312
# Poissons Ratio (z) = 0.40315 0.20378
#
# Static dielectric constant tensor:
#      x y z
#    x 3.331890 -0.035380 0.079040 
#    y -0.035380 3.757080 -0.016290 
#    z 0.079040 -0.016290 3.296820 
# 
# 
# High freq. dielectric constant tensor:
#      x y z
#    x 1.749850 -0.006670 0.006400 
#    y -0.006670 1.780940 -0.003120 
#    z 0.006400 -0.003120 1.744790 
# 
# From -- ./inp_files/122521.got.cif
#   From: 2010.06.25/outbox.cif.g09.slc.cpg/sg2_62_cif.got.tgz:122521.got - 2010.06.27 13:26:56.
