data_PCOD8019539
_publ_section_title
;
Structure prediction by ZEFSAII (Michael W. Deem and Ramdas Pophale) SiO2 
 PCOD8019539
Probable space group: P -1
;
_chemical_formula_sum "Si O2"
_cell_formula_units_Z 14
_cell_length_a 9.276394
_cell_length_b 13.263050
_cell_length_c 9.031047
_cell_angle_alpha 132.488644
_cell_angle_beta 78.772708
_cell_angle_gamma 125.503461
_cell_volume 629.861610
_symmetry_space_group_name_H-M "P -1"
_symmetry_group_IT_number 2
_symmetry_cell_setting 'triclinic'
loop_
_space_group_symop_operation_xyz
x,y,z
-x,-y,-z
loop_
_atom_site_type_symbol
_atom_site_label
_atom_site_fract_x
_atom_site_fract_y
_atom_site_fract_z
Si Si1 0.057201 0.040606 0.859698
Si Si2 0.664954 0.569395 0.747535
Si Si3 0.214485 0.950425 0.254229
Si Si4 0.322680 0.803698 0.867048
Si Si5 0.300364 0.493212 0.651837
Si Si6 0.347895 0.739821 0.485653
Si Si7 0.096760 0.797219 0.441357
O O1 0.874136 0.966683 0.722501
O O2 0.141986 0.946153 0.694173
O O3 0.211138 0.247356 0.010446
O O4 0.000000 0.000000 0.000000
O O5 0.448955 0.491586 0.713478
O O6 0.734365 0.593254 0.588124
O O7 0.680136 0.438075 0.707261
O O8 0.104123 0.855686 0.331601
O O9 0.432386 0.100299 0.391419
O O10 0.180511 0.804027 0.001595
O O11 0.380641 0.693640 0.821114
O O12 0.237981 0.722049 0.640719
O O13 0.500000 0.000000 0.000000
O O14 0.106702 0.384251 0.670888
O O15 0.253111 0.768858 0.400432
#
# Coordination Sequence:
#
# PCOD8019539 Si02
#       7
#     2   2   2   2   2   2   2
#     4  12  25  42  71  99 126 172 229 266 324 391
#     4  10  23  42  68  98 127 167 227 276 317 380
#     4  11  25  44  65  97 139 172 213 272 332 388
#     4   9  21  38  69  94 124 169 227 263 319 377
#     4  10  22  41  68  95 134 171 216 276 329 378
#     4  10  23  44  69  94 131 174 222 267 325 385
#     4  12  25  43  67  97 137 175 214 267 335 392
#
# _framework density 22.227105999999999
#
# number of rings (size 3 to 8) (size 9 to 14) (size 15 to 20)
#    0.000    1.429    1.429    2.571   12.000    1.714 
#    0.000    1.429    0.000    0.000    0.000    0.000 
#    0.000    0.000    0.000    0.000    0.000    0.000 
#
# Total GULP energy -173641.294991 kJ/mol
# GULP energy per Si atom -12402.949642 kJ/mol
# Density = 2.217652 g / cm^3
# Si number density = 22.227106 Si / 1000 Ang^3
#
#
#
# Elastic Constant Matrix: (Units=GPa)
#
#
# Indices 1 2 3 4 5 6 
#
# 1 132.0649 52.8219 16.5769 8.9478 8.3410 -15.6499
# 2 52.8219 122.4628 45.0727 5.2644 1.9463 -7.9352
# 3 16.5769 45.0727 70.7468 21.0352 -11.1573 -3.4248
# 4 8.9478 5.2644 21.0352 40.1900 -6.8015 0.0167
# 5 8.3410 1.9463 -11.1573 -6.8015 29.5414 6.4514
# 6 -15.6499 -7.9352 -3.4248 0.0167 6.4514 40.9430
#
#
#
# Elastic Compliance Matrix: (Units=1/GPa)
#
#
# Indices 1 2 3 4 5 6 
#
# 1 0.009995 -0.004156 0.000694 -0.002672 -0.003700 0.003657
# 2 -0.004156 0.013094 -0.008711 0.003375 -0.002331 0.000586
# 3 0.000694 -0.008711 0.023642 -0.010188 0.007083 -0.000558
# 4 -0.002672 0.003375 -0.010188 0.031088 0.004257 -0.001903
# 5 -0.003700 -0.002331 0.007083 0.004257 0.040372 -0.007637
# 6 0.003657 0.000586 -0.000558 -0.001903 -0.007637 0.027093
#
#
# Mechanical properties :
#
#
# Convention : Reuss Voigt Hill
#
# Bulk Modulus (GPa) = 44.67420 61.57973 53.12697
# Shear Modulus (GPa) = 28.23354 36.18841 32.21097
#
# Velocity S-wave (km/s) = 3.56790 4.03938 3.81093
# Velocity P-wave (km/s) = 6.09227 7.03707 6.58165
#
# Compressibility (1/GPa) = 0.02238428
#
# Stress axis : x y z
#
# Youngs Moduli (GPa) = 100.04678 76.36796 42.29797
#
# Poissons Ratio (x) = 0.31738 -0.02934
# Poissons Ratio (y) = 0.41579 0.36847
# Poissons Ratio (z) = -0.06939 0.66526
#
# Static dielectric constant tensor:
#      x y z
#    x 3.968720 -0.072090 -0.304020 
#    y -0.072090 3.940650 0.035390 
#    z -0.304020 0.035390 4.147390 
# 
# 
# High freq. dielectric constant tensor:
#      x y z
#    x 1.876860 -0.008580 -0.012200 
#    y -0.008580 1.873510 0.014770 
#    z -0.012200 0.014770 1.864990 
# 
# From -- ./inp_files/157643.got.cif
#   From: 2010.06.25/outbox.cif.g09.slc.cpg/sg2_79_cif.got.tgz:157643.got - 2010.06.27 13:26:56.
