data_PCOD8019425
_publ_section_title
;
Structure prediction by ZEFSAII (Michael W. Deem and Ramdas Pophale) SiO2 
 PCOD8019425
Probable space group: P -1
;
_chemical_formula_sum "Si O2"
_cell_formula_units_Z 16
_cell_length_a 12.384463
_cell_length_b 15.436237
_cell_length_c 9.229707
_cell_angle_alpha 111.391274
_cell_angle_beta 129.490518
_cell_angle_gamma 37.237506
_cell_volume 785.200906
_symmetry_space_group_name_H-M "P -1"
_symmetry_group_IT_number 2
_symmetry_cell_setting 'triclinic'
loop_
_space_group_symop_operation_xyz
x,y,z
-x,-y,-z
loop_
_atom_site_type_symbol
_atom_site_label
_atom_site_fract_x
_atom_site_fract_y
_atom_site_fract_z
Si Si1 0.179737 0.510607 0.044417
Si Si2 0.646712 0.029376 0.995789
Si Si3 0.449173 0.713519 0.998215
Si Si4 0.627900 0.004115 0.302918
Si Si5 0.855574 0.260457 0.405027
Si Si6 0.554285 0.594763 0.331647
Si Si7 0.290501 0.328680 0.290062
Si Si8 0.152462 0.728733 0.259505
O O1 0.335759 0.442161 0.995722
O O2 0.277524 0.378168 0.148083
O O3 0.180515 0.603488 0.196586
O O4 0.930448 0.618288 0.839923
O O5 0.547856 0.177266 0.944489
O O6 0.617713 0.036186 0.146237
O O7 0.908499 0.885227 0.086002
O O8 0.503939 0.022509 0.793309
O O9 0.222857 0.789563 0.780187
O O10 0.457220 0.681388 0.151571
O O11 0.510825 0.148506 0.380206
O O12 0.884086 0.857584 0.484380
O O13 0.711174 0.424333 0.331972
O O14 0.818534 0.258239 0.540949
O O15 0.703434 0.596367 0.535696
O O16 0.342439 0.683083 0.305941
#
# Coordination Sequence:
#
# PCOD8019425 Si02
#       8
#     2   2   2   2   2   2   2   2
#     4  11  22  41  70  93 128 160 216 262 308 375
#     4  10  23  41  65  95 128 163 205 261 324 366
#     4  12  26  43  61  93 133 173 203 257 321 378
#     4  10  22  41  67  96 126 156 214 270 309 366
#     4  11  24  41  66  96 126 165 212 263 313 363
#     4  12  26  42  63  93 132 167 213 257 312 380
#     4  11  23  41  68 100 120 165 214 260 313 369
#     4  11  22  42  68  93 125 164 216 265 302 373
#
# _framework density 20.376950000000001
#
# number of rings (size 3 to 8) (size 9 to 14) (size 15 to 20)
#    0.000    1.000    5.000    1.500    3.500    2.000 
#    0.000    0.625    0.000    0.000    0.000    0.000 
#    0.000    0.000    0.000    0.000    0.000    0.000 
#
# Total GULP energy -198513.282992 kJ/mol
# GULP energy per Si atom -12407.080187 kJ/mol
# Density = 2.033057 g / cm^3
# Si number density = 20.376950 Si / 1000 Ang^3
#
#
#
# Elastic Constant Matrix: (Units=GPa)
#
#
# Indices 1 2 3 4 5 6 
#
# 1 60.8363 25.8743 65.1774 -8.8540 8.7616 11.2410
# 2 25.8743 98.0424 27.6311 -9.9063 4.9556 4.0949
# 3 65.1774 27.6311 95.5528 -4.1116 9.5490 -2.8691
# 4 -8.8540 -9.9063 -4.1116 30.8430 1.7846 9.7076
# 5 8.7616 4.9556 9.5490 1.7846 23.2197 -2.6153
# 6 11.2410 4.0949 -2.8691 9.7076 -2.6153 24.4011
#
#
#
# Elastic Compliance Matrix: (Units=1/GPa)
#
#
# Indices 1 2 3 4 5 6 
#
# 1 0.291932 0.003374 -0.194444 0.131075 -0.065436 -0.217075
# 2 0.003374 0.011926 -0.005395 0.006474 -0.002894 -0.007076
# 3 -0.194444 -0.005395 0.141350 -0.086919 0.039507 0.145915
# 4 0.131075 0.006474 -0.086919 0.098730 -0.035613 -0.114785
# 5 -0.065436 -0.002894 0.039507 -0.035613 0.061173 0.056000
# 6 -0.217075 -0.007076 0.145915 -0.114785 0.056000 0.210995
#
#
# Mechanical properties :
#
#
# Convention : Reuss Voigt Hill
#
# Bulk Modulus (GPa) = 19.12805 54.64413 36.88609
# Shear Modulus (GPa) = 4.07677 24.74267 14.40972
#
# Velocity S-wave (km/s) = 1.41599 3.48839 2.66213
# Velocity P-wave (km/s) = 3.47575 6.56506 5.25266
#
# Compressibility (1/GPa) = 0.05227926
#
# Stress axis : x y z
#
# Youngs Moduli (GPa) = 3.42546 83.85338 7.07462
#
# Poissons Ratio (x) = -0.28293 1.37562
# Poissons Ratio (y) = -0.01156 0.03817
# Poissons Ratio (z) = 0.66606 0.45236
#
# Static dielectric constant tensor:
#      x y z
#    x 3.609240 -0.052010 0.275670 
#    y -0.052010 3.763650 -0.001680 
#    z 0.275670 -0.001680 3.646790 
# 
# 
# High freq. dielectric constant tensor:
#      x y z
#    x 1.789190 0.000230 0.023930 
#    y 0.000230 1.806230 0.001160 
#    z 0.023930 0.001160 1.791890 
# 
# From -- ./inp_files/187486.got.cif
#   From: 2010.06.25/outbox.cif.g09.slc.cpg/sg2_94_cif.got.tgz:187486.got - 2010.06.27 13:26:56.
