data_PCOD8019562
_publ_section_title
;
Structure prediction by ZEFSAII (Michael W. Deem and Ramdas Pophale) SiO2 
 PCOD8019562
Probable space group: P -1
;
_chemical_formula_sum "Si O2"
_cell_formula_units_Z 14
_cell_length_a 12.393293
_cell_length_b 18.844344
_cell_length_c 8.434394
_cell_angle_alpha 133.246015
_cell_angle_beta 35.143801
_cell_angle_gamma 151.608297
_cell_volume 534.923701
_symmetry_space_group_name_H-M "P -1"
_symmetry_group_IT_number 2
_symmetry_cell_setting 'triclinic'
loop_
_space_group_symop_operation_xyz
x,y,z
-x,-y,-z
loop_
_atom_site_type_symbol
_atom_site_label
_atom_site_fract_x
_atom_site_fract_y
_atom_site_fract_z
Si Si1 0.222923 0.074212 0.706682
Si Si2 0.964506 0.686198 0.178117
Si Si3 0.094329 0.130913 0.494406
Si Si4 0.690853 0.172438 0.503549
Si Si5 0.266380 0.676219 0.003067
Si Si6 0.456520 0.442762 0.227657
Si Si7 0.728069 0.698721 0.079239
O O1 0.536927 0.171941 0.546877
O O2 0.220421 0.168031 0.734434
O O3 0.086872 0.934598 0.551162
O O4 0.000000 0.000000 0.000000
O O5 0.990654 0.797912 0.214311
O O6 0.755386 0.531074 0.093255
O O7 0.805466 0.651503 0.480740
O O8 0.263627 0.753317 0.975315
O O9 0.438317 0.267077 0.257697
O O10 0.000000 0.000000 0.500000
O O11 0.751793 0.267110 0.726199
O O12 0.992629 0.259590 0.200205
O O13 0.500000 0.000000 0.500000
O O14 0.000000 0.500000 0.000000
O O15 0.396573 0.338109 0.006929
O O16 0.493841 0.560857 0.269695
#
# Coordination Sequence:
#
# PCOD8019562 Si02
#       7
#     2   2   2   2   2   2   2
#     4  12  23  41  70  96 134 184 234 280 351 421
#     4  11  23  44  71  95 142 185 224 282 366 413
#     4  12  27  46  71 106 140 183 238 294 352 431
#     4  12  24  43  71 104 138 189 239 290 354 426
#     4  12  26  43  73 108 142 185 244 291 355 429
#     4  10  22  41  68  97 135 183 218 285 354 416
#     4  11  23  42  64 101 138 171 234 289 341 415
#
# _framework density 26.171953999999999
#
# number of rings (size 3 to 8) (size 9 to 14) (size 15 to 20)
#    0.000    0.571    4.286    4.286    2.000    1.714 
#    0.000    4.286    0.000    0.000    0.000    0.000 
#    0.000    0.000    0.000    0.000    0.000    0.000 
#
# Total GULP energy -173456.581644 kJ/mol
# GULP energy per Si atom -12389.755832 kJ/mol
# Density = 2.611239 g / cm^3
# Si number density = 26.171954 Si / 1000 Ang^3
#
#
#
# Elastic Constant Matrix: (Units=GPa)
#
#
# Indices 1 2 3 4 5 6 
#
# 1 110.9697 25.9930 21.7923 1.6232 -38.8922 35.9524
# 2 25.9930 126.6212 30.1398 12.7634 -5.8575 14.1018
# 3 21.7923 30.1398 58.1689 20.8405 -15.3538 18.1347
# 4 1.6232 12.7634 20.8405 30.3945 1.5070 11.1742
# 5 -38.8922 -5.8575 -15.3538 1.5070 52.5400 5.3664
# 6 35.9524 14.1018 18.1347 11.1742 5.3664 68.4828
#
#
#
# Elastic Compliance Matrix: (Units=1/GPa)
#
#
# Indices 1 2 3 4 5 6 
#
# 1 0.017712 -0.002214 0.000472 0.002837 0.013996 -0.010527
# 2 -0.002214 0.009325 -0.004392 -0.000952 -0.001928 0.000712
# 3 0.000472 -0.004392 0.029472 -0.016976 0.009482 -0.005120
# 4 0.002837 -0.000952 -0.016976 0.046481 -0.003884 -0.004078
# 5 0.013996 -0.001928 0.009482 -0.003884 0.033228 -0.011431
# 6 -0.010527 0.000712 -0.005120 -0.004078 -0.011431 0.022899
#
#
# Mechanical properties :
#
#
# Convention : Reuss Voigt Hill
#
# Bulk Modulus (GPa) = 22.60445 50.17888 36.39166
# Shear Modulus (GPa) = 26.86268 44.80578 35.83423
#
# Velocity S-wave (km/s) = 3.20721 4.14209 3.70426
# Velocity P-wave (km/s) = 4.72975 6.48770 5.67719
#
# Compressibility (1/GPa) = 0.04423908
#
# Stress axis : x y z
#
# Youngs Moduli (GPa) = 56.45979 107.23819 33.93106
#
# Poissons Ratio (x) = 0.23745 -0.01600
# Poissons Ratio (y) = 0.12502 0.14902
# Poissons Ratio (z) = -0.02662 0.47097
#
# Static dielectric constant tensor:
#      x y z
#    x 7.220630 -3.138240 -3.526650 
#    y -3.138240 16.120220 10.285590 
#    z -3.526650 10.285590 13.707270 
# 
# 
# High freq. dielectric constant tensor:
#      x y z
#    x 2.086080 0.015390 0.008350 
#    y 0.015390 2.064610 0.022980 
#    z 0.008350 0.022980 2.018130 
# 
# From -- ./inp_files/262222.got.cif
#   From: 2010.06.25/outbox.cif.g09.slc.cpg/sg2_132_cif.got.tgz:262222.got - 2010.06.27 13:26:56.
