data_PCOD8019610
_publ_section_title
;
Structure prediction by ZEFSAII (Michael W. Deem and Ramdas Pophale) SiO2 
 PCOD8019610
Probable space group: P -1
;
_chemical_formula_sum "Si O2"
_cell_formula_units_Z 16
_cell_length_a 11.840205
_cell_length_b 16.948128
_cell_length_c 9.001628
_cell_angle_alpha 117.186870
_cell_angle_beta 53.125818
_cell_angle_gamma 150.683179
_cell_volume 697.313626
_symmetry_space_group_name_H-M "P -1"
_symmetry_group_IT_number 2
_symmetry_cell_setting 'triclinic'
loop_
_space_group_symop_operation_xyz
x,y,z
-x,-y,-z
loop_
_atom_site_type_symbol
_atom_site_label
_atom_site_fract_x
_atom_site_fract_y
_atom_site_fract_z
Si Si1 0.909808 0.729514 0.805440
Si Si2 0.811951 0.441873 0.220457
Si Si3 0.954701 0.052867 0.463162
Si Si4 0.586122 0.784818 0.897598
Si Si5 0.017024 0.737814 0.407942
Si Si6 0.443126 0.604152 0.113591
Si Si7 0.479146 0.087729 0.742669
Si Si8 0.414478 0.740849 0.471835
O O1 0.789712 0.588546 0.879487
O O2 0.862538 0.676771 0.627880
O O3 0.738756 0.724531 0.976240
O O4 0.217757 0.901563 0.735868
O O5 0.523543 0.278385 0.238396
O O6 0.813367 0.389549 0.333559
O O7 0.881583 0.582870 0.301665
O O8 0.000000 0.500000 0.000000
O O9 0.005386 0.180277 0.596009
O O10 0.142117 0.125286 0.240097
O O11 0.671226 0.906703 0.493820
O O12 0.000000 0.000000 0.500000
O O13 0.387301 0.634311 0.039440
O O14 0.613445 0.898449 0.036830
O O15 0.321267 0.877734 0.318071
O O16 0.436388 0.654275 0.314840
O O17 0.629843 0.214789 0.593266
#
# Coordination Sequence:
#
# PCOD8019610 Si02
#       8
#     2   2   2   2   2   2   2   2
#     4  11  21  40  70 110 140 170 242 294 353 408
#     4  12  26  48  68 102 149 191 234 288 357 433
#     4  12  25  46  71 104 141 188 239 290 352 424
#     4  11  23  46  69 101 144 191 231 287 356 418
#     4  12  25  46  71 103 143 189 239 290 354 420
#     4  10  22  41  69 107 140 180 235 300 344 419
#     4  11  24  44  76 104 142 187 232 300 348 418
#     4  11  23  43  75 100 141 187 237 288 358 415
#
# _framework density 22.9452
#
# number of rings (size 3 to 8) (size 9 to 14) (size 15 to 20)
#    0.000    0.750    6.250    1.125    0.000    4.000 
#    6.750    1.250    0.000    0.000    0.000    0.000 
#    0.000    0.000    0.000    0.000    0.000    0.000 
#
# Total GULP energy -198242.830968 kJ/mol
# GULP energy per Si atom -12390.176936 kJ/mol
# Density = 2.289298 g / cm^3
# Si number density = 22.945200 Si / 1000 Ang^3
#
#
#
# Elastic Constant Matrix: (Units=GPa)
#
#
# Indices 1 2 3 4 5 6 
#
# 1 74.6126 25.2307 26.2875 5.7723 -2.3625 -27.1226
# 2 25.2307 89.5929 37.0676 8.4037 3.4028 -14.6847
# 3 26.2875 37.0676 139.9510 6.2688 -5.7391 -16.6465
# 4 5.7723 8.4037 6.2688 43.4219 -1.2996 -0.3351
# 5 -2.3625 3.4028 -5.7391 -1.2996 32.6502 3.5013
# 6 -27.1226 -14.6847 -16.6465 -0.3351 3.5013 27.4991
#
#
#
# Elastic Compliance Matrix: (Units=1/GPa)
#
#
# Indices 1 2 3 4 5 6 
#
# 1 0.021884 -0.002244 -0.001090 -0.002182 -0.000582 0.019773
# 2 -0.002244 0.013869 -0.002816 -0.002028 -0.002590 0.003793
# 3 -0.001090 -0.002816 0.008455 -0.000470 0.001430 0.002351
# 4 -0.002182 -0.002028 -0.000470 0.023792 0.001282 -0.003393
# 5 -0.000582 -0.002590 0.001430 0.001282 0.031706 -0.005113
# 6 0.019773 0.003793 0.002351 -0.003393 -0.005113 0.059926
#
#
# Mechanical properties :
#
#
# Convention : Reuss Voigt Hill
#
# Bulk Modulus (GPa) = 31.34071 53.48090 42.41080
# Shear Modulus (GPa) = 27.38686 35.08562 31.23624
#
# Velocity S-wave (km/s) = 3.45857 3.91462 3.69364
# Velocity P-wave (km/s) = 5.44403 6.61748 6.05923
#
# Compressibility (1/GPa) = 0.03190739
#
# Stress axis : x y z
#
# Youngs Moduli (GPa) = 45.69590 72.10365 118.26757
#
# Poissons Ratio (x) = 0.16180 0.12895
# Poissons Ratio (y) = 0.10254 0.33305
# Poissons Ratio (z) = 0.04982 0.20305
#
# Static dielectric constant tensor:
#      x y z
#    x 4.223960 -0.167900 0.025260 
#    y -0.167900 4.246940 -0.048900 
#    z 0.025260 -0.048900 4.417920 
# 
# 
# High freq. dielectric constant tensor:
#      x y z
#    x 1.893760 -0.014070 -0.006570 
#    y -0.014070 1.908350 -0.004440 
#    z -0.006570 -0.004440 1.920790 
# 
# From -- ./inp_files/257653.got.cif
#   From: 2010.06.25/outbox.cif.g09.slc.cpg/sg2_129_cif.got.tgz:257653.got - 2010.06.27 13:26:56.
