data_PCOD8019161
_publ_section_title
;
Structure prediction by ZEFSAII (Michael W. Deem and Ramdas Pophale) SiO2 
 PCOD8019161
Probable space group: P -1
;
_chemical_formula_sum "Si O2"
_cell_formula_units_Z 14
_cell_length_a 11.136224
_cell_length_b 21.231341
_cell_length_c 20.778795
_cell_angle_alpha 161.028569
_cell_angle_beta 24.286229
_cell_angle_gamma 149.235821
_cell_volume 656.769159
_symmetry_space_group_name_H-M "P -1"
_symmetry_group_IT_number 2
_symmetry_cell_setting 'triclinic'
loop_
_space_group_symop_operation_xyz
x,y,z
-x,-y,-z
loop_
_atom_site_type_symbol
_atom_site_label
_atom_site_fract_x
_atom_site_fract_y
_atom_site_fract_z
Si Si1 0.861316 0.933542 0.655549
Si Si2 0.183061 0.415881 0.580669
Si Si3 0.530106 0.305451 0.475188
Si Si4 0.872907 0.369920 0.059429
Si Si5 0.518998 0.969207 0.384827
Si Si6 0.505981 0.670072 0.337035
Si Si7 0.110222 0.373058 0.183714
O O1 0.790176 0.814758 0.641111
O O2 0.687327 0.849090 0.598487
O O3 0.206876 0.912758 0.453287
O O4 0.767124 0.157534 0.926888
O O5 0.500000 0.500000 0.500000
O O6 0.027715 0.515471 0.814668
O O7 0.996621 0.457835 0.649144
O O8 0.397738 0.522341 0.739426
O O9 0.565033 0.257859 0.486936
O O10 0.846268 0.287987 0.271377
O O11 0.146471 0.361222 0.869403
O O12 0.500000 0.000000 0.500000
O O13 0.616484 0.167944 0.495943
O O14 0.752785 0.801229 0.093099
O O15 0.345124 0.468208 0.207925
#
# Coordination Sequence:
#
# PCOD8019161 Si02
#       7
#     2   2   2   2   2   2   2
#     4  10  22  41  65  92 129 164 212 259 308 375
#     4  11  21  40  61  96 124 158 207 262 321 368
#     4  11  24  42  62  98 126 170 215 254 314 370
#     4  10  22  41  65  94 122 168 213 259 314 370
#     4  11  25  44  65  98 124 167 213 258 321 376
#     4  11  25  42  66  91 130 171 213 255 310 379
#     4  12  23  41  65  91 134 163 207 268 312 371
#
# _framework density 21.316469999999999
#
# number of rings (size 3 to 8) (size 9 to 14) (size 15 to 20)
#    0.000    1.143    2.857    5.143    0.000    7.429 
#    2.571    0.000    0.000    0.000    0.000    0.000 
#    0.000    0.000    0.000    0.000    0.000    0.000 
#
# Total GULP energy -173648.864765 kJ/mol
# GULP energy per Si atom -12403.490340 kJ/mol
# Density = 2.126795 g / cm^3
# Si number density = 21.316470 Si / 1000 Ang^3
#
#
#
# Elastic Constant Matrix: (Units=GPa)
#
#
# Indices 1 2 3 4 5 6 
#
# 1 107.1744 43.7690 34.2299 -8.6835 16.8515 -9.0543
# 2 43.7690 117.7075 50.7355 -0.4236 4.9874 5.8098
# 3 34.2299 50.7355 79.7382 -1.5863 -3.0765 4.3975
# 4 -8.6835 -0.4236 -1.5863 36.3742 -5.7074 1.5474
# 5 16.8515 4.9874 -3.0765 -5.7074 28.9617 -2.3410
# 6 -9.0543 5.8098 4.3975 1.5474 -2.3410 38.2201
#
#
#
# Elastic Compliance Matrix: (Units=1/GPa)
#
#
# Indices 1 2 3 4 5 6 
#
# 1 0.013526 -0.003040 -0.004316 0.001725 -0.007170 0.003654
# 2 -0.003040 0.012684 -0.006738 -0.001023 -0.001489 -0.001923
# 3 -0.004316 -0.006738 0.019017 0.000691 0.005677 -0.001867
# 4 0.001725 -0.001023 0.000691 0.028703 0.004872 -0.000379
# 5 -0.007170 -0.001489 0.005677 0.004872 0.040533 0.000160
# 6 0.003654 -0.001923 -0.001867 -0.000379 0.000160 0.027562
#
#
# Mechanical properties :
#
#
# Convention : Reuss Voigt Hill
#
# Bulk Modulus (GPa) = 58.68506 62.45432 60.56969
# Shear Modulus (GPa) = 28.42650 32.43689 30.43170
#
# Velocity S-wave (km/s) = 3.65574 3.90511 3.78248
# Velocity P-wave (km/s) = 6.73865 7.04949 6.89582
#
# Compressibility (1/GPa) = 0.01704011
#
# Stress axis : x y z
#
# Youngs Moduli (GPa) = 73.92959 78.83761 52.58523
#
# Poissons Ratio (x) = 0.23963 0.22698
# Poissons Ratio (y) = 0.22471 0.35430
# Poissons Ratio (z) = 0.31911 0.53118
#
# Static dielectric constant tensor:
#      x y z
#    x 3.852650 -0.078390 -0.043050 
#    y -0.078390 4.009510 0.084340 
#    z -0.043050 0.084340 3.854800 
# 
# 
# High freq. dielectric constant tensor:
#      x y z
#    x 1.831360 -0.000050 -0.003480 
#    y -0.000050 1.847190 0.001420 
#    z -0.003480 0.001420 1.832290 
# 
# From -- ./inp_files/259296.got.cif
#   From: 2010.06.25/outbox.cif.g09.slc.cpg/sg2_130_cif.got.tgz:259296.got - 2010.06.27 13:26:56.
