data_PCOD8019909
_publ_section_title
;
Structure prediction by ZEFSAII (Michael W. Deem and Ramdas Pophale) SiO2 
 PCOD8019909
Probable space group: P -1
;
_chemical_formula_sum "Si O2"
_cell_formula_units_Z 16
_cell_length_a 13.666008
_cell_length_b 19.921828
_cell_length_c 11.580615
_cell_angle_alpha 28.650762
_cell_angle_beta 43.339539
_cell_angle_gamma 25.824733
_cell_volume 628.232377
_symmetry_space_group_name_H-M "P -1"
_symmetry_group_IT_number 2
_symmetry_cell_setting 'triclinic'
loop_
_space_group_symop_operation_xyz
x,y,z
-x,-y,-z
loop_
_atom_site_type_symbol
_atom_site_label
_atom_site_fract_x
_atom_site_fract_y
_atom_site_fract_z
Si Si1 0.482287 0.853150 0.773194
Si Si2 0.124581 0.878848 0.199436
Si Si3 0.701818 0.016445 0.718253
Si Si4 0.345354 0.442135 0.747353
Si Si5 0.529723 0.718324 0.695480
Si Si6 0.825626 0.767942 0.366521
Si Si7 0.732735 0.680548 0.210737
Si Si8 0.969701 0.206468 0.029358
O O1 0.420280 0.803725 0.790319
O O2 0.500000 0.000000 0.500000
O O3 0.288261 0.005660 0.813840
O O4 0.712063 0.605647 0.014022
O O5 0.126262 0.715479 0.491018
O O6 0.406483 0.678138 0.252248
O O7 0.974886 0.083295 0.113677
O O8 0.000000 0.000000 0.000000
O O9 0.680150 0.125502 0.454756
O O10 0.439601 0.200762 0.712744
O O11 0.799843 0.785493 0.958290
O O12 0.875999 0.960920 0.740026
O O13 0.391322 0.298846 0.820233
O O14 0.655584 0.769799 0.493082
O O15 0.704930 0.450364 0.929357
O O16 0.915901 0.740892 0.202751
O O17 0.025980 0.578224 0.571683
#
# Coordination Sequence:
#
# PCOD8019909 Si02
#       8
#     2   2   2   2   2   2   2   2
#     4  10  22  42  62  93 141 174 208 261 323 400
#     4  11  25  42  69  97 123 167 228 280 310 368
#     4  11  21  33  59  94 132 158 202 263 337 379
#     4  11  23  42  65  95 131 170 219 266 324 371
#     4  11  23  37  57  92 135 169 202 258 326 388
#     4  11  19  36  62  91 130 173 209 259 319 382
#     4  11  19  34  62  96 126 164 203 273 322 382
#     4  12  21  40  63  95 123 164 220 268 324 376
#
# _framework density 25.468283
#
# number of rings (size 3 to 8) (size 9 to 14) (size 15 to 20)
#    0.000    1.000    5.000    4.125    0.000    0.000 
#    2.250    2.500    0.000    1.500    0.000    0.000 
#    0.000    0.000    0.000    0.000    0.000    0.000 
#
# Total GULP energy -198300.697025 kJ/mol
# GULP energy per Si atom -12393.793564 kJ/mol
# Density = 2.541032 g / cm^3
# Si number density = 25.468283 Si / 1000 Ang^3
#
#
#
# Elastic Constant Matrix: (Units=GPa)
#
#
# Indices 1 2 3 4 5 6 
#
# 1 142.7198 25.9966 55.3736 -13.0083 40.6481 31.6973
# 2 25.9966 60.2002 28.5470 -17.8029 12.0478 35.7080
# 3 55.3736 28.5470 172.0844 -18.0380 42.2691 28.3621
# 4 -13.0083 -17.8029 -18.0380 30.9570 6.7468 -4.0172
# 5 40.6481 12.0478 42.2691 6.7468 56.4357 1.4075
# 6 31.6973 35.7080 28.3621 -4.0172 1.4075 37.7298
#
#
#
# Elastic Compliance Matrix: (Units=1/GPa)
#
#
# Indices 1 2 3 4 5 6 
#
# 1 0.019189 0.027603 0.005513 0.027310 -0.026048 -0.042510
# 2 0.027603 0.111458 0.018969 0.083753 -0.064613 -0.131606
# 3 0.005513 0.018969 0.012620 0.020997 -0.019257 -0.029117
# 4 0.027310 0.083753 0.020997 0.104377 -0.063148 -0.104524
# 5 -0.026048 -0.064613 -0.019257 -0.063148 0.070046 0.088172
# 6 -0.042510 -0.131606 -0.029117 -0.104524 0.088172 0.194241
#
#
# Mechanical properties :
#
#
# Convention : Reuss Voigt Hill
#
# Bulk Modulus (GPa) = 4.04143 66.09319 35.06731
# Shear Modulus (GPa) = 10.19909 42.69697 26.44803
#
# Velocity S-wave (km/s) = 2.00333 4.09892 3.22602
# Velocity P-wave (km/s) = 2.63465 6.95766 5.26072
#
# Compressibility (1/GPa) = 0.24743735
#
# Stress axis : x y z
#
# Youngs Moduli (GPa) = 52.11398 8.97200 79.23853
#
# Poissons Ratio (x) = -0.24766 -0.43687
# Poissons Ratio (y) = -1.43852 -1.50304
# Poissons Ratio (z) = -0.28732 -0.17019
#
# Static dielectric constant tensor:
#      x y z
#    x 4.593330 0.467400 0.206880 
#    y 0.467400 4.601280 0.105420 
#    z 0.206880 0.105420 5.414920 
# 
# 
# High freq. dielectric constant tensor:
#      x y z
#    x 2.016560 0.023500 0.015640 
#    y 0.023500 1.989640 -0.011960 
#    z 0.015640 -0.011960 2.041130 
# 
# From -- ./inp_files/457429.got.cif
#   From: 2010.06.25/outbox.cif.g09.slc.cpg/sg2_229_cif.got.tgz:457429.got - 2010.06.27 13:26:56.
