data_PCOD8019455
_publ_section_title
;
Structure prediction by ZEFSAII (Michael W. Deem and Ramdas Pophale) SiO2 
 PCOD8019455
Probable space group: P -1
;
_chemical_formula_sum "Si O2"
_cell_formula_units_Z 14
_cell_length_a 12.523788
_cell_length_b 9.373948
_cell_length_c 13.905243
_cell_angle_alpha 32.642297
_cell_angle_beta 60.734634
_cell_angle_gamma 48.054008
_cell_volume 643.675706
_symmetry_space_group_name_H-M "P -1"
_symmetry_group_IT_number 2
_symmetry_cell_setting 'triclinic'
loop_
_space_group_symop_operation_xyz
x,y,z
-x,-y,-z
loop_
_atom_site_type_symbol
_atom_site_label
_atom_site_fract_x
_atom_site_fract_y
_atom_site_fract_z
Si Si1 0.640215 0.274674 0.354419
Si Si2 0.785144 0.247359 0.597438
Si Si3 0.620427 0.779088 0.217321
Si Si4 0.946103 0.738178 0.477244
Si Si5 0.131727 0.647770 0.155432
Si Si6 0.319579 0.105157 0.264755
Si Si7 0.340163 0.699074 0.173298
O O1 0.640219 0.562638 0.240958
O O2 0.509881 0.412698 0.255215
O O3 0.787110 0.056618 0.351107
O O4 0.617948 0.076244 0.558157
O O5 0.704280 0.579330 0.388353
O O6 0.695121 0.262627 0.720632
O O7 0.946112 0.147686 0.612698
O O8 0.792927 0.981303 0.677291
O O9 0.449311 0.008301 0.188321
O O10 0.685627 0.984637 0.042324
O O11 0.938504 0.553584 0.676448
O O12 0.000000 0.500000 0.500000
O O13 0.229092 0.484496 0.108937
O O14 0.237195 0.611765 0.215396
O O15 0.000000 0.000000 0.000000
#
# Coordination Sequence:
#
# PCOD8019455 Si02
#       7
#     2   2   2   2   2   2   2
#     4  10  22  41  67  98 129 171 224 268 319 398
#     4  11  22  44  70  96 130 177 218 267 332 385
#     4  11  22  41  69 101 132 167 221 280 316 384
#     4  11  24  42  65  94 134 172 215 271 328 380
#     4  11  26  44  62  99 136 171 220 273 323 399
#     4  10  22  42  69  94 136 171 218 275 325 381
#     4  12  23  41  73  96 130 176 223 260 334 390
#
# _framework density 21.750084000000001
#
# number of rings (size 3 to 8) (size 9 to 14) (size 15 to 20)
#    0.000    1.143    4.286    2.143    0.000   11.429 
#    0.000    1.429    0.000    0.000    0.000    0.000 
#    0.000    0.000    0.000    0.000    0.000    0.000 
#
# Total GULP energy -173599.341445 kJ/mol
# GULP energy per Si atom -12399.952960 kJ/mol
# Density = 2.170058 g / cm^3
# Si number density = 21.750084 Si / 1000 Ang^3
#
#
#
# Elastic Constant Matrix: (Units=GPa)
#
#
# Indices 1 2 3 4 5 6 
#
# 1 110.9477 38.1401 31.6466 -7.6406 12.3248 -8.3049
# 2 38.1401 142.1322 44.8106 -27.6444 10.8942 -7.1756
# 3 31.6466 44.8106 97.7339 -4.4883 1.5936 -5.6706
# 4 -7.6406 -27.6444 -4.4883 39.3980 -6.4312 1.1476
# 5 12.3248 10.8942 1.5936 -6.4312 28.5287 -1.8595
# 6 -8.3049 -7.1756 -5.6706 1.1476 -1.8595 33.2037
#
#
#
# Elastic Compliance Matrix: (Units=1/GPa)
#
#
# Indices 1 2 3 4 5 6 
#
# 1 0.010891 -0.001752 -0.002567 -0.000079 -0.003800 0.001697
# 2 -0.001752 0.009975 -0.003661 0.005983 -0.001447 0.000804
# 3 -0.002567 -0.003661 0.012703 -0.001394 0.001540 0.000871
# 4 -0.000079 0.005983 -0.001394 0.030156 0.004642 0.000253
# 5 -0.003800 -0.001447 0.001540 0.004642 0.038271 0.000983
# 6 0.001697 0.000804 0.000871 0.000253 0.000983 0.030910
#
#
# Mechanical properties :
#
#
# Convention : Reuss Voigt Hill
#
# Bulk Modulus (GPa) = 56.78591 64.44537 60.61564
# Shear Modulus (GPa) = 32.31286 35.97385 34.14335
#
# Velocity S-wave (km/s) = 3.85859 4.07131 3.96637
# Velocity P-wave (km/s) = 6.78356 7.19687 6.99327
#
# Compressibility (1/GPa) = 0.01761000
#
# Stress axis : x y z
#
# Youngs Moduli (GPa) = 91.81623 100.24765 78.72115
#
# Poissons Ratio (x) = 0.17562 0.20205
# Poissons Ratio (y) = 0.16085 0.28823
# Poissons Ratio (z) = 0.23566 0.36704
#
# Static dielectric constant tensor:
#      x y z
#    x 3.868670 -0.147640 -0.049910 
#    y -0.147640 4.228050 -0.152470 
#    z -0.049910 -0.152470 3.857310 
# 
# 
# High freq. dielectric constant tensor:
#      x y z
#    x 1.853660 -0.004950 -0.006200 
#    y -0.004950 1.861130 -0.004270 
#    z -0.006200 -0.004270 1.845550 
# 
# From -- ./inp_files/157657.got.cif
#   From: 2010.06.25/outbox.cif.g09.slc.cpg/sg2_79_cif.got.tgz:157657.got - 2010.06.27 13:26:56.
