data_PCOD8019148
_publ_section_title
;
Structure prediction by ZEFSAII (Michael W. Deem and Ramdas Pophale) SiO2 
 PCOD8019148
Probable space group: P -1
;
_chemical_formula_sum "Si O2"
_cell_formula_units_Z 16
_cell_length_a 11.256831
_cell_length_b 16.279185
_cell_length_c 6.391673
_cell_angle_alpha 52.200790
_cell_angle_beta 106.270289
_cell_angle_gamma 127.094144
_cell_volume 730.749115
_symmetry_space_group_name_H-M "P -1"
_symmetry_group_IT_number 2
_symmetry_cell_setting 'triclinic'
loop_
_space_group_symop_operation_xyz
x,y,z
-x,-y,-z
loop_
_atom_site_type_symbol
_atom_site_label
_atom_site_fract_x
_atom_site_fract_y
_atom_site_fract_z
Si Si1 0.771115 0.034288 0.074430
Si Si2 0.571903 0.792571 0.586950
Si Si3 0.069886 0.421773 0.671444
Si Si4 0.628516 0.686438 0.148779
Si Si5 0.048652 0.216121 0.696215
Si Si6 0.410677 0.558622 0.609483
Si Si7 0.378408 0.891744 0.455347
Si Si8 0.894768 0.215968 0.235438
O O1 0.796593 0.105006 0.195052
O O2 0.694133 0.888519 0.326647
O O3 0.663101 0.048558 0.845242
O O4 0.931140 0.085584 0.964947
O O5 0.502715 0.650464 0.702348
O O6 0.444727 0.819451 0.500651
O O7 0.644151 0.797217 0.840353
O O8 0.028247 0.322551 0.618081
O O9 0.245851 0.527048 0.592918
O O10 0.000000 0.500000 0.500000
O O11 0.008536 0.349222 0.974127
O O12 0.783400 0.746514 0.258635
O O13 0.487545 0.633007 0.315883
O O14 0.597426 0.569556 0.175445
O O15 0.003548 0.195415 0.462596
O O16 0.227604 0.787491 0.669122
O O17 0.500000 0.000000 0.500000
#
# Coordination Sequence:
#
# PCOD8019148 Si02
#       8
#     2   2   2   2   2   2   2   2
#     4  10  23  41  65 100 130 164 213 270 325 390
#     4  12  25  38  70  98 129 176 214 265 332 384
#     4  10  23  38  65  95 128 167 220 270 327 386
#     4  10  24  46  66  93 129 177 224 267 313 385
#     4   9  22  44  64  91 132 170 214 272 322 380
#     4  10  25  43  64  94 134 167 226 269 316 377
#     4  11  24  40  67  98 139 168 210 266 331 397
#     4  10  22  41  65  90 135 170 206 266 332 375
#
# _framework density 21.895340999999998
#
# number of rings (size 3 to 8) (size 9 to 14) (size 15 to 20)
#    0.000    1.750    1.250    0.750    8.750    7.000 
#    0.000    1.250    0.000    0.000    0.000    0.000 
#    0.000    0.000    0.000    0.000    0.000    0.000 
#
# Total GULP energy -198368.125367 kJ/mol
# GULP energy per Si atom -12398.007835 kJ/mol
# Density = 2.184551 g / cm^3
# Si number density = 21.895341 Si / 1000 Ang^3
#
#
#
# Elastic Constant Matrix: (Units=GPa)
#
#
# Indices 1 2 3 4 5 6 
#
# 1 102.6873 36.6508 62.8007 -16.3728 -13.1179 29.0027
# 2 36.6508 98.1476 47.5998 7.5517 0.3165 25.5764
# 3 62.8007 47.5998 155.7623 2.9869 -2.9770 25.7454
# 4 -16.3728 7.5517 2.9869 28.1009 5.7537 -5.8862
# 5 -13.1179 0.3165 -2.9770 5.7537 28.7518 -3.8000
# 6 29.0027 25.5764 25.7454 -5.8862 -3.8000 29.6915
#
#
#
# Elastic Compliance Matrix: (Units=1/GPa)
#
#
# Indices 1 2 3 4 5 6 
#
# 1 0.018511 -0.002858 -0.005255 0.009303 0.004937 -0.008588
# 2 -0.002858 0.015467 -0.001677 -0.007583 -0.001555 -0.010780
# 3 -0.005255 -0.001677 0.009540 -0.003978 -0.000939 -0.002603
# 4 0.009303 -0.007583 -0.003978 0.046304 -0.004088 0.009551
# 5 0.004937 -0.001555 -0.000939 -0.004088 0.037953 0.001379
# 6 -0.008588 -0.010780 -0.002603 0.009551 0.001379 0.055681
#
#
# Mechanical properties :
#
#
# Convention : Reuss Voigt Hill
#
# Bulk Modulus (GPa) = 41.77292 72.29996 57.03644
# Shear Modulus (GPa) = 23.69500 31.27857 27.48678
#
# Velocity S-wave (km/s) = 3.29324 3.78372 3.54697
# Velocity P-wave (km/s) = 5.79486 7.22365 6.54834
#
# Compressibility (1/GPa) = 0.02393896
#
# Stress axis : x y z
#
# Youngs Moduli (GPa) = 54.02096 64.65471 104.82506
#
# Poissons Ratio (x) = 0.18478 0.55082
# Poissons Ratio (y) = 0.15439 0.17577
# Poissons Ratio (z) = 0.28386 0.10841
#
# Static dielectric constant tensor:
#      x y z
#    x 4.508680 0.751550 -0.449450 
#    y 0.751550 4.634220 -0.229310 
#    z -0.449450 -0.229310 4.093910 
# 
# 
# High freq. dielectric constant tensor:
#      x y z
#    x 1.859670 0.013630 -0.015470 
#    y 0.013630 1.863760 0.002440 
#    z -0.015470 0.002440 1.865190 
# 
# From -- ./inp_files/71417.got.cif
#   From: 2010.06.25/outbox.cif.g09.slc.cpg/sg2_36_cif.got.tgz:71417.got - 2010.06.27 13:26:56.
