data_PCOD8019682
_publ_section_title
;
Structure prediction by ZEFSAII (Michael W. Deem and Ramdas Pophale) SiO2 
 PCOD8019682
Probable space group: P -1
;
_chemical_formula_sum "Si O2"
_cell_formula_units_Z 14
_cell_length_a 11.711170
_cell_length_b 12.047429
_cell_length_c 9.123782
_cell_angle_alpha 141.650418
_cell_angle_beta 122.785728
_cell_angle_gamma 47.827686
_cell_volume 591.622787
_symmetry_space_group_name_H-M "P -1"
_symmetry_group_IT_number 2
_symmetry_cell_setting 'triclinic'
loop_
_space_group_symop_operation_xyz
x,y,z
-x,-y,-z
loop_
_atom_site_type_symbol
_atom_site_label
_atom_site_fract_x
_atom_site_fract_y
_atom_site_fract_z
Si Si1 0.030075 0.788980 0.969453
Si Si2 0.692651 0.978049 0.995552
Si Si3 0.364789 0.594083 0.620871
Si Si4 0.963864 0.229289 0.382463
Si Si5 0.471061 0.343099 0.719877
Si Si6 0.220064 0.360191 0.761718
Si Si7 0.620416 0.982506 0.272924
O O1 0.088460 0.737910 0.790274
O O2 0.143943 0.605946 0.966448
O O3 0.858623 0.810120 0.879495
O O4 0.032777 0.993656 0.233801
O O5 0.651791 0.192378 0.114660
O O6 0.706743 0.992121 0.196482
O O7 0.559908 0.925539 0.800449
O O8 0.500000 0.500000 0.500000
O O9 0.192819 0.638532 0.494069
O O10 0.405612 0.442578 0.623885
O O11 0.088561 0.301864 0.570703
O O12 0.355192 0.277914 0.650450
O O13 0.623002 0.129855 0.559197
O O14 0.500000 0.500000 0.000000
O O15 0.297574 0.252085 0.857661
#
# Coordination Sequence:
#
# PCOD8019682 Si02
#       7
#     2   2   2   2   2   2   2
#     4  10  22  41  70 101 140 186 232 287 361 422
#     4  10  23  45  69 101 143 189 239 290 352 438
#     4  11  22  44  73 104 136 193 240 288 356 427
#     4  10  23  41  70 102 140 185 235 289 353 435
#     4  12  26  43  72 105 143 189 240 297 353 416
#     4  12  25  42  70 106 141 184 236 302 350 418
#     4  11  25  43  68 104 144 189 237 293 359 420
#
# _framework density 23.663727999999999
#
# number of rings (size 3 to 8) (size 9 to 14) (size 15 to 20)
#    0.000    1.143    2.857    2.571    4.000    0.571 
#    0.000    4.286    0.000    0.000    0.000    0.000 
#    0.000    0.000    0.000    0.000    0.000    0.000 
#
# Total GULP energy -173519.272426 kJ/mol
# GULP energy per Si atom -12394.233745 kJ/mol
# Density = 2.360987 g / cm^3
# Si number density = 23.663728 Si / 1000 Ang^3
#
#
#
# Elastic Constant Matrix: (Units=GPa)
#
#
# Indices 1 2 3 4 5 6 
#
# 1 142.0927 26.7161 35.6179 1.2827 1.2925 -7.3309
# 2 26.7161 124.0447 27.6866 27.0392 -2.1514 8.4279
# 3 35.6179 27.6866 73.5953 9.5280 1.5221 -4.9077
# 4 1.2827 27.0392 9.5280 27.7205 -3.6459 1.6043
# 5 1.2925 -2.1514 1.5221 -3.6459 30.3960 11.6271
# 6 -7.3309 8.4279 -4.9077 1.6043 11.6271 36.6664
#
#
#
# Elastic Compliance Matrix: (Units=1/GPa)
#
#
# Indices 1 2 3 4 5 6 
#
# 1 0.008308 -0.001598 -0.003583 0.002224 -0.000655 0.001659
# 2 -0.001598 0.011322 -0.002446 -0.009814 0.001017 -0.003142
# 3 -0.003583 -0.002446 0.016991 -0.003796 -0.002505 0.003081
# 4 0.002224 -0.009814 -0.003796 0.047710 0.005785 -0.001730
# 5 -0.000655 0.001017 -0.002505 0.005785 0.038902 -0.013289
# 6 0.001659 -0.003142 0.003081 -0.001730 -0.013289 0.033029
#
#
# Mechanical properties :
#
#
# Convention : Reuss Voigt Hill
#
# Bulk Modulus (GPa) = 46.80371 57.75264 52.27818
# Shear Modulus (GPa) = 27.98960 35.60406 31.79683
#
# Velocity S-wave (km/s) = 3.44293 3.88310 3.66962
# Velocity P-wave (km/s) = 5.96880 6.67557 6.33205
#
# Compressibility (1/GPa) = 0.02136583
#
# Stress axis : x y z
#
# Youngs Moduli (GPa) = 120.36784 88.32305 58.85528
#
# Poissons Ratio (x) = 0.14118 0.21089
# Poissons Ratio (y) = 0.19240 0.14395
# Poissons Ratio (z) = 0.43130 0.21602
#
# Static dielectric constant tensor:
#      x y z
#    x 4.601090 -0.007990 -0.055310 
#    y -0.007990 4.394960 0.419150 
#    z -0.055310 0.419150 3.816100 
# 
# 
# High freq. dielectric constant tensor:
#      x y z
#    x 1.959470 0.004130 0.003060 
#    y 0.004130 1.942470 0.029970 
#    z 0.003060 0.029970 1.904010 
# 
# From -- ./inp_files/263783.got.cif
#   From: 2010.06.25/outbox.cif.g09.slc.cpg/sg2_132_cif.got.tgz:263783.got - 2010.06.27 13:26:56.
