data_PCOD8019379
_publ_section_title
;
Structure prediction by ZEFSAII (Michael W. Deem and Ramdas Pophale) SiO2 
 PCOD8019379
Probable space group: P -1
;
_chemical_formula_sum "Si O2"
_cell_formula_units_Z 16
_cell_length_a 11.756099
_cell_length_b 8.716284
_cell_length_c 15.362885
_cell_angle_alpha 71.514895
_cell_angle_beta 65.592189
_cell_angle_gamma 126.162390
_cell_volume 748.223889
_symmetry_space_group_name_H-M "P -1"
_symmetry_group_IT_number 2
_symmetry_cell_setting 'triclinic'
loop_
_space_group_symop_operation_xyz
x,y,z
-x,-y,-z
loop_
_atom_site_type_symbol
_atom_site_label
_atom_site_fract_x
_atom_site_fract_y
_atom_site_fract_z
Si Si1 0.378213 0.504009 0.798687
Si Si2 0.993982 0.687125 0.307928
Si Si3 0.180282 0.791844 0.651458
Si Si4 0.844204 0.661176 0.706951
Si Si5 0.403533 0.531392 0.589304
Si Si6 0.952417 0.558854 0.085337
Si Si7 0.125105 0.937076 0.400694
Si Si8 0.670787 0.881303 0.026254
O O1 0.347945 0.404517 0.726835
O O2 0.203932 0.457416 0.884899
O O3 0.325055 0.304046 0.919186
O O4 0.635152 0.844877 0.669243
O O5 0.872111 0.385183 0.380253
O O6 0.822343 0.648437 0.352052
O O7 0.069807 0.756940 0.371518
O O8 0.217179 0.961972 0.130443
O O9 0.178214 0.688999 0.758644
O O10 0.990040 0.726965 0.722499
O O11 0.427682 0.137009 0.506107
O O12 0.583987 0.325676 0.858433
O O13 0.928380 0.706690 0.575558
O O14 0.873213 0.882468 0.673843
O O15 0.500000 0.500000 0.500000
O O16 0.000000 0.500000 0.000000
O O17 0.195520 0.878448 0.985121
#
# Coordination Sequence:
#
# PCOD8019379 Si02
#       8
#     2   2   2   2   2   2   2   2
#     4  11  23  45  69  96 136 170 230 274 316 400
#     4  11  25  41  66 100 137 175 215 272 343 393
#     4  11  24  44  64  97 138 169 219 278 327 399
#     4  10  22  41  67  92 135 169 228 271 321 397
#     4  12  25  41  71  98 127 178 223 278 329 384
#     4  11  26  41  65  97 135 178 216 270 339 397
#     4  10  23  42  67 101 126 174 229 274 325 382
#     4  10  24  43  65  95 135 177 220 273 322 397
#
# _framework density 21.383972
#
# number of rings (size 3 to 8) (size 9 to 14) (size 15 to 20)
#    0.000    1.250    3.750    1.500    5.250    7.500 
#    0.000    0.000    0.000    0.000    0.000    0.000 
#    0.000    0.000    0.000    0.000    0.000    0.000 
#
# Total GULP energy -198452.045771 kJ/mol
# GULP energy per Si atom -12403.252861 kJ/mol
# Density = 2.133530 g / cm^3
# Si number density = 21.383972 Si / 1000 Ang^3
#
#
#
# Elastic Constant Matrix: (Units=GPa)
#
#
# Indices 1 2 3 4 5 6 
#
# 1 45.8823 -3.8535 2.3637 0.0542 -9.4380 10.5160
# 2 -3.8535 111.4883 32.0984 20.8580 -6.4481 -0.2958
# 3 2.3637 32.0984 95.1418 -13.1080 -18.3644 -3.4436
# 4 0.0542 20.8580 -13.1080 27.1192 -3.9351 -6.0104
# 5 -9.4380 -6.4481 -18.3644 -3.9351 35.1465 -4.9924
# 6 10.5160 -0.2958 -3.4436 -6.0104 -4.9924 31.2814
#
#
#
# Elastic Compliance Matrix: (Units=1/GPa)
#
#
# Indices 1 2 3 4 5 6 
#
# 1 0.024959 0.002071 -0.001125 -0.003320 0.004937 -0.008345
# 2 0.002071 0.014198 -0.007989 -0.016454 -0.003591 -0.005176
# 3 -0.001125 -0.007989 0.018078 0.018108 0.010770 0.007491
# 4 -0.003320 -0.016454 0.018108 0.064447 0.015292 0.017777
# 5 0.004937 -0.003591 0.010770 0.015292 0.037658 0.008440
# 6 -0.008345 -0.005176 0.007491 0.017777 0.008440 0.040311
#
#
# Mechanical properties :
#
#
# Convention : Reuss Voigt Hill
#
# Bulk Modulus (GPa) = 23.17511 34.85881 29.01696
# Shear Modulus (GPa) = 21.91824 33.50303 27.71064
#
# Velocity S-wave (km/s) = 3.20501 3.96250 3.60371
# Velocity P-wave (km/s) = 4.95553 6.10507 5.56009
#
# Compressibility (1/GPa) = 0.04314975
#
# Stress axis : x y z
#
# Youngs Moduli (GPa) = 40.06582 70.43227 55.31443
#
# Poissons Ratio (x) = -0.14588 0.06224
# Poissons Ratio (y) = -0.08298 0.44189
# Poissons Ratio (z) = 0.04508 0.56267
#
# Static dielectric constant tensor:
#      x y z
#    x 4.003660 0.073790 -0.016560 
#    y 0.073790 3.697450 -0.149120 
#    z -0.016560 -0.149120 3.888880 
# 
# 
# High freq. dielectric constant tensor:
#      x y z
#    x 1.849470 0.005110 -0.002290 
#    y 0.005110 1.833310 -0.006910 
#    z -0.002290 -0.006910 1.843380 
# 
# From -- ./inp_files/205419.got.cif
#   From: 2010.06.25/outbox.cif.g09.slc.cpg/sg2_103_cif.got.tgz:205419.got - 2010.06.27 13:26:56.
