data_PCOD8019328
_publ_section_title
;
Structure prediction by ZEFSAII (Michael W. Deem and Ramdas Pophale) SiO2 
 PCOD8019328
Probable space group: P -1
;
_chemical_formula_sum "Si O2"
_cell_formula_units_Z 16
_cell_length_a 14.883616
_cell_length_b 5.164685
_cell_length_c 24.730612
_cell_angle_alpha 114.623446
_cell_angle_beta 27.981966
_cell_angle_gamma 124.951877
_cell_volume 711.104029
_symmetry_space_group_name_H-M "P -1"
_symmetry_group_IT_number 2
_symmetry_cell_setting 'triclinic'
loop_
_space_group_symop_operation_xyz
x,y,z
-x,-y,-z
loop_
_atom_site_type_symbol
_atom_site_label
_atom_site_fract_x
_atom_site_fract_y
_atom_site_fract_z
Si Si1 0.697423 0.429971 0.399108
Si Si2 0.519867 0.249593 0.120997
Si Si3 0.826841 0.475975 0.523814
Si Si4 0.926026 0.692426 0.197915
Si Si5 0.629947 0.693815 0.999950
Si Si6 0.074017 0.373596 0.001674
Si Si7 0.913456 0.851872 0.614697
Si Si8 0.503240 0.710384 0.402595
O O1 0.500000 0.500000 0.500000
O O2 0.910292 0.647028 0.268170
O O3 0.717477 0.478651 0.458168
O O4 0.637003 0.069726 0.384392
O O5 0.274529 0.186955 0.248253
O O6 0.619145 0.443235 0.029500
O O7 0.663784 0.449218 0.114025
O O8 0.515200 0.905464 0.095815
O O9 0.804054 0.554835 0.604526
O O10 0.584891 0.316964 0.613379
O O11 0.905656 0.203140 0.453918
O O12 0.992123 0.803799 0.434238
O O13 0.985211 0.449948 0.111595
O O14 0.681364 0.586438 0.297682
O O15 0.110475 0.065665 0.125292
O O16 0.500000 0.500000 0.000000
O O17 0.000000 0.500000 0.000000
O O18 0.000000 0.000000 0.000000
#
# Coordination Sequence:
#
# PCOD8019328 Si02
#       8
#     2   2   2   2   2   2   2   2
#     4   9  21  41  60  97 131 168 217 272 332 398
#     4  11  24  46  66  96 139 167 231 276 321 407
#     4  10  23  41  68  94 132 170 220 262 332 392
#     4  10  24  41  68  95 140 169 221 282 329 397
#     4  11  25  46  68  98 130 179 224 274 335 395
#     4  11  25  42  66 103 130 175 224 271 338 398
#     4  10  23  44  62  97 131 172 216 272 316 393
#     4  10  22  41  66  98 132 172 218 271 339 395
#
# _framework density 22.500223999999999
#
# number of rings (size 3 to 8) (size 9 to 14) (size 15 to 20)
#    0.000    1.750    0.000    2.625   10.500    1.000 
#   13.500    0.000    0.000    0.000    0.000    0.000 
#    0.000    0.000    0.000    0.000    0.000    0.000 
#
# Total GULP energy -198253.550962 kJ/mol
# GULP energy per Si atom -12390.846935 kJ/mol
# Density = 2.244901 g / cm^3
# Si number density = 22.500224 Si / 1000 Ang^3
#
#
#
# Elastic Constant Matrix: (Units=GPa)
#
#
# Indices 1 2 3 4 5 6 
#
# 1 106.2315 14.1274 11.6011 -2.8284 -7.3349 2.6337
# 2 14.1274 71.7490 4.1333 13.2738 0.7012 -2.2387
# 3 11.6011 4.1333 104.7828 -1.7437 1.6162 -0.6924
# 4 -2.8284 13.2738 -1.7437 23.7929 -6.0523 -1.1967
# 5 -7.3349 0.7012 1.6162 -6.0523 27.7296 -5.2144
# 6 2.6337 -2.2387 -0.6924 -1.1967 -5.2144 41.8549
#
#
#
# Elastic Compliance Matrix: (Units=1/GPa)
#
#
# Indices 1 2 3 4 5 6 
#
# 1 0.010222 -0.002645 -0.001025 0.003504 0.003547 -0.000260
# 2 -0.002645 0.016441 -0.000475 -0.010339 -0.003282 0.000334
# 3 -0.001025 -0.000475 0.009698 0.000696 -0.000646 0.000139
# 4 0.003504 -0.010339 0.000696 0.051652 0.012857 0.002317
# 5 0.003547 -0.003282 -0.000646 0.012857 0.040877 0.005051
# 6 -0.000260 0.000334 0.000139 0.002317 0.005051 0.024624
#
#
# Mechanical properties :
#
#
# Convention : Reuss Voigt Hill
#
# Bulk Modulus (GPa) = 35.62442 38.05411 36.83926
# Shear Modulus (GPa) = 29.21218 35.53557 32.37388
#
# Velocity S-wave (km/s) = 3.60711 3.97841 3.79730
# Velocity P-wave (km/s) = 5.76330 6.16872 5.96945
#
# Compressibility (1/GPa) = 0.02807063
#
# Stress axis : x y z
#
# Youngs Moduli (GPa) = 97.83091 60.82403 103.11083
#
# Poissons Ratio (x) = 0.16086 0.10574
# Poissons Ratio (y) = 0.25873 0.04897
# Poissons Ratio (z) = 0.10032 0.02889
#
# Static dielectric constant tensor:
#      x y z
#    x 4.319240 -0.049490 0.256780 
#    y -0.049490 4.125330 0.092260 
#    z 0.256780 0.092260 4.142880 
# 
# 
# High freq. dielectric constant tensor:
#      x y z
#    x 1.893850 -0.009750 -0.000630 
#    y -0.009750 1.888420 0.009360 
#    z -0.000630 0.009360 1.882240 
# 
# From -- ./inp_files/611202.got.cif
#   From: 2010.06.25/outbox.cif.g09.slc.cpg/sg2_306_cif.got.tgz:611202.got - 2010.06.27 13:26:56.
