data_PCOD8019720
_publ_section_title
;
Structure prediction by ZEFSAII (Michael W. Deem and Ramdas Pophale) SiO2 
 PCOD8019720
Probable space group: P -1
;
_chemical_formula_sum "Si O2"
_cell_formula_units_Z 14
_cell_length_a 9.282987
_cell_length_b 9.635265
_cell_length_c 9.284296
_cell_angle_alpha 115.744533
_cell_angle_beta 106.050267
_cell_angle_gamma 65.187925
_cell_volume 674.426464
_symmetry_space_group_name_H-M "P -1"
_symmetry_group_IT_number 2
_symmetry_cell_setting 'triclinic'
loop_
_space_group_symop_operation_xyz
x,y,z
-x,-y,-z
loop_
_atom_site_type_symbol
_atom_site_label
_atom_site_fract_x
_atom_site_fract_y
_atom_site_fract_z
Si Si1 0.566443 0.596678 0.948904
Si Si2 0.430446 0.211694 0.429141
Si Si3 0.100729 0.058248 0.670198
Si Si4 0.141838 0.499434 0.438638
Si Si5 0.670698 0.272576 0.318457
Si Si6 0.908013 0.400734 0.846012
Si Si7 0.390400 0.151385 0.709516
O O1 0.436752 0.689601 0.836391
O O2 0.721667 0.464518 0.860770
O O3 0.500000 0.500000 0.000000
O O4 0.614680 0.736061 0.104609
O O5 0.259128 0.313222 0.358531
O O6 0.564140 0.280946 0.435616
O O7 0.421643 0.236313 0.610592
O O8 0.466917 0.022959 0.310352
O O9 0.222830 0.121206 0.641622
O O10 0.986344 0.204383 0.806163
O O11 0.195710 0.909284 0.736001
O O12 0.000000 0.000000 0.500000
O O13 0.245209 0.593593 0.587341
O O14 0.065435 0.582140 0.307551
O O15 0.000000 0.500000 0.500000
O O16 0.000000 0.500000 0.000000
#
# Coordination Sequence:
#
# PCOD8019720 Si02
#       7
#     2   2   2   2   2   2   2
#     4  12  27  45  69 101 146 184 235 292 349 416
#     4  10  22  41  70  98 130 181 240 280 340 419
#     4  11  23  44  71 103 142 179 233 291 351 413
#     4  12  25  42  69  99 140 179 237 284 347 414
#     4  11  25  44  71 101 133 189 239 281 349 422
#     4  12  26  45  70 103 140 183 224 292 358 402
#     4  10  23  42  69 101 139 181 232 290 350 412
#
# _framework density 20.758379000000001
#
# number of rings (size 3 to 8) (size 9 to 14) (size 15 to 20)
#    0.000    0.857    4.286    2.143    4.000    4.571 
#    0.000    0.714    0.000    0.000    0.000    0.000 
#    0.000    0.000    0.000    0.000    0.000    0.000 
#
# Total GULP energy -173651.487306 kJ/mol
# GULP energy per Si atom -12403.677665 kJ/mol
# Density = 2.071113 g / cm^3
# Si number density = 20.758379 Si / 1000 Ang^3
#
#
#
# Elastic Constant Matrix: (Units=GPa)
#
#
# Indices 1 2 3 4 5 6 
#
# 1 132.6929 68.4040 56.1528 -1.0843 -1.4966 -0.0999
# 2 68.4040 138.6994 48.0963 1.7994 -3.6401 -25.4565
# 3 56.1528 48.0963 112.6089 4.5180 8.6282 -0.9566
# 4 -1.0843 1.7994 4.5180 38.6707 -0.2584 -6.7650
# 5 -1.4966 -3.6401 8.6282 -0.2584 37.4443 1.3687
# 6 -0.0999 -25.4565 -0.9566 -6.7650 1.3687 47.5905
#
#
#
# Elastic Compliance Matrix: (Units=1/GPa)
#
#
# Indices 1 2 3 4 5 6 
#
# 1 0.011711 -0.004897 -0.003868 0.000556 0.000983 -0.002622
# 2 -0.004897 0.011717 -0.002640 0.000732 0.001328 0.006270
# 3 -0.003868 -0.002640 0.012237 -0.001668 -0.003194 -0.001320
# 4 0.000556 0.000732 -0.001668 0.026765 0.000511 0.004149
# 5 0.000983 0.001328 -0.003194 0.000511 0.027617 -0.000074
# 6 -0.002622 0.006270 -0.001320 0.004149 -0.000074 0.024926
#
#
# Mechanical properties :
#
#
# Convention : Reuss Voigt Hill
#
# Bulk Modulus (GPa) = 77.79478 81.03417 79.41448
# Shear Modulus (GPa) = 35.19425 38.83097 37.01261
#
# Velocity S-wave (km/s) = 4.12202 4.32976 4.22716
# Velocity P-wave (km/s) = 7.75967 8.00733 7.88447
#
# Compressibility (1/GPa) = 0.01285433
#
# Stress axis : x y z
#
# Youngs Moduli (GPa) = 85.38807 85.34934 81.71769
#
# Poissons Ratio (x) = 0.41796 0.31610
# Poissons Ratio (y) = 0.41815 0.21575
# Poissons Ratio (z) = 0.33030 0.22533
#
# Static dielectric constant tensor:
#      x y z
#    x 3.917590 -0.201910 -0.027930 
#    y -0.201910 4.097940 0.097860 
#    z -0.027930 0.097860 3.827930 
# 
# 
# High freq. dielectric constant tensor:
#      x y z
#    x 1.821910 -0.011430 -0.002350 
#    y -0.011430 1.835360 0.005290 
#    z -0.002350 0.005290 1.796800 
# 
# From -- ./inp_files/159847.got.cif
#   From: 2010.06.25/outbox.cif.g09.slc.cpg/sg2_80_cif.got.tgz:159847.got - 2010.06.27 13:26:56.
