data_PCOD8019626
_publ_section_title
;
Structure prediction by ZEFSAII (Michael W. Deem and Ramdas Pophale) SiO2 
 PCOD8019626
Probable space group: P -1
;
_chemical_formula_sum "Si O2"
_cell_formula_units_Z 14
_cell_length_a 14.706132
_cell_length_b 9.162094
_cell_length_c 11.228843
_cell_angle_alpha 48.453447
_cell_angle_beta 32.187398
_cell_angle_gamma 63.277708
_cell_volume 579.051596
_symmetry_space_group_name_H-M "P -1"
_symmetry_group_IT_number 2
_symmetry_cell_setting 'triclinic'
loop_
_space_group_symop_operation_xyz
x,y,z
-x,-y,-z
loop_
_atom_site_type_symbol
_atom_site_label
_atom_site_fract_x
_atom_site_fract_y
_atom_site_fract_z
Si Si1 0.033937 0.092228 0.040831
Si Si2 0.393973 0.761017 0.255849
Si Si3 0.763132 0.317600 0.285074
Si Si4 0.888805 0.721850 0.572613
Si Si5 0.252867 0.645319 0.216836
Si Si6 0.369064 0.080992 0.789004
Si Si7 0.275997 0.287423 0.992308
O O1 0.942470 0.925352 0.328661
O O2 0.936735 0.269509 0.063431
O O3 0.000000 0.000000 0.000000
O O4 0.249407 0.163742 0.781221
O O5 0.239490 0.729057 0.544837
O O6 0.333493 0.659986 0.251066
O O7 0.518229 0.627106 0.242676
O O8 0.500000 0.000000 0.000000
O O9 0.577922 0.196827 0.490643
O O10 0.791258 0.553463 0.097691
O O11 0.732452 0.554116 0.764940
O O12 0.833545 0.785998 0.727456
O O13 0.045584 0.621062 0.476968
O O14 0.348896 0.841799 0.923778
O O15 0.273297 0.094951 0.015305
#
# Coordination Sequence:
#
# PCOD8019626 Si02
#       7
#     2   2   2   2   2   2   2
#     4  11  27  45  69  97 136 179 230 272 341 405
#     4  11  20  41  70  99 129 175 227 274 332 404
#     4  11  25  43  67 101 138 172 225 285 332 390
#     4  10  25  43  65  98 134 176 222 276 338 398
#     4  10  22  41  69  93 138 172 226 276 333 395
#     4  10  23  45  69 100 134 176 224 281 334 399
#     4  11  24  42  67 102 136 172 227 273 341 400
#
# _framework density 24.177464000000001
#
# number of rings (size 3 to 8) (size 9 to 14) (size 15 to 20)
#    0.000    1.429    2.857    2.571    8.000    5.143 
#    0.000    0.000    0.000    0.000    0.000    0.000 
#    0.000    0.000    0.000    0.000    0.000    0.000 
#
# Total GULP energy -173497.118868 kJ/mol
# GULP energy per Si atom -12392.651348 kJ/mol
# Density = 2.412244 g / cm^3
# Si number density = 24.177464 Si / 1000 Ang^3
#
#
#
# Elastic Constant Matrix: (Units=GPa)
#
#
# Indices 1 2 3 4 5 6 
#
# 1 117.9266 1.0934 3.1814 3.8748 -4.0587 -2.8980
# 2 1.0934 54.2250 -10.3520 -5.1908 3.3734 -17.8139
# 3 3.1814 -10.3520 37.5496 -3.4518 4.9658 -1.6748
# 4 3.8748 -5.1908 -3.4518 34.4336 3.3442 -0.4971
# 5 -4.0587 3.3734 4.9658 3.3442 45.4502 1.6813
# 6 -2.8980 -17.8139 -1.6748 -0.4971 1.6813 34.5853
#
#
#
# Elastic Compliance Matrix: (Units=1/GPa)
#
#
# Indices 1 2 3 4 5 6 
#
# 1 0.008597 -0.000434 -0.001076 -0.001232 0.000994 0.000379
# 2 -0.000434 0.025332 0.008614 0.005293 -0.003756 0.013687
# 3 -0.001076 0.008614 0.030447 0.005013 -0.004657 0.006120
# 4 -0.001232 0.005293 0.005013 0.030866 -0.003450 0.003477
# 5 0.000994 -0.003756 -0.004657 -0.003450 0.023253 -0.003257
# 6 0.000379 0.013687 0.006120 0.003477 -0.003257 0.036500
#
#
# Mechanical properties :
#
#
# Convention : Reuss Voigt Hill
#
# Bulk Modulus (GPa) = 12.72517 21.94964 17.33740
# Shear Modulus (GPa) = 29.94355 37.27904 33.61130
#
# Velocity S-wave (km/s) = 3.52304 3.93095 3.73257
# Velocity P-wave (km/s) = 4.67159 5.44990 5.07569
#
# Compressibility (1/GPa) = 0.07858444
#
# Stress axis : x y z
#
# Youngs Moduli (GPa) = 116.32107 39.47605 32.84385
#
# Poissons Ratio (x) = 0.01714 0.03534
# Poissons Ratio (y) = 0.05050 -0.28293
# Poissons Ratio (z) = 0.12515 -0.34006
#
# Static dielectric constant tensor:
#      x y z
#    x 5.168280 -0.070850 -0.317250 
#    y -0.070850 4.484960 0.097470 
#    z -0.317250 0.097470 4.122910 
# 
# 
# High freq. dielectric constant tensor:
#      x y z
#    x 1.976520 -0.001140 -0.007880 
#    y -0.001140 1.958220 -0.000720 
#    z -0.007880 -0.000720 1.936710 
# 
# From -- ./inp_files/153740.got.cif
#   From: 2010.06.25/outbox.cif.g09.slc.cpg/sg2_77_cif.got.tgz:153740.got - 2010.06.27 13:26:56.
