data_PCOD8019213
_publ_section_title
;
Structure prediction by ZEFSAII (Michael W. Deem and Ramdas Pophale) SiO2 
 PCOD8019213
Probable space group: P -1
;
_chemical_formula_sum "Si O2"
_cell_formula_units_Z 10
_cell_length_a 18.995744
_cell_length_b 15.211112
_cell_length_c 11.157170
_cell_angle_alpha 22.530326
_cell_angle_beta 24.812333
_cell_angle_gamma 21.570497
_cell_volume 426.145437
_symmetry_space_group_name_H-M "P -1"
_symmetry_group_IT_number 2
_symmetry_cell_setting 'triclinic'
loop_
_space_group_symop_operation_xyz
x,y,z
-x,-y,-z
loop_
_atom_site_type_symbol
_atom_site_label
_atom_site_fract_x
_atom_site_fract_y
_atom_site_fract_z
Si Si1 0.344966 0.611196 0.325597
Si Si2 0.461355 0.020036 0.894023
Si Si3 0.722883 0.568596 0.883878
Si Si4 0.855528 0.821733 0.175910
Si Si5 0.942163 0.753267 0.857340
O O1 0.391504 0.322138 0.568215
O O2 0.133217 0.784752 0.514593
O O3 0.544798 0.521012 0.206332
O O4 0.294946 0.838801 0.013926
O O5 0.668584 0.780387 0.811476
O O6 0.276873 0.988210 0.183037
O O7 0.500000 0.000000 0.000000
O O8 0.739560 0.701889 0.568662
O O9 0.936801 0.278486 0.947166
O O10 0.907653 0.701150 0.112626
O O11 0.000000 0.500000 0.000000
#
# Coordination Sequence:
#
# PCOD8019213 Si02
#       5
#     2   2   2   2   2
#     4  11  24  43  71  96 130 179 213 271 330 385
#     4  11  25  42  69 100 132 170 224 272 324 388
#     4  11  25  45  67  98 136 172 216 274 321 396
#     4  11  24  45  67  97 137 171 219 269 330 385
#     4  10  22  41  65  97 130 169 216 271 318 386
#
# _framework density 23.466166999999999
#
# number of rings (size 3 to 8) (size 9 to 14) (size 15 to 20)
#    0.000    1.200    2.000    3.600    2.800    2.400 
#    3.600    2.000    0.000    0.000    0.000    0.000 
#    0.000    0.000    0.000    0.000    0.000    0.000 
#
# Total GULP energy -123947.318178 kJ/mol
# GULP energy per Si atom -12394.731818 kJ/mol
# Density = 2.341276 g / cm^3
# Si number density = 23.466167 Si / 1000 Ang^3
#
#
#
# Elastic Constant Matrix: (Units=GPa)
#
#
# Indices 1 2 3 4 5 6 
#
# 1 105.6863 16.6920 58.2988 13.9211 7.6269 -22.8549
# 2 16.6920 84.8018 15.8225 -1.7202 -14.1021 -19.8323
# 3 58.2988 15.8225 75.1880 16.5641 -5.6662 -8.7554
# 4 13.9211 -1.7202 16.5641 46.6583 -6.1060 -0.4214
# 5 7.6269 -14.1021 -5.6662 -6.1060 36.4398 9.7999
# 6 -22.8549 -19.8323 -8.7554 -0.4214 9.7999 41.1633
#
#
#
# Elastic Compliance Matrix: (Units=1/GPa)
#
#
# Indices 1 2 3 4 5 6 
#
# 1 0.021569 -0.000573 -0.015651 -0.002170 -0.010447 0.010836
# 2 -0.000573 0.014240 -0.002086 0.002042 0.004276 0.005102
# 3 -0.015651 -0.002086 0.026624 -0.003927 0.007527 -0.005864
# 4 -0.002170 0.002042 -0.003927 0.024217 0.005245 -0.002057
# 5 -0.010447 0.004276 0.007527 0.005245 0.036213 -0.010707
# 6 0.010836 0.005102 -0.005864 -0.002057 -0.010707 0.034048
#
#
# Mechanical properties :
#
#
# Convention : Reuss Voigt Hill
#
# Bulk Modulus (GPa) = 38.74007 49.70028 44.22017
# Shear Modulus (GPa) = 24.73605 36.50979 30.62292
#
# Velocity S-wave (km/s) = 3.25024 3.94870 3.61637
# Velocity P-wave (km/s) = 5.53445 6.48191 6.02683
#
# Compressibility (1/GPa) = 0.02581307
#
# Stress axis : x y z
#
# Youngs Moduli (GPa) = 46.36352 70.22534 37.56041
#
# Poissons Ratio (x) = 0.04021 0.58785
# Poissons Ratio (y) = 0.02654 0.07836
# Poissons Ratio (z) = 0.72563 0.14651
#
# Static dielectric constant tensor:
#      x y z
#    x 4.067650 -0.188290 -0.189940 
#    y -0.188290 4.626630 0.278650 
#    z -0.189940 0.278650 4.374160 
# 
# 
# High freq. dielectric constant tensor:
#      x y z
#    x 1.920750 -0.013350 -0.010850 
#    y -0.013350 1.949970 0.013010 
#    z -0.010850 0.013010 1.922440 
# 
# From -- ./inp_files/148491.got.cif
#   From: 2010.06.25/outbox.cif.g09.slc.cpg/sg2_75_cif.got.tgz:148491.got - 2010.06.27 13:26:56.
