data_PCOD8019642
_publ_section_title
;
Structure prediction by ZEFSAII (Michael W. Deem and Ramdas Pophale) SiO2 
 PCOD8019642
Probable space group: P -1
;
_chemical_formula_sum "Si O2"
_cell_formula_units_Z 16
_cell_length_a 13.099784
_cell_length_b 8.818609
_cell_length_c 9.547275
_cell_angle_alpha 97.093654
_cell_angle_beta 101.807883
_cell_angle_gamma 132.082379
_cell_volume 747.904516
_symmetry_space_group_name_H-M "P -1"
_symmetry_group_IT_number 2
_symmetry_cell_setting 'triclinic'
loop_
_space_group_symop_operation_xyz
x,y,z
-x,-y,-z
loop_
_atom_site_type_symbol
_atom_site_label
_atom_site_fract_x
_atom_site_fract_y
_atom_site_fract_z
Si Si1 0.174450 0.035083 0.047882
Si Si2 0.847853 0.648684 0.882623
Si Si3 0.240029 0.074273 0.393967
Si Si4 0.670681 0.004700 0.120830
Si Si5 0.632964 0.206031 0.914490
Si Si6 0.220818 0.399688 0.454191
Si Si7 0.491646 0.123987 0.398487
Si Si8 0.930005 0.259551 0.449972
O O1 0.171950 0.210891 0.027622
O O2 0.178425 0.017729 0.213231
O O3 0.309706 0.100636 0.007985
O O4 0.022310 0.795660 0.923894
O O5 0.780990 0.446693 0.936079
O O6 0.761777 0.560048 0.702152
O O7 0.249268 0.252504 0.486014
O O8 0.404801 0.174876 0.449645
O O9 0.130564 0.850637 0.426979
O O10 0.792991 0.110924 0.286775
O O11 0.504443 0.817024 0.118538
O O12 0.675473 0.179244 0.074040
O O13 0.594977 0.028039 0.778394
O O14 0.346759 0.644433 0.581222
O O15 0.056759 0.271567 0.445648
O O16 0.500000 0.000000 0.500000
O O17 0.000000 0.500000 0.500000
#
# Coordination Sequence:
#
# PCOD8019642 Si02
#       8
#     2   2   2   2   2   2   2   2
#     4  10  22  44  67  95 128 167 218 261 318 393
#     4  10  22  41  69  96 126 170 213 266 322 386
#     4  11  25  43  67  96 129 175 217 266 325 385
#     4  11  24  44  63  92 133 169 213 267 320 384
#     4  11  24  41  65  95 131 169 215 267 322 383
#     4  11  23  43  67  95 134 170 217 268 326 386
#     4  12  22  42  66  96 130 169 216 267 321 386
#     4  12  26  43  65  99 132 172 216 272 324 382
#
# _framework density 21.393107000000001
#
# number of rings (size 3 to 8) (size 9 to 14) (size 15 to 20)
#    0.000    1.000    3.750    3.000    1.750    1.000 
#    0.000    0.000    0.000    0.000    0.000    0.000 
#    0.000    0.000    0.000    0.000    0.000    0.000 
#
# Total GULP energy -198450.352722 kJ/mol
# GULP energy per Si atom -12403.147045 kJ/mol
# Density = 2.134441 g / cm^3
# Si number density = 21.393107 Si / 1000 Ang^3
#
#
#
# Elastic Constant Matrix: (Units=GPa)
#
#
# Indices 1 2 3 4 5 6 
#
# 1 135.4764 12.5575 13.7685 4.5451 -6.4297 4.2006
# 2 12.5575 88.5246 19.5599 8.3312 -0.8460 -2.2447
# 3 13.7685 19.5599 61.5713 0.5133 -0.7856 -8.1814
# 4 4.5451 8.3312 0.5133 27.2298 1.5065 2.0535
# 5 -6.4297 -0.8460 -0.7856 1.5065 34.6014 -4.6254
# 6 4.2006 -2.2447 -8.1814 2.0535 -4.6254 28.5733
#
#
#
# Elastic Compliance Matrix: (Units=1/GPa)
#
#
# Indices 1 2 3 4 5 6 
#
# 1 0.007750 -0.000654 -0.001687 -0.001025 0.001244 -0.001399
# 2 -0.000654 0.012583 -0.003774 -0.003711 0.000305 0.000320
# 3 -0.001687 -0.003774 0.018528 0.000647 0.000698 0.005323
# 4 -0.001025 -0.003711 0.000647 0.038382 -0.002351 -0.003095
# 5 0.001244 0.000305 0.000698 -0.002351 0.029933 0.005056
# 6 -0.001399 0.000320 0.005323 -0.003095 0.005056 0.037794
#
#
# Mechanical properties :
#
#
# Convention : Reuss Voigt Hill
#
# Bulk Modulus (GPa) = 37.54790 41.92713 39.73752
# Shear Modulus (GPa) = 30.10654 34.05999 32.08326
#
# Velocity S-wave (km/s) = 3.75547 3.99444 3.87680
# Velocity P-wave (km/s) = 6.03277 6.39649 6.21729
#
# Compressibility (1/GPa) = 0.02663265
#
# Stress axis : x y z
#
# Youngs Moduli (GPa) = 129.02936 79.47152 53.97152
#
# Poissons Ratio (x) = 0.05196 0.09104
# Poissons Ratio (y) = 0.08436 0.20368
# Poissons Ratio (z) = 0.21765 0.29991
#
# Static dielectric constant tensor:
#      x y z
#    x 4.118300 0.005060 -0.013770 
#    y 0.005060 3.737790 -0.044610 
#    z -0.013770 -0.044610 3.791940 
# 
# 
# High freq. dielectric constant tensor:
#      x y z
#    x 1.857750 0.002140 0.002660 
#    y 0.002140 1.830960 -0.004920 
#    z 0.002660 -0.004920 1.834590 
# 
# From -- ./inp_files/208407.got.cif
#   From: 2010.06.25/outbox.cif.g09.slc.cpg/sg2_105_cif.got.tgz:208407.got - 2010.06.27 13:26:56.
