data_PCOD8019357
_publ_section_title
;
Structure prediction by ZEFSAII (Michael W. Deem and Ramdas Pophale) SiO2 
 PCOD8019357
Probable space group: P -1
;
_chemical_formula_sum "Si O2"
_cell_formula_units_Z 16
_cell_length_a 10.703894
_cell_length_b 12.143100
_cell_length_c 15.984107
_cell_angle_alpha 51.294409
_cell_angle_beta 104.525920
_cell_angle_gamma 145.705557
_cell_volume 727.713115
_symmetry_space_group_name_H-M "P -1"
_symmetry_group_IT_number 2
_symmetry_cell_setting 'triclinic'
loop_
_space_group_symop_operation_xyz
x,y,z
-x,-y,-z
loop_
_atom_site_type_symbol
_atom_site_label
_atom_site_fract_x
_atom_site_fract_y
_atom_site_fract_z
Si Si1 0.868500 0.194497 0.794885
Si Si2 0.346525 0.824017 0.809052
Si Si3 0.824651 0.734065 0.277430
Si Si4 0.676334 0.816953 0.089966
Si Si5 0.795212 0.925400 0.472741
Si Si6 0.269332 0.824760 0.610830
Si Si7 0.170580 0.838675 0.912521
Si Si8 0.922496 0.821445 0.768690
O O1 0.082819 0.333868 0.698419
O O2 0.995373 0.463258 0.723098
O O3 0.577833 0.933508 0.821600
O O4 0.835077 0.045971 0.932312
O O5 0.405506 0.935165 0.672892
O O6 0.373850 0.971291 0.813994
O O7 0.024703 0.461885 0.929256
O O8 0.862141 0.873876 0.136504
O O9 0.509756 0.432140 0.398289
O O10 0.007222 0.961163 0.279576
O O11 0.387591 0.468077 0.180323
O O12 0.622547 0.884663 0.119237
O O13 0.820646 0.097106 0.448235
O O14 0.859196 0.013544 0.344369
O O15 0.000000 0.000000 0.500000
O O16 0.500000 0.000000 0.500000
O O17 0.943825 0.723626 0.889286
#
# Coordination Sequence:
#
# PCOD8019357 Si02
#       8
#     2   2   2   2   2   2   2   2
#     4  12  26  44  71 106 144 185 235 294 361 431
#     4  11  24  41  70 100 140 186 226 294 360 418
#     4  11  26  45  67 102 144 190 237 293 345 428
#     4  11  23  43  71 107 138 186 233 296 361 416
#     4  12  25  48  74 102 137 191 242 290 350 423
#     4  12  27  49  72 103 147 189 236 292 362 429
#     4  10  22  41  67 104 140 173 233 292 353 417
#     4  11  23  43  73 101 136 183 239 290 355 410
#
# _framework density 21.986688000000001
#
# number of rings (size 3 to 8) (size 9 to 14) (size 15 to 20)
#    0.000    0.750    6.250    0.750    1.750    3.500 
#    2.250    0.000    0.000    0.000    0.000    0.000 
#    0.000    0.000    0.000    0.000    0.000    0.000 
#
# Total GULP energy -198374.413726 kJ/mol
# GULP energy per Si atom -12398.400858 kJ/mol
# Density = 2.193665 g / cm^3
# Si number density = 21.986688 Si / 1000 Ang^3
#
#
#
# Elastic Constant Matrix: (Units=GPa)
#
#
# Indices 1 2 3 4 5 6 
#
# 1 138.7136 58.4440 31.3835 -2.7546 -6.5590 -21.8726
# 2 58.4440 130.1540 41.5250 -14.4992 -7.2858 -16.9517
# 3 31.3835 41.5250 90.3230 0.8313 -3.1217 -7.2808
# 4 -2.7546 -14.4992 0.8313 33.1389 -8.0249 -0.0427
# 5 -6.5590 -7.2858 -3.1217 -8.0249 30.4210 -4.5366
# 6 -21.8726 -16.9517 -7.2808 -0.0427 -4.5366 30.6193
#
#
#
# Elastic Compliance Matrix: (Units=1/GPa)
#
#
# Indices 1 2 3 4 5 6 
#
# 1 0.009774 -0.003140 -0.001466 -0.000042 0.001967 0.005186
# 2 -0.003140 0.011721 -0.003904 0.005907 0.003869 0.003899
# 3 -0.001466 -0.003904 0.013371 -0.002286 -0.000498 -0.000106
# 4 -0.000042 0.005907 -0.002286 0.035533 0.011202 0.004406
# 5 0.001967 0.003869 -0.000498 0.011202 0.038491 0.009148
# 6 0.005186 0.003899 -0.000106 0.004406 0.009148 0.039859
#
#
# Mechanical properties :
#
#
# Convention : Reuss Voigt Hill
#
# Bulk Modulus (GPa) = 56.03552 69.09950 62.56751
# Shear Modulus (GPa) = 29.11761 34.02503 31.57132
#
# Velocity S-wave (km/s) = 3.64308 3.93813 3.79348
# Velocity P-wave (km/s) = 6.57552 7.22320 6.90696
#
# Compressibility (1/GPa) = 0.01784582
#
# Stress axis : x y z
#
# Youngs Moduli (GPa) = 102.31505 85.31438 74.78968
#
# Poissons Ratio (x) = 0.26790 0.10963
# Poissons Ratio (y) = 0.32128 0.29198
# Poissons Ratio (z) = 0.14998 0.33307
#
# Static dielectric constant tensor:
#      x y z
#    x 3.893220 -0.262960 0.094700 
#    y -0.262960 3.950350 0.166430 
#    z 0.094700 0.166430 3.991240 
# 
# 
# High freq. dielectric constant tensor:
#      x y z
#    x 1.864950 -0.013310 0.002230 
#    y -0.013310 1.865060 0.004960 
#    z 0.002230 0.004960 1.866800 
# 
# From -- ./inp_files/71236.got.cif
#   From: 2010.06.25/outbox.cif.g09.slc.cpg/sg2_36_cif.got.tgz:71236.got - 2010.06.27 13:26:56.
