data_PCOD8019828
_publ_section_title
;
Structure prediction by ZEFSAII (Michael W. Deem and Ramdas Pophale) SiO2 
 PCOD8019828
Probable space group: P -1
;
_chemical_formula_sum "Si O2"
_cell_formula_units_Z 14
_cell_length_a 9.243319
_cell_length_b 19.124165
_cell_length_c 8.341470
_cell_angle_alpha 33.668820
_cell_angle_beta 52.375540
_cell_angle_gamma 53.898507
_cell_volume 636.306650
_symmetry_space_group_name_H-M "P -1"
_symmetry_group_IT_number 2
_symmetry_cell_setting 'triclinic'
loop_
_space_group_symop_operation_xyz
x,y,z
-x,-y,-z
loop_
_atom_site_type_symbol
_atom_site_label
_atom_site_fract_x
_atom_site_fract_y
_atom_site_fract_z
Si Si1 0.952263 0.145363 0.311419
Si Si2 0.291698 0.307416 0.342243
Si Si3 0.424234 0.611916 0.219551
Si Si4 0.447243 0.861968 0.276951
Si Si5 0.968559 0.385580 0.630478
Si Si6 0.874895 0.863488 0.453244
Si Si7 0.278455 0.854773 0.063999
O O1 0.078679 0.169768 0.330052
O O2 0.733829 0.165946 0.455409
O O3 0.998806 0.243249 0.959454
O O4 0.000000 0.000000 0.500000
O O5 0.379492 0.233704 0.582585
O O6 0.096881 0.387591 0.382765
O O7 0.255864 0.222756 0.375411
O O8 0.429885 0.394796 0.012480
O O9 0.500000 0.500000 0.500000
O O10 0.374703 0.752272 0.065646
O O11 0.242708 0.570802 0.354167
O O12 0.415191 0.840347 0.151980
O O13 0.500000 0.000000 0.000000
O O14 0.000000 0.500000 0.500000
O O15 0.069196 0.838134 0.275541
O O16 0.749623 0.004730 0.261523
#
# Coordination Sequence:
#
# PCOD8019828 Si02
#       7
#     2   2   2   2   2   2   2
#     4  11  24  44  74 105 149 191 244 299 367 434
#     4  12  26  46  75 103 143 187 246 294 366 436
#     4  12  29  49  72 104 142 194 247 298 361 443
#     4  11  22  40  70 112 144 186 238 300 363 433
#     4  12  29  51  72 105 150 193 241 304 372 438
#     4  10  22  41  75 106 138 192 235 297 365 426
#     4  10  22  44  69 104 150 181 239 301 359 428
#
# _framework density 22.001971000000001
#
# number of rings (size 3 to 8) (size 9 to 14) (size 15 to 20)
#    0.000    0.857    4.286    1.714    6.000    5.143 
#    0.000    0.000    0.000    0.000    0.000    0.000 
#    0.000    0.000    0.000    0.000    0.000    0.000 
#
# Total GULP energy -173561.701389 kJ/mol
# GULP energy per Si atom -12397.264385 kJ/mol
# Density = 2.195189 g / cm^3
# Si number density = 22.001971 Si / 1000 Ang^3
#
#
#
# Elastic Constant Matrix: (Units=GPa)
#
#
# Indices 1 2 3 4 5 6 
#
# 1 155.7045 31.9050 46.3246 3.7242 -8.8715 -2.8114
# 2 31.9050 88.2087 66.2356 6.4146 -18.6829 6.9328
# 3 46.3246 66.2356 109.5206 6.9999 1.9763 -18.6911
# 4 3.7242 6.4146 6.9999 36.5238 -1.8339 -3.9760
# 5 -8.8715 -18.6829 1.9763 -1.8339 34.0737 -1.2240
# 6 -2.8114 6.9328 -18.6911 -3.9760 -1.2240 27.7956
#
#
#
# Elastic Compliance Matrix: (Units=1/GPa)
#
#
# Indices 1 2 3 4 5 6 
#
# 1 0.007624 0.001731 -0.004783 -0.000313 0.003095 -0.002785
# 2 0.001731 0.042938 -0.032317 -0.003746 0.024527 -0.031722
# 3 -0.004783 -0.032317 0.036302 0.001621 -0.019857 0.031346
# 4 -0.000313 -0.003746 0.001621 0.028391 -0.000484 0.006033
# 5 0.003095 0.024527 -0.019857 -0.000484 0.044107 -0.017284
# 6 -0.002785 -0.031722 0.031346 0.006033 -0.017284 0.064787
#
#
# Mechanical properties :
#
#
# Convention : Reuss Voigt Hill
#
# Bulk Modulus (GPa) = 62.00839 71.37381 66.69110
# Shear Modulus (GPa) = 16.65209 33.60987 25.13098
#
# Velocity S-wave (km/s) = 2.75407 3.91267 3.38333
# Velocity P-wave (km/s) = 6.19334 7.27476 6.75572
#
# Compressibility (1/GPa) = 0.01612685
#
# Stress axis : x y z
#
# Youngs Moduli (GPa) = 131.16057 23.28956 27.54635
#
# Poissons Ratio (x) = -0.04031 0.13175
# Poissons Ratio (y) = -0.22701 0.89021
# Poissons Ratio (z) = 0.62732 0.75264
#
# Static dielectric constant tensor:
#      x y z
#    x 3.733610 -0.004760 -1.457750 
#    y -0.004760 3.861290 0.732740 
#    z -1.457750 0.732740 1.398290 
# 
# 
# High freq. dielectric constant tensor:
#      x y z
#    x 1.892420 -0.006320 -0.003400 
#    y -0.006320 1.861650 0.008470 
#    z -0.003400 0.008470 1.861180 
# 
# From -- ./inp_files/207963.got.cif
#   From: 2010.06.25/outbox.cif.g09.slc.cpg/sg2_104_cif.got.tgz:207963.got - 2010.06.27 13:26:56.
