data_PCOD8019320
_publ_section_title
;
Structure prediction by ZEFSAII (Michael W. Deem and Ramdas Pophale) SiO2 
 PCOD8019320
Probable space group: P -1
;
_chemical_formula_sum "Si O2"
_cell_formula_units_Z 14
_cell_length_a 10.694053
_cell_length_b 5.164319
_cell_length_c 16.422237
_cell_angle_alpha 122.409017
_cell_angle_beta 129.836538
_cell_angle_gamma 66.215696
_cell_volume 585.437486
_symmetry_space_group_name_H-M "P -1"
_symmetry_group_IT_number 2
_symmetry_cell_setting 'triclinic'
loop_
_space_group_symop_operation_xyz
x,y,z
-x,-y,-z
loop_
_atom_site_type_symbol
_atom_site_label
_atom_site_fract_x
_atom_site_fract_y
_atom_site_fract_z
Si Si1 0.326777 0.879348 0.500701
Si Si2 0.024659 0.191571 0.622708
Si Si3 0.067190 0.471244 0.908750
Si Si4 0.136296 0.860355 0.762627
Si Si5 0.474762 0.453235 0.617522
Si Si6 0.257185 0.328071 0.121147
Si Si7 0.663881 0.281547 0.036977
O O1 0.143141 0.797897 0.393872
O O2 0.384434 0.768454 0.597064
O O3 0.437589 0.718729 0.450549
O O4 0.339587 0.246645 0.564149
O O5 0.060533 0.534734 0.671571
O O6 0.000000 0.000000 0.500000
O O7 0.158497 0.000092 0.704750
O O8 0.169944 0.557169 0.886772
O O9 0.896926 0.687253 0.883601
O O10 0.029727 0.114478 0.818205
O O11 0.182740 0.512306 0.042352
O O12 0.313835 0.820577 0.875869
O O13 0.602274 0.497541 0.749658
O O14 0.341398 0.995552 0.075489
O O15 0.500000 0.500000 0.000000
#
# Coordination Sequence:
#
# PCOD8019320 Si02
#       7
#     2   2   2   2   2   2   2
#     4  10  23  43  63  98 136 175 226 285 342 398
#     4  12  25  46  69 103 137 187 241 284 338 427
#     4  10  22  46  68 107 136 182 237 285 348 424
#     4  11  24  45  72 100 139 193 226 291 352 411
#     4  10  22  41  66  97 133 177 222 285 344 395
#     4  10  23  40  73 104 137 184 235 288 341 426
#     4  11  25  46  69 107 146 182 229 288 359 427
#
# _framework density 23.913740000000001
#
# number of rings (size 3 to 8) (size 9 to 14) (size 15 to 20)
#    0.000    1.429    1.429    2.571    2.000    5.714 
#    5.143    0.000    0.000    0.000    0.000    0.000 
#    0.000    0.000    0.000    0.000    0.000    0.000 
#
# Total GULP energy -173529.133691 kJ/mol
# GULP energy per Si atom -12394.938121 kJ/mol
# Density = 2.385931 g / cm^3
# Si number density = 23.913740 Si / 1000 Ang^3
#
#
#
# Elastic Constant Matrix: (Units=GPa)
#
#
# Indices 1 2 3 4 5 6 
#
# 1 51.4950 33.7484 4.7535 1.4846 -7.5464 -1.1529
# 2 33.7484 124.2755 50.9618 -4.2481 -8.3316 9.4877
# 3 4.7535 50.9618 126.0120 2.6321 -21.7151 6.5510
# 4 1.4846 -4.2481 2.6321 37.3963 11.6047 8.4517
# 5 -7.5464 -8.3316 -21.7151 11.6047 31.5376 -5.2247
# 6 -1.1529 9.4877 6.5510 8.4517 -5.2247 39.7335
#
#
#
# Elastic Compliance Matrix: (Units=1/GPa)
#
#
# Indices 1 2 3 4 5 6 
#
# 1 0.026660 -0.008897 0.004234 -0.006658 0.010216 0.004960
# 2 -0.008897 0.012908 -0.005632 0.004684 -0.004994 -0.004065
# 3 0.004234 -0.005632 0.011752 -0.005112 0.009815 0.001908
# 4 -0.006658 0.004684 -0.005112 0.036189 -0.018957 -0.010659
# 5 0.010216 -0.004994 0.009815 -0.018957 0.048265 0.010250
# 6 0.004960 -0.004065 0.001908 -0.010659 0.010250 0.029583
#
#
# Mechanical properties :
#
#
# Convention : Reuss Voigt Hill
#
# Bulk Modulus (GPa) = 32.54098 53.41220 42.97659
# Shear Modulus (GPa) = 25.48559 35.88807 30.68683
#
# Velocity S-wave (km/s) = 3.26809 3.87813 3.58611
# Velocity P-wave (km/s) = 5.27994 6.51437 5.92937
#
# Compressibility (1/GPa) = 0.03073048
#
# Stress axis : x y z
#
# Youngs Moduli (GPa) = 37.50982 77.47216 85.08866
#
# Poissons Ratio (x) = 0.68930 -0.36029
# Poissons Ratio (y) = 0.33374 0.47919
# Poissons Ratio (z) = -0.15883 0.43629
#
# Static dielectric constant tensor:
#      x y z
#    x 4.222310 0.153290 -0.093930 
#    y 0.153290 4.648760 -0.088300 
#    z -0.093930 -0.088300 4.464690 
# 
# 
# High freq. dielectric constant tensor:
#      x y z
#    x 1.925770 0.004890 -0.013540 
#    y 0.004890 1.954970 -0.001820 
#    z -0.013540 -0.001820 1.960700 
# 
# From -- ./inp_files/564596.got.cif
#   From: 2010.06.25/outbox.cif.g09.slc.cpg/sg2_283_cif.got.tgz:564596.got - 2010.06.27 13:26:56.
