data_PCOD8019030
_publ_section_title
;
Structure prediction by ZEFSAII (Michael W. Deem and Ramdas Pophale) SiO2 
 PCOD8019030
Probable space group: P -1
;
_chemical_formula_sum "Si O2"
_cell_formula_units_Z 16
_cell_length_a 17.151997
_cell_length_b 10.070982
_cell_length_c 16.361164
_cell_angle_alpha 40.243301
_cell_angle_beta 153.302017
_cell_angle_gamma 142.409376
_cell_volume 758.591616
_symmetry_space_group_name_H-M "P -1"
_symmetry_group_IT_number 2
_symmetry_cell_setting 'triclinic'
loop_
_space_group_symop_operation_xyz
x,y,z
-x,-y,-z
loop_
_atom_site_type_symbol
_atom_site_label
_atom_site_fract_x
_atom_site_fract_y
_atom_site_fract_z
Si Si1 0.895164 0.620870 0.397563
Si Si2 0.172205 0.483475 0.274422
Si Si3 0.507697 0.047208 0.890021
Si Si4 0.606291 0.758068 0.990028
Si Si5 0.545427 0.754245 0.594362
Si Si6 0.441584 0.796329 0.656142
Si Si7 0.890370 0.965870 0.497593
Si Si8 0.788866 0.497770 0.884605
O O1 0.731889 0.432550 0.382441
O O2 0.000000 0.500000 0.500000
O O3 0.817999 0.782489 0.197463
O O4 0.043710 0.789398 0.517553
O O5 0.337051 0.614793 0.430162
O O6 0.073370 0.223199 0.327621
O O7 0.255343 0.505587 0.251260
O O8 0.009816 0.585133 0.072826
O O9 0.333287 0.117403 0.677410
O O10 0.696377 0.250510 0.948995
O O11 0.509600 0.840402 0.934911
O O12 0.500000 0.000000 0.000000
O O13 0.589484 0.871506 0.835139
O O14 0.500000 0.500000 0.000000
O O15 0.542615 0.762180 0.685815
O O16 0.700569 0.656017 0.768343
O O17 0.626244 0.001088 0.516068
O O18 0.000000 0.000000 0.500000
#
# Coordination Sequence:
#
# PCOD8019030 Si02
#       8
#     2   2   2   2   2   2   2   2
#     4  11  24  42  65  96 133 176 222 279 335 406
#     4  11  24  43  68 104 133 177 229 281 341 414
#     4  12  25  42  70 101 136 178 225 285 350 402
#     4  10  22  41  64  90 130 176 219 268 333 405
#     4  11  23  45  70  94 138 179 223 288 329 410
#     4  10  24  44  66  95 130 181 230 266 346 404
#     4  12  24  41  67 103 138 171 224 288 337 406
#     4  11  25  42  70 100 137 177 226 285 346 401
#
# _framework density 21.091718
#
# number of rings (size 3 to 8) (size 9 to 14) (size 15 to 20)
#    0.000    1.000    1.250    5.625    7.000    1.000 
#    4.500    1.250    0.000    0.000    0.000    0.000 
#    0.000    0.000    0.000    0.000    0.000    0.000 
#
# Total GULP energy -198383.623242 kJ/mol
# GULP energy per Si atom -12398.976453 kJ/mol
# Density = 2.104371 g / cm^3
# Si number density = 21.091718 Si / 1000 Ang^3
#
#
#
# Elastic Constant Matrix: (Units=GPa)
#
#
# Indices 1 2 3 4 5 6 
#
# 1 139.6231 48.5663 55.2869 -21.0994 -18.2412 -16.4366
# 2 48.5663 89.0864 23.7837 -13.5467 -4.6848 -10.6354
# 3 55.2869 23.7837 110.2878 -12.7240 6.1519 -13.2637
# 4 -21.0994 -13.5467 -12.7240 33.0892 -2.2743 1.0761
# 5 -18.2412 -4.6848 6.1519 -2.2743 42.1356 -7.5718
# 6 -16.4366 -10.6354 -13.2637 1.0761 -7.5718 44.3220
#
#
#
# Elastic Compliance Matrix: (Units=1/GPa)
#
#
# Indices 1 2 3 4 5 6 
#
# 1 0.012389 -0.004040 -0.004768 0.004752 0.006439 0.003183
# 2 -0.004040 0.014256 -0.000509 0.003034 0.000391 0.001763
# 3 -0.004768 -0.000509 0.012023 0.001091 -0.003626 0.001062
# 4 0.004752 0.003034 0.001091 0.035141 0.004627 0.002754
# 5 0.006439 0.000391 -0.003626 0.004627 0.028447 0.006144
# 6 0.003183 0.001763 0.001062 0.002754 0.006144 0.025466
#
#
# Mechanical properties :
#
#
# Convention : Reuss Voigt Hill
#
# Bulk Modulus (GPa) = 49.91268 66.03010 57.97139
# Shear Modulus (GPa) = 32.67254 38.00004 35.33629
#
# Velocity S-wave (km/s) = 3.94009 4.24920 4.09756
# Velocity P-wave (km/s) = 6.66446 7.44637 7.06624
#
# Compressibility (1/GPa) = 0.02003499
#
# Stress axis : x y z
#
# Youngs Moduli (GPa) = 80.71489 70.14674 83.17599
#
# Poissons Ratio (x) = 0.28340 0.39655
# Poissons Ratio (y) = 0.32610 0.04231
# Poissons Ratio (z) = 0.38482 0.03568
#
# Static dielectric constant tensor:
#      x y z
#    x 3.923300 -0.099180 -0.507280 
#    y -0.099180 3.629780 -0.769560 
#    z -0.507280 -0.769560 2.006400 
# 
# 
# High freq. dielectric constant tensor:
#      x y z
#    x 1.832590 -0.004070 -0.003210 
#    y -0.004070 1.832690 -0.010340 
#    z -0.003210 -0.010340 1.838380 
# 
# From -- ./inp_files/529447.got.cif
#   From: 2010.06.25/outbox.cif.g09.slc.cpg/sg2_265_cif.got.tgz:529447.got - 2010.06.27 13:26:56.
