data_PCOD8019611
_publ_section_title
;
Structure prediction by ZEFSAII (Michael W. Deem and Ramdas Pophale) SiO2 
 PCOD8019611
Probable space group: P -1
;
_chemical_formula_sum "Si O2"
_cell_formula_units_Z 14
_cell_length_a 10.389773
_cell_length_b 8.072132
_cell_length_c 12.912582
_cell_angle_alpha 56.315733
_cell_angle_beta 128.827329
_cell_angle_gamma 89.038813
_cell_volume 580.519536
_symmetry_space_group_name_H-M "P -1"
_symmetry_group_IT_number 2
_symmetry_cell_setting 'triclinic'
loop_
_space_group_symop_operation_xyz
x,y,z
-x,-y,-z
loop_
_atom_site_type_symbol
_atom_site_label
_atom_site_fract_x
_atom_site_fract_y
_atom_site_fract_z
Si Si1 0.244260 0.361107 0.015515
Si Si2 0.540079 0.767917 0.044089
Si Si3 0.293831 0.670682 0.392712
Si Si4 0.073527 0.754293 0.058717
Si Si5 0.135492 0.598504 0.520249
Si Si6 0.453192 0.255228 0.365558
Si Si7 0.878363 0.142842 0.181164
O O1 0.357333 0.242560 0.007930
O O2 0.093585 0.653586 0.828326
O O3 0.126546 0.242279 0.032272
O O4 0.410623 0.308612 0.203441
O O5 0.678884 0.533361 0.264080
O O6 0.342613 0.774768 0.927776
O O7 0.500000 0.000000 0.000000
O O8 0.500000 0.500000 0.500000
O O9 0.130036 0.853431 0.158066
O O10 0.203868 0.541050 0.452860
O O11 0.340855 0.783714 0.475218
O O12 0.258833 0.472287 0.252597
O O13 0.078624 0.881073 0.912564
O O14 0.000000 0.500000 0.500000
O O15 0.022224 0.880175 0.393283
O O16 0.500000 0.000000 0.500000
#
# Coordination Sequence:
#
# PCOD8019611 Si02
#       7
#     2   2   2   2   2   2   2
#     4  11  25  47  74 107 145 191 240 303 373 427
#     4  12  26  48  71 103 150 195 242 300 365 443
#     4  10  23  43  70 104 143 186 239 298 358 429
#     4  10  23  45  71 108 142 185 243 299 364 432
#     4  12  25  45  69 103 146 192 246 300 360 434
#     4  10  22  41  69 108 146 181 234 302 365 431
#     4  11  25  47  72 103 151 190 242 307 364 434
#
# _framework density 24.116326999999998
#
# number of rings (size 3 to 8) (size 9 to 14) (size 15 to 20)
#    0.000    1.143    1.429    5.571    4.000    4.571 
#    2.571    0.000    0.000    0.000    0.000    0.000 
#    0.000    0.000    0.000    0.000    0.000    0.000 
#
# Total GULP energy -173542.356991 kJ/mol
# GULP energy per Si atom -12395.882642 kJ/mol
# Density = 2.406144 g / cm^3
# Si number density = 24.116327 Si / 1000 Ang^3
#
#
#
# Elastic Constant Matrix: (Units=GPa)
#
#
# Indices 1 2 3 4 5 6 
#
# 1 156.5796 32.2063 40.3853 2.8664 -12.7784 -8.1724
# 2 32.2063 122.9315 40.9236 -5.7477 -6.2332 -4.7567
# 3 40.3853 40.9236 166.2307 2.0284 1.1431 1.6921
# 4 2.8664 -5.7477 2.0284 50.4799 1.4066 -5.5804
# 5 -12.7784 -6.2332 1.1431 1.4066 33.0065 2.9258
# 6 -8.1724 -4.7567 1.6921 -5.5804 2.9258 44.0658
#
#
#
# Elastic Compliance Matrix: (Units=1/GPa)
#
#
# Indices 1 2 3 4 5 6 
#
# 1 0.007303 -0.001270 -0.001484 -0.000455 0.002566 0.001046
# 2 -0.001270 0.009294 -0.002013 0.001280 0.001196 0.000928
# 3 -0.001484 -0.002013 0.006893 -0.000473 -0.001107 -0.000744
# 4 -0.000455 0.001280 -0.000473 0.020329 -0.001025 0.002714
# 5 0.002566 0.001196 -0.001107 -0.001025 0.031739 -0.001590
# 6 0.001046 0.000928 -0.000744 0.002714 -0.001590 0.023465
#
#
# Mechanical properties :
#
#
# Convention : Reuss Voigt Hill
#
# Bulk Modulus (GPa) = 71.65603 74.75247 73.20425
# Shear Modulus (GPa) = 44.16610 47.65887 45.91249
#
# Velocity S-wave (km/s) = 4.28410 4.45028 4.36798
# Velocity P-wave (km/s) = 7.36536 7.58093 7.47392
#
# Compressibility (1/GPa) = 0.01395556
#
# Stress axis : x y z
#
# Youngs Moduli (GPa) = 136.93226 107.59901 145.07832
#
# Poissons Ratio (x) = 0.13663 0.21534
# Poissons Ratio (y) = 0.17388 0.29201
# Poissons Ratio (z) = 0.20325 0.21657
#
# Static dielectric constant tensor:
#      x y z
#    x 6.560920 0.518010 -0.968020 
#    y 0.518010 5.075080 -0.233430 
#    z -0.968020 -0.233430 5.681960 
# 
# 
# High freq. dielectric constant tensor:
#      x y z
#    x 1.972080 -0.001720 0.005980 
#    y -0.001720 1.965330 -0.011100 
#    z 0.005980 -0.011100 1.976630 
# 
# From -- ./inp_files/377804.got.cif
#   From: 2010.06.25/outbox.cif.g09.slc.cpg/sg2_189_cif.got.tgz:377804.got - 2010.06.27 13:26:56.
