data_PCOD8020497
_publ_section_title
;
Structure prediction by ZEFSAII (Michael W. Deem and Ramdas Pophale) SiO2 
 PCOD8020497
Probable space group: P -1
;
_chemical_formula_sum "Si O2"
_cell_formula_units_Z 16
_cell_length_a 15.373641
_cell_length_b 14.719448
_cell_length_c 9.164346
_cell_angle_alpha 131.345388
_cell_angle_beta 151.252672
_cell_angle_gamma 49.409029
_cell_volume 733.967890
_symmetry_space_group_name_H-M "P -1"
_symmetry_group_IT_number 2
_symmetry_cell_setting 'triclinic'
loop_
_space_group_symop_operation_xyz
x,y,z
-x,-y,-z
loop_
_atom_site_type_symbol
_atom_site_label
_atom_site_fract_x
_atom_site_fract_y
_atom_site_fract_z
Si Si1 0.917563 0.130925 0.445857
Si Si2 0.374471 0.913500 0.565460
Si Si3 0.014392 0.552266 0.736654
Si Si4 0.764285 0.278838 0.652281
Si Si5 0.608218 0.597368 0.190543
Si Si6 0.413113 0.877243 0.258561
Si Si7 0.376534 0.389690 0.115531
Si Si8 0.265909 0.150891 0.809744
O O1 0.837592 0.239222 0.556701
O O2 0.064990 0.185829 0.624277
O O3 0.754785 0.105557 0.079278
O O4 0.000000 0.000000 0.500000
O O5 0.283953 0.838796 0.469694
O O6 0.340310 0.870928 0.308369
O O7 0.267049 0.052079 0.578493
O O8 0.592625 0.899930 0.904768
O O9 0.000000 0.500000 0.500000
O O10 0.814696 0.560562 0.524423
O O11 0.072830 0.685602 0.971057
O O12 0.189783 0.472904 0.999157
O O13 0.576077 0.389282 0.486648
O O14 0.541624 0.742724 0.278693
O O15 0.500000 0.500000 0.000000
O O16 0.608237 0.575573 0.994389
O O17 0.500000 0.000000 0.500000
O O18 0.333938 0.255171 0.928696
#
# Coordination Sequence:
#
# PCOD8020497 Si02
#       8
#     2   2   2   2   2   2   2   2
#     4  12  25  44  71 105 147 181 237 298 356 433
#     4  10  23  41  71 100 139 185 228 293 355 422
#     4  10  25  43  70  96 137 177 238 287 347 419
#     4  11  23  45  73 102 139 185 235 290 362 421
#     4  11  26  46  70 101 147 186 236 300 356 418
#     4  12  27  43  73 105 144 186 240 296 357 419
#     4  10  22  45  70  98 137 189 231 289 350 429
#     4  10  22  42  69 100 142 181 236 284 359 422
#
# _framework density 21.799318
#
# number of rings (size 3 to 8) (size 9 to 14) (size 15 to 20)
#    0.000    1.250    2.500    1.875   10.500    1.500 
#    0.000    1.250    0.000    0.000    0.000    0.000 
#    0.000    0.000    0.000    0.000    0.000    0.000 
#
# Total GULP energy -198251.618250 kJ/mol
# GULP energy per Si atom -12390.726141 kJ/mol
# Density = 2.174970 g / cm^3
# Si number density = 21.799318 Si / 1000 Ang^3
#
#
#
# Elastic Constant Matrix: (Units=GPa)
#
#
# Indices 1 2 3 4 5 6 
#
# 1 95.2726 23.2733 55.4151 -13.0655 15.7295 -0.6981
# 2 23.2733 87.2525 46.1162 -19.3969 21.4456 -4.0314
# 3 55.4151 46.1162 171.6700 -0.4942 18.4561 -9.5696
# 4 -13.0655 -19.3969 -0.4942 24.5665 -1.1234 5.6156
# 5 15.7295 21.4456 18.4561 -1.1234 43.8665 3.1919
# 6 -0.6981 -4.0314 -9.5696 5.6156 3.1919 34.2679
#
#
#
# Elastic Compliance Matrix: (Units=1/GPa)
#
#
# Indices 1 2 3 4 5 6 
#
# 1 0.014825 0.001472 -0.004883 0.009258 -0.003593 -0.002071
# 2 0.001472 0.018715 -0.004734 0.015347 -0.007225 -0.000932
# 3 -0.004883 -0.004734 0.008820 -0.006828 -0.000034 0.002929
# 4 0.009258 0.015347 -0.006828 0.059429 -0.005764 -0.009115
# 5 -0.003593 -0.007225 -0.000034 -0.005764 0.027670 -0.002565
# 6 -0.002071 -0.000932 0.002929 -0.009115 -0.002565 0.031580
#
#
# Mechanical properties :
#
#
# Convention : Reuss Voigt Hill
#
# Bulk Modulus (GPa) = 38.35814 67.08936 52.72375
# Shear Modulus (GPa) = 26.87896 35.83290 31.35593
#
# Velocity S-wave (km/s) = 3.51525 4.05873 3.79673
# Velocity P-wave (km/s) = 5.84039 7.26685 6.59232
#
# Compressibility (1/GPa) = 0.02607009
#
# Stress axis : x y z
#
# Youngs Moduli (GPa) = 67.45551 53.43414 113.37417
#
# Poissons Ratio (x) = -0.07867 0.55365
# Poissons Ratio (y) = -0.09932 0.53668
# Poissons Ratio (z) = 0.32941 0.25294
#
# Static dielectric constant tensor:
#      x y z
#    x 3.886420 -0.232840 0.204140 
#    y -0.232840 4.304780 -0.181350 
#    z 0.204140 -0.181350 4.350790 
# 
# 
# High freq. dielectric constant tensor:
#      x y z
#    x 1.848010 -0.009900 0.011820 
#    y -0.009900 1.868840 0.006130 
#    z 0.011820 0.006130 1.872270 
# 
# From -- ./inp_files/315999.got.cif
#   From: 2010.06.25/outbox.cif.g09.slc.cpg/sg2_158_cif.got.tgz:315999.got - 2010.06.27 13:26:56.
