data_PCOD8020485
_publ_section_title
;
Structure prediction by ZEFSAII (Michael W. Deem and Ramdas Pophale) SiO2 
 PCOD8020485
Probable space group: P -1
;
_chemical_formula_sum "Si O2"
_cell_formula_units_Z 16
_cell_length_a 8.173768
_cell_length_b 12.108930
_cell_length_c 13.347284
_cell_angle_alpha 107.101275
_cell_angle_beta 145.276881
_cell_angle_gamma 85.027394
_cell_volume 689.447943
_symmetry_space_group_name_H-M "P -1"
_symmetry_group_IT_number 2
_symmetry_cell_setting 'triclinic'
loop_
_space_group_symop_operation_xyz
x,y,z
-x,-y,-z
loop_
_atom_site_type_symbol
_atom_site_label
_atom_site_fract_x
_atom_site_fract_y
_atom_site_fract_z
Si Si1 0.547622 0.482327 0.905514
Si Si2 0.470135 0.649872 0.472784
Si Si3 0.622605 0.894844 0.490105
Si Si4 0.915121 0.329178 0.522990
Si Si5 0.734290 0.935524 0.134257
Si Si6 0.105644 0.397714 0.177533
Si Si7 0.647793 0.712395 0.897572
Si Si8 0.228023 0.127842 0.651218
O O1 0.706014 0.611048 0.972497
O O2 0.225267 0.428762 0.676390
O O3 0.500000 0.500000 0.000000
O O4 0.757996 0.391980 0.985995
O O5 0.514566 0.775118 0.471051
O O6 0.246595 0.637893 0.451627
O O7 0.313701 0.534746 0.292062
O O8 0.792207 0.635990 0.669313
O O9 0.537449 0.856546 0.320215
O O10 0.500000 0.000000 0.500000
O O11 0.976564 0.950818 0.681041
O O12 0.700536 0.309579 0.312767
O O13 0.010502 0.211340 0.562166
O O14 0.615061 0.861592 0.157554
O O15 0.784215 0.841831 0.051378
O O16 0.500000 0.000000 0.000000
O O17 0.163215 0.294827 0.107961
O O18 0.000000 0.000000 0.500000
#
# Coordination Sequence:
#
# PCOD8020485 Si02
#       8
#     2   2   2   2   2   2   2   2
#     4  12  24  40  67 102 136 184 234 285 353 410
#     4  10  22  45  68 101 146 179 235 287 354 418
#     4  11  25  42  76 103 134 186 233 287 357 416
#     4  11  23  43  68  98 138 183 231 288 344 416
#     4  11  25  48  70 102 140 182 232 293 347 419
#     4  10  24  43  68 102 144 187 229 295 348 419
#     4  11  25  44  67  99 143 181 232 293 353 414
#     4  10  22  42  68  99 132 176 231 284 342 409
#
# _framework density 23.206976000000001
#
# number of rings (size 3 to 8) (size 9 to 14) (size 15 to 20)
#    0.000    1.250    1.250    4.500    3.500    5.000 
#    0.000    4.375    0.000    0.000    0.000    0.000 
#    0.000    0.000    0.000    0.000    0.000    0.000 
#
# Total GULP energy -198287.399656 kJ/mol
# GULP energy per Si atom -12392.962479 kJ/mol
# Density = 2.315416 g / cm^3
# Si number density = 23.206976 Si / 1000 Ang^3
#
#
#
# Elastic Constant Matrix: (Units=GPa)
#
#
# Indices 1 2 3 4 5 6 
#
# 1 97.5200 37.6570 32.8308 -8.4569 -10.4222 -9.8440
# 2 37.6570 137.4320 12.7516 -10.0860 -8.3164 -7.6132
# 3 32.8308 12.7516 76.2489 -13.2606 -2.7461 -4.5350
# 4 -8.4569 -10.0860 -13.2606 48.3526 -6.2078 1.7031
# 5 -10.4222 -8.3164 -2.7461 -6.2078 33.7859 3.4238
# 6 -9.8440 -7.6132 -4.5350 1.7031 3.4238 40.5201
#
#
#
# Elastic Compliance Matrix: (Units=1/GPa)
#
#
# Indices 1 2 3 4 5 6 
#
# 1 0.013664 -0.002935 -0.005046 0.000714 0.003020 0.001918
# 2 -0.002935 0.008284 0.000215 0.001422 0.001342 0.000695
# 3 -0.005046 0.000215 0.015910 0.003563 0.000403 0.000411
# 4 0.000714 0.001422 0.003563 0.022753 0.005096 -0.000548
# 5 0.003020 0.001342 0.000403 0.005096 0.032020 -0.001889
# 6 0.001918 0.000695 0.000411 -0.000548 -0.001889 0.025504
#
#
# Mechanical properties :
#
#
# Convention : Reuss Voigt Hill
#
# Bulk Modulus (GPa) = 44.78598 53.07551 48.93075
# Shear Modulus (GPa) = 35.43314 39.72917 37.58116
#
# Velocity S-wave (km/s) = 3.91171 4.14206 4.02853
# Velocity P-wave (km/s) = 6.30415 6.76725 6.53980
#
# Compressibility (1/GPa) = 0.02232841
#
# Stress axis : x y z
#
# Youngs Moduli (GPa) = 73.18263 120.70744 62.85297
#
# Poissons Ratio (x) = 0.35422 0.31714
# Poissons Ratio (y) = 0.21476 -0.01351
# Poissons Ratio (z) = 0.36926 -0.02595
#
# Static dielectric constant tensor:
#      x y z
#    x 3.952820 -0.602480 1.968490 
#    y -0.602480 3.011930 0.856880 
#    z 1.968490 0.856880 -0.136450 
# 
# 
# High freq. dielectric constant tensor:
#      x y z
#    x 1.912780 -0.013680 -0.012110 
#    y -0.013680 1.931950 -0.005000 
#    z -0.012110 -0.005000 1.919720 
# 
# From -- ./inp_files/500638.got.cif
#   From: 2010.06.25/outbox.cif.g09.slc.cpg/sg2_251_cif.got.tgz:500638.got - 2010.06.27 13:26:56.
