data_PCOD8020757
_publ_section_title
;
Structure prediction by ZEFSAII (Michael W. Deem and Ramdas Pophale) SiO2 
 PCOD8020757
Probable space group: P -1
;
_chemical_formula_sum "Si O2"
_cell_formula_units_Z 12
_cell_length_a 25.818378
_cell_length_b 9.426867
_cell_length_c 15.832722
_cell_angle_alpha 28.755404
_cell_angle_beta 16.017799
_cell_angle_gamma 28.898164
_cell_volume 495.632914
_symmetry_space_group_name_H-M "P -1"
_symmetry_group_IT_number 2
_symmetry_cell_setting 'triclinic'
loop_
_space_group_symop_operation_xyz
x,y,z
-x,-y,-z
loop_
_atom_site_type_symbol
_atom_site_label
_atom_site_fract_x
_atom_site_fract_y
_atom_site_fract_z
Si Si1 0.563909 0.065306 0.107631
Si Si2 0.843277 0.902561 0.196882
Si Si3 0.526855 0.272768 0.872551
Si Si4 0.711407 0.779164 0.285939
Si Si5 0.125098 0.508196 0.084381
Si Si6 0.791280 0.237733 0.806753
O O1 0.335494 0.123611 0.450016
O O2 0.665154 0.708885 0.152563
O O3 0.610031 0.143174 0.899841
O O4 0.650707 0.275293 0.925829
O O5 0.821931 0.803929 0.186568
O O6 0.037153 0.684659 0.045259
O O7 0.859825 0.251155 0.991750
O O8 0.683634 0.436537 0.498772
O O9 0.317683 0.511930 0.085404
O O10 0.500000 0.000000 0.000000
O O11 0.500000 0.000000 0.500000
O O12 0.828015 0.893647 0.967353
O O13 0.998056 0.284210 0.433752
#
# Coordination Sequence:
#
# PCOD8020757 Si02
#       6
#     2   2   2   2   2   2
#     4  12  23  45  76  96 143 193 232 282 357 419
#     4  11  23  47  69 103 150 180 236 293 346 417
#     4  11  24  42  72 105 137 183 239 285 351 414
#     4  10  22  42  74  97 140 193 226 286 361 405
#     4  11  26  41  72 111 135 189 239 287 346 422
#     4  11  23  47  70 102 146 182 235 290 348 418
#
# _framework density 24.211466999999999
#
# number of rings (size 3 to 8) (size 9 to 14) (size 15 to 20)
#    0.000    1.000    5.000    2.500    4.667    2.000 
#    0.000    1.667    0.000    0.000    0.000    0.000 
#    0.000    0.000    0.000    0.000    0.000    0.000 
#
# Total GULP energy -148833.805537 kJ/mol
# GULP energy per Si atom -12402.817128 kJ/mol
# Density = 2.415636 g / cm^3
# Si number density = 24.211467 Si / 1000 Ang^3
#
#
#
# Elastic Constant Matrix: (Units=GPa)
#
#
# Indices 1 2 3 4 5 6 
#
# 1 122.6512 20.5443 29.9206 -32.6652 -5.9426 10.2424
# 2 20.5443 86.0849 -0.0010 -18.7823 -11.7062 5.3683
# 3 29.9206 -0.0010 75.1769 -39.3438 -4.9751 1.2746
# 4 -32.6652 -18.7823 -39.3438 46.1175 1.3458 -11.4381
# 5 -5.9426 -11.7062 -4.9751 1.3458 33.7100 -9.7482
# 6 10.2424 5.3683 1.2746 -11.4381 -9.7482 36.6093
#
#
#
# Elastic Compliance Matrix: (Units=1/GPa)
#
#
# Indices 1 2 3 4 5 6 
#
# 1 0.010199 -0.000997 -0.000927 0.005850 0.000906 -0.000606
# 2 -0.000997 0.015237 0.007229 0.012320 0.006680 0.003421
# 3 -0.000927 0.007229 0.029596 0.029690 0.008323 0.009661
# 4 0.005850 0.012320 0.029690 0.060184 0.012385 0.017625
# 5 0.000906 0.006680 0.008323 0.012385 0.036356 0.012028
# 6 -0.000606 0.003421 0.009661 0.017625 0.012028 0.035356
#
#
# Mechanical properties :
#
#
# Convention : Reuss Voigt Hill
#
# Bulk Modulus (GPa) = 15.23395 42.76010 28.99703
# Shear Modulus (GPa) = 25.22704 38.85064 32.03884
#
# Velocity S-wave (km/s) = 3.23142 4.01014 3.64165
# Velocity P-wave (km/s) = 4.49761 6.25628 5.44837
#
# Compressibility (1/GPa) = 0.06564285
#
# Stress axis : x y z
#
# Youngs Moduli (GPa) = 98.04966 65.62764 33.78804
#
# Poissons Ratio (x) = 0.06540 0.03133
# Poissons Ratio (y) = 0.09771 -0.24425
# Poissons Ratio (z) = 0.09091 -0.47441
#
# Static dielectric constant tensor:
#      x y z
#    x 4.387800 -0.238000 0.083690 
#    y -0.238000 4.623530 -0.417640 
#    z 0.083690 -0.417640 4.507260 
# 
# 
# High freq. dielectric constant tensor:
#      x y z
#    x 1.956280 -0.008860 -0.006220 
#    y -0.008860 1.970620 -0.017980 
#    z -0.006220 -0.017980 1.957390 
# 
# From -- ./inp_files/153561.got.cif
#   From: 2010.06.25/outbox.cif.g09.slc.cpg/sg2_77_cif.got.tgz:153561.got - 2010.06.27 13:26:56.
