data_PCOD8020814
_publ_section_title
;
Structure prediction by ZEFSAII (Michael W. Deem and Ramdas Pophale) SiO2 
 PCOD8020814
Probable space group: P -1
;
_chemical_formula_sum "Si O2"
_cell_formula_units_Z 14
_cell_length_a 6.820850
_cell_length_b 23.220622
_cell_length_c 10.207112
_cell_angle_alpha 146.283180
_cell_angle_beta 131.090968
_cell_angle_gamma 59.171487
_cell_volume 674.059851
_symmetry_space_group_name_H-M "P -1"
_symmetry_group_IT_number 2
_symmetry_cell_setting 'triclinic'
loop_
_space_group_symop_operation_xyz
x,y,z
-x,-y,-z
loop_
_atom_site_type_symbol
_atom_site_label
_atom_site_fract_x
_atom_site_fract_y
_atom_site_fract_z
Si Si1 0.035747 0.701197 0.767401
Si Si2 0.601432 0.967559 0.343772
Si Si3 0.460932 0.419046 0.213727
Si Si4 0.917454 0.293386 0.734269
Si Si5 0.902296 0.148065 0.687450
Si Si6 0.489752 0.601082 0.386351
Si Si7 0.241533 0.777373 0.735995
O O1 0.295067 0.648579 0.821556
O O2 0.052401 0.752382 0.728269
O O3 0.788592 0.616310 0.499036
O O4 0.993358 0.791519 0.022852
O O5 0.866743 0.914158 0.386757
O O6 0.500000 0.000000 0.500000
O O7 0.654893 0.068534 0.465866
O O8 0.391655 0.889913 0.031040
O O9 0.500000 0.500000 0.500000
O O10 0.430193 0.483555 0.188469
O O11 0.204109 0.344218 0.987166
O O12 0.812205 0.224926 0.681487
O O13 0.711503 0.381342 0.788116
O O14 0.925749 0.222551 0.472126
O O15 0.442188 0.685802 0.640817
#
# Coordination Sequence:
#
# PCOD8020814 Si02
#       7
#     2   2   2   2   2   2   2
#     4  12  22  41  71  95 133 179 225 269 317 392
#     4  11  22  42  71  97 127 176 220 271 327 400
#     4  12  22  41  69  98 131 182 226 265 319 394
#     4  10  24  44  65  95 146 169 207 285 335 382
#     4  11  23  40  68 101 127 170 229 265 325 401
#     4  10  23  42  64  95 138 170 220 267 329 381
#     4  10  22  43  63  93 141 167 210 276 337 375
#
# _framework density 20.769670999999999
#
# number of rings (size 3 to 8) (size 9 to 14) (size 15 to 20)
#    0.857    0.286    4.286    2.571    0.000    1.714 
#    0.000    2.857    0.000    0.000    0.000    0.000 
#    0.000    0.000    0.000    0.000    0.000    0.000 
#
# Total GULP energy -173612.874675 kJ/mol
# GULP energy per Si atom -12400.919620 kJ/mol
# Density = 2.072240 g / cm^3
# Si number density = 20.769671 Si / 1000 Ang^3
#
#
#
# Elastic Constant Matrix: (Units=GPa)
#
#
# Indices 1 2 3 4 5 6 
#
# 1 119.0475 51.4145 40.8670 0.8251 8.8551 13.3452
# 2 51.4145 95.0702 22.0286 -3.8068 9.4887 23.6176
# 3 40.8670 22.0286 101.7029 -1.3425 4.2542 10.9907
# 4 0.8251 -3.8068 -1.3425 30.1842 6.5539 2.0791
# 5 8.8551 9.4887 4.2542 6.5539 34.3088 -0.7243
# 6 13.3452 23.6176 10.9907 2.0791 -0.7243 47.1569
#
#
#
# Elastic Compliance Matrix: (Units=1/GPa)
#
#
# Indices 1 2 3 4 5 6 
#
# 1 0.012188 -0.005780 -0.003658 -0.001055 -0.000885 0.000331
# 2 -0.005780 0.015786 -0.000206 0.003370 -0.003628 -0.006427
# 3 -0.003658 -0.000206 0.011557 0.000834 -0.000625 -0.001602
# 4 -0.001055 0.003370 0.000834 0.035499 -0.007613 -0.003266
# 5 -0.000885 -0.003628 -0.000625 -0.007613 0.031975 0.003040
# 6 0.000331 -0.006427 -0.001602 -0.003266 0.003040 0.024895
#
#
# Mechanical properties :
#
#
# Convention : Reuss Voigt Hill
#
# Bulk Modulus (GPa) = 49.39997 60.49342 54.94669
# Shear Modulus (GPa) = 31.65855 35.76403 33.71129
#
# Velocity S-wave (km/s) = 3.90842 4.15412 4.03314
# Velocity P-wave (km/s) = 6.64861 7.22482 6.94270
#
# Compressibility (1/GPa) = 0.02024293
#
# Stress axis : x y z
#
# Youngs Moduli (GPa) = 82.04722 63.34883 86.52477
#
# Poissons Ratio (x) = 0.36615 0.31653
# Poissons Ratio (y) = 0.47423 0.01781
# Poissons Ratio (z) = 0.30015 0.01304
#
# Static dielectric constant tensor:
#      x y z
#    x 3.829120 0.134700 0.016410 
#    y 0.134700 3.726850 0.158450 
#    z 0.016410 0.158450 3.659380 
# 
# 
# High freq. dielectric constant tensor:
#      x y z
#    x 1.821170 0.014640 0.002560 
#    y 0.014640 1.804950 0.007480 
#    z 0.002560 0.007480 1.808320 
# 
# From -- ./inp_files/142454.got.cif
#   From: 2010.06.25/outbox.cif.g09.slc.cpg/sg2_72_cif.got.tgz:142454.got - 2010.06.27 13:26:56.
