data_PCOD8020371
_publ_section_title
;
Structure prediction by ZEFSAII (Michael W. Deem and Ramdas Pophale) SiO2 
 PCOD8020371
Probable space group: P -1
;
_chemical_formula_sum "Si O2"
_cell_formula_units_Z 16
_cell_length_a 14.969043
_cell_length_b 10.399503
_cell_length_c 14.743940
_cell_angle_alpha 61.452118
_cell_angle_beta 148.861627
_cell_angle_gamma 138.604478
_cell_volume 688.423796
_symmetry_space_group_name_H-M "P -1"
_symmetry_group_IT_number 2
_symmetry_cell_setting 'triclinic'
loop_
_space_group_symop_operation_xyz
x,y,z
-x,-y,-z
loop_
_atom_site_type_symbol
_atom_site_label
_atom_site_fract_x
_atom_site_fract_y
_atom_site_fract_z
Si Si1 0.634807 0.228823 0.890997
Si Si2 0.735751 0.553575 0.221151
Si Si3 0.592651 0.913911 0.656130
Si Si4 0.955710 0.135646 0.442027
Si Si5 0.654817 0.933606 0.911141
Si Si6 0.582125 0.387258 0.628093
Si Si7 0.071676 0.941467 0.261983
Si Si8 0.093901 0.447650 0.315813
O O1 0.674400 0.398148 0.804950
O O2 0.708663 0.116913 0.949730
O O3 0.340421 0.026374 0.734318
O O4 0.830722 0.379920 0.096700
O O5 0.850001 0.686204 0.370388
O O6 0.626912 0.318292 0.219583
O O7 0.950876 0.711435 0.274125
O O8 0.500000 0.500000 0.000000
O O9 0.667151 0.986461 0.799332
O O10 0.335474 0.650112 0.519403
O O11 0.500000 0.000000 0.500000
O O12 0.848922 0.016274 0.789797
O O13 0.006469 0.242706 0.354040
O O14 0.000000 0.000000 0.500000
O O15 0.884692 0.960095 0.115470
O O16 0.500000 0.500000 0.500000
O O17 0.820691 0.510355 0.728003
O O18 0.338978 0.126645 0.486801
#
# Coordination Sequence:
#
# PCOD8020371 Si02
#       8
#     2   2   2   2   2   2   2   2
#     4  12  26  45  70 101 136 184 224 286 344 410
#     4  10  23  44  72 101 132 180 231 280 342 406
#     4  11  24  43  66 100 139 177 226 289 334 406
#     4  12  26  47  69  99 140 178 232 282 342 410
#     4  11  23  44  71 100 137 174 231 280 344 412
#     4  11  22  41  69  95 130 179 228 276 336 410
#     4  10  22  42  67  98 134 177 228 276 344 399
#     4  11  25  44  63 102 139 176 228 274 350 393
#
# _framework density 23.241496999999999
#
# number of rings (size 3 to 8) (size 9 to 14) (size 15 to 20)
#    0.000    1.000    2.500    4.125    3.500    2.500 
#    4.500    0.000    0.000    0.000    0.000    0.000 
#    0.000    0.000    0.000    0.000    0.000    0.000 
#
# Total GULP energy -198224.916206 kJ/mol
# GULP energy per Si atom -12389.057263 kJ/mol
# Density = 2.318860 g / cm^3
# Si number density = 23.241497 Si / 1000 Ang^3
#
#
#
# Elastic Constant Matrix: (Units=GPa)
#
#
# Indices 1 2 3 4 5 6 
#
# 1 50.9653 30.9923 31.5332 13.3726 9.0511 6.0540
# 2 30.9923 126.2444 40.2016 -14.5197 2.5637 32.2043
# 3 31.5332 40.2016 103.3730 4.9408 2.9572 21.4248
# 4 13.3726 -14.5197 4.9408 35.3195 -1.0044 5.6145
# 5 9.0511 2.5637 2.9572 -1.0044 28.1173 -8.6756
# 6 6.0540 32.2043 21.4248 5.6145 -8.6756 33.5119
#
#
#
# Elastic Compliance Matrix: (Units=1/GPa)
#
#
# Indices 1 2 3 4 5 6 
#
# 1 0.036269 -0.011134 -0.007772 -0.019087 -0.007308 0.010422
# 2 -0.011134 0.016625 -0.000159 0.013673 -0.002620 -0.016832
# 3 -0.007772 -0.000159 0.013672 0.002181 -0.001275 -0.007879
# 4 -0.019087 0.013673 0.002181 0.043776 0.000596 -0.018266
# 5 -0.007308 -0.002620 -0.001275 0.000596 0.043165 0.015728
# 6 0.010422 -0.016832 -0.007879 -0.018266 0.015728 0.056302
#
#
# Mechanical properties :
#
#
# Convention : Reuss Voigt Hill
#
# Bulk Modulus (GPa) = 35.16877 54.00410 44.58644
# Shear Modulus (GPa) = 19.42373 31.24678 25.33525
#
# Velocity S-wave (km/s) = 2.89404 3.67064 3.30523
# Velocity P-wave (km/s) = 5.13148 6.42272 5.81306
#
# Compressibility (1/GPa) = 0.02843432
#
# Stress axis : x y z
#
# Youngs Moduli (GPa) = 27.57187 60.15119 73.14441
#
# Poissons Ratio (x) = 0.66974 0.56849
# Poissons Ratio (y) = 0.30699 0.01163
# Poissons Ratio (z) = 0.21429 0.00956
#
# Static dielectric constant tensor:
#      x y z
#    x 3.334250 0.757340 0.240350 
#    y 0.757340 4.520420 0.210950 
#    z 0.240350 0.210950 4.657590 
# 
# 
# High freq. dielectric constant tensor:
#      x y z
#    x 1.895610 0.024920 -0.001620 
#    y 0.024920 1.940880 0.006770 
#    z -0.001620 0.006770 1.938820 
# 
# From -- ./inp_files/532496.got.cif
#   From: 2010.06.25/outbox.cif.g09.slc.cpg/sg2_267_cif.got.tgz:532496.got - 2010.06.27 13:26:56.
