data_PCOD8020906
_publ_section_title
;
Structure prediction by ZEFSAII (Michael W. Deem and Ramdas Pophale) SiO2 
 PCOD8020906
Probable space group: P -1
;
_chemical_formula_sum "Si O2"
_cell_formula_units_Z 12
_cell_length_a 11.865819
_cell_length_b 7.683699
_cell_length_c 8.650165
_cell_angle_alpha 131.096547
_cell_angle_beta 102.466488
_cell_angle_gamma 105.371475
_cell_volume 483.488187
_symmetry_space_group_name_H-M "P -1"
_symmetry_group_IT_number 2
_symmetry_cell_setting 'triclinic'
loop_
_space_group_symop_operation_xyz
x,y,z
-x,-y,-z
loop_
_atom_site_type_symbol
_atom_site_label
_atom_site_fract_x
_atom_site_fract_y
_atom_site_fract_z
Si Si1 0.637845 0.001924 0.990562
Si Si2 0.137222 0.601655 0.506519
Si Si3 0.784709 0.684900 0.846084
Si Si4 0.579330 0.503665 0.178687
Si Si5 0.503798 0.834530 0.543031
Si Si6 0.851815 0.884917 0.318487
O O1 0.737260 0.892685 0.922229
O O2 0.503092 0.805862 0.948923
O O3 0.589174 0.037525 0.828895
O O4 0.735457 0.297259 0.276354
O O5 0.106514 0.326724 0.242573
O O6 0.000000 0.500000 0.500000
O O7 0.172236 0.865638 0.564229
O O8 0.655340 0.378671 0.587741
O O9 0.839343 0.731630 0.064424
O O10 0.574934 0.677469 0.419471
O O11 0.739002 0.647824 0.263112
O O12 0.500000 0.500000 0.000000
O O13 0.500000 0.000000 0.500000
O O14 0.000000 0.000000 0.500000
#
# Coordination Sequence:
#
# PCOD8020906 Si02
#       6
#     2   2   2   2   2   2
#     4  10  24  44  67 100 132 179 231 279 339 398
#     4  11  25  43  65  97 138 178 229 279 336 414
#     4  10  22  43  65  92 134 182 227 276 335 404
#     4  11  19  44  70  93 137 179 227 277 329 407
#     4  11  23  39  68 101 134 172 228 288 336 401
#     4  11  25  42  67 101 139 181 222 281 343 399
#
# _framework density 24.819633
#
# number of rings (size 3 to 8) (size 9 to 14) (size 15 to 20)
#    0.000    1.333    5.000    3.000    0.000    9.333 
#    3.000    0.000    0.000    0.000    0.000    0.000 
#    0.000    0.000    0.000    0.000    0.000    0.000 
#
# Total GULP energy -148726.194227 kJ/mol
# GULP energy per Si atom -12393.849519 kJ/mol
# Density = 2.476314 g / cm^3
# Si number density = 24.819633 Si / 1000 Ang^3
#
#
#
# Elastic Constant Matrix: (Units=GPa)
#
#
# Indices 1 2 3 4 5 6 
#
# 1 144.7478 29.1537 69.2730 -13.3106 -11.0224 27.1365
# 2 29.1537 122.0127 33.8338 -15.7994 6.5734 0.3205
# 3 69.2730 33.8338 166.3809 -33.4886 1.5658 -0.7470
# 4 -13.3106 -15.7994 -33.4886 43.1553 -4.3893 2.7154
# 5 -11.0224 6.5734 1.5658 -4.3893 64.8860 -1.0104
# 6 27.1365 0.3205 -0.7470 2.7154 -1.0104 36.5122
#
#
#
# Elastic Compliance Matrix: (Units=1/GPa)
#
#
# Indices 1 2 3 4 5 6 
#
# 1 0.010960 -0.001491 -0.004267 0.000242 0.002005 -0.008182
# 2 -0.001491 0.009096 -0.000793 0.002101 -0.001001 0.000828
# 3 -0.004267 -0.000793 0.009001 0.005144 -0.000467 0.002967
# 4 0.000242 0.002101 0.005144 0.028305 0.001585 -0.002154
# 5 0.002005 -0.001001 -0.000467 0.001585 0.015954 -0.001167
# 6 -0.008182 0.000828 0.002967 -0.002154 -0.001167 0.033651
#
#
# Mechanical properties :
#
#
# Convention : Reuss Voigt Hill
#
# Bulk Modulus (GPa) = 62.67325 77.51805 70.09565
# Shear Modulus (GPa) = 39.87700 48.96942 44.42321
#
# Velocity S-wave (km/s) = 4.01268 4.44668 4.23524
# Velocity P-wave (km/s) = 6.83923 7.59370 7.22632
#
# Compressibility (1/GPa) = 0.01595577
#
# Stress axis : x y z
#
# Youngs Moduli (GPa) = 91.24352 109.94170 111.09610
#
# Poissons Ratio (x) = 0.16389 0.47402
# Poissons Ratio (y) = 0.13601 0.08810
# Poissons Ratio (z) = 0.38932 0.08718
#
# Static dielectric constant tensor:
#      x y z
#    x 5.168460 -0.427270 -1.146140 
#    y -0.427270 5.055050 0.934730 
#    z -1.146140 0.934730 6.690220 
# 
# 
# High freq. dielectric constant tensor:
#      x y z
#    x 2.008730 -0.001320 -0.014200 
#    y -0.001320 1.977730 -0.005970 
#    z -0.014200 -0.005970 2.005550 
# 
# From -- ./inp_files/181994.got.cif
#   From: 2010.06.25/outbox.cif.g09.slc.cpg/sg2_91_cif.got.tgz:181994.got - 2010.06.27 13:26:56.
