data_PCOD8020441
_publ_section_title
;
Structure prediction by ZEFSAII (Michael W. Deem and Ramdas Pophale) SiO2 
 PCOD8020441
Probable space group: P -1
;
_chemical_formula_sum "Si O2"
_cell_formula_units_Z 14
_cell_length_a 17.860552
_cell_length_b 7.996999
_cell_length_c 11.451751
_cell_angle_alpha 98.309978
_cell_angle_beta 140.784213
_cell_angle_gamma 52.645095
_cell_volume 626.225857
_symmetry_space_group_name_H-M "P -1"
_symmetry_group_IT_number 2
_symmetry_cell_setting 'triclinic'
loop_
_space_group_symop_operation_xyz
x,y,z
-x,-y,-z
loop_
_atom_site_type_symbol
_atom_site_label
_atom_site_fract_x
_atom_site_fract_y
_atom_site_fract_z
Si Si1 0.115113 0.042347 0.634498
Si Si2 0.439108 0.327238 0.496123
Si Si3 0.725218 0.902792 0.993525
Si Si4 0.081580 0.523876 0.001284
Si Si5 0.296849 0.856082 0.411215
Si Si6 0.747877 0.661807 0.221539
Si Si7 0.609021 0.126291 0.224419
O O1 0.200502 0.997667 0.859895
O O2 0.970044 0.356750 0.452938
O O3 0.283138 0.850185 0.719687
O O4 0.000000 0.000000 0.500000
O O5 0.291787 0.355965 0.271858
O O6 0.318750 0.630880 0.409425
O O7 0.607628 0.166662 0.589127
O O8 0.534263 0.149124 0.710973
O O9 0.674109 0.844458 0.036137
O O10 0.895162 0.618776 0.098774
O O11 0.000000 0.500000 0.000000
O O12 0.931322 0.844960 0.827352
O O13 0.401600 0.808617 0.647539
O O14 0.715362 0.824303 0.308042
O O15 0.612493 0.646703 0.065995
#
# Coordination Sequence:
#
# PCOD8020441 Si02
#       7
#     2   2   2   2   2   2   2
#     4  11  25  44  67  99 135 166 215 275 333 386
#     4  11  26  44  65 101 136 172 221 276 327 382
#     4  11  23  46  69  96 135 175 221 273 324 388
#     4  12  24  41  68  97 130 176 226 259 325 395
#     4  11  24  45  67  94 141 173 218 272 333 383
#     4  10  22  43  69  93 133 169 222 268 323 390
#     4  10  22  42  68  95 122 180 216 261 328 390
#
# _framework density 22.356151000000001
#
# number of rings (size 3 to 8) (size 9 to 14) (size 15 to 20)
#    0.000    1.143    1.429    5.143    4.000    1.714 
#   10.286    0.000    0.000    0.000    0.000    0.000 
#    0.000    0.000    0.000    0.000    0.000    0.000 
#
# Total GULP energy -173629.788162 kJ/mol
# GULP energy per Si atom -12402.127726 kJ/mol
# Density = 2.230527 g / cm^3
# Si number density = 22.356151 Si / 1000 Ang^3
#
#
#
# Elastic Constant Matrix: (Units=GPa)
#
#
# Indices 1 2 3 4 5 6 
#
# 1 69.0290 23.0240 11.1067 11.4366 1.1766 0.1452
# 2 23.0240 85.0730 17.7954 13.5892 -7.7526 -11.7171
# 3 11.1067 17.7954 88.6809 7.5706 -0.4258 -3.9776
# 4 11.4366 13.5892 7.5706 45.5247 2.5330 2.0681
# 5 1.1766 -7.7526 -0.4258 2.5330 34.5641 5.2163
# 6 0.1452 -11.7171 -3.9776 2.0681 5.2163 31.6051
#
#
#
# Elastic Compliance Matrix: (Units=1/GPa)
#
#
# Indices 1 2 3 4 5 6 
#
# 1 0.016486 -0.004108 -0.001085 -0.002611 -0.001096 -0.001384
# 2 -0.004108 0.014774 -0.001917 -0.003449 0.002929 0.004997
# 3 -0.001085 -0.001917 0.011936 -0.001165 -0.000300 0.000922
# 4 -0.002611 -0.003449 -0.001165 0.024081 -0.002064 -0.002648
# 5 -0.001096 0.002929 -0.000300 -0.002064 0.030350 -0.003821
# 6 -0.001384 0.004997 0.000922 -0.002648 -0.003821 0.034419
#
#
# Mechanical properties :
#
#
# Convention : Reuss Voigt Hill
#
# Bulk Modulus (GPa) = 34.51252 38.51501 36.51377
# Shear Modulus (GPa) = 32.06681 35.06255 33.56468
#
# Velocity S-wave (km/s) = 3.79141 3.96455 3.87895
# Velocity P-wave (km/s) = 5.88536 6.18241 6.03571
#
# Compressibility (1/GPa) = 0.02897499
#
# Stress axis : x y z
#
# Youngs Moduli (GPa) = 60.65907 67.68868 83.77727
#
# Poissons Ratio (x) = 0.27807 0.09088
# Poissons Ratio (y) = 0.24919 0.16064
# Poissons Ratio (z) = 0.06580 0.12979
#
# Static dielectric constant tensor:
#      x y z
#    x 3.841340 -0.131440 0.069750 
#    y -0.131440 4.232380 -0.070830 
#    z 0.069750 -0.070830 4.125070 
# 
# 
# High freq. dielectric constant tensor:
#      x y z
#    x 1.871850 -0.008150 0.008070 
#    y -0.008150 1.892470 0.002570 
#    z 0.008070 0.002570 1.889040 
# 
# From -- ./inp_files/462244.got.cif
#   From: 2010.06.25/outbox.cif.g09.slc.cpg/sg2_232_cif.got.tgz:462244.got - 2010.06.27 13:26:56.
