data_PCOD8020696
_publ_section_title
;
Structure prediction by ZEFSAII (Michael W. Deem and Ramdas Pophale) SiO2 
 PCOD8020696
Probable space group: P -1
;
_chemical_formula_sum "Si O2"
_cell_formula_units_Z 16
_cell_length_a 5.356441
_cell_length_b 9.268607
_cell_length_c 27.346310
_cell_angle_alpha 39.774794
_cell_angle_beta 89.689298
_cell_angle_gamma 64.723320
_cell_volume 651.840249
_symmetry_space_group_name_H-M "P -1"
_symmetry_group_IT_number 2
_symmetry_cell_setting 'triclinic'
loop_
_space_group_symop_operation_xyz
x,y,z
-x,-y,-z
loop_
_atom_site_type_symbol
_atom_site_label
_atom_site_fract_x
_atom_site_fract_y
_atom_site_fract_z
Si Si1 0.320089 0.906057 0.496094
Si Si2 0.855403 0.288543 0.029208
Si Si3 0.075521 0.587356 0.698727
Si Si4 0.577942 0.345388 0.592028
Si Si5 0.275563 0.611874 0.197138
Si Si6 0.088983 0.304387 0.123842
Si Si7 0.787727 0.209357 0.223026
Si Si8 0.735081 0.754800 0.309242
O O1 0.595784 0.545249 0.579385
O O2 0.500000 0.000000 0.500000
O O3 0.000000 0.000000 0.500000
O O4 0.192048 0.053564 0.402955
O O5 0.100946 0.228689 0.086785
O O6 0.500000 0.500000 0.000000
O O7 0.988303 0.967788 0.095066
O O8 0.856106 0.457555 0.938350
O O9 0.434671 0.465504 0.747356
O O10 0.067804 0.494454 0.667516
O O11 0.925401 0.486779 0.759741
O O12 0.500000 0.500000 0.500000
O O13 0.270277 0.371296 0.605165
O O14 0.913695 0.989000 0.684865
O O15 0.439103 0.439026 0.191190
O O16 0.776336 0.423894 0.127702
O O17 0.354263 0.986643 0.232040
O O18 0.837103 0.953149 0.259056
#
# Coordination Sequence:
#
# PCOD8020696 Si02
#       8
#     2   2   2   2   2   2   2   2
#     4  12  25  44  71 107 137 186 250 303 351 416
#     4  11  23  44  73 110 134 185 240 301 350 436
#     4  12  25  47  71 103 143 190 245 301 351 432
#     4  11  26  45  68 102 145 192 237 301 360 430
#     4  12  28  45  74 106 146 188 240 296 365 427
#     4  10  22  42  72 100 140 178 238 284 365 424
#     4  11  26  45  69 102 145 195 228 295 370 431
#     4  11  23  45  70 100 140 191 239 286 365 425
#
# _framework density 24.545894000000001
#
# number of rings (size 3 to 8) (size 9 to 14) (size 15 to 20)
#    0.000    0.750    2.500    4.500    8.750    1.000 
#    0.000    2.500    0.000    0.000    0.000    0.000 
#    0.000    0.000    0.000    0.000    0.000    0.000 
#
# Total GULP energy -198230.226842 kJ/mol
# GULP energy per Si atom -12389.389178 kJ/mol
# Density = 2.449003 g / cm^3
# Si number density = 24.545894 Si / 1000 Ang^3
#
#
#
# Elastic Constant Matrix: (Units=GPa)
#
#
# Indices 1 2 3 4 5 6 
#
# 1 93.2269 2.0622 18.3388 1.4033 -24.6801 -6.9699
# 2 2.0622 57.1715 27.5240 1.2532 -6.2017 -18.6695
# 3 18.3388 27.5240 130.4273 -3.4804 -34.4023 -20.4505
# 4 1.4033 1.2532 -3.4804 47.1274 -13.3778 -2.0670
# 5 -24.6801 -6.2017 -34.4023 -13.3778 42.5841 6.8925
# 6 -6.9699 -18.6695 -20.4505 -2.0670 6.8925 38.6188
#
#
#
# Elastic Compliance Matrix: (Units=1/GPa)
#
#
# Indices 1 2 3 4 5 6 
#
# 1 0.012923 0.000631 0.000581 0.002112 0.008464 0.001548
# 2 0.000631 0.022059 -0.003632 -0.000779 -0.001058 0.009002
# 3 0.000581 -0.003632 0.011504 0.003850 0.009843 0.002890
# 4 0.002112 -0.000779 0.003850 0.024875 0.011831 0.001263
# 5 0.008464 -0.001058 0.009843 0.011831 0.039946 -0.000267
# 6 0.001548 0.009002 0.002890 0.001263 -0.000267 0.032171
#
#
# Mechanical properties :
#
#
# Convention : Reuss Voigt Hill
#
# Bulk Modulus (GPa) = 24.01149 41.85284 32.93216
# Shear Modulus (GPa) = 30.82624 41.19277 36.00951
#
# Velocity S-wave (km/s) = 3.54766 4.10102 3.83433
# Velocity P-wave (km/s) = 5.15603 6.28589 5.74878
#
# Compressibility (1/GPa) = 0.04164673
#
# Stress axis : x y z
#
# Youngs Moduli (GPa) = 77.38244 45.33313 86.92533
#
# Poissons Ratio (x) = -0.02862 -0.05053
# Poissons Ratio (y) = -0.04885 0.31573
# Poissons Ratio (z) = -0.04499 0.16466
#
# Static dielectric constant tensor:
#      x y z
#    x 4.453180 -0.114130 -0.003690 
#    y -0.114130 4.527160 0.021740 
#    z -0.003690 0.021740 5.020300 
# 
# 
# High freq. dielectric constant tensor:
#      x y z
#    x 1.975500 -0.008020 -0.010010 
#    y -0.008020 1.967730 -0.003760 
#    z -0.010010 -0.003760 1.995830 
# 
# From -- ./inp_files/52155.got.cif
#   From: 2010.06.25/outbox.cif.g09.slc.cpg/sg2_27_cif.got.tgz:52155.got - 2010.06.27 13:26:56.
