data_PCOD8020612
_publ_section_title
;
Structure prediction by ZEFSAII (Michael W. Deem and Ramdas Pophale) SiO2 
 PCOD8020612
Probable space group: P -1
;
_chemical_formula_sum "Si O2"
_cell_formula_units_Z 14
_cell_length_a 14.948414
_cell_length_b 9.975571
_cell_length_c 11.860422
_cell_angle_alpha 57.648706
_cell_angle_beta 27.650549
_cell_angle_gamma 49.204242
_cell_volume 616.550006
_symmetry_space_group_name_H-M "P -1"
_symmetry_group_IT_number 2
_symmetry_cell_setting 'triclinic'
loop_
_space_group_symop_operation_xyz
x,y,z
-x,-y,-z
loop_
_atom_site_type_symbol
_atom_site_label
_atom_site_fract_x
_atom_site_fract_y
_atom_site_fract_z
Si Si1 0.253930 0.560102 0.450341
Si Si2 0.505596 0.216374 0.941925
Si Si3 0.825408 0.663549 0.549851
Si Si4 0.767969 0.847341 0.890387
Si Si5 0.528015 0.777758 0.532150
Si Si6 0.125294 0.005875 0.745574
Si Si7 0.239048 0.041071 0.907036
O O1 0.412544 0.637595 0.197444
O O2 0.249310 0.423572 0.425798
O O3 0.364245 0.437636 0.492921
O O4 0.021094 0.717522 0.667546
O O5 0.710391 0.018332 0.796367
O O6 0.367908 0.218952 0.203569
O O7 0.364096 0.253398 0.968114
O O8 0.000000 0.500000 0.500000
O O9 0.909714 0.797979 0.341387
O O10 0.687763 0.920321 0.071704
O O11 0.375404 0.865230 0.553106
O O12 0.729008 0.827406 0.278368
O O13 0.402222 0.845459 0.762640
O O14 0.006426 0.936440 0.817444
O O15 0.000000 0.000000 0.000000
#
# Coordination Sequence:
#
# PCOD8020612 Si02
#       7
#     2   2   2   2   2   2   2
#     4  12  25  42  69  99 136 176 229 283 338 402
#     4  11  26  45  65  93 143 179 220 282 345 403
#     4  12  25  43  71 107 132 172 236 283 331 408
#     4  11  25  43  63  97 136 183 226 272 347 411
#     4  10  22  43  69 101 127 179 238 273 330 412
#     4  10  23  42  71  99 135 175 221 282 341 395
#     4  10  22  42  70  92 135 178 221 278 341 394
#
# _framework density 22.706997999999999
#
# number of rings (size 3 to 8) (size 9 to 14) (size 15 to 20)
#    0.000    1.143    1.429    5.143    6.000    5.143 
#    0.000    1.429    0.000    0.000    0.000    0.000 
#    0.000    0.000    0.000    0.000    0.000    0.000 
#
# Total GULP energy -173464.510335 kJ/mol
# GULP energy per Si atom -12390.322167 kJ/mol
# Density = 2.265532 g / cm^3
# Si number density = 22.706998 Si / 1000 Ang^3
#
#
#
# Elastic Constant Matrix: (Units=GPa)
#
#
# Indices 1 2 3 4 5 6 
#
# 1 110.3201 52.8865 62.1017 -7.5704 -2.8716 6.3632
# 2 52.8865 136.8628 74.2278 -17.8768 -21.5574 -25.7802
# 3 62.1017 74.2278 100.8177 -19.1643 -20.2745 -0.9429
# 4 -7.5704 -17.8768 -19.1643 33.6957 7.6122 -2.4299
# 5 -2.8716 -21.5574 -20.2745 7.6122 24.6128 -0.0820
# 6 6.3632 -25.7802 -0.9429 -2.4299 -0.0820 44.5264
#
#
#
# Elastic Compliance Matrix: (Units=1/GPa)
#
#
# Indices 1 2 3 4 5 6 
#
# 1 0.015908 -0.003573 -0.009270 -0.002058 -0.008288 -0.004666
# 2 -0.003573 0.016119 -0.007774 0.002560 0.006539 0.009830
# 3 -0.009270 -0.007774 0.024447 0.005119 0.010656 -0.002359
# 4 -0.002058 0.002560 0.005119 0.034779 -0.004525 0.003774
# 5 -0.008288 0.006539 0.010656 -0.004525 0.055584 0.005052
# 6 -0.004666 0.009830 -0.002359 0.003774 0.005052 0.028982
#
#
# Mechanical properties :
#
#
# Convention : Reuss Voigt Hill
#
# Bulk Modulus (GPa) = 65.61398 80.71476 73.16437
# Shear Modulus (GPa) = 22.50914 31.15261 26.83088
#
# Velocity S-wave (km/s) = 3.15189 3.70799 3.44119
# Velocity P-wave (km/s) = 6.49650 7.34545 6.93398
#
# Compressibility (1/GPa) = 0.01524065
#
# Stress axis : x y z
#
# Youngs Moduli (GPa) = 62.86265 62.03760 40.90536
#
# Poissons Ratio (x) = 0.22163 0.37920
# Poissons Ratio (y) = 0.22458 0.31799
# Poissons Ratio (z) = 0.58274 0.48227
#
# Static dielectric constant tensor:
#      x y z
#    x 4.744480 -0.093550 -0.502440 
#    y -0.093550 4.266670 -0.093050 
#    z -0.502440 -0.093050 4.153820 
# 
# 
# High freq. dielectric constant tensor:
#      x y z
#    x 1.906200 -0.007590 -0.016880 
#    y -0.007590 1.892810 -0.006650 
#    z -0.016880 -0.006650 1.887010 
# 
# From -- ./inp_files/446890.got.cif
#   From: 2010.06.25/outbox.cif.g09.slc.cpg/sg2_224_cif.got.tgz:446890.got - 2010.06.27 13:26:56.
