data_PCOD8020663
_publ_section_title
;
Structure prediction by ZEFSAII (Michael W. Deem and Ramdas Pophale) SiO2 
 PCOD8020663
Probable space group: P -1
;
_chemical_formula_sum "Si O2"
_cell_formula_units_Z 16
_cell_length_a 19.115771
_cell_length_b 5.387417
_cell_length_c 8.947799
_cell_angle_alpha 75.139956
_cell_angle_beta 128.120762
_cell_angle_gamma 113.069508
_cell_volume 666.834718
_symmetry_space_group_name_H-M "P -1"
_symmetry_group_IT_number 2
_symmetry_cell_setting 'triclinic'
loop_
_space_group_symop_operation_xyz
x,y,z
-x,-y,-z
loop_
_atom_site_type_symbol
_atom_site_label
_atom_site_fract_x
_atom_site_fract_y
_atom_site_fract_z
Si Si1 0.391118 0.407215 0.858000
Si Si2 0.503532 0.794969 0.405555
Si Si3 0.317419 0.565431 0.032863
Si Si4 0.985733 0.481277 0.158497
Si Si5 0.243219 0.905959 0.684938
Si Si6 0.801353 0.535029 0.841636
Si Si7 0.681850 0.204261 0.483925
Si Si8 0.909701 0.930741 0.668571
O O1 0.349725 0.103765 0.793652
O O2 0.370091 0.591138 0.673870
O O3 0.500000 0.500000 0.000000
O O4 0.340582 0.398796 0.952833
O O5 0.500000 0.500000 0.500000
O O6 0.415876 0.774603 0.184423
O O7 0.500000 0.000000 0.500000
O O8 0.603453 0.913105 0.437464
O O9 0.262479 0.381794 0.127713
O O10 0.241570 0.706265 0.849861
O O11 0.026823 0.237714 0.297934
O O12 0.874508 0.413302 0.043209
O O13 0.032130 0.763620 0.260674
O O14 0.000000 0.500000 0.000000
O O15 0.162627 0.052186 0.562213
O O16 0.234488 0.778612 0.526124
O O17 0.730917 0.294731 0.692790
O O18 0.854068 0.787715 0.766175
#
# Coordination Sequence:
#
# PCOD8020663 Si02
#       8
#     2   2   2   2   2   2   2   2
#     4  11  24  44  70  97 140 192 242 281 348 424
#     4  12  28  46  66 106 148 181 230 295 359 408
#     4  11  27  44  67 106 144 184 234 300 353 411
#     4  10  22  42  71 107 139 179 233 297 358 427
#     4  11  24  44  69  99 137 191 239 285 346 435
#     4  11  22  45  71 109 138 179 237 301 359 412
#     4  11  24  43  71  98 140 189 242 284 351 425
#     4  11  23  45  74 102 139 186 237 290 356 433
#
# _framework density 23.993953999999999
#
# number of rings (size 3 to 8) (size 9 to 14) (size 15 to 20)
#    0.000    1.000    2.500    4.500    8.750    2.000 
#    6.750    1.250    0.000    0.000    0.000    0.000 
#    0.000    0.000    0.000    0.000    0.000    0.000 
#
# Total GULP energy -198241.824319 kJ/mol
# GULP energy per Si atom -12390.114020 kJ/mol
# Density = 2.393934 g / cm^3
# Si number density = 23.993954 Si / 1000 Ang^3
#
#
#
# Elastic Constant Matrix: (Units=GPa)
#
#
# Indices 1 2 3 4 5 6 
#
# 1 91.8782 34.6653 50.5229 0.1178 13.6472 7.9999
# 2 34.6653 88.0094 29.3274 3.7002 -4.0464 -16.5894
# 3 50.5229 29.3274 125.1711 0.7123 23.0396 -3.6501
# 4 0.1178 3.7002 0.7123 31.6364 -0.1073 8.7521
# 5 13.6472 -4.0464 23.0396 -0.1073 38.1259 -7.7412
# 6 7.9999 -16.5894 -3.6501 8.7521 -7.7412 30.4084
#
#
#
# Elastic Compliance Matrix: (Units=1/GPa)
#
#
# Indices 1 2 3 4 5 6 
#
# 1 0.019371 -0.009369 -0.004589 0.005043 -0.008035 -0.014255
# 2 -0.009369 0.019929 -0.002246 -0.007126 0.010414 0.017770
# 3 -0.004589 -0.002246 0.011374 0.000020 -0.005480 -0.000053
# 4 0.005043 -0.007126 0.000020 0.037233 -0.006014 -0.017459
# 5 -0.008035 0.010414 -0.005480 -0.006014 0.037230 0.018346
# 6 -0.014255 0.017770 -0.000053 -0.017459 0.018346 0.056020
#
#
# Mechanical properties :
#
#
# Convention : Reuss Voigt Hill
#
# Bulk Modulus (GPa) = 54.74443 59.34331 57.04387
# Shear Modulus (GPa) = 22.76315 32.73700 27.75007
#
# Velocity S-wave (km/s) = 3.08344 3.69777 3.40449
# Velocity P-wave (km/s) = 5.96174 6.55878 6.26737
#
# Compressibility (1/GPa) = 0.01826670
#
# Stress axis : x y z
#
# Youngs Moduli (GPa) = 51.62479 50.17793 87.91638
#
# Poissons Ratio (x) = 0.47013 0.40342
# Poissons Ratio (y) = 0.48368 0.19744
# Poissons Ratio (z) = 0.23689 0.11269
#
# Static dielectric constant tensor:
#      x y z
#    x 4.422190 -0.410190 0.361590 
#    y -0.410190 4.360910 -0.025190 
#    z 0.361590 -0.025190 4.746530 
# 
# 
# High freq. dielectric constant tensor:
#      x y z
#    x 1.946520 -0.006340 0.015720 
#    y -0.006340 1.936290 0.008660 
#    z 0.015720 0.008660 1.969100 
# 
# From -- ./inp_files/340275.got.cif
#   From: 2010.06.25/outbox.cif.g09.slc.cpg/sg2_171_cif.got.tgz:340275.got - 2010.06.27 13:26:56.
