data_PCOD8020405
_publ_section_title
;
Structure prediction by ZEFSAII (Michael W. Deem and Ramdas Pophale) SiO2 
 PCOD8020405
Probable space group: P -1
;
_chemical_formula_sum "Si O2"
_cell_formula_units_Z 16
_cell_length_a 11.363515
_cell_length_b 10.603131
_cell_length_c 13.497900
_cell_angle_alpha 73.390638
_cell_angle_beta 127.000618
_cell_angle_gamma 62.746764
_cell_volume 706.768069
_symmetry_space_group_name_H-M "P -1"
_symmetry_group_IT_number 2
_symmetry_cell_setting 'triclinic'
loop_
_space_group_symop_operation_xyz
x,y,z
-x,-y,-z
loop_
_atom_site_type_symbol
_atom_site_label
_atom_site_fract_x
_atom_site_fract_y
_atom_site_fract_z
Si Si1 0.487811 0.886325 0.452114
Si Si2 0.280276 0.426631 0.748327
Si Si3 0.422393 0.602985 0.830344
Si Si4 0.689818 0.479644 0.699574
Si Si5 0.703886 0.049486 0.211304
Si Si6 0.706439 0.773571 0.376474
Si Si7 0.863631 0.214350 0.656613
Si Si8 0.931112 0.194407 0.069800
O O1 0.694348 0.634247 0.662922
O O2 0.536697 0.880058 0.363821
O O3 0.500000 0.000000 0.500000
O O4 0.196578 0.051055 0.279814
O O5 0.263964 0.600228 0.695641
O O6 0.357094 0.305170 0.708692
O O7 0.006105 0.563752 0.607780
O O8 0.480788 0.242181 0.976157
O O9 0.268684 0.854388 0.712674
O O10 0.686968 0.441867 0.943078
O O11 0.500000 0.500000 0.000000
O O12 0.757077 0.397054 0.639389
O O13 0.399680 0.654836 0.550160
O O14 0.903828 0.251982 0.927451
O O15 0.628785 0.966903 0.241004
O O16 0.978532 0.832964 0.341584
O O17 0.060735 0.967884 0.867466
#
# Coordination Sequence:
#
# PCOD8020405 Si02
#       8
#     2   2   2   2   2   2   2   2
#     4  11  29  47  65  97 142 186 237 280 333 425
#     4  10  24  44  69 100 140 175 227 287 339 416
#     4  10  22  42  70 103 134 173 228 293 339 401
#     4  10  25  41  69  98 136 179 227 284 334 415
#     4  11  24  42  73 104 137 179 225 289 350 408
#     4  11  27  44  68 100 140 187 227 276 352 413
#     4  10  22  42  68 106 134 165 228 288 347 403
#     4  11  23  45  71  96 133 181 231 282 355 392
#
# _framework density 22.638262000000001
#
# number of rings (size 3 to 8) (size 9 to 14) (size 15 to 20)
#    0.000    1.500    2.500    0.750   12.250    4.000 
#    0.000    0.000    0.000    0.000    0.000    0.000 
#    0.000    0.000    0.000    0.000    0.000    0.000 
#
# Total GULP energy -198318.421516 kJ/mol
# GULP energy per Si atom -12394.901345 kJ/mol
# Density = 2.258674 g / cm^3
# Si number density = 22.638262 Si / 1000 Ang^3
#
#
#
# Elastic Constant Matrix: (Units=GPa)
#
#
# Indices 1 2 3 4 5 6 
#
# 1 79.2118 38.5246 7.5724 8.2802 2.3815 6.0701
# 2 38.5246 123.7014 16.6525 12.6103 11.7856 16.6753
# 3 7.5724 16.6525 72.8830 6.5659 -5.7524 12.5522
# 4 8.2802 12.6103 6.5659 30.9113 0.4640 5.9046
# 5 2.3815 11.7856 -5.7524 0.4640 28.6894 -5.3671
# 6 6.0701 16.6753 12.5522 5.9046 -5.3671 40.7019
#
#
#
# Elastic Compliance Matrix: (Units=1/GPa)
#
#
# Indices 1 2 3 4 5 6 
#
# 1 0.015039 -0.004488 -0.000311 -0.002156 0.000583 0.000082
# 2 -0.004488 0.010891 -0.001601 -0.002125 -0.005072 -0.003659
# 3 -0.000311 -0.001601 0.015099 -0.001894 0.003130 -0.003267
# 4 -0.002156 -0.002125 -0.001894 0.034844 -0.000517 -0.003347
# 5 0.000583 -0.005072 0.003130 -0.000517 0.038688 0.006202
# 6 0.000082 -0.003659 -0.003267 -0.003347 0.006202 0.028367
#
#
# Mechanical properties :
#
#
# Convention : Reuss Voigt Hill
#
# Bulk Modulus (GPa) = 35.42538 44.58835 40.00686
# Shear Modulus (GPa) = 30.27808 34.26366 32.27087
#
# Velocity S-wave (km/s) = 3.66112 3.89463 3.77968
# Velocity P-wave (km/s) = 5.79259 6.32163 6.06288
#
# Compressibility (1/GPa) = 0.02822835
#
# Stress axis : x y z
#
# Youngs Moduli (GPa) = 66.49557 91.82297 66.22997
#
# Poissons Ratio (x) = 0.41215 0.02058
# Poissons Ratio (y) = 0.29846 0.10601
# Poissons Ratio (z) = 0.02066 0.14697
#
# Static dielectric constant tensor:
#      x y z
#    x 4.192040 0.545620 0.194630 
#    y 0.545620 4.308150 -0.137580 
#    z 0.194630 -0.137580 3.971890 
# 
# 
# High freq. dielectric constant tensor:
#      x y z
#    x 1.891720 -0.000390 -0.005620 
#    y -0.000390 1.899910 -0.006070 
#    z -0.005620 -0.006070 1.893480 
# 
# From -- ./inp_files/428220.got.cif
#   From: 2010.06.25/outbox.cif.g09.slc.cpg/sg2_215_cif.got.tgz:428220.got - 2010.06.27 13:26:56.
