data_PCOD8020077
_publ_section_title
;
Structure prediction by ZEFSAII (Michael W. Deem and Ramdas Pophale) SiO2 
 PCOD8020077
Probable space group: P -1
;
_chemical_formula_sum "Si O2"
_cell_formula_units_Z 16
_cell_length_a 15.111413
_cell_length_b 15.667263
_cell_length_c 11.296217
_cell_angle_alpha 140.505612
_cell_angle_beta 129.950748
_cell_angle_gamma 27.686564
_cell_volume 782.597820
_symmetry_space_group_name_H-M "P -1"
_symmetry_group_IT_number 2
_symmetry_cell_setting 'triclinic'
loop_
_space_group_symop_operation_xyz
x,y,z
-x,-y,-z
loop_
_atom_site_type_symbol
_atom_site_label
_atom_site_fract_x
_atom_site_fract_y
_atom_site_fract_z
Si Si1 0.476462 0.027353 0.651624
Si Si2 0.032025 0.746323 0.944574
Si Si3 0.114129 0.183852 0.536719
Si Si4 0.898336 0.221177 0.586008
Si Si5 0.289031 0.732084 0.735232
Si Si6 0.653717 0.559368 0.935438
Si Si7 0.049446 0.816447 0.788452
Si Si8 0.107913 0.401431 0.362692
O O1 0.308317 0.085698 0.614299
O O2 0.500000 0.000000 0.500000
O O3 0.666041 0.799936 0.634991
O O4 0.433002 0.215432 0.866528
O O5 0.077955 0.684073 0.777100
O O6 0.949915 0.679791 0.845784
O O7 0.232252 0.598779 0.020937
O O8 0.875909 0.003161 0.113145
O O9 0.050186 0.171528 0.590082
O O10 0.133726 0.050220 0.310138
O O11 0.945891 0.429764 0.593198
O O12 0.725975 0.319232 0.462898
O O13 0.807606 0.413399 0.804531
O O14 0.000000 0.000000 0.500000
O O15 0.492832 0.603147 0.805703
O O16 0.243722 0.653342 0.703799
O O17 0.000000 0.000000 0.000000
O O18 0.000000 0.500000 0.500000
#
# Coordination Sequence:
#
# PCOD8020077 Si02
#       8
#     2   2   2   2   2   2   2   2
#     4  12  24  41  69 105 137 172 219 277 337 414
#     4  11  19  38  64  96 132 173 212 276 346 383
#     4  11  24  44  67  98 134 178 225 272 341 392
#     4  11  25  50  69  91 138 183 230 282 321 389
#     4  10  22  42  65  92 130 176 225 274 327 393
#     4  12  24  41  70  96 131 183 223 271 334 392
#     4   9  20  37  61  93 134 170 214 275 329 397
#     4  12  21  41  66  97 141 172 211 278 340 399
#
# _framework density 20.444728000000001
#
# number of rings (size 3 to 8) (size 9 to 14) (size 15 to 20)
#    0.000    1.000    6.250    0.375    1.750    1.000 
#    6.750    0.625    0.000    0.000    0.000    0.000 
#    0.000    0.000    0.000    0.000    0.000    0.000 
#
# Total GULP energy -198240.070462 kJ/mol
# GULP energy per Si atom -12390.004404 kJ/mol
# Density = 2.039819 g / cm^3
# Si number density = 20.444728 Si / 1000 Ang^3
#
#
#
# Elastic Constant Matrix: (Units=GPa)
#
#
# Indices 1 2 3 4 5 6 
#
# 1 112.2880 45.0398 33.3661 -7.7505 4.1909 3.7840
# 2 45.0398 121.7518 15.0733 -10.0107 -1.4629 -13.0940
# 3 33.3661 15.0733 95.7768 -6.3759 -6.3861 -2.8263
# 4 -7.7505 -10.0107 -6.3759 39.1504 -1.9197 9.2251
# 5 4.1909 -1.4629 -6.3861 -1.9197 33.4863 -6.8684
# 6 3.7840 -13.0940 -2.8263 9.2251 -6.8684 33.8402
#
#
#
# Elastic Compliance Matrix: (Units=1/GPa)
#
#
# Indices 1 2 3 4 5 6 
#
# 1 0.012194 -0.004434 -0.003797 0.001558 -0.003275 -0.004486
# 2 -0.004434 0.010427 0.000236 0.000809 0.002076 0.004751
# 3 -0.003797 0.000236 0.012064 0.000981 0.003235 0.001913
# 4 0.001558 0.000809 0.000981 0.027962 0.000117 -0.007378
# 5 -0.003275 0.002076 0.003235 0.000117 0.032634 0.008031
# 6 -0.004486 0.004751 0.001913 -0.007378 0.008031 0.035692
#
#
# Mechanical properties :
#
#
# Convention : Reuss Voigt Hill
#
# Bulk Modulus (GPa) = 53.49183 57.41946 55.45564
# Shear Modulus (GPa) = 32.63829 37.05120 34.84474
#
# Velocity S-wave (km/s) = 3.99985 4.26169 4.13284
# Velocity P-wave (km/s) = 6.89584 7.23617 7.06806
#
# Compressibility (1/GPa) = 0.01869445
#
# Stress axis : x y z
#
# Youngs Moduli (GPa) = 82.01052 95.90470 82.89125
#
# Poissons Ratio (x) = 0.42528 0.31474
# Poissons Ratio (y) = 0.36366 -0.01959
# Poissons Ratio (z) = 0.31140 -0.02267
#
# Static dielectric constant tensor:
#      x y z
#    x 3.761170 -0.210440 0.065290 
#    y -0.210440 3.878210 -0.351030 
#    z 0.065290 -0.351030 4.127340 
# 
# 
# High freq. dielectric constant tensor:
#      x y z
#    x 1.791790 0.003000 0.013370 
#    y 0.003000 1.791380 -0.014510 
#    z 0.013370 -0.014510 1.821300 
# 
# From -- ./inp_files/455967.got.cif
#   From: 2010.06.25/outbox.cif.g09.slc.cpg/sg2_228_cif.got.tgz:455967.got - 2010.06.27 13:26:56.
