data_PCOD8020550
_publ_section_title
;
Structure prediction by ZEFSAII (Michael W. Deem and Ramdas Pophale) SiO2 
 PCOD8020550
Probable space group: P -1
;
_chemical_formula_sum "Si O2"
_cell_formula_units_Z 12
_cell_length_a 11.594229
_cell_length_b 6.703833
_cell_length_c 8.471189
_cell_angle_alpha 117.257798
_cell_angle_beta 113.507352
_cell_angle_gamma 60.939732
_cell_volume 498.269948
_symmetry_space_group_name_H-M "P -1"
_symmetry_group_IT_number 2
_symmetry_cell_setting 'triclinic'
loop_
_space_group_symop_operation_xyz
x,y,z
-x,-y,-z
loop_
_atom_site_type_symbol
_atom_site_label
_atom_site_fract_x
_atom_site_fract_y
_atom_site_fract_z
Si Si1 0.206693 0.257765 0.557208
Si Si2 0.359657 0.839597 0.283422
Si Si3 0.162043 0.571549 0.065457
Si Si4 0.393327 0.527851 0.811002
Si Si5 0.029431 0.548764 0.289264
Si Si6 0.639452 0.970342 0.982624
O O1 0.282063 0.410938 0.746372
O O2 0.147990 0.386905 0.408076
O O3 0.086660 0.244521 0.598585
O O4 0.310601 0.991133 0.472232
O O5 0.254436 0.719549 0.122607
O O6 0.506586 0.631501 0.331107
O O7 0.376781 0.002094 0.206191
O O8 0.096854 0.663161 0.235771
O O9 0.245029 0.283371 0.006044
O O10 0.038587 0.624827 0.894202
O O11 0.500000 0.500000 0.000000
O O12 0.319753 0.813482 0.839804
O O13 0.500000 0.000000 0.000000
#
# Coordination Sequence:
#
# PCOD8020550 Si02
#       6
#     2   2   2   2   2   2
#     4  11  23  45  67 101 139 171 223 278 336 381
#     4  11  23  42  72 100 134 170 219 288 330 391
#     4  11  23  47  70 100 131 182 229 256 339 402
#     4  10  22  42  69  96 130 174 216 275 336 390
#     4  10  24  45  65  97 140 180 224 267 318 413
#     4  11  22  42  71 100 132 171 227 273 332 400
#
# _framework density 24.083328999999999
#
# number of rings (size 3 to 8) (size 9 to 14) (size 15 to 20)
#    0.000    1.333    3.333    2.500    2.333    1.333 
#   15.000    1.667    0.000    0.000    0.000    0.000 
#    0.000    0.000    0.000    0.000    0.000    0.000 
#
# Total GULP energy -148741.112466 kJ/mol
# GULP energy per Si atom -12395.092706 kJ/mol
# Density = 2.402851 g / cm^3
# Si number density = 24.083329 Si / 1000 Ang^3
#
#
#
# Elastic Constant Matrix: (Units=GPa)
#
#
# Indices 1 2 3 4 5 6 
#
# 1 128.2751 31.1986 17.8673 6.4691 -15.2489 -3.0256
# 2 31.1986 67.6195 41.3046 21.1052 -3.0951 -1.1273
# 3 17.8673 41.3046 75.2718 6.9680 -2.0394 -12.0156
# 4 6.4691 21.1052 6.9680 44.5789 -4.4307 -8.4831
# 5 -15.2489 -3.0951 -2.0394 -4.4307 54.3967 7.9949
# 6 -3.0256 -1.1273 -12.0156 -8.4831 7.9949 30.7019
#
#
#
# Elastic Compliance Matrix: (Units=1/GPa)
#
#
# Indices 1 2 3 4 5 6 
#
# 1 0.009116 -0.004785 0.000517 0.001217 0.002304 0.000661
# 2 -0.004785 0.030678 -0.015958 -0.013082 0.000097 -0.009230
# 3 0.000517 -0.015958 0.023006 0.005751 -0.000947 0.010304
# 4 0.001217 -0.013082 0.005751 0.029499 0.000769 0.009841
# 5 0.002304 0.000097 -0.000947 0.000769 0.019810 -0.005086
# 6 0.000661 -0.009230 0.010304 0.009841 -0.005086 0.040374
#
#
# Mechanical properties :
#
#
# Convention : Reuss Voigt Hill
#
# Bulk Modulus (GPa) = 44.74684 50.21192 47.47938
# Shear Modulus (GPa) = 24.95220 37.98857 31.47039
#
# Velocity S-wave (km/s) = 3.22231 3.97593 3.61879
# Velocity P-wave (km/s) = 5.69778 6.47857 6.10068
#
# Compressibility (1/GPa) = 0.02234795
#
# Stress axis : x y z
#
# Youngs Moduli (GPa) = 109.70124 32.59676 43.46677
#
# Poissons Ratio (x) = 0.15598 -0.02248
# Poissons Ratio (y) = 0.52492 0.69365
# Poissons Ratio (z) = -0.05675 0.52018
#
# Static dielectric constant tensor:
#      x y z
#    x 4.781420 -0.304110 -0.339490 
#    y -0.304110 4.366990 0.327600 
#    z -0.339490 0.327600 4.374830 
# 
# 
# High freq. dielectric constant tensor:
#      x y z
#    x 1.985370 -0.011150 -0.019120 
#    y -0.011150 1.919310 0.009130 
#    z -0.019120 0.009130 1.950220 
# 
# From -- ./inp_files/230041.got.cif
#   From: 2010.06.25/outbox.cif.g09.slc.cpg/sg2_116_cif.got.tgz:230041.got - 2010.06.27 13:26:56.
