data_PCOD8020139
_publ_section_title
;
Structure prediction by ZEFSAII (Michael W. Deem and Ramdas Pophale) SiO2 
 PCOD8020139
Probable space group: P -1
;
_chemical_formula_sum "Si O2"
_cell_formula_units_Z 16
_cell_length_a 15.060018
_cell_length_b 15.461537
_cell_length_c 8.496758
_cell_angle_alpha 81.457947
_cell_angle_beta 128.592178
_cell_angle_gamma 141.243859
_cell_volume 700.150066
_symmetry_space_group_name_H-M "P -1"
_symmetry_group_IT_number 2
_symmetry_cell_setting 'triclinic'
loop_
_space_group_symop_operation_xyz
x,y,z
-x,-y,-z
loop_
_atom_site_type_symbol
_atom_site_label
_atom_site_fract_x
_atom_site_fract_y
_atom_site_fract_z
Si Si1 0.105836 0.114349 0.746897
Si Si2 0.464188 0.988007 0.650374
Si Si3 0.730737 0.752658 0.563523
Si Si4 0.254715 0.421264 0.283938
Si Si5 0.448278 0.633927 0.986652
Si Si6 0.251640 0.663421 0.638056
Si Si7 0.998374 0.414750 0.132319
Si Si8 0.981228 0.760160 0.258186
O O1 0.406197 0.312268 0.014590
O O2 0.011435 0.147672 0.655202
O O3 0.000000 0.000000 0.500000
O O4 0.997412 0.983195 0.809586
O O5 0.500000 0.000000 0.500000
O O6 0.386360 0.845335 0.689816
O O7 0.256848 0.917657 0.478599
O O8 0.721952 0.202494 0.946258
O O9 0.552099 0.643522 0.547162
O O10 0.783545 0.685365 0.607998
O O11 0.588215 0.704474 0.279881
O O12 0.097062 0.398539 0.152163
O O13 0.168768 0.325722 0.044921
O O14 0.445229 0.737098 0.931587
O O15 0.162025 0.407552 0.743877
O O16 0.185401 0.561614 0.439115
O O17 0.000000 0.500000 0.500000
O O18 0.000000 0.500000 0.000000
#
# Coordination Sequence:
#
# PCOD8020139 Si02
#       8
#     2   2   2   2   2   2   2   2
#     4  10  23  39  66  99 133 184 234 290 362 427
#     4  12  25  48  76 109 147 194 245 300 368 441
#     4   9  22  42  66  95 138 179 238 290 351 427
#     4  10  22  42  66 100 135 186 239 290 357 432
#     4  10  23  44  68  95 147 181 232 298 363 426
#     4  12  27  48  73 111 146 192 245 304 371 435
#     4  12  27  45  77 106 148 191 244 303 366 433
#     4  11  22  42  70  97 141 188 237 303 357 430
#
# _framework density 22.852246000000001
#
# number of rings (size 3 to 8) (size 9 to 14) (size 15 to 20)
#    0.000    1.250    3.750    0.375    5.250    7.000 
#    2.250    0.000    0.000    0.000    0.000    0.000 
#    0.000    0.000    0.000    0.000    0.000    0.000 
#
# Total GULP energy -198276.348243 kJ/mol
# GULP energy per Si atom -12392.271765 kJ/mol
# Density = 2.280023 g / cm^3
# Si number density = 22.852246 Si / 1000 Ang^3
#
#
#
# Elastic Constant Matrix: (Units=GPa)
#
#
# Indices 1 2 3 4 5 6 
#
# 1 132.4687 44.2149 30.0263 -2.5099 37.9122 -7.0098
# 2 44.2149 174.7929 38.1362 0.8003 29.7627 -3.7168
# 3 30.0263 38.1362 62.4093 -1.9687 21.0168 -5.2848
# 4 -2.5099 0.8003 -1.9687 48.1306 0.8864 16.9667
# 5 37.9122 29.7627 21.0168 0.8864 47.2028 3.7069
# 6 -7.0098 -3.7168 -5.2848 16.9667 3.7069 35.7444
#
#
#
# Elastic Compliance Matrix: (Units=1/GPa)
#
#
# Indices 1 2 3 4 5 6 
#
# 1 0.010472 -0.000974 -0.001816 -0.000283 -0.007184 0.002564
# 2 -0.000974 0.007038 -0.003008 -0.000441 -0.002351 0.000549
# 3 -0.001816 -0.003008 0.021120 -0.000192 -0.006296 0.003198
# 4 -0.000283 -0.000441 -0.000192 0.025012 0.001073 -0.012114
# 5 -0.007184 -0.002351 -0.006296 0.001073 0.031723 -0.006383
# 6 0.002564 0.000549 0.003198 -0.012114 -0.006383 0.035421
#
#
# Mechanical properties :
#
#
# Convention : Reuss Voigt Hill
#
# Bulk Modulus (GPa) = 36.98874 66.04730 51.51802
# Shear Modulus (GPa) = 33.02718 43.36846 38.19782
#
# Velocity S-wave (km/s) = 3.80577 4.36107 4.09285
# Velocity P-wave (km/s) = 5.96096 7.37043 6.70284
#
# Compressibility (1/GPa) = 0.02703525
#
# Stress axis : x y z
#
# Youngs Moduli (GPa) = 95.49313 142.09424 47.34912
#
# Poissons Ratio (x) = 0.13835 0.08597
# Poissons Ratio (y) = 0.09298 0.14241
# Poissons Ratio (z) = 0.17339 0.42736
#
# Static dielectric constant tensor:
#      x y z
#    x 4.219500 0.520240 0.331050 
#    y 0.520240 5.232310 0.415340 
#    z 0.331050 0.415340 4.298310 
# 
# 
# High freq. dielectric constant tensor:
#      x y z
#    x 1.899530 0.006600 0.025570 
#    y 0.006600 1.927580 0.004900 
#    z 0.025570 0.004900 1.888080 
# 
# From -- ./inp_files/315158.got.cif
#   From: 2010.06.25/outbox.cif.g09.slc.cpg/sg2_158_cif.got.tgz:315158.got - 2010.06.27 13:26:56.
