data_PCOD8020331
_publ_section_title
;
Structure prediction by ZEFSAII (Michael W. Deem and Ramdas Pophale) SiO2 
 PCOD8020331
Probable space group: P -1
;
_chemical_formula_sum "Si O2"
_cell_formula_units_Z 12
_cell_length_a 12.312681
_cell_length_b 11.654202
_cell_length_c 8.758582
_cell_angle_alpha 141.099486
_cell_angle_beta 40.929718
_cell_angle_gamma 120.077977
_cell_volume 505.418729
_symmetry_space_group_name_H-M "P -1"
_symmetry_group_IT_number 2
_symmetry_cell_setting 'triclinic'
loop_
_space_group_symop_operation_xyz
x,y,z
-x,-y,-z
loop_
_atom_site_type_symbol
_atom_site_label
_atom_site_fract_x
_atom_site_fract_y
_atom_site_fract_z
Si Si1 0.137680 0.739174 0.622136
Si Si2 0.302968 0.625325 0.031915
Si Si3 0.820760 0.638803 0.325908
Si Si4 0.656371 0.608637 0.784585
Si Si5 0.669199 0.999856 0.725489
Si Si6 0.242673 0.105545 0.808565
O O1 0.146856 0.669730 0.363337
O O2 0.241568 0.589263 0.471028
O O3 0.211566 0.927161 0.752464
O O4 0.941572 0.770273 0.911550
O O5 0.289880 0.794135 0.098586
O O6 0.301155 0.442548 0.745218
O O7 0.466862 0.589237 0.929148
O O8 0.740721 0.668971 0.607252
O O9 0.824443 0.846016 0.473336
O O10 0.000000 0.500000 0.000000
O O11 0.649909 0.773410 0.084453
O O12 0.647574 0.957298 0.525003
O O13 0.500000 0.000000 0.000000
#
# Coordination Sequence:
#
# PCOD8020331 Si02
#       6
#     2   2   2   2   2   2
#     4  10  22  42  67  95 132 171 220 273 322 388
#     4  11  25  44  66  98 134 173 221 270 334 389
#     4  12  26  44  69  97 134 176 220 271 332 396
#     4  12  23  39  66 101 129 173 218 273 326 388
#     4  11  24  45  68  96 137 175 213 275 326 393
#     4  10  23  42  67  96 131 174 222 267 328 386
#
# _framework density 23.742688999999999
#
# number of rings (size 3 to 8) (size 9 to 14) (size 15 to 20)
#    0.000    1.000    1.667    4.500    0.000    6.000 
#    0.000    0.000    0.000    0.000    0.000    0.000 
#    0.000    0.000    0.000    0.000    0.000    0.000 
#
# Total GULP energy -148839.547215 kJ/mol
# GULP energy per Si atom -12403.295601 kJ/mol
# Density = 2.368865 g / cm^3
# Si number density = 23.742689 Si / 1000 Ang^3
#
#
#
# Elastic Constant Matrix: (Units=GPa)
#
#
# Indices 1 2 3 4 5 6 
#
# 1 95.3748 37.0480 23.1404 7.8565 0.2011 3.2136
# 2 37.0480 81.8599 14.7178 18.5001 -3.4756 -11.3456
# 3 23.1404 14.7178 77.5313 -6.1466 13.3175 2.2275
# 4 7.8565 18.5001 -6.1466 49.5330 -12.3555 -11.8595
# 5 0.2011 -3.4756 13.3175 -12.3555 29.1132 6.6212
# 6 3.2136 -11.3456 2.2275 -11.8595 6.6212 27.8007
#
#
#
# Elastic Compliance Matrix: (Units=1/GPa)
#
#
# Indices 1 2 3 4 5 6 
#
# 1 0.013832 -0.006021 -0.003147 -0.001135 0.001183 -0.004570
# 2 -0.006021 0.017080 -0.001918 -0.004271 -0.000231 0.006053
# 3 -0.003147 -0.001918 0.015469 0.001604 -0.006747 0.000633
# 4 -0.001135 -0.004271 0.001604 0.025955 0.008096 0.007404
# 5 0.001183 -0.000231 -0.006747 0.008096 0.042269 -0.006304
# 6 -0.004570 0.006053 0.000633 0.007404 -0.006304 0.043578
#
#
# Mechanical properties :
#
#
# Convention : Reuss Voigt Hill
#
# Bulk Modulus (GPa) = 41.30708 44.95315 43.13012
# Shear Modulus (GPa) = 26.53564 33.28003 29.90783
#
# Velocity S-wave (km/s) = 3.34673 3.74798 3.55303
# Velocity P-wave (km/s) = 5.68944 6.14039 5.91921
#
# Compressibility (1/GPa) = 0.02420892
#
# Stress axis : x y z
#
# Youngs Moduli (GPa) = 72.29402 58.54746 64.64397
#
# Poissons Ratio (x) = 0.35252 0.20346
# Poissons Ratio (y) = 0.43529 0.12399
# Poissons Ratio (z) = 0.22754 0.11230
#
# Static dielectric constant tensor:
#      x y z
#    x 4.195690 -0.291820 -0.386220 
#    y -0.291820 4.549920 0.424230 
#    z -0.386220 0.424230 5.837220 
# 
# 
# High freq. dielectric constant tensor:
#      x y z
#    x 1.921560 -0.018720 0.000600 
#    y -0.018720 1.951360 0.007290 
#    z 0.000600 0.007290 1.963010 
# 
# From -- ./inp_files/163301.got.cif
#   From: 2010.06.25/outbox.cif.g09.slc.cpg/sg2_82_cif.got.tgz:163301.got - 2010.06.27 13:26:56.
