data_PCOD8020833
_publ_section_title
;
Structure prediction by ZEFSAII (Michael W. Deem and Ramdas Pophale) SiO2 
 PCOD8020833
Probable space group: P -1
;
_chemical_formula_sum "Si O2"
_cell_formula_units_Z 16
_cell_length_a 14.920061
_cell_length_b 16.584236
_cell_length_c 14.150195
_cell_angle_alpha 138.727956
_cell_angle_beta 151.728391
_cell_angle_gamma 27.520609
_cell_volume 759.312067
_symmetry_space_group_name_H-M "P -1"
_symmetry_group_IT_number 2
_symmetry_cell_setting 'triclinic'
loop_
_space_group_symop_operation_xyz
x,y,z
-x,-y,-z
loop_
_atom_site_type_symbol
_atom_site_label
_atom_site_fract_x
_atom_site_fract_y
_atom_site_fract_z
Si Si1 0.450005 0.551201 0.890301
Si Si2 0.478101 0.707680 0.663044
Si Si3 0.933864 0.665814 0.551710
Si Si4 0.040989 0.224291 0.128402
Si Si5 0.559067 0.156853 0.882625
Si Si6 0.690978 0.737327 0.060256
Si Si7 0.939869 0.291550 0.748820
Si Si8 0.152371 0.322369 0.146651
O O1 0.176769 0.604284 0.654630
O O2 0.500000 0.500000 0.000000
O O3 0.409500 0.712723 0.975644
O O4 0.720815 0.376962 0.935071
O O5 0.699103 0.500197 0.700274
O O6 0.178051 0.790823 0.441368
O O7 0.567854 0.744346 0.687120
O O8 0.476905 0.790352 0.829159
O O9 0.905270 0.765360 0.704138
O O10 0.658589 0.793638 0.350033
O O11 0.000000 0.500000 0.500000
O O12 0.200070 0.246272 0.228313
O O13 0.151892 0.036350 0.048095
O O14 0.476940 0.147817 0.902050
O O15 0.845019 0.784826 0.203388
O O16 0.907274 0.532916 0.108262
O O17 0.081519 0.244794 0.940543
#
# Coordination Sequence:
#
# PCOD8020833 Si02
#       8
#     2   2   2   2   2   2   2   2
#     4  10  22  43  64  86 118 160 201 251 305 361
#     4   8  15  29  54  82 113 156 201 245 290 351
#     4  11  22  44  66  88 120 161 203 252 307 362
#     4  11  23  41  63  92 128 159 204 254 304 365
#     4  12  23  41  63  94 125 162 202 253 307 362
#     4   9  17  32  56  80 122 153 198 250 292 354
#     4   8  15  29  53  83 112 156 201 241 296 349
#     4   9  16  34  52  84 118 155 199 246 297 350
#
# _framework density 21.071705000000001
#
# number of rings (size 3 to 8) (size 9 to 14) (size 15 to 20)
#    0.000    2.250    3.750    1.875    0.000    3.000 
#    9.000    2.500    0.000    1.500    0.000    0.000 
#    0.000    0.000    0.000    0.000    0.000    0.000 
#
# Total GULP energy -198351.660598 kJ/mol
# GULP energy per Si atom -12396.978787 kJ/mol
# Density = 2.102374 g / cm^3
# Si number density = 21.071705 Si / 1000 Ang^3
#
#
#
# Elastic Constant Matrix: (Units=GPa)
#
#
# Indices 1 2 3 4 5 6 
#
# 1 125.9536 36.3115 50.9119 5.7515 13.6857 -8.0964
# 2 36.3115 95.9024 32.7726 3.7526 13.2749 -19.7802
# 3 50.9119 32.7726 121.8830 6.0131 33.4816 -5.2032
# 4 5.7515 3.7526 6.0131 9.5247 2.6295 -8.0799
# 5 13.6857 13.2749 33.4816 2.6295 33.5527 4.8514
# 6 -8.0964 -19.7802 -5.2032 -8.0799 4.8514 22.8365
#
#
#
# Elastic Compliance Matrix: (Units=1/GPa)
#
#
# Indices 1 2 3 4 5 6 
#
# 1 0.010238 -0.002941 -0.003672 -0.004362 0.001218 -0.001556
# 2 -0.002941 0.016659 -0.000692 0.015629 -0.008911 0.020652
# 3 -0.003672 -0.000692 0.013431 0.000857 -0.012287 0.004073
# 4 -0.004362 0.015629 0.000857 0.179327 -0.031208 0.082265
# 5 0.001218 -0.008911 -0.012287 -0.031208 0.052198 -0.032218
# 6 -0.001556 0.020652 0.004073 0.082265 -0.032218 0.098005
#
#
# Mechanical properties :
#
#
# Convention : Reuss Voigt Hill
#
# Bulk Modulus (GPa) = 38.88201 64.85901 51.87051
# Shear Modulus (GPa) = 12.72131 28.09898 20.41014
#
# Velocity S-wave (km/s) = 2.45973 3.65566 3.11562
# Velocity P-wave (km/s) = 5.15357 6.97606 6.13289
#
# Compressibility (1/GPa) = 0.02571883
#
# Stress axis : x y z
#
# Youngs Moduli (GPa) = 97.67384 60.02825 74.45206
#
# Poissons Ratio (x) = 0.17652 0.27337
# Poissons Ratio (y) = 0.28722 0.05155
# Poissons Ratio (z) = 0.35864 0.04156
#
# Static dielectric constant tensor:
#      x y z
#    x 4.179200 -0.092700 0.358010 
#    y -0.092700 3.548460 -0.028710 
#    z 0.358010 -0.028710 3.999160 
# 
# 
# High freq. dielectric constant tensor:
#      x y z
#    x 1.833740 -0.000740 0.012040 
#    y -0.000740 1.807370 0.003300 
#    z 0.012040 0.003300 1.810100 
# 
# From -- ./inp_files/533853.got.cif
#   From: 2010.06.25/outbox.cif.g09.slc.cpg/sg2_267_cif.got.tgz:533853.got - 2010.06.27 13:26:56.
