data_PCOD8020711
_publ_section_title
;
Structure prediction by ZEFSAII (Michael W. Deem and Ramdas Pophale) SiO2 
 PCOD8020711
Probable space group: P -1
;
_chemical_formula_sum "Si O2"
_cell_formula_units_Z 16
_cell_length_a 14.682666
_cell_length_b 9.051880
_cell_length_c 9.911964
_cell_angle_alpha 80.532945
_cell_angle_beta 69.032516
_cell_angle_gamma 38.697765
_cell_volume 754.075385
_symmetry_space_group_name_H-M "P -1"
_symmetry_group_IT_number 2
_symmetry_cell_setting 'triclinic'
loop_
_space_group_symop_operation_xyz
x,y,z
-x,-y,-z
loop_
_atom_site_type_symbol
_atom_site_label
_atom_site_fract_x
_atom_site_fract_y
_atom_site_fract_z
Si Si1 0.970231 0.010928 0.232332
Si Si2 0.770586 0.887037 0.616778
Si Si3 0.007598 0.240354 0.982125
Si Si4 0.664424 0.329681 0.512796
Si Si5 0.094952 0.480188 0.610755
Si Si6 0.232242 0.575720 0.342829
Si Si7 0.550818 0.906384 0.835938
Si Si8 0.784363 0.733221 0.133880
O O1 0.794798 0.225302 0.351948
O O2 0.986387 0.850289 0.149436
O O3 0.098840 0.840962 0.307917
O O4 0.002186 0.128732 0.123385
O O5 0.842443 0.746995 0.457155
O O6 0.620383 0.973628 0.727533
O O7 0.905659 0.707883 0.685534
O O8 0.716215 0.120234 0.594662
O O9 0.160017 0.162598 0.930916
O O10 0.857553 0.532950 0.012775
O O11 0.500000 0.500000 0.500000
O O12 0.650162 0.470590 0.617535
O O13 0.147177 0.558670 0.484632
O O14 0.161289 0.407123 0.735121
O O15 0.329090 0.376800 0.202121
O O16 0.401446 0.042951 0.805594
O O17 0.500000 0.000000 0.000000
#
# Coordination Sequence:
#
# PCOD8020711 Si02
#       8
#     2   2   2   2   2   2   2   2
#     4  11  23  47  68  94 139 170 226 263 334 400
#     4  10  24  42  67  98 132 174 219 275 334 389
#     4  10  25  40  72  96 126 180 221 271 323 396
#     4  12  27  42  68 100 140 170 219 280 337 387
#     4  10  22  42  72  96 127 175 228 276 320 392
#     4  11  25  44  70  98 131 180 220 270 338 394
#     4  11  27  45  66  98 139 172 221 277 330 394
#     4  11  24  41  69  98 133 169 232 266 331 387
#
# _framework density 21.218039000000001
#
# number of rings (size 3 to 8) (size 9 to 14) (size 15 to 20)
#    0.000    1.250    1.250    2.625   15.750    1.000 
#    0.000    1.250    0.000    0.000    0.000    0.000 
#    0.000    0.000    0.000    0.000    0.000    0.000 
#
# Total GULP energy -198445.414188 kJ/mol
# GULP energy per Si atom -12402.838387 kJ/mol
# Density = 2.116975 g / cm^3
# Si number density = 21.218039 Si / 1000 Ang^3
#
#
#
# Elastic Constant Matrix: (Units=GPa)
#
#
# Indices 1 2 3 4 5 6 
#
# 1 136.5022 53.2612 52.3757 3.9445 -4.4035 -5.2463
# 2 53.2612 76.6344 43.6341 4.5664 -6.6928 -3.3177
# 3 52.3757 43.6341 105.0848 2.6513 -4.3167 -3.0333
# 4 3.9445 4.5664 2.6513 26.4387 1.7797 -1.0919
# 5 -4.4035 -6.6928 -4.3167 1.7797 37.8269 4.2796
# 6 -5.2463 -3.3177 -3.0333 -1.0919 4.2796 48.9684
#
#
#
# Elastic Compliance Matrix: (Units=1/GPa)
#
#
# Indices 1 2 3 4 5 6 
#
# 1 0.010723 -0.005751 -0.002939 -0.000277 -0.000158 0.000585
# 2 -0.005751 0.020531 -0.005496 -0.002293 0.002424 0.000171
# 3 -0.002939 -0.005496 0.013273 0.000049 0.000184 0.000120
# 4 -0.000277 -0.002293 0.000049 0.038450 -0.002341 0.000880
# 5 -0.000158 0.002424 0.000184 -0.002341 0.027235 -0.002274
# 6 0.000585 0.000171 0.000120 0.000880 -0.002274 0.020721
#
#
# Mechanical properties :
#
#
# Convention : Reuss Voigt Hill
#
# Bulk Modulus (GPa) = 61.90305 68.52927 65.21616
# Shear Modulus (GPa) = 30.35984 33.91015 32.13500
#
# Velocity S-wave (km/s) = 3.78676 4.00206 3.89590
# Velocity P-wave (km/s) = 6.95395 7.32960 7.14425
#
# Compressibility (1/GPa) = 0.01615429
#
# Stress axis : x y z
#
# Youngs Moduli (GPa) = 93.25774 48.70625 75.34061
#
# Poissons Ratio (x) = 0.28011 0.22143
# Poissons Ratio (y) = 0.53632 0.41410
# Poissons Ratio (z) = 0.27410 0.26771
#
# Static dielectric constant tensor:
#      x y z
#    x 4.064020 0.015250 -0.052620 
#    y 0.015250 4.101080 0.386990 
#    z -0.052620 0.386990 4.021330 
# 
# 
# High freq. dielectric constant tensor:
#      x y z
#    x 1.847470 0.009620 0.001270 
#    y 0.009620 1.831740 0.003290 
#    z 0.001270 0.003290 1.834750 
# 
# From -- ./inp_files/207401.got.cif
#   From: 2010.06.25/outbox.cif.g09.slc.cpg/sg2_104_cif.got.tgz:207401.got - 2010.06.27 13:26:56.
