data_PCOD8020621
_publ_section_title
;
Structure prediction by ZEFSAII (Michael W. Deem and Ramdas Pophale) SiO2 
 PCOD8020621
Probable space group: P -1
;
_chemical_formula_sum "Si O2"
_cell_formula_units_Z 14
_cell_length_a 10.460634
_cell_length_b 11.885541
_cell_length_c 14.322092
_cell_angle_alpha 38.826633
_cell_angle_beta 143.608876
_cell_angle_gamma 124.515680
_cell_volume 653.548597
_symmetry_space_group_name_H-M "P -1"
_symmetry_group_IT_number 2
_symmetry_cell_setting 'triclinic'
loop_
_space_group_symop_operation_xyz
x,y,z
-x,-y,-z
loop_
_atom_site_type_symbol
_atom_site_label
_atom_site_fract_x
_atom_site_fract_y
_atom_site_fract_z
Si Si1 0.304502 0.665990 0.291738
Si Si2 0.992956 0.711141 0.246515
Si Si3 0.468760 0.203199 0.888261
Si Si4 0.872490 0.012038 0.516123
Si Si5 0.981317 0.316741 0.510203
Si Si6 0.901315 0.328986 0.015537
Si Si7 0.578912 0.963984 0.846721
O O1 0.500000 0.500000 0.500000
O O2 0.209700 0.683799 0.328929
O O3 0.404159 0.848414 0.210914
O O4 0.098489 0.659470 0.104848
O O5 0.063015 0.755319 0.365234
O O6 0.881543 0.528506 0.301956
O O7 0.811707 0.876680 0.993394
O O8 0.238941 0.306080 0.649702
O O9 0.644973 0.331455 0.883751
O O10 0.474356 0.186335 0.014332
O O11 0.500000 0.000000 0.000000
O O12 0.970402 0.854641 0.746821
O O13 0.881761 0.203977 0.445460
O O14 0.618469 0.996991 0.367482
O O15 0.000000 0.000000 0.500000
O O16 0.000000 0.500000 0.000000
#
# Coordination Sequence:
#
# PCOD8020621 Si02
#       7
#     2   2   2   2   2   2   2
#     4  12  25  43  71  99 140 183 236 292 353 416
#     4  10  24  43  67  98 137 182 237 289 348 426
#     4  11  18  40  67  94 130 180 230 284 335 413
#     4  12  24  41  69 104 140 179 237 289 342 412
#     4  10  22  42  70  95 134 188 237 281 350 423
#     4  12  25  39  64 108 141 173 230 298 350 397
#     4  11  23  41  66  98 132 189 226 283 355 410
#
# _framework density 21.421513999999998
#
# number of rings (size 3 to 8) (size 9 to 14) (size 15 to 20)
#    0.000    0.857    4.286    3.000    4.000    0.571 
#    0.000    7.143    0.000    0.000    0.000    0.000 
#    0.000    0.000    0.000    0.000    0.000    0.000 
#
# Total GULP energy -173557.247772 kJ/mol
# GULP energy per Si atom -12396.946269 kJ/mol
# Density = 2.137276 g / cm^3
# Si number density = 21.421514 Si / 1000 Ang^3
#
#
#
# Elastic Constant Matrix: (Units=GPa)
#
#
# Indices 1 2 3 4 5 6 
#
# 1 101.4146 29.6771 20.9364 2.1491 11.4757 -9.7777
# 2 29.6771 151.8283 40.9039 13.2389 3.9078 -11.1085
# 3 20.9364 40.9039 122.8414 0.2402 12.2550 -13.3164
# 4 2.1491 13.2389 0.2402 40.9802 -3.5688 0.4774
# 5 11.4757 3.9078 12.2550 -3.5688 32.4109 1.1008
# 6 -9.7777 -11.1085 -13.3164 0.4774 1.1008 34.6402
#
#
#
# Elastic Compliance Matrix: (Units=1/GPa)
#
#
# Indices 1 2 3 4 5 6 
#
# 1 0.011152 -0.001682 -0.000715 -0.000379 -0.003601 0.002453
# 2 -0.001682 0.007801 -0.002192 -0.002418 0.000177 0.001212
# 3 -0.000715 -0.002192 0.009622 0.000379 -0.003177 0.002890
# 4 -0.000379 -0.002418 0.000379 0.025487 0.003129 -0.001187
# 5 -0.003601 0.000177 -0.003177 0.003129 0.033765 -0.003297
# 6 0.002453 0.001212 0.002890 -0.001187 -0.003297 0.031181
#
#
# Mechanical properties :
#
#
# Convention : Reuss Voigt Hill
#
# Bulk Modulus (GPa) = 51.55532 62.12432 56.83982
# Shear Modulus (GPa) = 37.13262 40.57740 38.85501
#
# Velocity S-wave (km/s) = 4.16796 4.35700 4.26353
# Velocity P-wave (km/s) = 6.87618 7.37395 7.12941
#
# Compressibility (1/GPa) = 0.01939664
#
# Stress axis : x y z
#
# Youngs Moduli (GPa) = 89.66749 128.19292 103.92971
#
# Poissons Ratio (x) = 0.21563 0.07428
# Poissons Ratio (y) = 0.15083 0.22785
# Poissons Ratio (z) = 0.06409 0.28104
#
# Static dielectric constant tensor:
#      x y z
#    x 3.975380 -0.070820 -0.124710 
#    y -0.070820 3.915370 -0.115270 
#    z -0.124710 -0.115270 4.394690 
# 
# 
# High freq. dielectric constant tensor:
#      x y z
#    x 1.836290 -0.006000 -0.006650 
#    y -0.006000 1.836550 -0.012460 
#    z -0.006650 -0.012460 1.847620 
# 
# From -- ./inp_files/179019.got.cif
#   From: 2010.06.25/outbox.cif.g09.slc.cpg/sg2_90_cif.got.tgz:179019.got - 2010.06.27 13:26:56.
