data_PCOD8020717
_publ_section_title
;
Structure prediction by ZEFSAII (Michael W. Deem and Ramdas Pophale) SiO2 
 PCOD8020717
Probable space group: P -1
;
_chemical_formula_sum "Si O2"
_cell_formula_units_Z 16
_cell_length_a 11.904586
_cell_length_b 11.384206
_cell_length_c 11.753821
_cell_angle_alpha 69.724134
_cell_angle_beta 39.833387
_cell_angle_gamma 99.366903
_cell_volume 670.376718
_symmetry_space_group_name_H-M "P -1"
_symmetry_group_IT_number 2
_symmetry_cell_setting 'triclinic'
loop_
_space_group_symop_operation_xyz
x,y,z
-x,-y,-z
loop_
_atom_site_type_symbol
_atom_site_label
_atom_site_fract_x
_atom_site_fract_y
_atom_site_fract_z
Si Si1 0.272973 0.900876 0.929016
Si Si2 0.384814 0.665994 0.215325
Si Si3 0.294596 0.288575 0.225893
Si Si4 0.467844 0.255716 0.673024
Si Si5 0.540037 0.795727 0.677797
Si Si6 0.797821 0.501453 0.135157
Si Si7 0.970751 0.139450 0.090512
Si Si8 0.074027 0.734455 0.375299
O O1 0.385460 0.819980 0.859375
O O2 0.070821 0.817845 0.014071
O O3 0.490537 0.117928 0.679426
O O4 0.145395 0.848637 0.169078
O O5 0.421911 0.649795 0.322801
O O6 0.311274 0.775615 0.222969
O O7 0.159148 0.472824 0.403155
O O8 0.646617 0.766816 0.912350
O O9 0.297858 0.201460 0.362580
O O10 0.020105 0.215563 0.469797
O O11 0.500000 0.500000 0.000000
O O12 0.611639 0.411334 0.417071
O O13 0.172277 0.131663 0.930555
O O14 0.348409 0.602342 0.831994
O O15 0.709259 0.950030 0.400378
O O16 0.927736 0.702794 0.954525
O O17 0.000000 0.500000 0.000000
#
# Coordination Sequence:
#
# PCOD8020717 Si02
#       8
#     2   2   2   2   2   2   2   2
#     4  12  23  45  70 102 152 192 238 303 370 432
#     4  10  23  46  66 105 141 185 253 295 363 434
#     4  10  23  43  74 101 139 196 241 303 367 429
#     4  12  27  44  71 106 149 192 246 305 362 442
#     4  12  25  48  72 107 150 189 250 300 370 440
#     4  12  26  44  73 107 141 194 240 302 368 439
#     4  12  26  46  71 108 148 196 242 300 370 436
#     4  10  22  42  72  98 139 195 235 309 364 425
#
# _framework density 23.867176000000001
#
# number of rings (size 3 to 8) (size 9 to 14) (size 15 to 20)
#    0.000    0.750    3.750    3.375    5.250    0.500 
#    2.250    1.250    0.000    0.000    0.000    0.000 
#    0.000    0.000    0.000    0.000    0.000    0.000 
#
# Total GULP energy -198440.383967 kJ/mol
# GULP energy per Si atom -12402.523998 kJ/mol
# Density = 2.381285 g / cm^3
# Si number density = 23.867176 Si / 1000 Ang^3
#
#
#
# Elastic Constant Matrix: (Units=GPa)
#
#
# Indices 1 2 3 4 5 6 
#
# 1 61.8009 7.1294 4.8366 20.2911 -2.9359 -15.1880
# 2 7.1294 84.2571 18.8975 15.4122 -12.4302 -12.1777
# 3 4.8366 18.8975 71.3197 23.7202 -1.2980 -7.4645
# 4 20.2911 15.4122 23.7202 49.7036 -6.3243 -0.3450
# 5 -2.9359 -12.4302 -1.2980 -6.3243 30.5513 -0.3062
# 6 -15.1880 -12.1777 -7.4645 -0.3450 -0.3062 33.5869
#
#
#
# Elastic Compliance Matrix: (Units=1/GPa)
#
#
# Indices 1 2 3 4 5 6 
#
# 1 0.021990 0.001082 0.002874 -0.010532 0.000604 0.010872
# 2 0.001082 0.014376 -0.002193 -0.003147 0.005261 0.005230
# 3 0.002874 -0.002193 0.017902 -0.009225 -0.001721 0.004373
# 4 -0.010532 -0.003147 -0.009225 0.030188 0.003488 -0.007612
# 5 0.000604 0.005261 -0.001721 0.003488 0.035601 0.002159
# 6 0.010872 0.005230 0.004373 -0.007612 0.002159 0.037499
#
#
# Mechanical properties :
#
#
# Convention : Reuss Voigt Hill
#
# Bulk Modulus (GPa) = 17.30291 31.01162 24.15727
# Shear Modulus (GPa) = 28.85234 35.20265 32.02749
#
# Velocity S-wave (km/s) = 3.48065 3.84466 3.66718
# Velocity P-wave (km/s) = 4.83928 5.72103 5.29853
#
# Compressibility (1/GPa) = 0.05779374
#
# Stress axis : x y z
#
# Youngs Moduli (GPa) = 45.47567 69.55829 55.85933
#
# Poissons Ratio (x) = -0.07524 -0.16053
# Poissons Ratio (y) = -0.04919 0.12249
# Poissons Ratio (z) = -0.13069 0.15253
#
# Static dielectric constant tensor:
#      x y z
#    x 4.141590 -0.176050 0.026720 
#    y -0.176050 4.565990 0.288230 
#    z 0.026720 0.288230 4.479640 
# 
# 
# High freq. dielectric constant tensor:
#      x y z
#    x 1.941380 -0.012950 0.005020 
#    y -0.012950 1.956740 0.010350 
#    z 0.005020 0.010350 1.943360 
# 
# From -- ./inp_files/391661.got.cif
#   From: 2010.06.25/outbox.cif.g09.slc.cpg/sg2_196_cif.got.tgz:391661.got - 2010.06.27 13:26:56.
