data_PCOD8020949
_publ_section_title
;
Structure prediction by ZEFSAII (Michael W. Deem and Ramdas Pophale) SiO2 
 PCOD8020949
Probable space group: P -1
;
_chemical_formula_sum "Si O2"
_cell_formula_units_Z 16
_cell_length_a 25.347010
_cell_length_b 6.926469
_cell_length_c 5.292956
_cell_angle_alpha 71.071057
_cell_angle_beta 127.042026
_cell_angle_gamma 93.067823
_cell_volume 689.115487
_symmetry_space_group_name_H-M "P -1"
_symmetry_group_IT_number 2
_symmetry_cell_setting 'triclinic'
loop_
_space_group_symop_operation_xyz
x,y,z
-x,-y,-z
loop_
_atom_site_type_symbol
_atom_site_label
_atom_site_fract_x
_atom_site_fract_y
_atom_site_fract_z
Si Si1 0.543361 0.503795 0.373425
Si Si2 0.842716 0.306204 0.853032
Si Si3 0.634019 0.830767 0.441422
Si Si4 0.645985 0.082968 0.858029
Si Si5 0.778312 0.667648 0.875210
Si Si6 0.128951 0.132597 0.656238
Si Si7 0.789635 0.053052 0.442904
Si Si8 0.992472 0.373059 0.279181
O O1 0.500000 0.500000 0.500000
O O2 0.572041 0.714535 0.342485
O O3 0.603910 0.311725 0.659988
O O4 0.500000 0.500000 0.000000
O O5 0.799610 0.500128 0.789055
O O6 0.810474 0.274033 0.496107
O O7 0.920927 0.310081 0.080774
O O8 0.833484 0.091146 0.042964
O O9 0.703304 0.658661 0.756469
O O10 0.625847 0.995445 0.572666
O O11 0.630967 0.941003 0.110985
O O12 0.724591 0.104594 0.054053
O O13 0.769235 0.907790 0.662159
O O14 0.836692 0.666065 0.257443
O O15 0.052020 0.171794 0.512577
O O16 0.142715 0.097180 0.412985
O O17 0.000000 0.500000 0.500000
O O18 0.000000 0.500000 0.000000
#
# Coordination Sequence:
#
# PCOD8020949 Si02
#       8
#     2   2   2   2   2   2   2   2
#     4  12  28  47  73 110 147 188 241 288 349 439
#     4  11  25  41  69 101 136 189 230 298 356 413
#     4  11  25  45  75 105 142 197 233 294 363 420
#     4  11  25  47  73 105 149 185 242 297 356 424
#     4  10  22  43  66 100 138 177 238 288 354 417
#     4  11  23  43  69  97 138 176 239 289 353 418
#     4  10  24  41  68 102 136 181 234 301 348 420
#     4  12  27  46  69  95 140 190 235 289 354 426
#
# _framework density 23.218167999999999
#
# number of rings (size 3 to 8) (size 9 to 14) (size 15 to 20)
#    0.000    1.000    2.500    2.625    5.250    7.500 
#    0.000    0.000    0.000    0.000    0.000    0.000 
#    0.000    0.000    0.000    0.000    0.000    0.000 
#
# Total GULP energy -198233.921626 kJ/mol
# GULP energy per Si atom -12389.620102 kJ/mol
# Density = 2.316532 g / cm^3
# Si number density = 23.218168 Si / 1000 Ang^3
#
#
#
# Elastic Constant Matrix: (Units=GPa)
#
#
# Indices 1 2 3 4 5 6 
#
# 1 114.1404 40.9514 31.7715 16.5998 0.9416 -9.1142
# 2 40.9514 136.0661 34.1838 27.5764 9.2842 -11.8947
# 3 31.7715 34.1838 78.1867 22.8879 6.3296 -2.8557
# 4 16.5998 27.5764 22.8879 47.3143 -2.9038 4.6364
# 5 0.9416 9.2842 6.3296 -2.9038 35.4287 5.9239
# 6 -9.1142 -11.8947 -2.8557 4.6364 5.9239 43.5552
#
#
#
# Elastic Compliance Matrix: (Units=1/GPa)
#
#
# Indices 1 2 3 4 5 6 
#
# 1 0.010651 -0.002104 -0.003053 -0.001153 0.000466 0.001513
# 2 -0.002104 0.009836 -0.001721 -0.004652 -0.003106 0.003051
# 3 -0.003053 -0.001721 0.016970 -0.006443 -0.003216 0.001127
# 4 -0.001153 -0.004652 -0.006443 0.028276 0.005674 -0.005716
# 5 0.000466 -0.003106 -0.003216 0.005674 0.031034 -0.005786
# 6 0.001513 0.003051 0.001127 -0.005716 -0.005786 0.025578
#
#
# Mechanical properties :
#
#
# Convention : Reuss Voigt Hill
#
# Bulk Modulus (GPa) = 42.19160 60.24520 51.21840
# Shear Modulus (GPa) = 34.72149 40.02539 37.37344
#
# Velocity S-wave (km/s) = 3.87129 4.15647 4.01641
# Velocity P-wave (km/s) = 6.18011 7.00277 6.60426
#
# Compressibility (1/GPa) = 0.02370140
#
# Stress axis : x y z
#
# Youngs Moduli (GPa) = 93.89158 101.66304 58.92589
#
# Poissons Ratio (x) = 0.21394 0.17989
# Poissons Ratio (y) = 0.19758 0.10140
# Poissons Ratio (z) = 0.28663 0.17495
#
# Static dielectric constant tensor:
#      x y z
#    x 4.146090 -0.019720 -0.018690 
#    y -0.019720 4.281960 0.307540 
#    z -0.018690 0.307540 4.608930 
# 
# 
# High freq. dielectric constant tensor:
#      x y z
#    x 1.929160 -0.002420 0.003040 
#    y -0.002420 1.930350 0.009150 
#    z 0.003040 0.009150 1.919330 
# 
# From -- ./inp_files/10806.got.cif
#   From: 2010.06.25/outbox.cif.g09.slc.cpg/sg2_6_cif.got.tgz:10806.got - 2010.06.27 13:26:56.
