data_PCOD8020399
_publ_section_title
;
Structure prediction by ZEFSAII (Michael W. Deem and Ramdas Pophale) SiO2 
 PCOD8020399
Probable space group: P -1
;
_chemical_formula_sum "Si O2"
_cell_formula_units_Z 12
_cell_length_a 8.969448
_cell_length_b 9.511023
_cell_length_c 11.946345
_cell_angle_alpha 75.829188
_cell_angle_beta 129.779453
_cell_angle_gamma 134.208717
_cell_volume 522.573789
_symmetry_space_group_name_H-M "P -1"
_symmetry_group_IT_number 2
_symmetry_cell_setting 'triclinic'
loop_
_space_group_symop_operation_xyz
x,y,z
-x,-y,-z
loop_
_atom_site_type_symbol
_atom_site_label
_atom_site_fract_x
_atom_site_fract_y
_atom_site_fract_z
Si Si1 0.720465 0.281049 0.853987
Si Si2 0.857652 0.075375 0.242100
Si Si3 0.312971 0.771129 0.502869
Si Si4 0.431604 0.296572 0.512926
Si Si5 0.183923 0.989777 0.018773
Si Si6 0.209739 0.665545 0.726387
O O1 0.616045 0.310412 0.689519
O O2 0.462132 0.147524 0.844644
O O3 0.784933 0.149195 0.876609
O O4 0.000000 0.500000 0.000000
O O5 0.934852 0.105350 0.142576
O O6 0.905242 0.268689 0.262235
O O7 0.092833 0.100729 0.410732
O O8 0.490374 0.722616 0.569097
O O9 0.256364 0.761860 0.607664
O O10 0.007151 0.586743 0.330931
O O11 0.500000 0.000000 0.500000
O O12 0.500000 0.500000 0.500000
O O13 0.491344 0.230993 0.106723
O O14 0.000000 0.000000 0.000000
#
# Coordination Sequence:
#
# PCOD8020399 Si02
#       6
#     2   2   2   2   2   2
#     4  11  25  43  70 108 141 187 240 288 357 434
#     4  11  23  45  73 103 144 187 234 294 364 429
#     4  11  23  41  68 102 142 182 240 292 355 418
#     4  12  24  43  71 101 144 186 237 292 357 424
#     4  11  24  47  74 101 145 187 236 298 366 422
#     4  10  22  42  68 103 142 187 234 293 361 425
#
# _framework density 22.963266000000001
#
# number of rings (size 3 to 8) (size 9 to 14) (size 15 to 20)
#    0.000    1.000    1.667    6.500    2.333    0.000 
#    3.000    0.833    0.000    0.000    0.000    0.000 
#    0.000    0.000    0.000    0.000    0.000    0.000 
#
# Total GULP energy -148711.020512 kJ/mol
# GULP energy per Si atom -12392.585043 kJ/mol
# Density = 2.291100 g / cm^3
# Si number density = 22.963266 Si / 1000 Ang^3
#
#
#
# Elastic Constant Matrix: (Units=GPa)
#
#
# Indices 1 2 3 4 5 6 
#
# 1 186.0529 50.7407 70.2418 0.7733 1.7133 -15.3358
# 2 50.7407 141.6371 56.7862 14.4967 2.8060 1.1050
# 3 70.2418 56.7862 144.6076 11.8757 16.7664 -4.1483
# 4 0.7733 14.4967 11.8757 45.3271 3.1241 3.7827
# 5 1.7133 2.8060 16.7664 3.1241 49.7666 2.3517
# 6 -15.3358 1.1050 -4.1483 3.7827 2.3517 31.4583
#
#
#
# Elastic Compliance Matrix: (Units=1/GPa)
#
#
# Indices 1 2 3 4 5 6 
#
# 1 0.007127 -0.001500 -0.002929 0.000832 0.000632 0.002994
# 2 -0.001500 0.008888 -0.002702 -0.002053 0.000647 -0.001201
# 3 -0.002929 -0.002702 0.009881 -0.001499 -0.002999 0.000375
# 4 0.000832 -0.002053 -0.001499 0.023356 -0.000757 -0.002472
# 5 0.000632 0.000647 -0.002999 -0.000757 0.021169 -0.001602
# 6 0.002994 -0.001201 0.000375 -0.002472 -0.001602 0.033756
#
#
# Mechanical properties :
#
#
# Convention : Reuss Voigt Hill
#
# Bulk Modulus (GPa) = 85.95908 91.98165 88.97037
# Shear Modulus (GPa) = 40.87770 44.94567 42.91168
#
# Velocity S-wave (km/s) = 4.22374 4.42892 4.32755
# Velocity P-wave (km/s) = 7.82951 8.14228 7.98743
#
# Compressibility (1/GPa) = 0.01163344
#
# Stress axis : x y z
#
# Youngs Moduli (GPa) = 140.31058 112.51304 101.20881
#
# Poissons Ratio (x) = 0.16878 0.29640
# Poissons Ratio (y) = 0.21048 0.27350
# Poissons Ratio (z) = 0.41091 0.30405
#
# Static dielectric constant tensor:
#      x y z
#    x 4.355570 0.095680 0.246220 
#    y 0.095680 4.056590 0.377590 
#    z 0.246220 0.377590 4.467280 
# 
# 
# High freq. dielectric constant tensor:
#      x y z
#    x 1.922710 0.009420 0.000810 
#    y 0.009420 1.892690 0.030310 
#    z 0.000810 0.030310 1.916950 
# 
# From -- ./inp_files/186277.got.cif
#   From: 2010.06.25/outbox.cif.g09.slc.cpg/sg2_94_cif.got.tgz:186277.got - 2010.06.27 13:26:56.
