data_PCOD8020178
_publ_section_title
;
Structure prediction by ZEFSAII (Michael W. Deem and Ramdas Pophale) SiO2 
 PCOD8020178
Probable space group: P -1
;
_chemical_formula_sum "Si O2"
_cell_formula_units_Z 14
_cell_length_a 12.887157
_cell_length_b 11.378752
_cell_length_c 21.135324
_cell_angle_alpha 157.997335
_cell_angle_beta 146.498568
_cell_angle_gamma 34.835921
_cell_volume 623.653442
_symmetry_space_group_name_H-M "P -1"
_symmetry_group_IT_number 2
_symmetry_cell_setting 'triclinic'
loop_
_space_group_symop_operation_xyz
x,y,z
-x,-y,-z
loop_
_atom_site_type_symbol
_atom_site_label
_atom_site_fract_x
_atom_site_fract_y
_atom_site_fract_z
Si Si1 0.958947 0.872332 0.182482
Si Si2 0.594011 0.268100 0.769636
Si Si3 0.311536 0.740708 0.674249
Si Si4 0.651351 0.208472 0.619703
Si Si5 0.951102 0.765197 0.712433
Si Si6 0.412045 0.213942 0.874797
Si Si7 0.812096 0.242636 0.052834
O O1 0.120934 0.876887 0.321713
O O2 0.750149 0.984378 0.165729
O O3 0.965744 0.126365 0.256560
O O4 0.000000 0.500000 0.000000
O O5 0.643922 0.265548 0.719985
O O6 0.417477 0.092599 0.595059
O O7 0.782487 0.063499 0.800687
O O8 0.540919 0.607214 0.947786
O O9 0.529648 0.539097 0.693986
O O10 0.152289 0.530792 0.495679
O O11 0.322393 0.912043 0.697663
O O12 0.127502 0.667612 0.801794
O O13 0.250257 0.430873 0.856348
O O14 0.619347 0.096455 0.885818
O O15 0.000000 0.000000 0.000000
#
# Coordination Sequence:
#
# PCOD8020178 Si02
#       7
#     2   2   2   2   2   2   2
#     4  11  24  38  64 102 131 168 213 249 317 401
#     4   9  18  39  62  90 127 165 208 249 315 385
#     4  11  24  40  64 101 130 165 210 258 326 388
#     4   9  21  36  58  94 134 163 191 259 318 375
#     4  10  22  42  66  92 133 171 207 265 319 372
#     4  11  25  41  67  96 121 169 226 258 319 381
#     4  11  25  45  68  88 124 172 220 277 314 362
#
# _framework density 22.448364000000002
#
# number of rings (size 3 to 8) (size 9 to 14) (size 15 to 20)
#    0.000    1.714    1.429    3.000    6.000    1.714 
#    0.000    0.714    0.000    0.000    0.000    0.000 
#    0.000    0.000    0.000    0.000    0.000    0.000 
#
# Total GULP energy -173440.763100 kJ/mol
# GULP energy per Si atom -12388.625936 kJ/mol
# Density = 2.239727 g / cm^3
# Si number density = 22.448364 Si / 1000 Ang^3
#
#
#
# Elastic Constant Matrix: (Units=GPa)
#
#
# Indices 1 2 3 4 5 6 
#
# 1 88.8791 50.5631 26.1013 17.6106 23.5321 1.8131
# 2 50.5631 149.1062 42.3989 -3.0286 13.3583 18.0803
# 3 26.1013 42.3989 52.1430 12.5898 20.9291 11.2655
# 4 17.6106 -3.0286 12.5898 34.7149 6.0441 1.8754
# 5 23.5321 13.3583 20.9291 6.0441 30.5987 12.0438
# 6 1.8131 18.0803 11.2655 1.8754 12.0438 36.3606
#
#
#
# Elastic Compliance Matrix: (Units=1/GPa)
#
#
# Indices 1 2 3 4 5 6 
#
# 1 0.020576 -0.007473 0.002721 -0.009794 -0.015424 0.007461
# 2 -0.007473 0.012182 -0.009932 0.007370 0.007983 -0.005632
# 3 0.002721 -0.009932 0.037073 -0.012069 -0.021094 0.000926
# 4 -0.009794 0.007370 -0.012069 0.037857 0.006484 -0.003537
# 5 -0.015424 0.007983 -0.021094 0.006484 0.060974 -0.017196
# 6 0.007461 -0.005632 0.000926 -0.003537 -0.017196 0.035522
#
#
# Mechanical properties :
#
#
# Convention : Reuss Voigt Hill
#
# Bulk Modulus (GPa) = 24.71423 58.69498 41.70461
# Shear Modulus (GPa) = 20.23965 31.73918 25.98942
#
# Velocity S-wave (km/s) = 3.00594 3.76423 3.40625
# Velocity P-wave (km/s) = 4.80425 6.71536 5.83853
#
# Compressibility (1/GPa) = 0.04046252
#
# Stress axis : x y z
#
# Youngs Moduli (GPa) = 48.60071 82.08575 26.97387
#
# Poissons Ratio (x) = 0.61341 -0.07338
# Poissons Ratio (y) = 0.36318 0.26791
# Poissons Ratio (z) = -0.13222 0.81528
#
# Static dielectric constant tensor:
#      x y z
#    x 3.968430 -0.221600 0.213990 
#    y -0.221600 4.581240 -0.162660 
#    z 0.213990 -0.162660 3.924550 
# 
# 
# High freq. dielectric constant tensor:
#      x y z
#    x 1.871440 -0.012970 0.009590 
#    y -0.012970 1.901810 0.001780 
#    z 0.009590 0.001780 1.867820 
# 
# From -- ./inp_files/213439.got.cif
#   From: 2010.06.25/outbox.cif.g09.slc.cpg/sg2_107_cif.got.tgz:213439.got - 2010.06.27 13:26:56.
