data_PCOD8020189
_publ_section_title
;
Structure prediction by ZEFSAII (Michael W. Deem and Ramdas Pophale) SiO2 
 PCOD8020189
Probable space group: P -1
;
_chemical_formula_sum "Si O2"
_cell_formula_units_Z 16
_cell_length_a 20.927626
_cell_length_b 9.327072
_cell_length_c 12.096540
_cell_angle_alpha 34.000978
_cell_angle_beta 144.803515
_cell_angle_gamma 144.368004
_cell_volume 690.734322
_symmetry_space_group_name_H-M "P -1"
_symmetry_group_IT_number 2
_symmetry_cell_setting 'triclinic'
loop_
_space_group_symop_operation_xyz
x,y,z
-x,-y,-z
loop_
_atom_site_type_symbol
_atom_site_label
_atom_site_fract_x
_atom_site_fract_y
_atom_site_fract_z
Si Si1 0.169764 0.569686 0.671861
Si Si2 0.470224 0.165997 0.450931
Si Si3 0.921618 0.055751 0.103608
Si Si4 0.795402 0.288078 0.610887
Si Si5 0.621031 0.470861 0.653977
Si Si6 0.832974 0.948735 0.516800
Si Si7 0.406874 0.679922 0.053945
Si Si8 0.856508 0.896212 0.347576
O O1 0.111359 0.236132 0.821093
O O2 0.141897 0.645031 0.462059
O O3 0.111339 0.729542 0.565835
O O4 0.314374 0.680972 0.827822
O O5 0.571905 0.209403 0.663018
O O6 0.473227 0.479418 0.233893
O O7 0.500000 0.000000 0.500000
O O8 0.331684 0.981578 0.408499
O O9 0.842778 0.018887 0.129591
O O10 0.066751 0.183051 0.252268
O O11 0.890834 0.257272 0.850964
O O12 0.777036 0.559869 0.450584
O O13 0.500000 0.500000 0.500000
O O14 0.717530 0.751681 0.551999
O O15 0.669773 0.416066 0.876134
O O16 0.801005 0.984586 0.320052
O O17 0.500000 0.000000 0.000000
O O18 0.000000 0.000000 0.500000
#
# Coordination Sequence:
#
# PCOD8020189 Si02
#       8
#     2   2   2   2   2   2   2   2
#     4  11  22  41  64  98 132 174 225 280 336 401
#     4  11  22  41  69  97 129 176 232 277 338 411
#     4  10  23  43  67  96 136 183 218 273 349 394
#     4  11  22  43  68  93 140 177 214 282 344 401
#     4  10  22  42  66  93 135 181 220 278 345 398
#     4  11  22  42  66 100 132 173 234 276 325 418
#     4  11  22  42  66  96 138 181 224 286 349 398
#     4   9  22  43  65  95 136 176 219 276 333 398
#
# _framework density 23.163754000000001
#
# number of rings (size 3 to 8) (size 9 to 14) (size 15 to 20)
#    0.000    1.500    1.250    4.875    0.000    2.500 
#   11.250    2.500    0.000    0.000    0.000    0.000 
#    0.000    0.000    0.000    0.000    0.000    0.000 
#
# Total GULP energy -198219.436558 kJ/mol
# GULP energy per Si atom -12388.714785 kJ/mol
# Density = 2.311103 g / cm^3
# Si number density = 23.163754 Si / 1000 Ang^3
#
#
#
# Elastic Constant Matrix: (Units=GPa)
#
#
# Indices 1 2 3 4 5 6 
#
# 1 118.6978 19.8150 33.1859 -10.8746 -22.1530 -27.9280
# 2 19.8150 81.0653 -2.3641 -7.8994 -12.3064 -15.8664
# 3 33.1859 -2.3641 97.8749 6.4615 -21.1679 -14.8171
# 4 -10.8746 -7.8994 6.4615 31.7905 -1.9175 -0.0159
# 5 -22.1530 -12.3064 -21.1679 -1.9175 27.0899 7.7846
# 6 -27.9280 -15.8664 -14.8171 -0.0159 7.7846 51.9700
#
#
#
# Elastic Compliance Matrix: (Units=1/GPa)
#
#
# Indices 1 2 3 4 5 6 
#
# 1 0.011924 -0.000586 -0.002214 0.004794 0.006777 0.004584
# 2 -0.000586 0.014735 0.002485 0.003398 0.007306 0.003799
# 3 -0.002214 0.002485 0.013455 -0.002326 0.009080 0.002044
# 4 0.004794 0.003398 -0.002326 0.034746 0.005492 0.002139
# 5 0.006777 0.007306 0.009080 0.005492 0.053113 0.000507
# 6 0.004584 0.003799 0.002044 0.002139 0.000507 0.023373
#
#
# Mechanical properties :
#
#
# Convention : Reuss Voigt Hill
#
# Bulk Modulus (GPa) = 25.32628 44.32349 34.82489
# Shear Modulus (GPa) = 30.27807 38.63683 34.45745
#
# Velocity S-wave (km/s) = 3.61935 4.08853 3.86107
# Velocity P-wave (km/s) = 5.33138 6.43929 5.91135
#
# Compressibility (1/GPa) = 0.03948468
#
# Stress axis : x y z
#
# Youngs Moduli (GPa) = 83.86289 67.86453 74.32384
#
# Poissons Ratio (x) = 0.03977 0.16456
# Poissons Ratio (y) = 0.04915 -0.18473
# Poissons Ratio (z) = 0.18568 -0.16867
#
# Static dielectric constant tensor:
#      x y z
#    x 4.507070 -0.528430 -0.550440 
#    y -0.528430 4.657120 0.318530 
#    z -0.550440 0.318530 4.431560 
# 
# 
# High freq. dielectric constant tensor:
#      x y z
#    x 1.907240 -0.015190 -0.017170 
#    y -0.015190 1.938700 0.008910 
#    z -0.017170 0.008910 1.894510 
# 
# From -- ./inp_files/469786.got.cif
#   From: 2010.06.25/outbox.cif.g09.slc.cpg/sg2_235_cif.got.tgz:469786.got - 2010.06.27 13:26:56.
