data_PCOD8020872
_publ_section_title
;
Structure prediction by ZEFSAII (Michael W. Deem and Ramdas Pophale) SiO2 
 PCOD8020872
Probable space group: P -1
;
_chemical_formula_sum "Si O2"
_cell_formula_units_Z 14
_cell_length_a 11.462821
_cell_length_b 9.032878
_cell_length_c 11.686024
_cell_angle_alpha 59.184008
_cell_angle_beta 68.553444
_cell_angle_gamma 40.254213
_cell_volume 670.788539
_symmetry_space_group_name_H-M "P -1"
_symmetry_group_IT_number 2
_symmetry_cell_setting 'triclinic'
loop_
_space_group_symop_operation_xyz
x,y,z
-x,-y,-z
loop_
_atom_site_type_symbol
_atom_site_label
_atom_site_fract_x
_atom_site_fract_y
_atom_site_fract_z
Si Si1 0.242514 0.030498 0.343269
Si Si2 0.113151 0.905963 0.243972
Si Si3 0.727398 0.414900 0.165579
Si Si4 0.362625 0.305202 0.690458
Si Si5 0.382538 0.226190 0.138056
Si Si6 0.045237 0.626095 0.501972
Si Si7 0.565030 0.505069 0.854071
O O1 0.224894 0.238826 0.208677
O O2 0.125980 0.138793 0.456963
O O3 0.174975 0.951235 0.313746
O O4 0.455589 0.786836 0.391676
O O5 0.092842 0.727536 0.355631
O O6 0.259538 0.772267 0.143137
O O7 0.928774 0.164362 0.155982
O O8 0.729054 0.480554 0.268180
O O9 0.599211 0.372006 0.223338
O O10 0.652415 0.635855 0.020100
O O11 0.218162 0.413565 0.601697
O O12 0.423175 0.064436 0.823934
O O13 0.389273 0.339272 0.205088
O O14 0.000000 0.500000 0.500000
O O15 0.500000 0.500000 0.000000
#
# Coordination Sequence:
#
# PCOD8020872 Si02
#       7
#     2   2   2   2   2   2   2
#     4  10  23  44  64 100 128 176 223 261 330 391
#     4  12  25  41  69  99 131 176 224 265 332 390
#     4  11  22  42  69  98 135 173 215 277 323 396
#     4  10  23  43  67  93 133 176 218 266 329 390
#     4   9  22  42  65  98 135 168 222 260 338 380
#     4  12  27  45  66  97 134 173 226 275 325 389
#     4  10  22  43  64  98 134 171 217 268 329 387
#
# _framework density 20.870958000000002
#
# number of rings (size 3 to 8) (size 9 to 14) (size 15 to 20)
#    0.857    0.571    2.857    1.714    2.000    5.143 
#    5.143    0.000    0.000    0.000    0.000    0.000 
#    0.000    0.000    0.000    0.000    0.000    0.000 
#
# Total GULP energy -173540.286176 kJ/mol
# GULP energy per Si atom -12395.734727 kJ/mol
# Density = 2.082346 g / cm^3
# Si number density = 20.870958 Si / 1000 Ang^3
#
#
#
# Elastic Constant Matrix: (Units=GPa)
#
#
# Indices 1 2 3 4 5 6 
#
# 1 132.3721 62.4286 31.5165 -6.3457 8.1979 5.6714
# 2 62.4286 152.2159 33.4354 21.4742 12.7926 -11.4588
# 3 31.5165 33.4354 74.9005 -0.2379 4.2465 -5.2841
# 4 -6.3457 21.4742 -0.2379 32.5409 -3.9402 0.4844
# 5 8.1979 12.7926 4.2465 -3.9402 33.3071 -4.3616
# 6 5.6714 -11.4588 -5.2841 0.4844 -4.3616 48.7092
#
#
#
# Elastic Compliance Matrix: (Units=1/GPa)
#
#
# Indices 1 2 3 4 5 6 
#
# 1 0.010816 -0.004802 -0.002571 0.005273 -0.000225 -0.002741
# 2 -0.004802 0.010743 -0.002431 -0.008482 -0.003296 0.002612
# 3 -0.002571 -0.002431 0.015626 0.001184 -0.000102 0.001402
# 4 0.005273 -0.008482 0.001184 0.038128 0.006015 -0.002321
# 5 -0.000225 -0.003296 -0.000102 0.006015 0.032341 0.002076
# 6 -0.002741 0.002612 0.001402 -0.002321 0.002076 0.021825
#
#
# Mechanical properties :
#
#
# Convention : Reuss Voigt Hill
#
# Bulk Modulus (GPa) = 56.89305 68.24993 62.57149
# Shear Modulus (GPa) = 32.26914 38.38532 35.32723
#
# Velocity S-wave (km/s) = 3.93635 4.29321 4.11865
# Velocity P-wave (km/s) = 6.92664 7.57281 7.25692
#
# Compressibility (1/GPa) = 0.01757684
#
# Stress axis : x y z
#
# Youngs Moduli (GPa) = 92.45902 93.08017 63.99388
#
# Poissons Ratio (x) = 0.44701 0.16453
# Poissons Ratio (y) = 0.44402 0.15556
# Poissons Ratio (z) = 0.23772 0.22627
#
# Static dielectric constant tensor:
#      x y z
#    x 4.359880 0.161520 -0.066560 
#    y 0.161520 3.916740 0.042880 
#    z -0.066560 0.042880 3.354660 
# 
# 
# High freq. dielectric constant tensor:
#      x y z
#    x 1.836250 0.006550 -0.000930 
#    y 0.006550 1.827040 0.007270 
#    z -0.000930 0.007270 1.790450 
# 
# From -- ./inp_files/387671.got.cif
#   From: 2010.06.25/outbox.cif.g09.slc.cpg/sg2_194_cif.got.tgz:387671.got - 2010.06.27 13:26:56.
