data_PCOD8020045
_publ_section_title
;
Structure prediction by ZEFSAII (Michael W. Deem and Ramdas Pophale) SiO2 
 PCOD8020045
Probable space group: P -1
;
_chemical_formula_sum "Si O2"
_cell_formula_units_Z 16
_cell_length_a 12.147487
_cell_length_b 20.915543
_cell_length_c 12.225941
_cell_angle_alpha 27.181564
_cell_angle_beta 38.134901
_cell_angle_gamma 28.419929
_cell_volume 675.207348
_symmetry_space_group_name_H-M "P -1"
_symmetry_group_IT_number 2
_symmetry_cell_setting 'triclinic'
loop_
_space_group_symop_operation_xyz
x,y,z
-x,-y,-z
loop_
_atom_site_type_symbol
_atom_site_label
_atom_site_fract_x
_atom_site_fract_y
_atom_site_fract_z
Si Si1 0.403837 0.447832 0.913877
Si Si2 0.103345 0.160049 0.903803
Si Si3 0.604203 0.935593 0.803891
Si Si4 0.378638 0.389043 0.789317
Si Si5 0.221112 0.523966 0.475668
Si Si6 0.019889 0.325040 0.938632
Si Si7 0.639936 0.042809 0.392113
Si Si8 0.903087 0.112459 0.793007
O O1 0.272695 0.492689 0.830813
O O2 0.546791 0.524138 0.688100
O O3 0.584482 0.229517 0.114791
O O4 0.218773 0.529014 0.032673
O O5 0.958616 0.278203 0.944296
O O6 0.001706 0.280938 0.689169
O O7 0.369083 0.071246 0.849420
O O8 0.099910 0.996842 0.137871
O O9 0.596907 0.057750 0.531904
O O10 0.623971 0.776823 0.967936
O O11 0.819244 0.854660 0.839320
O O12 0.237586 0.529576 0.585822
O O13 0.647420 0.307237 0.705660
O O14 0.173229 0.385571 0.696079
O O15 0.500000 0.000000 0.500000
O O16 0.907281 0.870216 0.420458
O O17 0.000000 0.000000 0.000000
#
# Coordination Sequence:
#
# PCOD8020045 Si02
#       8
#     2   2   2   2   2   2   2   2
#     4  12  24  44  66 105 139 177 228 278 353 414
#     4  11  22  48  70  96 133 184 235 278 343 408
#     4  10  23  43  69  99 131 180 233 287 341 401
#     4  10  22  42  65 102 134 177 224 287 348 402
#     4  11  24  43  68 100 138 183 225 286 341 405
#     4  11  27  45  68  99 143 185 225 284 344 414
#     4  12  22  41  68 103 135 174 227 285 345 409
#     4  11  21  41  70  97 134 175 232 287 340 401
#
# _framework density 23.696422999999999
#
# number of rings (size 3 to 8) (size 9 to 14) (size 15 to 20)
#    0.000    1.000    3.750    2.625    1.750    3.500 
#    4.500    0.625    0.000    0.000    0.000    0.000 
#    0.000    0.000    0.000    0.000    0.000    0.000 
#
# Total GULP energy -198335.136621 kJ/mol
# GULP energy per Si atom -12395.946039 kJ/mol
# Density = 2.364249 g / cm^3
# Si number density = 23.696423 Si / 1000 Ang^3
#
#
#
# Elastic Constant Matrix: (Units=GPa)
#
#
# Indices 1 2 3 4 5 6 
#
# 1 93.4788 46.4735 34.9227 2.0806 7.0668 9.4625
# 2 46.4735 114.0298 17.0640 14.8617 5.0935 6.9515
# 3 34.9227 17.0640 79.4194 16.5161 2.5382 3.5707
# 4 2.0806 14.8617 16.5161 32.0364 -9.5596 4.4786
# 5 7.0668 5.0935 2.5382 -9.5596 34.3029 -4.6409
# 6 9.4625 6.9515 3.5707 4.4786 -4.6409 44.7060
#
#
#
# Elastic Compliance Matrix: (Units=1/GPa)
#
#
# Indices 1 2 3 4 5 6 
#
# 1 0.016614 -0.006256 -0.006973 0.005550 -0.000786 -0.002625
# 2 -0.006256 0.012086 0.001658 -0.006779 -0.002555 -0.000274
# 3 -0.006973 0.001658 0.017508 -0.010283 -0.002897 0.000549
# 4 0.005550 -0.006779 -0.010283 0.043323 0.012379 -0.002354
# 5 -0.000786 -0.002555 -0.002897 0.012379 0.033772 0.003061
# 6 -0.002625 -0.000274 0.000549 -0.002354 0.003061 0.023476
#
#
# Mechanical properties :
#
#
# Convention : Reuss Voigt Hill
#
# Bulk Modulus (GPa) = 43.35398 53.76094 48.55746
# Shear Modulus (GPa) = 28.15180 34.77359 31.46269
#
# Velocity S-wave (km/s) = 3.45050 3.83490 3.64777
# Velocity P-wave (km/s) = 5.84893 6.50732 6.18689
#
# Compressibility (1/GPa) = 0.02306593
#
# Stress axis : x y z
#
# Youngs Moduli (GPa) = 60.18893 82.74350 57.11801
#
# Poissons Ratio (x) = 0.51765 0.39826
# Poissons Ratio (y) = 0.37655 -0.09470
# Poissons Ratio (z) = 0.41968 -0.13719
#
# Static dielectric constant tensor:
#      x y z
#    x 4.395890 -0.225270 0.084550 
#    y -0.225270 4.199600 0.054400 
#    z 0.084550 0.054400 4.391340 
# 
# 
# High freq. dielectric constant tensor:
#      x y z
#    x 1.942290 -0.011670 0.005720 
#    y -0.011670 1.927130 0.002260 
#    z 0.005720 0.002260 1.939950 
# 
# From -- ./inp_files/282836.got.cif
#   From: 2010.06.25/outbox.cif.g09.slc.cpg/sg2_142_cif.got.tgz:282836.got - 2010.06.27 13:26:56.
