data_PCOD8020067
_publ_section_title
;
Structure prediction by ZEFSAII (Michael W. Deem and Ramdas Pophale) SiO2 
 PCOD8020067
Probable space group: P -1
;
_chemical_formula_sum "Si O2"
_cell_formula_units_Z 16
_cell_length_a 13.683263
_cell_length_b 10.370747
_cell_length_c 9.807926
_cell_angle_alpha 140.589271
_cell_angle_beta 86.885133
_cell_angle_gamma 115.269537
_cell_volume 701.075576
_symmetry_space_group_name_H-M "P -1"
_symmetry_group_IT_number 2
_symmetry_cell_setting 'triclinic'
loop_
_space_group_symop_operation_xyz
x,y,z
-x,-y,-z
loop_
_atom_site_type_symbol
_atom_site_label
_atom_site_fract_x
_atom_site_fract_y
_atom_site_fract_z
Si Si1 0.389830 0.197860 0.995337
Si Si2 0.650817 0.989978 0.870926
Si Si3 0.115765 0.529858 0.841301
Si Si4 0.519282 0.747975 0.418696
Si Si5 0.934859 0.651908 0.012680
Si Si6 0.978240 0.821081 0.690600
Si Si7 0.188315 0.115489 0.101798
Si Si8 0.321351 0.831427 0.451712
O O1 0.411973 0.079621 0.030006
O O2 0.504712 0.485492 0.177697
O O3 0.290861 0.252023 0.085677
O O4 0.344655 0.991590 0.715181
O O5 0.539720 0.807821 0.627276
O O6 0.754946 0.943721 0.827200
O O7 0.737282 0.286408 0.057680
O O8 0.098230 0.359958 0.834040
O O9 0.042779 0.362973 0.577574
O O10 0.057905 0.673621 0.004209
O O11 0.403353 0.731789 0.362197
O O12 0.642344 0.977643 0.521261
O O13 0.958834 0.898193 0.145303
O O14 0.821297 0.401760 0.739324
O O15 0.850696 0.716823 0.694485
O O16 0.070115 0.851921 0.825980
#
# Coordination Sequence:
#
# PCOD8020067 Si02
#       8
#     2   2   2   2   2   2   2   2
#     4  10  22  42  65  91 120 170 206 252 319 361
#     4  10  22  44  59  93 131 160 204 262 309 361
#     4  11  23  39  65  93 128 166 202 254 318 371
#     4  11  23  44  62  90 130 162 212 263 302 367
#     4  11  22  41  62  94 130 159 210 258 306 375
#     4  11  21  40  63  93 126 167 204 252 315 374
#     4   9  22  39  60  93 125 159 207 258 301 372
#     4  11  24  40  68  93 123 166 211 259 308 367
#
# _framework density 22.822078000000001
#
# number of rings (size 3 to 8) (size 9 to 14) (size 15 to 20)
#    0.750    0.750    2.500    2.625    0.000    4.000 
#    2.250    1.250    0.000    0.000    0.000    0.000 
#    0.000    0.000    0.000    0.000    0.000    0.000 
#
# Total GULP energy -198222.730877 kJ/mol
# GULP energy per Si atom -12388.920680 kJ/mol
# Density = 2.277013 g / cm^3
# Si number density = 22.822078 Si / 1000 Ang^3
#
#
#
# Elastic Constant Matrix: (Units=GPa)
#
#
# Indices 1 2 3 4 5 6 
#
# 1 21.9019 -4.6455 -9.9931 -1.6328 7.8418 -8.7661
# 2 -4.6455 75.7006 3.9529 0.6426 -10.7370 -2.5080
# 3 -9.9931 3.9529 79.7080 -14.9933 2.9992 -2.9225
# 4 -1.6328 0.6426 -14.9933 39.5942 0.2534 7.3346
# 5 7.8418 -10.7370 2.9992 0.2534 30.0043 -7.4964
# 6 -8.7661 -2.5080 -2.9225 7.3346 -7.4964 16.3101
#
#
#
# Elastic Compliance Matrix: (Units=1/GPa)
#
#
# Indices 1 2 3 4 5 6 
#
# 1 0.068071 0.003556 0.009993 0.000143 -0.008823 0.034804
# 2 0.003556 0.014626 -0.000568 -0.001785 0.006316 0.007764
# 3 0.009993 -0.000568 0.015121 0.005428 -0.003372 0.004002
# 4 0.000143 -0.001785 0.005428 0.030202 -0.005280 -0.015234
# 5 -0.008823 0.006316 -0.003372 -0.005280 0.042677 0.017614
# 6 0.034804 0.007764 0.004002 -0.015234 0.017614 0.096875
#
#
# Mechanical properties :
#
#
# Convention : Reuss Voigt Hill
#
# Bulk Modulus (GPa) = 8.07885 17.32657 12.70271
# Shear Modulus (GPa) = 17.67583 29.71479 23.69531
#
# Velocity S-wave (km/s) = 2.78601 3.61227 3.22570
# Velocity P-wave (km/s) = 3.72784 5.00064 4.41040
#
# Compressibility (1/GPa) = 0.12377999
#
# Stress axis : x y z
#
# Youngs Moduli (GPa) = 14.69046 68.37116 66.13158
#
# Poissons Ratio (x) = -0.24313 -0.66084
# Poissons Ratio (y) = -0.05224 0.03758
# Poissons Ratio (z) = -0.14680 0.03885
#
# Static dielectric constant tensor:
#      x y z
#    x 3.834510 0.012200 0.176520 
#    y 0.012200 4.348240 -0.160050 
#    z 0.176520 -0.160050 3.850560 
# 
# 
# High freq. dielectric constant tensor:
#      x y z
#    x 1.878640 0.001690 0.017560 
#    y 0.001690 1.918600 -0.011490 
#    z 0.017560 -0.011490 1.887080 
# 
# From -- ./inp_files/308772.got.cif
#   From: 2010.06.25/outbox.cif.g09.slc.cpg/sg2_155_cif.got.tgz:308772.got - 2010.06.27 13:26:56.
