data_PCOD8020001
_publ_section_title
;
Structure prediction by ZEFSAII (Michael W. Deem and Ramdas Pophale) SiO2 
 PCOD8020001
Probable space group: P -1
;
_chemical_formula_sum "Si O2"
_cell_formula_units_Z 14
_cell_length_a 9.054872
_cell_length_b 8.633451
_cell_length_c 12.885863
_cell_angle_alpha 76.455183
_cell_angle_beta 66.811476
_cell_angle_gamma 123.027691
_cell_volume 631.103334
_symmetry_space_group_name_H-M "P -1"
_symmetry_group_IT_number 2
_symmetry_cell_setting 'triclinic'
loop_
_space_group_symop_operation_xyz
x,y,z
-x,-y,-z
loop_
_atom_site_type_symbol
_atom_site_label
_atom_site_fract_x
_atom_site_fract_y
_atom_site_fract_z
Si Si1 0.389910 0.097311 0.834530
Si Si2 0.578208 0.412140 0.562212
Si Si3 0.747428 0.324669 0.144918
Si Si4 0.857330 0.407398 0.336495
Si Si5 0.192490 0.410214 0.326814
Si Si6 0.414965 0.318404 0.138143
Si Si7 0.265891 0.932730 0.099585
O O1 0.361595 0.195779 0.727190
O O2 0.628302 0.319226 0.789924
O O3 0.406289 0.927043 0.818404
O O4 0.202422 0.973692 0.998970
O O5 0.500000 0.500000 0.500000
O O6 0.659471 0.326473 0.480455
O O7 0.785449 0.611550 0.551936
O O8 0.750183 0.302902 0.270388
O O9 0.631076 0.409039 0.131415
O O10 0.000000 0.500000 0.000000
O O11 0.946002 0.303153 0.376986
O O12 0.056245 0.677489 0.231815
O O13 0.241561 0.284825 0.268612
O O14 0.288172 0.080908 0.158233
O O15 0.500000 0.500000 0.000000
O O16 0.500000 0.000000 0.000000
#
# Coordination Sequence:
#
# PCOD8020001 Si02
#       7
#     2   2   2   2   2   2   2
#     4  10  22  42  68  88 134 170 213 260 331 376
#     4  10  23  46  67  91 131 171 218 267 321 379
#     4  12  23  38  64  99 129 167 217 266 320 386
#     4  12  23  41  70  93 130 172 217 264 321 389
#     4  10  22  42  64  93 124 171 217 260 323 380
#     4  12  21  38  64  93 135 168 208 268 324 379
#     4  12  19  40  66  96 126 170 209 264 323 380
#
# _framework density 22.183373
#
# number of rings (size 3 to 8) (size 9 to 14) (size 15 to 20)
#    0.857    0.000    5.714    2.143    0.000    0.571 
#    5.143    2.857    0.000    0.000    0.000    0.000 
#    0.000    0.000    0.000    0.000    0.000    0.000 
#
# Total GULP energy -173449.399098 kJ/mol
# GULP energy per Si atom -12389.242793 kJ/mol
# Density = 2.213288 g / cm^3
# Si number density = 22.183373 Si / 1000 Ang^3
#
#
#
# Elastic Constant Matrix: (Units=GPa)
#
#
# Indices 1 2 3 4 5 6 
#
# 1 162.3472 27.8872 49.6908 24.7652 24.2412 -14.8565
# 2 27.8872 110.3300 16.7278 31.7196 -5.8307 -10.6256
# 3 49.6908 16.7278 105.6875 32.3198 19.1625 -5.0907
# 4 24.7652 31.7196 32.3198 52.0780 -2.4179 1.0257
# 5 24.2412 -5.8307 19.1625 -2.4179 42.7495 8.7306
# 6 -14.8565 -10.6256 -5.0907 1.0257 8.7306 23.3839
#
#
#
# Elastic Compliance Matrix: (Units=1/GPa)
#
#
# Indices 1 2 3 4 5 6 
#
# 1 0.008840 -0.000676 -0.001609 -0.003220 -0.006070 0.007367
# 2 -0.000676 0.011796 0.001056 -0.007629 -0.000038 0.005509
# 3 -0.001609 0.001056 0.014453 -0.009289 -0.007104 0.005664
# 4 -0.003220 -0.007629 -0.009289 0.031820 0.009280 -0.012395
# 5 -0.006070 -0.000038 -0.007104 0.009280 0.034347 -0.018651
# 6 0.007367 0.005509 0.005664 -0.012395 -0.018651 0.058688
#
#
# Mechanical properties :
#
#
# Convention : Reuss Voigt Hill
#
# Bulk Modulus (GPa) = 30.64572 62.99737 46.82155
# Shear Modulus (GPa) = 28.85509 42.57954 35.71732
#
# Velocity S-wave (km/s) = 3.61051 4.38589 4.01695
# Velocity P-wave (km/s) = 5.58800 7.35582 6.53199
#
# Compressibility (1/GPa) = 0.03263098
#
# Stress axis : x y z
#
# Youngs Moduli (GPa) = 113.12201 84.77153 69.19161
#
# Poissons Ratio (x) = 0.05730 0.11133
# Poissons Ratio (y) = 0.07646 -0.07306
# Poissons Ratio (z) = 0.18202 -0.08951
#
# Static dielectric constant tensor:
#      x y z
#    x 4.002910 -0.045700 0.338830 
#    y -0.045700 4.017870 0.370270 
#    z 0.338830 0.370270 4.227640 
# 
# 
# High freq. dielectric constant tensor:
#      x y z
#    x 1.859050 -0.009030 0.028720 
#    y -0.009030 1.870190 0.023230 
#    z 0.028720 0.023230 1.875770 
# 
# From -- ./inp_files/378646.got.cif
#   From: 2010.06.25/outbox.cif.g09.slc.cpg/sg2_190_cif.got.tgz:378646.got - 2010.06.27 13:26:56.
