data_PCOD8020985
_publ_section_title
;
Structure prediction by ZEFSAII (Michael W. Deem and Ramdas Pophale) SiO2 
 PCOD8020985
Probable space group: P -1
;
_chemical_formula_sum "Si O2"
_cell_formula_units_Z 16
_cell_length_a 9.672282
_cell_length_b 28.059646
_cell_length_c 9.418881
_cell_angle_alpha 26.715820
_cell_angle_beta 44.206118
_cell_angle_gamma 45.124791
_cell_volume 783.730245
_symmetry_space_group_name_H-M "P -1"
_symmetry_group_IT_number 2
_symmetry_cell_setting 'triclinic'
loop_
_space_group_symop_operation_xyz
x,y,z
-x,-y,-z
loop_
_atom_site_type_symbol
_atom_site_label
_atom_site_fract_x
_atom_site_fract_y
_atom_site_fract_z
Si Si1 0.714041 0.524850 0.311702
Si Si2 0.567999 0.171530 0.250429
Si Si3 0.355006 0.050050 0.348035
Si Si4 0.024635 0.781217 0.760034
Si Si5 0.685887 0.676208 0.183967
Si Si6 0.539706 0.246673 0.589760
Si Si7 0.315725 0.279066 0.391587
Si Si8 0.904540 0.285151 0.799707
O O1 0.500000 0.500000 0.500000
O O2 0.711216 0.567782 0.361355
O O3 0.880643 0.415037 0.467610
O O4 0.760807 0.613873 0.931358
O O5 0.445119 0.183020 0.457535
O O6 0.667698 0.045744 0.488826
O O7 0.416218 0.216459 0.114389
O O8 0.737176 0.244868 0.935352
O O9 0.131454 0.102610 0.432544
O O10 0.500000 0.000000 0.500000
O O11 0.450805 0.138427 0.959364
O O12 0.215337 0.783325 0.511113
O O13 0.908299 0.689352 0.035522
O O14 0.112648 0.754381 0.923152
O O15 0.541691 0.670748 0.441118
O O16 0.453064 0.305211 0.351466
O O17 0.123729 0.235153 0.707065
#
# Coordination Sequence:
#
# PCOD8020985 Si02
#       8
#     2   2   2   2   2   2   2   2
#     4  11  22  44  69  94 135 171 212 265 328 386
#     4  11  23  43  68  94 132 172 218 267 323 383
#     4  11  23  44  66  94 133 172 217 270 321 385
#     4  11  23  43  67  96 134 169 216 271 322 378
#     4  10  22  43  66  93 133 166 216 266 317 388
#     4  11  22  44  67  94 138 167 215 273 321 378
#     4  11  23  43  66  98 132 170 212 270 321 386
#     4  12  23  44  68  95 135 171 214 273 321 382
#
# _framework density 20.415188000000001
#
# number of rings (size 3 to 8) (size 9 to 14) (size 15 to 20)
#    0.000    1.000    8.750    0.375    0.000    5.000 
#    2.250    1.250    0.000    0.000    0.000    0.000 
#    0.000    0.000    0.000    0.000    0.000    0.000 
#
# Total GULP energy -198423.031078 kJ/mol
# GULP energy per Si atom -12401.439442 kJ/mol
# Density = 2.036872 g / cm^3
# Si number density = 20.415188 Si / 1000 Ang^3
#
#
#
# Elastic Constant Matrix: (Units=GPa)
#
#
# Indices 1 2 3 4 5 6 
#
# 1 87.2849 51.7298 22.3394 7.8592 2.5962 3.5090
# 2 51.7298 148.6236 47.2418 12.5775 -21.2009 4.6963
# 3 22.3394 47.2418 57.2112 1.3370 -6.6913 3.4523
# 4 7.8592 12.5775 1.3370 44.8673 -1.2575 -7.9022
# 5 2.5962 -21.2009 -6.6913 -1.2575 36.8929 5.3762
# 6 3.5090 4.6963 3.4523 -7.9022 5.3762 40.2531
#
#
#
# Elastic Compliance Matrix: (Units=1/GPa)
#
#
# Indices 1 2 3 4 5 6 
#
# 1 0.015337 -0.005150 -0.002213 -0.001339 -0.004455 -0.000214
# 2 -0.005150 0.011823 -0.006892 -0.002320 0.006062 -0.001604
# 3 -0.002213 -0.006892 0.024142 0.001465 0.000753 -0.000886
# 4 -0.001339 -0.002320 0.001465 0.024001 -0.000897 0.005093
# 5 -0.004455 0.006062 0.000753 -0.000897 0.031707 -0.004794
# 6 -0.000214 -0.001604 -0.000886 0.005093 -0.004794 0.026765
#
#
# Mechanical properties :
#
#
# Convention : Reuss Voigt Hill
#
# Bulk Modulus (GPa) = 43.87527 59.52685 51.70106
# Shear Modulus (GPa) = 29.43216 35.85658 32.64437
#
# Velocity S-wave (km/s) = 3.80107 4.19545 4.00312
# Velocity P-wave (km/s) = 6.38767 7.25882 6.83713
#
# Compressibility (1/GPa) = 0.02279188
#
# Stress axis : x y z
#
# Youngs Moduli (GPa) = 65.20154 84.57824 41.42239
#
# Poissons Ratio (x) = 0.43559 0.09166
# Poissons Ratio (y) = 0.33580 0.28549
# Poissons Ratio (z) = 0.14427 0.58292
#
# Static dielectric constant tensor:
#      x y z
#    x 3.795750 0.028990 0.118470 
#    y 0.028990 4.004400 -0.138040 
#    z 0.118470 -0.138040 3.746920 
# 
# 
# High freq. dielectric constant tensor:
#      x y z
#    x 1.808990 0.000770 0.003870 
#    y 0.000770 1.807620 0.006570 
#    z 0.003870 0.006570 1.776550 
# 
# From -- ./inp_files/202298.got.cif
#   From: 2010.06.25/outbox.cif.g09.slc.cpg/sg2_102_cif.got.tgz:202298.got - 2010.06.27 13:26:56.
