data_PCOD8020166
_publ_section_title
;
Structure prediction by ZEFSAII (Michael W. Deem and Ramdas Pophale) SiO2 
 PCOD8020166
Probable space group: P -1
;
_chemical_formula_sum "Si O2"
_cell_formula_units_Z 16
_cell_length_a 10.268786
_cell_length_b 8.966908
_cell_length_c 12.468743
_cell_angle_alpha 73.436020
_cell_angle_beta 57.143224
_cell_angle_gamma 55.840169
_cell_volume 797.740563
_symmetry_space_group_name_H-M "P -1"
_symmetry_group_IT_number 2
_symmetry_cell_setting 'triclinic'
loop_
_space_group_symop_operation_xyz
x,y,z
-x,-y,-z
loop_
_atom_site_type_symbol
_atom_site_label
_atom_site_fract_x
_atom_site_fract_y
_atom_site_fract_z
Si Si1 0.337183 0.463281 0.080569
Si Si2 0.854209 0.088422 0.139432
Si Si3 0.526251 0.848859 0.753088
Si Si4 0.709485 0.685837 0.480957
Si Si5 0.285394 0.646830 0.376529
Si Si6 0.980204 0.231406 0.715513
Si Si7 0.488353 0.213234 0.668501
Si Si8 0.664003 0.495647 0.162166
O O1 0.366291 0.296083 0.173162
O O2 0.159734 0.642885 0.158897
O O3 0.500000 0.500000 0.000000
O O4 0.308673 0.426371 0.977479
O O5 0.677677 0.102070 0.166148
O O6 0.815327 0.286389 0.150233
O O7 0.912900 0.970585 0.245410
O O8 0.000000 0.000000 0.000000
O O9 0.619349 0.781742 0.611333
O O10 0.530952 0.028564 0.744062
O O11 0.762542 0.477032 0.503374
O O12 0.566485 0.786276 0.429662
O O13 0.887977 0.693128 0.382175
O O14 0.118687 0.770740 0.348838
O O15 0.331493 0.770964 0.406982
O O16 0.463397 0.516784 0.250898
O O17 0.326053 0.383090 0.770623
#
# Coordination Sequence:
#
# PCOD8020166 Si02
#       8
#     2   2   2   2   2   2   2   2
#     4  12  19  41  68  93 131 170 220 263 322 385
#     4  12  22  38  68  98 126 168 223 264 316 382
#     4  12  23  41  69  96 124 181 216 264 318 395
#     4  12  22  42  69  95 131 167 228 262 318 388
#     4  10  22  43  66  89 131 175 207 259 336 375
#     4  12  23  37  68 104 123 164 224 279 301 382
#     4  10  24  42  66  95 131 175 211 262 332 393
#     4  10  22  42  66  90 128 178 209 256 333 388
#
# _framework density 20.056646000000001
#
# number of rings (size 3 to 8) (size 9 to 14) (size 15 to 20)
#    0.750    0.000    7.500    1.125    0.000    0.500 
#    0.000    4.375    0.000    0.000    0.000    0.000 
#    0.000    0.000    0.000    0.000    0.000    0.000 
#
# Total GULP energy -198388.092317 kJ/mol
# GULP energy per Si atom -12399.255770 kJ/mol
# Density = 2.001100 g / cm^3
# Si number density = 20.056646 Si / 1000 Ang^3
#
#
#
# Elastic Constant Matrix: (Units=GPa)
#
#
# Indices 1 2 3 4 5 6 
#
# 1 76.8961 28.3243 32.9698 -2.1183 -4.4856 -3.1919
# 2 28.3243 145.2144 42.3437 -16.4948 12.3094 5.1587
# 3 32.9698 42.3437 108.7189 -9.8047 -1.3037 4.5211
# 4 -2.1183 -16.4948 -9.8047 24.0712 -12.5595 5.9594
# 5 -4.4856 12.3094 -1.3037 -12.5595 26.5205 -6.9182
# 6 -3.1919 5.1587 4.5211 5.9594 -6.9182 33.5677
#
#
#
# Elastic Compliance Matrix: (Units=1/GPa)
#
#
# Indices 1 2 3 4 5 6 
#
# 1 0.016033 -0.002502 -0.004028 -0.000545 0.004314 0.003437
# 2 -0.002502 0.008864 -0.002290 0.003712 -0.003594 -0.002692
# 3 -0.004028 -0.002290 0.011858 0.004812 0.002744 -0.001917
# 4 -0.000545 0.003712 0.004812 0.061015 0.025532 -0.006840
# 5 0.004314 -0.003594 0.002744 0.025532 0.054218 0.007234
# 6 0.003437 -0.002692 -0.001917 -0.006840 0.007234 0.033495
#
#
# Mechanical properties :
#
#
# Convention : Reuss Voigt Hill
#
# Bulk Modulus (GPa) = 52.31577 59.78946 56.05261
# Shear Modulus (GPa) = 23.86709 31.97799 27.92254
#
# Velocity S-wave (km/s) = 3.45336 3.99731 3.73525
# Velocity P-wave (km/s) = 6.48394 7.15399 6.82719
#
# Compressibility (1/GPa) = 0.01911469
#
# Stress axis : x y z
#
# Youngs Moduli (GPa) = 62.37319 112.81402 84.33148
#
# Poissons Ratio (x) = 0.28230 0.33966
# Poissons Ratio (y) = 0.15608 0.19311
# Poissons Ratio (z) = 0.25122 0.25834
#
# Static dielectric constant tensor:
#      x y z
#    x 3.327820 0.081610 0.121420 
#    y 0.081610 3.615630 -0.334910 
#    z 0.121420 -0.334910 3.649810 
# 
# 
# High freq. dielectric constant tensor:
#      x y z
#    x 1.764660 -0.005900 0.000920 
#    y -0.005900 1.787620 -0.013520 
#    z 0.000920 -0.013520 1.789360 
# 
# From -- ./inp_files/419279.got.cif
#   From: 2010.06.25/outbox.cif.g09.slc.cpg/sg2_210_cif.got.tgz:419279.got - 2010.06.27 13:26:56.
