data_PCOD8020698
_publ_section_title
;
Structure prediction by ZEFSAII (Michael W. Deem and Ramdas Pophale) SiO2 
 PCOD8020698
Probable space group: P -1
;
_chemical_formula_sum "Si O2"
_cell_formula_units_Z 16
_cell_length_a 11.410132
_cell_length_b 8.752720
_cell_length_c 26.088048
_cell_angle_alpha 31.270274
_cell_angle_beta 32.579355
_cell_angle_gamma 43.802638
_cell_volume 728.214055
_symmetry_space_group_name_H-M "P -1"
_symmetry_group_IT_number 2
_symmetry_cell_setting 'triclinic'
loop_
_space_group_symop_operation_xyz
x,y,z
-x,-y,-z
loop_
_atom_site_type_symbol
_atom_site_label
_atom_site_fract_x
_atom_site_fract_y
_atom_site_fract_z
Si Si1 0.658527 0.229834 0.015814
Si Si2 0.644994 0.181157 0.244531
Si Si3 0.968509 0.978553 0.264561
Si Si4 0.924335 0.408754 0.250050
Si Si5 0.840372 0.353887 0.496076
Si Si6 0.590158 0.887709 0.241086
Si Si7 0.211870 0.937832 0.504332
Si Si8 0.462933 0.833262 0.113826
O O1 0.666409 0.098540 0.107371
O O2 0.571439 0.994851 0.075319
O O3 0.500000 0.500000 0.000000
O O4 0.894188 0.342256 0.878766
O O5 0.873611 0.138323 0.202570
O O6 0.577588 0.515469 0.161220
O O7 0.670616 0.018913 0.227478
O O8 0.461580 0.036818 0.390365
O O9 0.982295 0.230290 0.229286
O O10 0.820149 0.701615 0.416034
O O11 0.202914 0.826580 0.215170
O O12 0.693706 0.568965 0.284186
O O13 0.905107 0.180056 0.368577
O O14 0.669313 0.166691 0.646719
O O15 0.791676 0.315856 0.464607
O O16 0.080771 0.229781 0.452915
O O17 0.500000 0.000000 0.000000
#
# Coordination Sequence:
#
# PCOD8020698 Si02
#       8
#     2   2   2   2   2   2   2   2
#     4  12  25  47  68  97 140 182 232 279 347 414
#     4  11  25  47  74 104 139 179 235 287 341 409
#     4  12  26  45  70 107 139 181 231 285 350 404
#     4  12  26  43  67 101 140 185 225 284 347 408
#     4  10  22  42  72 102 134 180 233 282 341 408
#     4  11  25  45  71 103 138 184 228 284 345 411
#     4  10  22  43  71 101 137 181 228 283 345 406
#     4  12  28  47  72 103 139 183 233 287 341 410
#
# _framework density 21.971563
#
# number of rings (size 3 to 8) (size 9 to 14) (size 15 to 20)
#    0.000    0.750    2.500    4.125    3.500    6.000 
#    0.000    0.000    0.000    0.000    0.000    0.000 
#    0.000    0.000    0.000    0.000    0.000    0.000 
#
# Total GULP energy -198416.725179 kJ/mol
# GULP energy per Si atom -12401.045324 kJ/mol
# Density = 2.192155 g / cm^3
# Si number density = 21.971563 Si / 1000 Ang^3
#
#
#
# Elastic Constant Matrix: (Units=GPa)
#
#
# Indices 1 2 3 4 5 6 
#
# 1 87.0959 12.4746 49.7700 -1.1053 7.5815 -10.4195
# 2 12.4746 98.5008 21.0392 -13.4033 -0.8218 -11.0637
# 3 49.7700 21.0392 106.8547 -5.9181 14.3891 7.2068
# 4 -1.1053 -13.4033 -5.9181 33.1403 -1.0919 6.7572
# 5 7.5815 -0.8218 14.3891 -1.0919 31.6277 7.0469
# 6 -10.4195 -11.0637 7.2068 6.7572 7.0469 19.3502
#
#
#
# Elastic Compliance Matrix: (Units=1/GPa)
#
#
# Indices 1 2 3 4 5 6 
#
# 1 0.019703 0.001091 -0.010306 -0.004595 -0.004223 0.018214
# 2 0.001091 0.011933 -0.003212 0.002716 -0.000112 0.007700
# 3 -0.010306 -0.003212 0.016204 0.004100 -0.001670 -0.014245
# 4 -0.004595 0.002716 0.004100 0.035311 0.004156 -0.016293
# 5 -0.004223 -0.000112 -0.001670 0.004156 0.037259 -0.016736
# 6 0.018214 0.007700 -0.014245 -0.016293 -0.016736 0.082979
#
#
# Mechanical properties :
#
#
# Convention : Reuss Voigt Hill
#
# Bulk Modulus (GPa) = 43.50279 51.00212 47.25246
# Shear Modulus (GPa) = 21.19494 30.76813 25.98153
#
# Velocity S-wave (km/s) = 3.10926 3.74620 3.44249
# Velocity P-wave (km/s) = 5.72124 6.47883 6.11178
#
# Compressibility (1/GPa) = 0.02298703
#
# Stress axis : x y z
#
# Youngs Moduli (GPa) = 50.75372 83.79841 61.71332
#
# Poissons Ratio (x) = -0.09146 0.63604
# Poissons Ratio (y) = -0.05540 0.19821
# Poissons Ratio (z) = 0.52308 0.26914
#
# Static dielectric constant tensor:
#      x y z
#    x 4.090060 -0.024800 -0.148400 
#    y -0.024800 4.066360 0.068050 
#    z -0.148400 0.068050 3.682160 
# 
# 
# High freq. dielectric constant tensor:
#      x y z
#    x 1.863610 -0.007760 -0.001470 
#    y -0.007760 1.880200 -0.002530 
#    z -0.001470 -0.002530 1.871040 
# 
# From -- ./inp_files/355317.got.cif
#   From: 2010.06.25/outbox.cif.g09.slc.cpg/sg2_178_cif.got.tgz:355317.got - 2010.06.27 13:26:56.
