data_PCOD8020286
_publ_section_title
;
Structure prediction by ZEFSAII (Michael W. Deem and Ramdas Pophale) SiO2 
 PCOD8020286
Probable space group: P -1
;
_chemical_formula_sum "Si O2"
_cell_formula_units_Z 12
_cell_length_a 11.244255
_cell_length_b 10.063483
_cell_length_c 8.884223
_cell_angle_alpha 116.754876
_cell_angle_beta 41.736310
_cell_angle_gamma 116.067400
_cell_volume 588.459822
_symmetry_space_group_name_H-M "P -1"
_symmetry_group_IT_number 2
_symmetry_cell_setting 'triclinic'
loop_
_space_group_symop_operation_xyz
x,y,z
-x,-y,-z
loop_
_atom_site_type_symbol
_atom_site_label
_atom_site_fract_x
_atom_site_fract_y
_atom_site_fract_z
Si Si1 0.575409 0.527901 0.183710
Si Si2 0.320119 0.296791 0.116741
Si Si3 0.034891 0.845447 0.457820
Si Si4 0.595995 0.216251 0.402158
Si Si5 0.605573 0.099519 0.659827
Si Si6 0.859813 0.365204 0.995420
O O1 0.398629 0.421884 0.229168
O O2 0.507466 0.640885 0.424254
O O3 0.692954 0.622898 0.990208
O O4 0.697708 0.425590 0.097089
O O5 0.119682 0.218020 0.309564
O O6 0.444940 0.169092 0.923652
O O7 0.224967 0.871354 0.376078
O O8 0.033432 0.724837 0.265281
O O9 0.000000 0.000000 0.500000
O O10 0.659847 0.177886 0.488463
O O11 0.456848 0.078867 0.391880
O O12 0.775880 0.252482 0.149955
O O13 0.000000 0.500000 0.000000
#
# Coordination Sequence:
#
# PCOD8020286 Si02
#       6
#     2   2   2   2   2   2
#     4  10  22  42  67  91 129 170 206 266 316 371
#     4  10  22  44  67  95 123 168 218 256 316 375
#     4  12  27  41  68  95 127 171 213 261 314 380
#     4  10  23  43  67  91 130 168 209 264 318 371
#     4  10  23  46  67  92 126 172 212 260 315 373
#     4  12  26  40  63 101 130 165 212 263 319 373
#
# _framework density 20.392216999999999
#
# number of rings (size 3 to 8) (size 9 to 14) (size 15 to 20)
#    0.000    1.333    1.667    2.500    7.000    2.000 
#    0.000    3.333    0.000    0.000    0.000    0.000 
#    0.000    0.000    0.000    0.000    0.000    0.000 
#
# Total GULP energy -148884.307447 kJ/mol
# GULP energy per Si atom -12407.025621 kJ/mol
# Density = 2.034580 g / cm^3
# Si number density = 20.392217 Si / 1000 Ang^3
#
#
#
# Elastic Constant Matrix: (Units=GPa)
#
#
# Indices 1 2 3 4 5 6 
#
# 1 73.0886 26.6793 41.6945 4.2794 4.5783 8.8082
# 2 26.6793 86.0865 42.0298 15.1461 7.0809 3.2214
# 3 41.6945 42.0298 116.8213 3.1656 6.8793 5.4426
# 4 4.2794 15.1461 3.1656 44.7051 1.5309 3.6247
# 5 4.5783 7.0809 6.8793 1.5309 19.7709 6.2006
# 6 8.8082 3.2214 5.4426 3.6247 6.2006 28.9072
#
#
#
# Elastic Compliance Matrix: (Units=1/GPa)
#
#
# Indices 1 2 3 4 5 6 
#
# 1 0.018269 -0.002922 -0.005270 -0.000041 -0.000018 -0.004240
# 2 -0.002922 0.015707 -0.004336 -0.004721 -0.003481 0.001295
# 3 -0.005270 -0.004336 0.012058 0.001172 -0.001512 -0.000004
# 4 -0.000041 -0.004721 0.001172 0.024103 0.000294 -0.002767
# 5 -0.000018 -0.003481 -0.001512 0.000294 0.055892 -0.011348
# 6 -0.004240 0.001295 -0.000004 -0.002767 -0.011348 0.038523
#
#
# Mechanical properties :
#
#
# Convention : Reuss Voigt Hill
#
# Bulk Modulus (GPa) = 47.66352 55.20038 51.43195
# Shear Modulus (GPa) = 25.43232 29.71616 27.57424
#
# Velocity S-wave (km/s) = 3.53534 3.82151 3.68121
# Velocity P-wave (km/s) = 6.33159 6.82642 6.58365
#
# Compressibility (1/GPa) = 0.02098041
#
# Stress axis : x y z
#
# Youngs Moduli (GPa) = 54.73708 63.66635 82.93122
#
# Poissons Ratio (x) = 0.18601 0.43701
# Poissons Ratio (y) = 0.15993 0.35956
# Poissons Ratio (z) = 0.28844 0.27603
#
# Static dielectric constant tensor:
#      x y z
#    x 3.917510 -0.040010 0.092690 
#    y -0.040010 3.927930 0.079550 
#    z 0.092690 0.079550 3.921680 
# 
# 
# High freq. dielectric constant tensor:
#      x y z
#    x 1.793120 -0.000090 0.011260 
#    y -0.000090 1.815380 0.005520 
#    z 0.011260 0.005520 1.807690 
# 
# From -- ./inp_files/21006.got.cif
#   From: 2010.06.25/outbox.cif.g09.slc.cpg/sg2_11_cif.got.tgz:21006.got - 2010.06.27 13:26:56.
