data_PCOD8020058
_publ_section_title
;
Structure prediction by ZEFSAII (Michael W. Deem and Ramdas Pophale) SiO2 
 PCOD8020058
Probable space group: P -1
;
_chemical_formula_sum "Si O2"
_cell_formula_units_Z 16
_cell_length_a 11.806556
_cell_length_b 10.463772
_cell_length_c 15.338220
_cell_angle_alpha 64.362732
_cell_angle_beta 111.050761
_cell_angle_gamma 55.012109
_cell_volume 796.654136
_symmetry_space_group_name_H-M "P -1"
_symmetry_group_IT_number 2
_symmetry_cell_setting 'triclinic'
loop_
_space_group_symop_operation_xyz
x,y,z
-x,-y,-z
loop_
_atom_site_type_symbol
_atom_site_label
_atom_site_fract_x
_atom_site_fract_y
_atom_site_fract_z
Si Si1 0.394116 0.083367 0.215913
Si Si2 0.997479 0.767891 0.588863
Si Si3 0.467473 0.129667 0.868843
Si Si4 0.751438 0.229661 0.255295
Si Si5 0.195405 0.815610 0.916201
Si Si6 0.034667 0.694614 0.978648
Si Si7 0.713100 0.790172 0.551367
Si Si8 0.054755 0.199391 0.883691
O O1 0.252804 0.367489 0.117529
O O2 0.491180 0.003741 0.167896
O O3 0.618883 0.839110 0.415754
O O4 0.222464 0.119457 0.166430
O O5 0.203255 0.465197 0.689817
O O6 0.111954 0.760952 0.691518
O O7 0.814004 0.848447 0.563970
O O8 0.855814 0.994639 0.408317
O O9 0.500000 0.000000 0.000000
O O10 0.660814 0.059877 0.948471
O O11 0.794244 0.145207 0.192048
O O12 0.468797 0.530730 0.112806
O O13 0.030045 0.092983 0.842732
O O14 0.062175 0.799527 0.891322
O O15 0.059630 0.722607 0.077124
O O16 0.928540 0.466538 0.731577
O O17 0.500000 0.000000 0.500000
#
# Coordination Sequence:
#
# PCOD8020058 Si02
#       8
#     2   2   2   2   2   2   2   2
#     4  10  24  40  64  98 125 167 223 257 334 379
#     4  11  24  45  64  94 136 165 214 269 324 375
#     4  11  23  41  68  94 128 169 210 271 321 382
#     4  10  25  41  66  95 126 176 212 266 325 388
#     4  11  23  42  67  92 127 170 225 256 325 381
#     4  10  22  42  65  89 133 170 208 272 312 395
#     4  12  25  42  67  98 131 170 214 270 322 386
#     4  11  23  41  64  97 128 167 220 257 331 383
#
# _framework density 20.083998999999999
#
# number of rings (size 3 to 8) (size 9 to 14) (size 15 to 20)
#    0.000    1.250    3.750    1.125    5.250    1.500 
#    0.000    0.625    0.000    0.000    0.000    0.000 
#    0.000    0.000    0.000    0.000    0.000    0.000 
#
# Total GULP energy -198474.771155 kJ/mol
# GULP energy per Si atom -12404.673197 kJ/mol
# Density = 2.003829 g / cm^3
# Si number density = 20.083999 Si / 1000 Ang^3
#
#
#
# Elastic Constant Matrix: (Units=GPa)
#
#
# Indices 1 2 3 4 5 6 
#
# 1 126.0016 48.0210 36.6593 -7.9253 -2.2832 3.5986
# 2 48.0210 122.5630 33.0627 -4.8101 -0.5200 -8.9666
# 3 36.6593 33.0627 90.3463 -1.6119 -1.1821 -1.5850
# 4 -7.9253 -4.8101 -1.6119 28.8719 -0.0452 -2.8892
# 5 -2.2832 -0.5200 -1.1821 -0.0452 25.4837 0.5577
# 6 3.5986 -8.9666 -1.5850 -2.8892 0.5577 32.4733
#
#
#
# Elastic Compliance Matrix: (Units=1/GPa)
#
#
# Indices 1 2 3 4 5 6 
#
# 1 0.010237 -0.003288 -0.002942 0.001896 0.000761 -0.002030
# 2 -0.003288 0.010364 -0.002388 0.001011 -0.000262 0.003204
# 3 -0.002942 -0.002388 0.013137 -0.000445 0.000290 0.000263
# 4 0.001896 0.001011 -0.000445 0.035622 0.000163 0.003214
# 5 0.000761 -0.000262 0.000290 0.000163 0.039335 -0.000804
# 6 -0.002030 0.003204 0.000263 0.003214 -0.000804 0.032217
#
#
# Mechanical properties :
#
#
# Convention : Reuss Voigt Hill
#
# Bulk Modulus (GPa) = 60.60067 63.82188 62.21128
# Shear Modulus (GPa) = 30.55339 32.11031 31.33185
#
# Velocity S-wave (km/s) = 3.90459 4.00284 3.95402
# Velocity P-wave (km/s) = 7.11104 7.29452 7.20337
#
# Compressibility (1/GPa) = 0.01650147
#
# Stress axis : x y z
#
# Youngs Moduli (GPa) = 97.68931 96.48342 76.12246
#
# Poissons Ratio (x) = 0.31723 0.22397
# Poissons Ratio (y) = 0.32120 0.18178
# Poissons Ratio (z) = 0.28742 0.23040
#
# Static dielectric constant tensor:
#      x y z
#    x 3.669270 -0.073950 0.088130 
#    y -0.073950 3.774330 0.000120 
#    z 0.088130 0.000120 3.714970 
# 
# 
# High freq. dielectric constant tensor:
#      x y z
#    x 1.789230 -0.004370 0.001320 
#    y -0.004370 1.789730 0.001520 
#    z 0.001320 0.001520 1.784990 
# 
# From -- ./inp_files/185142.got.cif
#   From: 2010.06.25/outbox.cif.g09.slc.cpg/sg2_93_cif.got.tgz:185142.got - 2010.06.27 13:26:56.
