data_PCOD8020151
_publ_section_title
;
Structure prediction by ZEFSAII (Michael W. Deem and Ramdas Pophale) SiO2 
 PCOD8020151
Probable space group: P -1
;
_chemical_formula_sum "Si O2"
_cell_formula_units_Z 16
_cell_length_a 5.179056
_cell_length_b 13.653256
_cell_length_c 13.841658
_cell_angle_alpha 43.533661
_cell_angle_beta 69.282301
_cell_angle_gamma 78.121047
_cell_volume 628.605266
_symmetry_space_group_name_H-M "P -1"
_symmetry_group_IT_number 2
_symmetry_cell_setting 'triclinic'
loop_
_space_group_symop_operation_xyz
x,y,z
-x,-y,-z
loop_
_atom_site_type_symbol
_atom_site_label
_atom_site_fract_x
_atom_site_fract_y
_atom_site_fract_z
Si Si1 0.293548 0.929716 0.155264
Si Si2 0.878035 0.547483 0.241657
Si Si3 0.322651 0.623679 0.976144
Si Si4 0.831292 0.153499 0.322588
Si Si5 0.229191 0.249728 0.730706
Si Si6 0.283432 0.394947 0.433458
Si Si7 0.571952 0.897338 0.435184
Si Si8 0.361101 0.123529 0.176196
O O1 0.465441 0.810592 0.270905
O O2 0.016002 0.866553 0.185136
O O3 0.211851 0.058668 0.145756
O O4 0.500000 0.000000 0.000000
O O5 0.829359 0.699882 0.188053
O O6 0.583282 0.466495 0.314676
O O7 0.049533 0.465947 0.355481
O O8 0.036464 0.559785 0.108450
O O9 0.276511 0.728036 0.818881
O O10 0.469742 0.722354 0.972089
O O11 0.500000 0.500000 0.000000
O O12 0.720125 0.175588 0.430018
O O13 0.160845 0.159944 0.265863
O O14 0.735658 0.989292 0.429040
O O15 0.237202 0.390165 0.559205
O O16 0.244687 0.227442 0.532121
O O17 0.545420 0.998646 0.274474
#
# Coordination Sequence:
#
# PCOD8020151 Si02
#       8
#     2   2   2   2   2   2   2   2
#     4  12  26  43  76 107 148 187 234 296 361 422
#     4  12  28  45  73 103 147 193 242 288 357 426
#     4  11  27  46  67 103 142 190 236 291 361 431
#     4  10  23  41  71  94 142 176 243 292 354 421
#     4  12  25  48  71 107 147 186 245 292 354 424
#     4  12  25  45  73 102 145 189 243 293 352 418
#     4  10  22  42  66 105 131 185 235 297 354 411
#     4  11  24  42  71 100 137 182 236 292 356 424
#
# _framework density 25.453175999999999
#
# number of rings (size 3 to 8) (size 9 to 14) (size 15 to 20)
#    0.000    0.750    1.250    5.250    8.750    0.500 
#    0.000    0.000    0.000    0.000    0.000    0.000 
#    0.000    0.000    0.000    0.000    0.000    0.000 
#
# Total GULP energy -198315.535991 kJ/mol
# GULP energy per Si atom -12394.720999 kJ/mol
# Density = 2.539524 g / cm^3
# Si number density = 25.453176 Si / 1000 Ang^3
#
#
#
# Elastic Constant Matrix: (Units=GPa)
#
#
# Indices 1 2 3 4 5 6 
#
# 1 57.5004 1.3627 -14.9728 -22.1465 0.9810 -5.1093
# 2 1.3627 126.5875 12.3500 -13.0207 3.2740 -4.3575
# 3 -14.9728 12.3500 85.9261 -2.8938 -5.8398 -1.2212
# 4 -22.1465 -13.0207 -2.8938 40.7806 -5.6878 -7.1240
# 5 0.9810 3.2740 -5.8398 -5.6878 33.2454 -0.5045
# 6 -5.1093 -4.3575 -1.2212 -7.1240 -0.5045 33.5124
#
#
#
# Elastic Compliance Matrix: (Units=1/GPa)
#
#
# Indices 1 2 3 4 5 6 
#
# 1 0.025692 0.001100 0.005186 0.016448 0.002977 0.007790
# 2 0.001100 0.008414 -0.000898 0.003510 -0.000388 0.001970
# 3 0.005186 -0.000898 0.013046 0.004237 0.002984 0.002095
# 4 0.016448 0.003510 0.004237 0.037752 0.006543 0.011242
# 5 0.002977 -0.000388 0.002984 0.006543 0.031709 0.002380
# 6 0.007790 0.001970 0.002095 0.011242 0.002380 0.033786
#
#
# Mechanical properties :
#
#
# Convention : Reuss Voigt Hill
#
# Bulk Modulus (GPa) = 17.26268 29.72154 23.49211
# Shear Modulus (GPa) = 31.46016 39.59261 35.52638
#
# Velocity S-wave (km/s) = 3.51950 3.94827 3.74003
# Velocity P-wave (km/s) = 4.82832 5.69977 5.28205
#
# Compressibility (1/GPa) = 0.05792844
#
# Stress axis : x y z
#
# Youngs Moduli (GPa) = 38.92308 118.84480 76.65292
#
# Poissons Ratio (x) = -0.13079 -0.39749
# Poissons Ratio (y) = -0.04283 0.06882
# Poissons Ratio (z) = -0.20184 0.10670
#
# Static dielectric constant tensor:
#      x y z
#    x 4.542570 -0.139890 -0.143840 
#    y -0.139890 4.892320 0.112340 
#    z -0.143840 0.112340 4.873780 
# 
# 
# High freq. dielectric constant tensor:
#      x y z
#    x 2.006820 -0.009110 -0.007520 
#    y -0.009110 2.027290 0.001640 
#    z -0.007520 0.001640 2.023800 
# 
# From -- ./inp_files/484203.got.cif
#   From: 2010.06.25/outbox.cif.g09.slc.cpg/sg2_243_cif.got.tgz:484203.got - 2010.06.27 13:26:56.
