data_PCOD8020539
_publ_section_title
;
Structure prediction by ZEFSAII (Michael W. Deem and Ramdas Pophale) SiO2 
 PCOD8020539
Probable space group: P -1
;
_chemical_formula_sum "Si O2"
_cell_formula_units_Z 16
_cell_length_a 12.978142
_cell_length_b 10.948785
_cell_length_c 9.017538
_cell_angle_alpha 122.178427
_cell_angle_beta 52.103909
_cell_angle_gamma 85.221505
_cell_volume 675.189184
_symmetry_space_group_name_H-M "P -1"
_symmetry_group_IT_number 2
_symmetry_cell_setting 'triclinic'
loop_
_space_group_symop_operation_xyz
x,y,z
-x,-y,-z
loop_
_atom_site_type_symbol
_atom_site_label
_atom_site_fract_x
_atom_site_fract_y
_atom_site_fract_z
Si Si1 0.044604 0.882365 0.601848
Si Si2 0.522701 0.352808 0.489353
Si Si3 0.719413 0.967546 0.025287
Si Si4 0.662559 0.680496 0.938760
Si Si5 0.814681 0.443856 0.919746
Si Si6 0.790024 0.342752 0.408140
Si Si7 0.359767 0.987927 0.554063
Si Si8 0.973350 0.770063 0.142965
O O1 0.171289 0.726178 0.271887
O O2 0.098850 0.821680 0.682711
O O3 0.875567 0.906588 0.749659
O O4 0.025146 0.063484 0.700850
O O5 0.500000 0.500000 0.500000
O O6 0.666383 0.302821 0.440982
O O7 0.571085 0.175113 0.239096
O O8 0.358562 0.424157 0.763848
O O9 0.737842 0.997476 0.203967
O O10 0.683369 0.823691 0.938744
O O11 0.802643 0.567386 0.873532
O O12 0.691011 0.542122 0.699116
O O13 0.471993 0.793018 0.241080
O O14 0.961014 0.369536 0.864270
O O15 0.901061 0.334347 0.172630
O O16 0.500000 0.000000 0.500000
O O17 0.215406 0.150242 0.678772
#
# Coordination Sequence:
#
# PCOD8020539 Si02
#       8
#     2   2   2   2   2   2   2   2
#     4  11  23  40  70 104 132 184 231 283 337 408
#     4  12  23  41  69  99 143 176 227 286 347 393
#     4  11  21  45  70  92 138 183 229 272 344 413
#     4  10  25  44  70  99 134 189 226 280 335 414
#     4  11  25  40  66 107 140 174 229 292 339 400
#     4  11  23  39  68 106 128 183 234 276 334 412
#     4  10  22  42  69  95 130 184 226 271 335 413
#     4  12  22  43  69 104 137 178 227 286 349 400
#
# _framework density 23.697061999999999
#
# number of rings (size 3 to 8) (size 9 to 14) (size 15 to 20)
#    0.000    1.000    5.000    1.500    1.750    3.000 
#    0.000    3.125    8.250    0.000    0.000    0.000 
#    0.000    0.000    0.000    0.000    0.000    0.000 
#
# Total GULP energy -198216.095302 kJ/mol
# GULP energy per Si atom -12388.505956 kJ/mol
# Density = 2.364313 g / cm^3
# Si number density = 23.697062 Si / 1000 Ang^3
#
#
#
# Elastic Constant Matrix: (Units=GPa)
#
#
# Indices 1 2 3 4 5 6 
#
# 1 94.4495 19.2992 14.6579 1.9575 -20.4335 -8.8077
# 2 19.2992 89.6578 -6.0618 23.0807 -3.1863 -6.9559
# 3 14.6579 -6.0618 33.6037 45.9846 -8.8466 -4.1637
# 4 1.9575 23.0807 45.9846 17.7452 0.1897 3.7320
# 5 -20.4335 -3.1863 -8.8466 0.1897 31.1145 3.4653
# 6 -8.8077 -6.9559 -4.1637 3.7320 3.4653 39.4738
#
#
#
# Elastic Compliance Matrix: (Units=1/GPa)
#
#
# Indices 1 2 3 4 5 6 
#
# 1 0.012769 -0.001344 0.001180 -0.003295 0.008346 0.002316
# 2 -0.001344 0.009246 -0.007074 0.006445 -0.002003 0.000150
# 3 0.001180 -0.007074 -0.005379 0.023801 -0.001212 -0.003694
# 4 -0.003295 0.006445 0.023801 -0.014199 0.004924 0.003821
# 5 0.008346 -0.002003 -0.001212 0.004924 0.037303 -0.002359
# 6 0.002316 0.000150 -0.003694 0.003821 -0.002359 0.025332
#
#
# Mechanical properties :
#
#
# Convention : Reuss Voigt Hill
#
# Bulk Modulus (GPa) = 463.29824 30.38909 246.84366
# Shear Modulus (GPa) = 62.29108 30.32108 46.30608
#
# Velocity S-wave (km/s) = 5.13259 3.58093 4.42530
# Velocity P-wave (km/s) = 15.20059 5.47259 11.42381
#
# Compressibility (1/GPa) = 0.00215844
#
# Stress axis : x y z
#
# Youngs Moduli (GPa) = 78.31498 108.15707 -185.90476
#
# Poissons Ratio (x) = 0.14540 0.21942
# Poissons Ratio (y) = 0.10529 -1.31518
# Poissons Ratio (z) = -0.09243 0.76516
#
# Static dielectric constant tensor:
#      x y z
#    x 3.898550 -0.216160 -0.408140 
#    y -0.216160 4.231910 0.278900 
#    z -0.408140 0.278900 4.585210 
# 
# 
# High freq. dielectric constant tensor:
#      x y z
#    x 1.911840 -0.010540 -0.006070 
#    y -0.010540 1.934970 0.016850 
#    z -0.006070 0.016850 1.961060 
# 
# From -- ./inp_files/263325.got.cif
#   From: 2010.06.25/outbox.cif.g09.slc.cpg/sg2_132_cif.got.tgz:263325.got - 2010.06.27 13:26:56.
