data_PCOD8020948
_publ_section_title
;
Structure prediction by ZEFSAII (Michael W. Deem and Ramdas Pophale) SiO2 
 PCOD8020948
Probable space group: P -1
;
_chemical_formula_sum "Si O2"
_cell_formula_units_Z 16
_cell_length_a 9.641203
_cell_length_b 14.072724
_cell_length_c 9.096485
_cell_angle_alpha 113.894360
_cell_angle_beta 140.932014
_cell_angle_gamma 68.198751
_cell_volume 707.698000
_symmetry_space_group_name_H-M "P -1"
_symmetry_group_IT_number 2
_symmetry_cell_setting 'triclinic'
loop_
_space_group_symop_operation_xyz
x,y,z
-x,-y,-z
loop_
_atom_site_type_symbol
_atom_site_label
_atom_site_fract_x
_atom_site_fract_y
_atom_site_fract_z
Si Si1 0.727648 0.716042 0.019537
Si Si2 0.058763 0.813987 0.165507
Si Si3 0.451958 0.532740 0.645535
Si Si4 0.366138 0.879754 0.711459
Si Si5 0.602501 0.595111 0.219523
Si Si6 0.259012 0.988062 0.974701
Si Si7 0.981567 0.335627 0.513567
Si Si8 0.739507 0.221088 0.999553
O O1 0.654853 0.599002 0.899241
O O2 0.508038 0.796113 0.880447
O O3 0.874322 0.736180 0.295333
O O4 0.876189 0.736392 0.011780
O O5 0.232322 0.819796 0.444831
O O6 0.171731 0.764904 0.082398
O O7 0.949238 0.929803 0.108668
O O8 0.500000 0.500000 0.500000
O O9 0.447520 0.423691 0.661564
O O10 0.217259 0.599418 0.522717
O O11 0.213178 0.945752 0.746060
O O12 0.516975 0.955500 0.798519
O O13 0.862910 0.587783 0.393648
O O14 0.500000 0.500000 0.000000
O O15 0.491722 0.705916 0.137289
O O16 0.290616 0.899257 0.069415
O O17 0.905332 0.258129 0.279937
#
# Coordination Sequence:
#
# PCOD8020948 Si02
#       8
#     2   2   2   2   2   2   2   2
#     4  11  24  44  68 103 137 183 232 284 339 412
#     4  11  25  41  70 103 141 180 231 287 346 406
#     4  12  28  44  72 102 139 180 232 287 344 407
#     4  10  22  43  71  98 138 179 234 284 342 411
#     4  12  26  47  69 103 138 184 231 281 343 412
#     4  10  22  43  66 100 136 183 231 280 346 413
#     4  12  25  47  72  97 143 183 231 278 349 408
#     4  12  27  43  70 102 142 182 230 286 347 408
#
# _framework density 22.608512999999999
#
# number of rings (size 3 to 8) (size 9 to 14) (size 15 to 20)
#    0.000    0.750    2.500    4.125    5.250    5.000 
#    0.000    0.000    0.000    0.000    0.000    0.000 
#    0.000    0.000    0.000    0.000    0.000    0.000 
#
# Total GULP energy -198400.304626 kJ/mol
# GULP energy per Si atom -12400.019039 kJ/mol
# Density = 2.255706 g / cm^3
# Si number density = 22.608513 Si / 1000 Ang^3
#
#
#
# Elastic Constant Matrix: (Units=GPa)
#
#
# Indices 1 2 3 4 5 6 
#
# 1 120.5717 35.9408 46.2216 6.1392 0.6967 5.7877
# 2 35.9408 106.7467 43.1252 -15.6758 6.3437 19.3491
# 3 46.2216 43.1252 96.9078 -4.8041 4.0837 -1.2736
# 4 6.1392 -15.6758 -4.8041 35.6797 4.9974 -1.4387
# 5 0.6967 6.3437 4.0837 4.9974 30.0574 5.7388
# 6 5.7877 19.3491 -1.2736 -1.4387 5.7388 45.7078
#
#
#
# Elastic Compliance Matrix: (Units=1/GPa)
#
#
# Indices 1 2 3 4 5 6 
#
# 1 0.010923 -0.002403 -0.004408 -0.003791 0.001639 -0.000813
# 2 -0.002403 0.014110 -0.004807 0.006067 -0.002261 -0.005328
# 3 -0.004408 -0.004807 0.014723 0.000993 -0.001668 0.003244
# 4 -0.003791 0.006067 0.000993 0.032406 -0.006677 -0.000202
# 5 0.001639 -0.002261 -0.001668 -0.006677 0.035810 -0.004003
# 6 -0.000813 -0.005328 0.003244 -0.000202 -0.004003 0.024823
#
#
# Mechanical properties :
#
#
# Convention : Reuss Voigt Hill
#
# Bulk Modulus (GPa) = 60.53503 63.86682 62.20092
# Shear Modulus (GPa) = 30.95258 35.55154 33.25206
#
# Velocity S-wave (km/s) = 3.70410 3.96976 3.83923
# Velocity P-wave (km/s) = 6.71769 7.02299 6.87203
#
# Compressibility (1/GPa) = 0.01651936
#
# Stress axis : x y z
#
# Youngs Moduli (GPa) = 91.55297 70.87045 67.92215
#
# Poissons Ratio (x) = 0.17034 0.29939
# Poissons Ratio (y) = 0.22005 0.32649
# Poissons Ratio (z) = 0.40355 0.34066
#
# Static dielectric constant tensor:
#      x y z
#    x 4.357190 0.400110 0.059280 
#    y 0.400110 4.587870 -0.244160 
#    z 0.059280 -0.244160 4.196760 
# 
# 
# High freq. dielectric constant tensor:
#      x y z
#    x 1.908590 0.017910 0.005690 
#    y 0.017910 1.891610 -0.005760 
#    z 0.005690 -0.005760 1.885640 
# 
# From -- ./inp_files/135556.got.cif
#   From: 2010.06.25/outbox.cif.g09.slc.cpg/sg2_68_cif.got.tgz:135556.got - 2010.06.27 13:26:56.
