data_PCOD8020233
_publ_section_title
;
Structure prediction by ZEFSAII (Michael W. Deem and Ramdas Pophale) SiO2 
 PCOD8020233
Probable space group: P -1
;
_chemical_formula_sum "Si O2"
_cell_formula_units_Z 16
_cell_length_a 14.132291
_cell_length_b 26.320775
_cell_length_c 17.872336
_cell_angle_alpha 19.197872
_cell_angle_beta 21.118814
_cell_angle_gamma 21.033112
_cell_volume 706.383053
_symmetry_space_group_name_H-M "P -1"
_symmetry_group_IT_number 2
_symmetry_cell_setting 'triclinic'
loop_
_space_group_symop_operation_xyz
x,y,z
-x,-y,-z
loop_
_atom_site_type_symbol
_atom_site_label
_atom_site_fract_x
_atom_site_fract_y
_atom_site_fract_z
Si Si1 0.453868 0.274129 0.169905
Si Si2 0.549474 0.976230 0.121274
Si Si3 0.993590 0.336736 0.691340
Si Si4 0.564054 0.224679 0.645444
Si Si5 0.832376 0.816308 0.754452
Si Si6 0.382012 0.672941 0.299641
Si Si7 0.951937 0.417224 0.449653
Si Si8 0.183513 0.102834 0.510945
O O1 0.302641 0.243957 0.248780
O O2 0.205399 0.406975 0.222183
O O3 0.619407 0.085491 0.343645
O O4 0.663135 0.366145 0.876983
O O5 0.422531 0.894652 0.267217
O O6 0.839827 0.833850 0.145070
O O7 0.295298 0.055667 0.259763
O O8 0.624648 0.118781 0.826391
O O9 0.115210 0.317175 0.544086
O O10 0.000000 0.500000 0.500000
O O11 0.247254 0.384043 0.660891
O O12 0.813223 0.289789 0.354477
O O13 0.788054 0.922523 0.563313
O O14 0.672471 0.694313 0.038334
O O15 0.500000 0.500000 0.500000
O O16 0.239315 0.664648 0.336874
O O17 0.144461 0.830344 0.304837
#
# Coordination Sequence:
#
# PCOD8020233 Si02
#       8
#     2   2   2   2   2   2   2   2
#     4  10  23  42  67  95 134 174 215 272 337 398
#     4  11  25  46  64  95 134 173 229 275 327 395
#     4  12  24  43  65  98 134 172 223 275 325 397
#     4  11  25  45  66  94 133 178 223 280 322 399
#     4  12  22  40  70  94 127 176 220 271 339 389
#     4  11  24  41  66 104 137 172 217 278 336 399
#     4  11  24  44  67  99 134 172 221 271 337 390
#     4  10  22  42  66  98 130 173 221 272 334 399
#
# _framework density 22.650600000000001
#
# number of rings (size 3 to 8) (size 9 to 14) (size 15 to 20)
#    0.000    1.000    1.250    5.625    0.000    5.500 
#    4.500    5.000    0.000    0.000    0.000    0.000 
#    0.000    0.000    0.000    0.000    0.000    0.000 
#
# Total GULP energy -198343.647383 kJ/mol
# GULP energy per Si atom -12396.477961 kJ/mol
# Density = 2.259905 g / cm^3
# Si number density = 22.650600 Si / 1000 Ang^3
#
#
#
# Elastic Constant Matrix: (Units=GPa)
#
#
# Indices 1 2 3 4 5 6 
#
# 1 119.7596 14.6588 12.4204 4.0722 16.1300 16.9702
# 2 14.6588 103.1529 18.5021 11.8569 12.1379 7.8309
# 3 12.4204 18.5021 82.5690 14.2950 -8.2145 4.7008
# 4 4.0722 11.8569 14.2950 30.7432 -3.3784 1.6649
# 5 16.1300 12.1379 -8.2145 -3.3784 38.0189 1.3007
# 6 16.9702 7.8309 4.7008 1.6649 1.3007 42.9361
#
#
#
# Elastic Compliance Matrix: (Units=1/GPa)
#
#
# Indices 1 2 3 4 5 6 
#
# 1 0.009624 -0.000248 -0.001488 -0.000771 -0.004276 -0.003436
# 2 -0.000248 0.011138 -0.002164 -0.003640 -0.004193 -0.001428
# 3 -0.001488 -0.002164 0.014118 -0.005074 0.003938 -0.000485
# 4 -0.000771 -0.003640 -0.005074 0.036796 0.003663 -0.000014
# 5 -0.004276 -0.004193 0.003938 0.003663 0.030599 0.000955
# 6 -0.003436 -0.001428 -0.000485 -0.000014 0.000955 0.024934
#
#
# Mechanical properties :
#
#
# Convention : Reuss Voigt Hill
#
# Bulk Modulus (GPa) = 36.92976 44.07156 40.50066
# Shear Modulus (GPa) = 34.71356 39.66633 37.18995
#
# Velocity S-wave (km/s) = 3.91905 4.18931 4.05643
# Velocity P-wave (km/s) = 6.06779 6.54979 6.31339
#
# Compressibility (1/GPa) = 0.02707843
#
# Stress axis : x y z
#
# Youngs Moduli (GPa) = 103.90828 89.78318 70.83276
#
# Poissons Ratio (x) = 0.02226 0.10543
# Poissons Ratio (y) = 0.02577 0.15329
# Poissons Ratio (z) = 0.15466 0.19430
#
# Static dielectric constant tensor:
#      x y z
#    x 4.452520 0.060580 -0.082650 
#    y 0.060580 4.093700 0.236110 
#    z -0.082650 0.236110 4.052360 
# 
# 
# High freq. dielectric constant tensor:
#      x y z
#    x 1.919900 0.004940 -0.004140 
#    y 0.004940 1.890110 0.008640 
#    z -0.004140 0.008640 1.886850 
# 
# From -- ./inp_files/574499.got.cif
#   From: 2010.06.25/outbox.cif.g09.slc.cpg/sg2_288_cif.got.tgz:574499.got - 2010.06.27 13:26:56.
