data_PCOD8020127
_publ_section_title
;
Structure prediction by ZEFSAII (Michael W. Deem and Ramdas Pophale) SiO2 
 PCOD8020127
Probable space group: P -1
;
_chemical_formula_sum "Si O2"
_cell_formula_units_Z 14
_cell_length_a 11.858100
_cell_length_b 14.712790
_cell_length_c 6.666903
_cell_angle_alpha 121.053569
_cell_angle_beta 93.925967
_cell_angle_gamma 128.416201
_cell_volume 636.264220
_symmetry_space_group_name_H-M "P -1"
_symmetry_group_IT_number 2
_symmetry_cell_setting 'triclinic'
loop_
_space_group_symop_operation_xyz
x,y,z
-x,-y,-z
loop_
_atom_site_type_symbol
_atom_site_label
_atom_site_fract_x
_atom_site_fract_y
_atom_site_fract_z
Si Si1 0.841038 0.395517 0.517900
Si Si2 0.222279 0.293800 0.342137
Si Si3 0.751362 0.204117 0.654103
Si Si4 0.055911 0.308389 0.013794
Si Si5 0.855267 0.818523 0.373504
Si Si6 0.554745 0.668529 0.906085
Si Si7 0.453726 0.834718 0.085930
O O1 0.875472 0.344993 0.657425
O O2 0.000000 0.500000 0.500000
O O3 0.819919 0.500487 0.714947
O O4 0.660210 0.231694 0.203976
O O5 0.125522 0.163090 0.362991
O O6 0.360660 0.478270 0.659674
O O7 0.326052 0.282824 0.210704
O O8 0.069665 0.243509 0.138745
O O9 0.664840 0.236294 0.809685
O O10 0.858877 0.207311 0.826442
O O11 0.604826 0.031444 0.324614
O O12 0.120490 0.286346 0.808108
O O13 0.656918 0.710137 0.168752
O O14 0.000000 0.000000 0.500000
O O15 0.543626 0.786002 0.039098
#
# Coordination Sequence:
#
# PCOD8020127 Si02
#       7
#     2   2   2   2   2   2   2
#     4  12  25  43  66 100 133 177 222 268 322 392
#     4  10  23  43  68  96 130 167 224 269 321 393
#     4  11  26  43  67 101 135 172 222 269 329 390
#     4  11  24  41  70  99 127 177 220 267 329 380
#     4  11  25  43  66  99 134 171 213 272 334 390
#     4  10  22  42  65  98 126 175 218 266 326 385
#     4  11  24  45  67  96 137 174 216 272 331 383
#
# _framework density 22.003439
#
# number of rings (size 3 to 8) (size 9 to 14) (size 15 to 20)
#    0.000    1.143    2.857    2.143    4.000    3.429 
#    2.571    0.000    0.000    0.000    0.000    0.000 
#    0.000    0.000    0.000    0.000    0.000    0.000 
#
# Total GULP energy -173614.926421 kJ/mol
# GULP energy per Si atom -12401.066173 kJ/mol
# Density = 2.195336 g / cm^3
# Si number density = 22.003439 Si / 1000 Ang^3
#
#
#
# Elastic Constant Matrix: (Units=GPa)
#
#
# Indices 1 2 3 4 5 6 
#
# 1 133.6805 49.2370 53.7922 -11.2018 -2.9381 -14.8139
# 2 49.2370 131.4921 42.7185 -30.3356 3.0880 -1.0140
# 3 53.7922 42.7185 132.5980 -4.0753 6.9728 -7.3304
# 4 -11.2018 -30.3356 -4.0753 31.5376 -4.1002 5.2813
# 5 -2.9381 3.0880 6.9728 -4.1002 39.4045 4.6660
# 6 -14.8139 -1.0140 -7.3304 5.2813 4.6660 17.2471
#
#
#
# Elastic Compliance Matrix: (Units=1/GPa)
#
#
# Indices 1 2 3 4 5 6 
#
# 1 0.010633 -0.003204 -0.002904 -0.000925 0.000532 0.007850
# 2 -0.003204 0.012328 -0.002779 0.011739 0.001357 -0.007170
# 3 -0.002904 -0.002779 0.009819 -0.003289 -0.002456 0.003187
# 4 -0.000925 0.011739 -0.003289 0.045982 0.006429 -0.017322
# 5 0.000532 0.001357 -0.002456 0.006429 0.027592 -0.009940
# 6 0.007850 -0.007170 0.003187 -0.017322 -0.009940 0.073649
#
#
# Mechanical properties :
#
#
# Convention : Reuss Voigt Hill
#
# Bulk Modulus (GPa) = 66.63364 76.58512 71.60938
# Shear Modulus (GPa) = 24.65726 34.43938 29.54832
#
# Velocity S-wave (km/s) = 3.35118 3.96053 3.66853
# Velocity P-wave (km/s) = 6.73223 7.46967 7.11052
#
# Compressibility (1/GPa) = 0.01500743
#
# Stress axis : x y z
#
# Youngs Moduli (GPa) = 94.04684 81.11329 101.84032
#
# Poissons Ratio (x) = 0.25985 0.29574
# Poissons Ratio (y) = 0.30128 0.28303
# Poissons Ratio (z) = 0.27311 0.22543
#
# Static dielectric constant tensor:
#      x y z
#    x 3.994560 -0.062410 0.005630 
#    y -0.062410 3.603520 -0.039600 
#    z 0.005630 -0.039600 4.394870 
# 
# 
# High freq. dielectric constant tensor:
#      x y z
#    x 1.869360 -0.007980 -0.000740 
#    y -0.007980 1.841430 -0.001150 
#    z -0.000740 -0.001150 1.893650 
# 
# From -- ./inp_files/27190.got.cif
#   From: 2010.06.25/outbox.cif.g09.slc.cpg/sg2_14_cif.got.tgz:27190.got - 2010.06.27 13:26:56.
