data_PCOD8020342
_publ_section_title
;
Structure prediction by ZEFSAII (Michael W. Deem and Ramdas Pophale) SiO2 
 PCOD8020342
Probable space group: P -1
;
_chemical_formula_sum "Si O2"
_cell_formula_units_Z 14
_cell_length_a 14.508560
_cell_length_b 11.598537
_cell_length_c 8.486578
_cell_angle_alpha 113.806137
_cell_angle_beta 68.828587
_cell_angle_gamma 54.835917
_cell_volume 649.807382
_symmetry_space_group_name_H-M "P -1"
_symmetry_group_IT_number 2
_symmetry_cell_setting 'triclinic'
loop_
_space_group_symop_operation_xyz
x,y,z
-x,-y,-z
loop_
_atom_site_type_symbol
_atom_site_label
_atom_site_fract_x
_atom_site_fract_y
_atom_site_fract_z
Si Si1 0.110395 0.501873 0.875877
Si Si2 0.010159 0.734380 0.760022
Si Si3 0.190780 0.644614 0.104679
Si Si4 0.383240 0.802905 0.819997
Si Si5 0.904943 0.127351 0.397125
Si Si6 0.461380 0.591345 0.328793
Si Si7 0.635727 0.764661 0.692879
O O1 0.292627 0.255966 0.530354
O O2 0.989214 0.721411 0.952140
O O3 0.169507 0.520977 0.001213
O O4 0.000000 0.500000 0.000000
O O5 0.062897 0.825866 0.756343
O O6 0.182406 0.463690 0.437888
O O7 0.819578 0.913072 0.881817
O O8 0.106223 0.757812 0.391575
O O9 0.408149 0.447959 0.860160
O O10 0.081258 0.847678 0.157124
O O11 0.384653 0.728330 0.613976
O O12 0.418924 0.665290 0.861687
O O13 0.539965 0.737743 0.692862
O O14 0.717289 0.247415 0.578066
O O15 0.500000 0.000000 0.000000
#
# Coordination Sequence:
#
# PCOD8020342 Si02
#       7
#     2   2   2   2   2   2   2
#     4  10  23  47  68  94 134 178 222 277 323 394
#     4  10  22  42  67  96 128 171 222 265 339 384
#     4  11  23  41  64  99 139 167 219 272 338 388
#     4  11  21  36  69 100 124 172 216 277 325 397
#     4  11  23  39  67 103 133 171 207 281 336 398
#     4  11  20  37  65 100 135 163 218 263 340 401
#     4  10  23  44  66  94 129 174 230 271 321 394
#
# _framework density 21.544846
#
# number of rings (size 3 to 8) (size 9 to 14) (size 15 to 20)
#    0.857    0.571    4.286    1.286    2.000    2.857 
#    2.571    2.143    0.000    0.000    0.000    0.000 
#    0.000    0.000    0.000    0.000    0.000    0.000 
#
# Total GULP energy -173499.951271 kJ/mol
# GULP energy per Si atom -12392.853662 kJ/mol
# Density = 2.149581 g / cm^3
# Si number density = 21.544846 Si / 1000 Ang^3
#
#
#
# Elastic Constant Matrix: (Units=GPa)
#
#
# Indices 1 2 3 4 5 6 
#
# 1 114.7789 36.0019 52.6798 -12.3747 -12.4310 16.6506
# 2 36.0019 70.2370 27.2199 4.4613 -11.6974 5.4862
# 3 52.6798 27.2199 101.4389 13.9241 -12.8345 9.7865
# 4 -12.3747 4.4613 13.9241 36.3284 1.2527 -13.5978
# 5 -12.4310 -11.6974 -12.8345 1.2527 44.8702 -2.1653
# 6 16.6506 5.4862 9.7865 -13.5978 -2.1653 29.4863
#
#
#
# Elastic Compliance Matrix: (Units=1/GPa)
#
#
# Indices 1 2 3 4 5 6 
#
# 1 0.014671 -0.005075 -0.007158 0.007860 0.000412 -0.001310
# 2 -0.005075 0.018195 -0.001066 -0.004397 0.003060 -0.001969
# 3 -0.007158 -0.001066 0.016230 -0.010846 0.002396 -0.005972
# 4 0.007860 -0.004397 -0.010846 0.042192 -0.002319 0.019266
# 5 0.000412 0.003060 0.002396 -0.002319 0.023904 -0.000911
# 6 -0.001310 -0.001969 -0.005972 0.019266 -0.000911 0.045820
#
#
# Mechanical properties :
#
#
# Convention : Reuss Voigt Hill
#
# Bulk Modulus (GPa) = 44.44862 57.58421 51.01641
# Shear Modulus (GPa) = 25.62669 33.50720 29.56695
#
# Velocity S-wave (km/s) = 3.45259 3.94792 3.70854
# Velocity P-wave (km/s) = 6.04726 6.89689 6.48600
#
# Compressibility (1/GPa) = 0.02249788
#
# Stress axis : x y z
#
# Youngs Moduli (GPa) = 68.15995 54.96164 61.61583
#
# Poissons Ratio (x) = 0.27891 0.44104
# Poissons Ratio (y) = 0.34588 0.06570
# Poissons Ratio (z) = 0.48788 0.05861
#
# Static dielectric constant tensor:
#      x y z
#    x 3.779110 -0.068610 -0.159780 
#    y -0.068610 3.679130 0.111140 
#    z -0.159780 0.111140 3.825960 
# 
# 
# High freq. dielectric constant tensor:
#      x y z
#    x 1.838580 -0.004100 -0.017810 
#    y -0.004100 1.823420 0.005400 
#    z -0.017810 0.005400 1.848310 
# 
# From -- ./inp_files/307933.got.cif
#   From: 2010.06.25/outbox.cif.g09.slc.cpg/sg2_154_cif.got.tgz:307933.got - 2010.06.27 13:26:56.
