data_PCOD8020134
_publ_section_title
;
Structure prediction by ZEFSAII (Michael W. Deem and Ramdas Pophale) SiO2 
 PCOD8020134
Probable space group: P -1
;
_chemical_formula_sum "Si O2"
_cell_formula_units_Z 16
_cell_length_a 12.884554
_cell_length_b 11.979694
_cell_length_c 8.898470
_cell_angle_alpha 127.980589
_cell_angle_beta 58.544963
_cell_angle_gamma 86.925980
_cell_volume 766.787917
_symmetry_space_group_name_H-M "P -1"
_symmetry_group_IT_number 2
_symmetry_cell_setting 'triclinic'
loop_
_space_group_symop_operation_xyz
x,y,z
-x,-y,-z
loop_
_atom_site_type_symbol
_atom_site_label
_atom_site_fract_x
_atom_site_fract_y
_atom_site_fract_z
Si Si1 0.519697 0.988737 0.224314
Si Si2 0.267279 0.514244 0.539403
Si Si3 0.693438 0.756105 0.167133
Si Si4 0.347389 0.521200 0.144667
Si Si5 0.840994 0.171003 0.917042
Si Si6 0.937670 0.212852 0.568381
Si Si7 0.009866 0.478811 0.652660
Si Si8 0.553621 0.188136 0.111860
O O1 0.375336 0.133279 0.540029
O O2 0.581341 0.068370 0.133001
O O3 0.648486 0.872634 0.148890
O O4 0.476437 0.877355 0.072837
O O5 0.309694 0.509330 0.332462
O O6 0.153633 0.458708 0.593801
O O7 0.412409 0.378136 0.410398
O O8 0.197870 0.702816 0.810657
O O9 0.640245 0.628975 0.087093
O O10 0.867749 0.649210 0.969468
O O11 0.217454 0.703095 0.329047
O O12 0.500000 0.500000 0.000000
O O13 0.913693 0.216336 0.767919
O O14 0.695441 0.191140 0.980198
O O15 0.956139 0.979950 0.730854
O O16 0.014890 0.311875 0.557462
O O17 0.000000 0.500000 0.500000
#
# Coordination Sequence:
#
# PCOD8020134 Si02
#       8
#     2   2   2   2   2   2   2   2
#     4  10  23  40  65 101 125 170 220 269 330 382
#     4  12  25  43  66 102 128 176 221 265 338 386
#     4  10  22  42  65  99 124 168 223 270 328 383
#     4  11  23  42  67  93 133 172 216 272 325 386
#     4  11  27  44  66  99 136 173 218 271 331 398
#     4  10  25  46  66  94 135 175 219 271 327 386
#     4  11  22  44  70  91 134 170 221 274 320 391
#     4  11  24  42  67  93 138 168 217 272 328 390
#
# _framework density 20.866263
#
# number of rings (size 3 to 8) (size 9 to 14) (size 15 to 20)
#    0.000    1.250    3.750    1.125   10.500    3.000 
#    2.250    0.000    0.000    0.000    0.000    0.000 
#    0.000    0.000    0.000    0.000    0.000    0.000 
#
# Total GULP energy -198484.695683 kJ/mol
# GULP energy per Si atom -12405.293480 kJ/mol
# Density = 2.081877 g / cm^3
# Si number density = 20.866263 Si / 1000 Ang^3
#
#
#
# Elastic Constant Matrix: (Units=GPa)
#
#
# Indices 1 2 3 4 5 6 
#
# 1 85.9602 41.6077 44.9144 5.7492 -21.8914 10.4408
# 2 41.6077 115.5131 55.1176 7.8403 -8.7270 10.2294
# 3 44.9144 55.1176 130.7356 18.5552 -6.8588 10.1412
# 4 5.7492 7.8403 18.5552 35.5406 -6.6186 -6.6337
# 5 -21.8914 -8.7270 -6.8588 -6.6186 39.3233 -1.0188
# 6 10.4408 10.2294 10.1412 -6.6337 -1.0188 25.9819
#
#
#
# Elastic Compliance Matrix: (Units=1/GPa)
#
#
# Indices 1 2 3 4 5 6 
#
# 1 0.018116 -0.003669 -0.004071 0.000924 0.008621 -0.003672
# 2 -0.003669 0.011856 -0.003509 -0.000592 -0.000175 -0.001982
# 3 -0.004071 -0.003509 0.011420 -0.005454 -0.002047 -0.002913
# 4 0.000924 -0.000592 -0.005454 0.034010 0.005438 0.010887
# 5 0.008621 -0.000175 -0.002047 0.005438 0.030749 -0.000003
# 6 -0.003672 -0.001982 -0.002913 0.010887 -0.000003 0.044661
#
#
# Mechanical properties :
#
#
# Convention : Reuss Voigt Hill
#
# Bulk Modulus (GPa) = 52.92963 68.38758 60.65860
# Shear Modulus (GPa) = 27.83840 32.87378 30.35609
#
# Velocity S-wave (km/s) = 3.65654 3.97350 3.81831
# Velocity P-wave (km/s) = 6.57634 7.34146 6.96941
#
# Compressibility (1/GPa) = 0.01889301
#
# Stress axis : x y z
#
# Youngs Moduli (GPa) = 55.19919 84.34890 87.56790
#
# Poissons Ratio (x) = 0.30949 0.35649
# Poissons Ratio (y) = 0.20253 0.30728
# Poissons Ratio (z) = 0.22471 0.29599
#
# Static dielectric constant tensor:
#      x y z
#    x 3.518630 -0.124070 0.070770 
#    y -0.124070 3.869050 0.245760 
#    z 0.070770 0.245760 3.645650 
# 
# 
# High freq. dielectric constant tensor:
#      x y z
#    x 1.807060 -0.002070 -0.011790 
#    y -0.002070 1.828550 0.004610 
#    z -0.011790 0.004610 1.830950 
# 
# From -- ./inp_files/208956.got.cif
#   From: 2010.06.25/outbox.cif.g09.slc.cpg/sg2_105_cif.got.tgz:208956.got - 2010.06.27 13:26:56.
