data_PCOD8020182
_publ_section_title
;
Structure prediction by ZEFSAII (Michael W. Deem and Ramdas Pophale) SiO2 
 PCOD8020182
Probable space group: P -1
;
_chemical_formula_sum "Si O2"
_cell_formula_units_Z 16
_cell_length_a 16.568485
_cell_length_b 9.062825
_cell_length_c 11.948397
_cell_angle_alpha 52.748622
_cell_angle_beta 41.602306
_cell_angle_gamma 82.787756
_cell_volume 744.783589
_symmetry_space_group_name_H-M "P -1"
_symmetry_group_IT_number 2
_symmetry_cell_setting 'triclinic'
loop_
_space_group_symop_operation_xyz
x,y,z
-x,-y,-z
loop_
_atom_site_type_symbol
_atom_site_label
_atom_site_fract_x
_atom_site_fract_y
_atom_site_fract_z
Si Si1 0.757709 0.381127 0.303222
Si Si2 0.556233 0.584716 0.075330
Si Si3 0.922420 0.381724 0.819143
Si Si4 0.075603 0.815329 0.862198
Si Si5 0.517553 0.873150 0.136546
Si Si6 0.193175 0.696684 0.257418
Si Si7 0.620622 0.278169 0.263794
Si Si8 0.746082 0.671296 0.633858
O O1 0.798709 0.205779 0.312991
O O2 0.653430 0.308018 0.553645
O O3 0.653274 0.364097 0.318766
O O4 0.914459 0.642877 0.042138
O O5 0.587395 0.749791 0.071200
O O6 0.536990 0.362822 0.246519
O O7 0.398559 0.495544 0.220848
O O8 0.696252 0.722553 0.777990
O O9 0.875042 0.259913 0.800662
O O10 0.088947 0.638800 0.504022
O O11 0.942073 0.245618 0.958375
O O12 0.790300 0.401362 0.980951
O O13 0.129808 0.077931 0.670494
O O14 0.500000 0.000000 0.000000
O O15 0.634487 0.063720 0.019856
O O16 0.186318 0.468006 0.349154
O O17 0.500000 0.000000 0.500000
#
# Coordination Sequence:
#
# PCOD8020182 Si02
#       8
#     2   2   2   2   2   2   2   2
#     4  10  23  41  65  94 134 171 215 267 333 382
#     4  11  24  40  67  99 127 172 220 265 328 388
#     4  10  22  42  66  93 128 171 222 257 331 381
#     4  10  22  42  66  94 129 176 217 268 323 393
#     4  12  23  41  65  95 134 169 215 277 324 383
#     4  11  23  42  67  99 130 174 215 274 325 387
#     4  11  22  43  67  96 132 176 216 266 324 394
#     4  11  23  42  67  98 128 171 227 259 321 396
#
# _framework density 21.482748999999998
#
# number of rings (size 3 to 8) (size 9 to 14) (size 15 to 20)
#    0.000    1.250    2.500    3.750    1.750    3.000 
#    6.750    1.250    0.000    0.000    0.000    0.000 
#    0.000    0.000    0.000    0.000    0.000    0.000 
#
# Total GULP energy -198345.950178 kJ/mol
# GULP energy per Si atom -12396.621886 kJ/mol
# Density = 2.143385 g / cm^3
# Si number density = 21.482749 Si / 1000 Ang^3
#
#
#
# Elastic Constant Matrix: (Units=GPa)
#
#
# Indices 1 2 3 4 5 6 
#
# 1 109.0818 22.4394 30.9119 -4.9882 8.7384 12.0942
# 2 22.4394 84.2185 46.5453 0.1814 7.3375 4.7264
# 3 30.9119 46.5453 103.4594 9.3183 6.0187 6.3209
# 4 -4.9882 0.1814 9.3183 37.7217 -0.1389 2.0169
# 5 8.7384 7.3375 6.0187 -0.1389 37.6908 4.2079
# 6 12.0942 4.7264 6.3209 2.0169 4.2079 25.5320
#
#
#
# Elastic Compliance Matrix: (Units=1/GPa)
#
#
# Indices 1 2 3 4 5 6 
#
# 1 0.010817 -0.001084 -0.002612 0.002302 -0.001399 -0.004228
# 2 -0.001084 0.016189 -0.006960 0.001524 -0.001716 -0.000598
# 3 -0.002612 -0.006960 0.013962 -0.003730 -0.000216 -0.000601
# 4 0.002302 0.001524 -0.003730 0.027872 0.000167 -0.002678
# 5 -0.001399 -0.001716 -0.000216 0.000167 0.027620 -0.003531
# 6 -0.004228 -0.000598 -0.000601 -0.002678 -0.003531 0.042222
#
#
# Mechanical properties :
#
#
# Convention : Reuss Voigt Hill
#
# Bulk Modulus (GPa) = 50.87540 55.17254 53.02397
# Shear Modulus (GPa) = 30.02159 33.31310 31.66734
#
# Velocity S-wave (km/s) = 3.74234 3.94215 3.84354
# Velocity P-wave (km/s) = 6.51205 6.81607 6.66579
#
# Compressibility (1/GPa) = 0.01965587
#
# Stress axis : x y z
#
# Youngs Moduli (GPa) = 92.45010 61.76882 71.62055
#
# Poissons Ratio (x) = 0.06699 0.18704
# Poissons Ratio (y) = 0.10026 0.49850
# Poissons Ratio (z) = 0.24144 0.42993
#
# Static dielectric constant tensor:
#      x y z
#    x 4.398290 0.151210 -0.496070 
#    y 0.151210 3.576870 -0.058690 
#    z -0.496070 -0.058690 5.061910 
# 
# 
# High freq. dielectric constant tensor:
#      x y z
#    x 1.856860 0.005590 0.000070 
#    y 0.005590 1.818460 0.017470 
#    z 0.000070 0.017470 1.852200 
# 
# From -- ./inp_files/189994.got.cif
#   From: 2010.06.25/outbox.cif.g09.slc.cpg/sg2_95_cif.got.tgz:189994.got - 2010.06.27 13:26:56.
