data_PCOD8020094
_publ_section_title
;
Structure prediction by ZEFSAII (Michael W. Deem and Ramdas Pophale) SiO2 
 PCOD8020094
Probable space group: P -1
;
_chemical_formula_sum "Si O2"
_cell_formula_units_Z 16
_cell_length_a 6.496719
_cell_length_b 16.990923
_cell_length_c 8.528162
_cell_angle_alpha 49.780801
_cell_angle_beta 96.991645
_cell_angle_gamma 89.313859
_cell_volume 708.362767
_symmetry_space_group_name_H-M "P -1"
_symmetry_group_IT_number 2
_symmetry_cell_setting 'triclinic'
loop_
_space_group_symop_operation_xyz
x,y,z
-x,-y,-z
loop_
_atom_site_type_symbol
_atom_site_label
_atom_site_fract_x
_atom_site_fract_y
_atom_site_fract_z
Si Si1 0.927341 0.914524 0.262122
Si Si2 0.995386 0.587654 0.104497
Si Si3 0.702190 0.250302 0.578758
Si Si4 0.357287 0.245829 0.063293
Si Si5 0.275471 0.559359 0.863474
Si Si6 0.620152 0.388063 0.698359
Si Si7 0.429505 0.124121 0.531885
Si Si8 0.260242 0.057340 0.109229
O O1 0.817518 0.876440 0.457125
O O2 0.078421 0.823069 0.308079
O O3 0.745990 0.951403 0.070101
O O4 0.049563 0.009982 0.206319
O O5 0.843360 0.496873 0.213218
O O6 0.150014 0.585949 0.267718
O O7 0.845932 0.695090 0.948093
O O8 0.135673 0.570342 0.988251
O O9 0.696568 0.327440 0.334378
O O10 0.650089 0.309328 0.658859
O O11 0.515654 0.183842 0.609900
O O12 0.473709 0.174559 0.302964
O O13 0.271373 0.175727 0.009673
O O14 0.504752 0.328065 0.900919
O O15 0.500000 0.500000 0.000000
O O16 0.500000 0.500000 0.500000
O O17 0.543206 0.006997 0.703524
#
# Coordination Sequence:
#
# PCOD8020094 Si02
#       8
#     2   2   2   2   2   2   2   2
#     4  10  22  42  65  94 127 167 219 264 320 392
#     4  11  24  41  66  93 126 170 215 270 327 384
#     4  11  23  40  64  91 125 170 215 263 323 385
#     4  12  25  42  65  97 133 171 217 268 330 390
#     4  11  23  43  66  93 128 168 219 271 325 387
#     4  12  27  44  65  96 134 173 220 274 326 386
#     4  11  23  41  67  95 129 171 213 267 325 388
#     4  10  23  41  64  96 132 168 211 266 325 391
#
# _framework density 22.587298000000001
#
# number of rings (size 3 to 8) (size 9 to 14) (size 15 to 20)
#    0.000    1.000    0.000    6.750    0.000   10.500 
#    0.000    0.000    0.000    0.000    0.000    0.000 
#    0.000    0.000    0.000    0.000    0.000    0.000 
#
# Total GULP energy -198335.002776 kJ/mol
# GULP energy per Si atom -12395.937674 kJ/mol
# Density = 2.253589 g / cm^3
# Si number density = 22.587298 Si / 1000 Ang^3
#
#
#
# Elastic Constant Matrix: (Units=GPa)
#
#
# Indices 1 2 3 4 5 6 
#
# 1 113.9007 31.2277 32.8359 -6.9046 -2.3567 11.2040
# 2 31.2277 93.8936 1.4280 -8.2038 3.1163 14.2167
# 3 32.8359 1.4280 98.5178 -13.9956 -3.0606 2.0006
# 4 -6.9046 -8.2038 -13.9956 36.5044 1.3011 4.4108
# 5 -2.3567 3.1163 -3.0606 1.3011 37.5879 1.5663
# 6 11.2040 14.2167 2.0006 4.4108 1.5663 26.9631
#
#
#
# Elastic Compliance Matrix: (Units=1/GPa)
#
#
# Indices 1 2 3 4 5 6 
#
# 1 0.010957 -0.003177 -0.003481 0.000325 0.000769 -0.002717
# 2 -0.003177 0.012973 0.001485 0.003666 -0.001024 -0.006171
# 3 -0.003481 0.001485 0.011943 0.004352 0.000521 -0.000965
# 4 0.000325 0.003666 0.004352 0.030867 -0.000689 -0.007400
# 5 0.000769 -0.001024 0.000521 -0.000689 0.026856 -0.001266
# 6 -0.002717 -0.006171 -0.000965 -0.007400 -0.001266 0.042826
#
#
# Mechanical properties :
#
#
# Convention : Reuss Voigt Hill
#
# Bulk Modulus (GPa) = 39.17243 48.58837 43.88040
# Shear Modulus (GPa) = 32.20066 36.26577 34.23321
#
# Velocity S-wave (km/s) = 3.77982 4.01132 3.89729
# Velocity P-wave (km/s) = 6.03570 6.55838 6.30246
#
# Compressibility (1/GPa) = 0.02552816
#
# Stress axis : x y z
#
# Youngs Moduli (GPa) = 91.26677 77.08363 83.73043
#
# Poissons Ratio (x) = 0.24488 0.29143
# Poissons Ratio (y) = 0.28994 -0.12435
# Poissons Ratio (z) = 0.31767 -0.11448
#
# Static dielectric constant tensor:
#      x y z
#    x 4.275220 0.273570 0.016390 
#    y 0.273570 4.207350 -0.170660 
#    z 0.016390 -0.170660 4.032930 
# 
# 
# High freq. dielectric constant tensor:
#      x y z
#    x 1.896730 0.009650 -0.000220 
#    y 0.009650 1.900040 -0.008060 
#    z -0.000220 -0.008060 1.891350 
# 
# From -- ./inp_files/85189.got.cif
#   From: 2010.06.25/outbox.cif.g09.slc.cpg/sg2_43_cif.got.tgz:85189.got - 2010.06.27 13:26:56.
