data_PCOD8020512
_publ_section_title
;
Structure prediction by ZEFSAII (Michael W. Deem and Ramdas Pophale) SiO2 
 PCOD8020512
Probable space group: P -1
;
_chemical_formula_sum "Si O2"
_cell_formula_units_Z 16
_cell_length_a 13.761908
_cell_length_b 25.052839
_cell_length_c 8.275586
_cell_angle_alpha 45.561610
_cell_angle_beta 54.072174
_cell_angle_gamma 20.506843
_cell_volume 685.973845
_symmetry_space_group_name_H-M "P -1"
_symmetry_group_IT_number 2
_symmetry_cell_setting 'triclinic'
loop_
_space_group_symop_operation_xyz
x,y,z
-x,-y,-z
loop_
_atom_site_type_symbol
_atom_site_label
_atom_site_fract_x
_atom_site_fract_y
_atom_site_fract_z
Si Si1 0.193681 0.458848 0.351510
Si Si2 0.857752 0.022035 0.355597
Si Si3 0.925564 0.759253 0.977147
Si Si4 0.190123 0.601173 0.516400
Si Si5 0.654020 0.966559 0.116778
Si Si6 0.769869 0.060652 0.722495
Si Si7 0.740811 0.330788 0.396984
Si Si8 0.756369 0.585793 0.975951
O O1 0.509648 0.267206 0.521218
O O2 0.172465 0.480457 0.133940
O O3 0.000000 0.500000 0.500000
O O4 0.076889 0.601031 0.245285
O O5 0.971073 0.043087 0.219719
O O6 0.067123 0.853046 0.400056
O O7 0.847300 0.991786 0.609644
O O8 0.549558 0.197504 0.192983
O O9 0.173422 0.666535 0.844288
O O10 0.673746 0.871254 0.864403
O O11 0.744257 0.909528 0.962359
O O12 0.399543 0.503118 0.367233
O O13 0.211265 0.651718 0.524060
O O14 0.857766 0.794810 0.379238
O O15 0.271747 0.472460 0.766678
O O16 0.692165 0.033904 0.968392
O O17 0.000000 0.500000 0.000000
#
# Coordination Sequence:
#
# PCOD8020512 Si02
#       8
#     2   2   2   2   2   2   2   2
#     4  11  23  43  70 103 136 176 236 283 346 410
#     4  10  24  44  70  97 140 181 234 282 355 407
#     4  11  24  44  72 102 136 186 236 290 344 406
#     4  11  28  45  66 103 143 184 229 285 349 422
#     4  11  25  42  72 102 140 177 240 288 345 411
#     4  10  22  42  69 106 133 178 232 298 335 414
#     4  11  25  47  67  98 141 188 228 281 352 415
#     4  11  27  46  69 101 142 182 229 290 349 421
#
# _framework density 23.324507000000001
#
# number of rings (size 3 to 8) (size 9 to 14) (size 15 to 20)
#    0.000    1.250    3.750    0.000    8.750    3.500 
#    0.000    0.000    0.000    0.000    0.000    0.000 
#    0.000    0.000    0.000    0.000    0.000    0.000 
#
# Total GULP energy -198343.338405 kJ/mol
# GULP energy per Si atom -12396.458650 kJ/mol
# Density = 2.327142 g / cm^3
# Si number density = 23.324507 Si / 1000 Ang^3
#
#
#
# Elastic Constant Matrix: (Units=GPa)
#
#
# Indices 1 2 3 4 5 6 
#
# 1 76.7018 15.5035 26.1833 -14.4523 -8.7918 -12.0616
# 2 15.5035 88.2503 29.0378 -11.7801 -7.6575 -4.4223
# 3 26.1833 29.0378 98.7672 -2.1108 -18.1412 -7.9531
# 4 -14.4523 -11.7801 -2.1108 45.5408 -5.7742 -4.9481
# 5 -8.7918 -7.6575 -18.1412 -5.7742 29.7944 -8.9030
# 6 -12.0616 -4.4223 -7.9531 -4.9481 -8.9030 31.4849
#
#
#
# Elastic Compliance Matrix: (Units=1/GPa)
#
#
# Indices 1 2 3 4 5 6 
#
# 1 0.017721 -0.000181 -0.002189 0.007575 0.008224 0.009726
# 2 -0.000181 0.013260 -0.003012 0.003888 0.003021 0.002498
# 3 -0.002189 -0.003012 0.013505 0.000708 0.008319 0.004613
# 4 0.007575 0.003888 0.000708 0.028265 0.012621 0.011638
# 5 0.008224 0.003021 0.008319 0.012621 0.050864 0.022043
# 6 0.009726 0.002498 0.004613 0.011638 0.022043 0.045066
#
#
# Mechanical properties :
#
#
# Convention : Reuss Voigt Hill
#
# Bulk Modulus (GPa) = 29.65277 45.01871 37.33574
# Shear Modulus (GPa) = 26.22121 34.23034 30.22578
#
# Velocity S-wave (km/s) = 3.35653 3.83504 3.60374
# Velocity P-wave (km/s) = 5.26901 6.24123 5.77562
#
# Compressibility (1/GPa) = 0.03372366
#
# Stress axis : x y z
#
# Youngs Moduli (GPa) = 56.43092 75.41313 74.04579
#
# Poissons Ratio (x) = 0.01363 0.16209
# Poissons Ratio (y) = 0.01020 0.22300
# Poissons Ratio (z) = 0.12353 0.22711
#
# Static dielectric constant tensor:
#      x y z
#    x 4.188330 -0.018030 -0.226010 
#    y -0.018030 5.084030 -0.391370 
#    z -0.226010 -0.391370 4.111890 
# 
# 
# High freq. dielectric constant tensor:
#      x y z
#    x 1.923510 -0.006720 -0.016040 
#    y -0.006720 1.931170 -0.010630 
#    z -0.016040 -0.010630 1.913700 
# 
# From -- ./inp_files/320651.got.cif
#   From: 2010.06.25/outbox.cif.g09.slc.cpg/sg2_161_cif.got.tgz:320651.got - 2010.06.27 13:26:56.
