data_PCOD8020935
_publ_section_title
;
Structure prediction by ZEFSAII (Michael W. Deem and Ramdas Pophale) SiO2 
 PCOD8020935
Probable space group: P -1
;
_chemical_formula_sum "Si O2"
_cell_formula_units_Z 12
_cell_length_a 12.285101
_cell_length_b 8.830929
_cell_length_c 8.267159
_cell_angle_alpha 54.491220
_cell_angle_beta 52.937101
_cell_angle_gamma 53.731522
_cell_volume 540.833521
_symmetry_space_group_name_H-M "P -1"
_symmetry_group_IT_number 2
_symmetry_cell_setting 'triclinic'
loop_
_space_group_symop_operation_xyz
x,y,z
-x,-y,-z
loop_
_atom_site_type_symbol
_atom_site_label
_atom_site_fract_x
_atom_site_fract_y
_atom_site_fract_z
Si Si1 0.242553 0.098463 0.885452
Si Si2 0.023353 0.837869 0.714803
Si Si3 0.778098 0.564812 0.784282
Si Si4 0.749023 0.207421 0.199620
Si Si5 0.899174 0.487982 0.391196
Si Si6 0.444699 0.995574 0.372189
O O1 0.182202 0.275937 0.700190
O O2 0.241156 0.906014 0.908141
O O3 0.404379 0.074505 0.823518
O O4 0.139050 0.150151 0.102129
O O5 0.097200 0.875239 0.789769
O O6 0.126207 0.626701 0.673214
O O7 0.000000 0.000000 0.500000
O O8 0.826288 0.440981 0.648450
O O9 0.660554 0.788260 0.730844
O O10 0.925392 0.580148 0.714271
O O11 0.711098 0.440146 0.040558
O O12 0.631987 0.169791 0.451280
O O13 0.500000 0.000000 0.500000
#
# Coordination Sequence:
#
# PCOD8020935 Si02
#       6
#     2   2   2   2   2   2
#     4  11  23  44  68  93 135 168 214 272 320 382
#     4  12  25  41  66 100 130 169 223 267 319 382
#     4  11  22  41  72  95 129 173 216 265 323 384
#     4  11  23  42  69  98 126 173 221 260 319 393
#     4  11  23  41  68  98 130 168 217 271 321 377
#     4  10  22  43  65  97 133 167 215 265 326 382
#
# _framework density 22.187973
#
# number of rings (size 3 to 8) (size 9 to 14) (size 15 to 20)
#    0.000    1.000    5.000    3.000    2.333    2.667 
#    3.000    4.167    0.000    0.000    0.000    0.000 
#    0.000    0.000    0.000    0.000    0.000    0.000 
#
# Total GULP energy -148720.377960 kJ/mol
# GULP energy per Si atom -12393.364830 kJ/mol
# Density = 2.213747 g / cm^3
# Si number density = 22.187973 Si / 1000 Ang^3
#
#
#
# Elastic Constant Matrix: (Units=GPa)
#
#
# Indices 1 2 3 4 5 6 
#
# 1 71.7681 43.9333 49.7933 -3.2729 -11.3479 -27.1227
# 2 43.9333 70.7798 55.8713 -8.4967 -5.5913 -30.3904
# 3 49.7933 55.8713 160.0803 -19.0264 -20.4625 -14.5136
# 4 -3.2729 -8.4967 -19.0264 43.2770 -9.8826 10.1263
# 5 -11.3479 -5.5913 -20.4625 -9.8826 29.8058 7.3404
# 6 -27.1227 -30.3904 -14.5136 10.1263 7.3404 40.8664
#
#
#
# Elastic Compliance Matrix: (Units=1/GPa)
#
#
# Indices 1 2 3 4 5 6 
#
# 1 0.026241 -0.008925 -0.004366 -0.003592 0.001712 0.009811
# 2 -0.008925 0.033392 -0.008925 -0.004507 -0.009319 0.018529
# 3 -0.004366 -0.008925 0.012029 0.007457 0.009569 -0.008829
# 4 -0.003592 -0.004507 0.007457 0.032479 0.017177 -0.014220
# 5 0.001712 -0.009319 0.009569 0.017177 0.048502 -0.015364
# 6 0.009811 0.018529 -0.008829 -0.014220 -0.015364 0.047908
#
#
# Mechanical properties :
#
#
# Convention : Reuss Voigt Hill
#
# Bulk Modulus (GPa) = 36.72478 66.86932 51.79705
# Shear Modulus (GPa) = 19.68032 32.99187 26.33610
#
# Velocity S-wave (km/s) = 2.98145 3.86025 3.44896
# Velocity P-wave (km/s) = 5.33289 7.07614 6.26544
#
# Compressibility (1/GPa) = 0.02722957
#
# Stress axis : x y z
#
# Youngs Moduli (GPa) = 38.10826 29.94699 83.13349
#
# Poissons Ratio (x) = 0.26728 0.36294
# Poissons Ratio (y) = 0.34013 0.74199
# Poissons Ratio (z) = 0.16637 0.26728
#
# Static dielectric constant tensor:
#      x y z
#    x 4.254740 -0.152520 -0.380860 
#    y -0.152520 4.312140 0.389420 
#    z -0.380860 0.389420 4.649820 
# 
# 
# High freq. dielectric constant tensor:
#      x y z
#    x 1.862550 -0.010240 -0.002500 
#    y -0.010240 1.858890 -0.007150 
#    z -0.002500 -0.007150 1.887540 
# 
# From -- ./inp_files/151101.got.cif
#   From: 2010.06.25/outbox.cif.g09.slc.cpg/sg2_76_cif.got.tgz:151101.got - 2010.06.27 13:26:56.
