data_PCOD8020585
_publ_section_title
;
Structure prediction by ZEFSAII (Michael W. Deem and Ramdas Pophale) SiO2 
 PCOD8020585
Probable space group: P -1
;
_chemical_formula_sum "Si O2"
_cell_formula_units_Z 16
_cell_length_a 8.868957
_cell_length_b 14.060933
_cell_length_c 11.331352
_cell_angle_alpha 149.169817
_cell_angle_beta 69.948433
_cell_angle_gamma 110.448199
_cell_volume 675.856730
_symmetry_space_group_name_H-M "P -1"
_symmetry_group_IT_number 2
_symmetry_cell_setting 'triclinic'
loop_
_space_group_symop_operation_xyz
x,y,z
-x,-y,-z
loop_
_atom_site_type_symbol
_atom_site_label
_atom_site_fract_x
_atom_site_fract_y
_atom_site_fract_z
Si Si1 0.035327 0.921728 0.194988
Si Si2 0.428431 0.782903 0.284608
Si Si3 0.685010 0.787314 0.052511
Si Si4 0.175501 0.351354 0.358255
Si Si5 0.857529 0.372717 0.965281
Si Si6 0.146733 0.759942 0.769699
Si Si7 0.568786 0.156026 0.395289
Si Si8 0.753991 0.723968 0.487215
O O1 0.847612 0.888310 0.175166
O O2 0.084063 0.139222 0.449440
O O3 0.067480 0.778818 0.136623
O O4 0.152535 0.897991 0.026196
O O5 0.569349 0.680737 0.071157
O O6 0.398981 0.720125 0.361708
O O7 0.500000 0.000000 0.500000
O O8 0.259410 0.742032 0.219231
O O9 0.580771 0.938851 0.184465
O O10 0.719374 0.646420 0.788294
O O11 0.123392 0.554291 0.613606
O O12 0.270141 0.284691 0.373897
O O13 0.010040 0.211083 0.237409
O O14 0.759131 0.513750 0.216253
O O15 0.000000 0.500000 0.000000
O O16 0.306310 0.780085 0.672012
O O17 0.391761 0.179358 0.423738
#
# Coordination Sequence:
#
# PCOD8020585 Si02
#       8
#     2   2   2   2   2   2   2   2
#     4  11  24  48  76 106 143 190 241 303 359 425
#     4  10  25  48  71 100 147 193 235 290 361 432
#     4  10  23  44  75 102 140 196 242 288 360 438
#     4  10  22  42  70 106 136 189 240 299 358 424
#     4  12  30  48  74 112 146 187 247 301 356 433
#     4  10  22  42  70 101 145 183 241 296 361 429
#     4  11  25  43  66 103 139 193 234 294 358 435
#     4  12  27  45  73 108 146 187 240 302 366 422
#
# _framework density 23.673656999999999
#
# number of rings (size 3 to 8) (size 9 to 14) (size 15 to 20)
#    0.000    1.250    1.250    3.000    8.750    6.500 
#    0.000    0.000    0.000    0.000    0.000    0.000 
#    0.000    0.000    0.000    0.000    0.000    0.000 
#
# Total GULP energy -198358.940835 kJ/mol
# GULP energy per Si atom -12397.433802 kJ/mol
# Density = 2.361977 g / cm^3
# Si number density = 23.673657 Si / 1000 Ang^3
#
#
#
# Elastic Constant Matrix: (Units=GPa)
#
#
# Indices 1 2 3 4 5 6 
#
# 1 111.5739 26.8996 17.3251 -20.2976 11.0811 -16.6646
# 2 26.8996 85.4687 8.6184 -18.2476 12.5410 -1.2118
# 3 17.3251 8.6184 65.6895 3.8537 12.6599 -10.2665
# 4 -20.2976 -18.2476 3.8537 26.7891 -0.3878 -4.6757
# 5 11.0811 12.5410 12.6599 -0.3878 36.2764 -1.8292
# 6 -16.6646 -1.2118 -10.2665 -4.6757 -1.8292 44.3443
#
#
#
# Elastic Compliance Matrix: (Units=1/GPa)
#
#
# Indices 1 2 3 4 5 6 
#
# 1 0.012365 -0.001169 -0.002488 0.009769 -0.002149 0.004980
# 2 -0.001169 0.014835 -0.001308 0.009431 -0.004190 0.000485
# 3 -0.002488 -0.001308 0.017657 -0.004970 -0.004882 0.002392
# 4 0.009769 0.009431 -0.004970 0.053258 -0.003525 0.008248
# 5 -0.002149 -0.004190 -0.004882 -0.003525 0.031280 -0.001134
# 6 0.004980 0.000485 0.002392 0.008248 -0.001134 0.025812
#
#
# Mechanical properties :
#
#
# Convention : Reuss Voigt Hill
#
# Bulk Modulus (GPa) = 28.63160 40.93536 34.78348
# Shear Modulus (GPa) = 28.28347 35.47459 31.87903
#
# Velocity S-wave (km/s) = 3.46023 3.87522 3.67359
# Velocity P-wave (km/s) = 5.29951 6.11165 5.72001
#
# Compressibility (1/GPa) = 0.03492645
#
# Stress axis : x y z
#
# Youngs Moduli (GPa) = 80.87110 67.40665 56.63376
#
# Poissons Ratio (x) = 0.07882 0.14093
# Poissons Ratio (y) = 0.09456 0.07408
# Poissons Ratio (z) = 0.20124 0.08817
#
# Static dielectric constant tensor:
#      x y z
#    x 4.175470 0.035850 -0.003130 
#    y 0.035850 4.582780 -0.326650 
#    z -0.003130 -0.326650 4.525920 
# 
# 
# High freq. dielectric constant tensor:
#      x y z
#    x 1.935590 -0.004880 -0.000520 
#    y -0.004880 1.940670 -0.009630 
#    z -0.000520 -0.009630 1.947440 
# 
# From -- ./inp_files/308104.got.cif
#   From: 2010.06.25/outbox.cif.g09.slc.cpg/sg2_155_cif.got.tgz:308104.got - 2010.06.27 13:26:56.
