data_PCOD8020173
_publ_section_title
;
Structure prediction by ZEFSAII (Michael W. Deem and Ramdas Pophale) SiO2 
 PCOD8020173
Probable space group: P -1
;
_chemical_formula_sum "Si O2"
_cell_formula_units_Z 14
_cell_length_a 20.679369
_cell_length_b 17.847207
_cell_length_c 9.211357
_cell_angle_alpha 145.700818
_cell_angle_beta 41.205165
_cell_angle_gamma 159.954990
_cell_volume 651.669497
_symmetry_space_group_name_H-M "P -1"
_symmetry_group_IT_number 2
_symmetry_cell_setting 'triclinic'
loop_
_space_group_symop_operation_xyz
x,y,z
-x,-y,-z
loop_
_atom_site_type_symbol
_atom_site_label
_atom_site_fract_x
_atom_site_fract_y
_atom_site_fract_z
Si Si1 0.774906 0.490164 0.278953
Si Si2 0.094869 0.763815 0.002749
Si Si3 0.803371 0.241370 0.757210
Si Si4 0.540372 0.476687 0.046759
Si Si5 0.174837 0.898569 0.762660
Si Si6 0.106479 0.262729 0.219525
Si Si7 0.616130 0.826652 0.620415
O O1 0.864383 0.625351 0.500237
O O2 0.602032 0.387265 0.373012
O O3 0.943355 0.701557 0.212473
O O4 0.692591 0.242882 0.008131
O O5 0.026877 0.545652 0.846711
O O6 0.087442 0.739671 0.803946
O O7 0.308068 0.051538 0.151746
O O8 0.736786 0.118575 0.511575
O O9 0.766031 0.073381 0.655151
O O10 0.630572 0.686943 0.342458
O O11 0.500000 0.500000 0.000000
O O12 0.687070 0.525888 0.859537
O O13 0.342575 0.194667 0.993754
O O14 0.009763 0.778683 0.758486
O O15 0.000000 0.000000 0.000000
#
# Coordination Sequence:
#
# PCOD8020173 Si02
#       7
#     2   2   2   2   2   2   2
#     4  10  23  38  65  98 119 164 213 255 315 363
#     4  10  26  39  62  96 130 168 199 257 328 366
#     4  10  22  42  66  92 127 165 214 255 307 377
#     4  12  23  40  69  95 119 166 216 259 310 360
#     4  12  24  44  62  93 135 162 207 262 310 382
#     4  12  22  40  69  92 122 167 215 258 305 371
#     4  12  21  44  67  93 128 160 217 265 299 376
#
# _framework density 21.483281000000002
#
# number of rings (size 3 to 8) (size 9 to 14) (size 15 to 20)
#    0.857    0.000    4.286    3.000    2.000    1.714 
#    0.000    5.714    0.000    0.000    0.000    0.000 
#    0.000    0.000    0.000    0.000    0.000    0.000 
#
# Total GULP energy -173491.496408 kJ/mol
# GULP energy per Si atom -12392.249743 kJ/mol
# Density = 2.143438 g / cm^3
# Si number density = 21.483281 Si / 1000 Ang^3
#
#
#
# Elastic Constant Matrix: (Units=GPa)
#
#
# Indices 1 2 3 4 5 6 
#
# 1 53.8753 36.7734 38.1301 -7.2592 15.7348 8.5472
# 2 36.7734 90.6959 34.0768 0.7320 6.6371 9.2116
# 3 38.1301 34.0768 156.7420 -7.6748 5.6947 -2.1816
# 4 -7.2592 0.7320 -7.6748 35.9664 0.9896 3.2561
# 5 15.7348 6.6371 5.6947 0.9896 33.6055 2.2763
# 6 8.5472 9.2116 -2.1816 3.2561 2.2763 21.3951
#
#
#
# Elastic Compliance Matrix: (Units=1/GPa)
#
#
# Indices 1 2 3 4 5 6 
#
# 1 0.036640 -0.010666 -0.005870 0.007672 -0.013578 -0.010367
# 2 -0.010666 0.015875 -0.001100 -0.002543 0.002292 -0.002543
# 3 -0.005870 -0.001100 0.008056 0.000206 0.001360 0.003464
# 4 0.007672 -0.002543 0.000206 0.030103 -0.003595 -0.006148
# 5 -0.013578 0.002292 0.001360 -0.003595 0.035446 0.001352
# 6 -0.010367 -0.002543 0.003464 -0.006148 0.001352 0.053121
#
#
# Mechanical properties :
#
#
# Convention : Reuss Voigt Hill
#
# Bulk Modulus (GPa) = 39.52658 57.69707 48.61182
# Shear Modulus (GPa) = 22.42718 31.01562 26.72140
#
# Velocity S-wave (km/s) = 3.23451 3.80374 3.53061
# Velocity P-wave (km/s) = 5.69105 6.79752 6.26875
#
# Compressibility (1/GPa) = 0.02529943
#
# Stress axis : x y z
#
# Youngs Moduli (GPa) = 27.29276 62.99339 124.13401
#
# Poissons Ratio (x) = 0.67188 0.72863
# Poissons Ratio (y) = 0.29110 0.13653
# Poissons Ratio (z) = 0.16020 0.06928
#
# Static dielectric constant tensor:
#      x y z
#    x 3.469230 0.083250 -0.029890 
#    y 0.083250 3.882960 -0.018840 
#    z -0.029890 -0.018840 4.302500 
# 
# 
# High freq. dielectric constant tensor:
#      x y z
#    x 1.800860 0.007360 0.003300 
#    y 0.007360 1.840450 0.003710 
#    z 0.003300 0.003710 1.871040 
# 
# From -- ./inp_files/270205.got.cif
#   From: 2010.06.25/outbox.cif.g09.slc.cpg/sg2_136_cif.got.tgz:270205.got - 2010.06.27 13:26:56.
