data_PCOD8020649
_publ_section_title
;
Structure prediction by ZEFSAII (Michael W. Deem and Ramdas Pophale) SiO2 
 PCOD8020649
Probable space group: P -1
;
_chemical_formula_sum "Si O2"
_cell_formula_units_Z 12
_cell_length_a 7.809518
_cell_length_b 13.969358
_cell_length_c 9.964240
_cell_angle_alpha 90.353588
_cell_angle_beta 80.674199
_cell_angle_gamma 30.044268
_cell_volume 512.916663
_symmetry_space_group_name_H-M "P -1"
_symmetry_group_IT_number 2
_symmetry_cell_setting 'triclinic'
loop_
_space_group_symop_operation_xyz
x,y,z
-x,-y,-z
loop_
_atom_site_type_symbol
_atom_site_label
_atom_site_fract_x
_atom_site_fract_y
_atom_site_fract_z
Si Si1 0.200342 0.981483 0.565452
Si Si2 0.584528 0.873536 0.086748
Si Si3 0.110718 0.326084 0.694250
Si Si4 0.102906 0.945254 0.140783
Si Si5 0.384423 0.574797 0.366319
Si Si6 0.810744 0.516827 0.158312
O O1 0.607265 0.805144 0.465615
O O2 0.000000 0.000000 0.500000
O O3 0.215950 0.936142 0.718135
O O4 0.977945 0.186694 0.587708
O O5 0.759336 0.813931 0.208347
O O6 0.207712 0.002857 0.169392
O O7 0.848374 0.667916 0.981529
O O8 0.500000 0.000000 0.000000
O O9 0.082685 0.446362 0.758881
O O10 0.724015 0.473994 0.691417
O O11 0.451875 0.708487 0.117070
O O12 0.000000 0.000000 0.000000
O O13 0.500000 0.500000 0.500000
O O14 0.725895 0.461454 0.252258
#
# Coordination Sequence:
#
# PCOD8020649 Si02
#       6
#     2   2   2   2   2   2
#     4  11  21  46  70  97 144 181 228 284 343 417
#     4  11  25  43  69 102 136 183 235 285 353 413
#     4  11  23  47  70  96 142 188 223 291 347 411
#     4  10  22  42  71 100 136 185 225 283 350 409
#     4  11  26  42  68 103 136 180 235 284 345 412
#     4  10  24  48  64  99 148 175 234 286 345 421
#
# _framework density 23.395612
#
# number of rings (size 3 to 8) (size 9 to 14) (size 15 to 20)
#    0.000    1.333    5.000    2.500    7.000    2.667 
#    9.000    0.000    0.000    0.000    0.000    0.000 
#    0.000    0.000    0.000    0.000    0.000    0.000 
#
# Total GULP energy -148747.211376 kJ/mol
# GULP energy per Si atom -12395.600948 kJ/mol
# Density = 2.334236 g / cm^3
# Si number density = 23.395612 Si / 1000 Ang^3
#
#
#
# Elastic Constant Matrix: (Units=GPa)
#
#
# Indices 1 2 3 4 5 6 
#
# 1 140.1275 27.5212 57.7663 -20.8594 -4.6040 -11.1457
# 2 27.5212 48.9303 42.7460 -21.8701 -0.5803 8.0332
# 3 57.7663 42.7460 174.4311 -34.5111 -17.7367 -3.5880
# 4 -20.8594 -21.8701 -34.5111 53.6336 -0.4912 4.4866
# 5 -4.6040 -0.5803 -17.7367 -0.4912 47.7631 -9.6715
# 6 -11.1457 8.0332 -3.5880 4.4866 -9.6715 24.3429
#
#
#
# Elastic Compliance Matrix: (Units=1/GPa)
#
#
# Indices 1 2 3 4 5 6 
#
# 1 0.009291 -0.004751 -0.001607 0.000141 0.001488 0.006150
# 2 -0.004751 0.036471 -0.006312 0.010541 -0.006209 -0.019551
# 3 -0.001607 -0.006312 0.008691 0.002115 0.003775 0.003738
# 4 0.000141 0.010541 0.002115 0.025015 -0.000410 -0.007875
# 5 0.001488 -0.006209 0.003775 -0.000410 0.025102 0.013336
# 6 0.006150 -0.019551 0.003738 -0.007875 0.013336 0.057648
#
#
# Mechanical properties :
#
#
# Convention : Reuss Voigt Hill
#
# Bulk Modulus (GPa) = 34.34822 68.83956 51.59389
# Shear Modulus (GPa) = 25.34686 40.84497 33.09591
#
# Velocity S-wave (km/s) = 3.29508 4.18286 3.76522
# Velocity P-wave (km/s) = 5.40278 7.26749 6.40338
#
# Compressibility (1/GPa) = 0.02911359
#
# Stress axis : x y z
#
# Youngs Moduli (GPa) = 107.63174 27.41869 115.05878
#
# Poissons Ratio (x) = 0.13026 0.18489
# Poissons Ratio (y) = 0.51133 0.72629
# Poissons Ratio (z) = 0.17295 0.17308
#
# Static dielectric constant tensor:
#      x y z
#    x 4.799730 0.290940 -0.341730 
#    y 0.290940 4.230160 -0.134690 
#    z -0.341730 -0.134690 4.604620 
# 
# 
# High freq. dielectric constant tensor:
#      x y z
#    x 1.932820 0.006180 -0.019530 
#    y 0.006180 1.903460 -0.012140 
#    z -0.019530 -0.012140 1.942060 
# 
# From -- ./inp_files/185180.got.cif
#   From: 2010.06.25/outbox.cif.g09.slc.cpg/sg2_93_cif.got.tgz:185180.got - 2010.06.27 13:26:56.
