data_PCOD8020038
_publ_section_title
;
Structure prediction by ZEFSAII (Michael W. Deem and Ramdas Pophale) SiO2 
 PCOD8020038
Probable space group: P -1
;
_chemical_formula_sum "Si O2"
_cell_formula_units_Z 14
_cell_length_a 12.125670
_cell_length_b 12.498300
_cell_length_c 8.685581
_cell_angle_alpha 119.498183
_cell_angle_beta 39.871946
_cell_angle_gamma 134.518470
_cell_volume 598.667060
_symmetry_space_group_name_H-M "P -1"
_symmetry_group_IT_number 2
_symmetry_cell_setting 'triclinic'
loop_
_space_group_symop_operation_xyz
x,y,z
-x,-y,-z
loop_
_atom_site_type_symbol
_atom_site_label
_atom_site_fract_x
_atom_site_fract_y
_atom_site_fract_z
Si Si1 0.005440 0.595621 0.265401
Si Si2 0.110136 0.171513 0.952425
Si Si3 0.482017 0.986882 0.330310
Si Si4 0.489729 0.768075 0.959079
Si Si5 0.117077 0.712840 0.902841
Si Si6 0.790712 0.952935 0.493830
Si Si7 0.806558 0.739863 0.740928
O O1 0.877033 0.415021 0.282465
O O2 0.898001 0.643694 0.534123
O O3 0.248474 0.660914 0.087921
O O4 0.979413 0.644087 0.157394
O O5 0.247076 0.186724 0.666474
O O6 0.236337 0.274152 0.038443
O O7 0.957168 0.214563 0.086199
O O8 0.000000 0.000000 0.000000
O O9 0.651019 0.152128 0.194270
O O10 0.257256 0.944799 0.484872
O O11 0.500000 0.000000 0.500000
O O12 0.513814 0.862115 0.150894
O O13 0.638291 0.888859 0.756359
O O14 0.584746 0.674634 0.843417
O O15 0.036129 0.084715 0.364054
#
# Coordination Sequence:
#
# PCOD8020038 Si02
#       7
#     2   2   2   2   2   2   2
#     4  11  25  46  67 103 137 182 227 268 345 413
#     4  10  22  42  65 100 132 176 225 278 341 388
#     4  12  22  39  67 101 133 174 229 281 334 394
#     4  12  23  42  69 100 132 179 232 277 334 400
#     4  11  24  45  67  96 143 179 223 283 334 405
#     4  11  20  38  66  97 132 171 232 282 322 395
#     4  11  22  41  66  97 139 174 224 284 335 400
#
# _framework density 23.385285
#
# number of rings (size 3 to 8) (size 9 to 14) (size 15 to 20)
#    0.000    0.857    2.857    6.857    0.000    0.571 
#    2.571    2.857    0.000    0.000    0.000    0.000 
#    0.000    0.000    0.000    0.000    0.000    0.000 
#
# Total GULP energy -173533.496285 kJ/mol
# GULP energy per Si atom -12395.249735 kJ/mol
# Density = 2.333206 g / cm^3
# Si number density = 23.385285 Si / 1000 Ang^3
#
#
#
# Elastic Constant Matrix: (Units=GPa)
#
#
# Indices 1 2 3 4 5 6 
#
# 1 119.7501 12.4423 18.1106 13.8920 -15.4803 -11.7065
# 2 12.4423 75.5372 9.0020 19.2303 -5.6600 -5.6144
# 3 18.1106 9.0020 80.9496 36.4829 -1.2790 0.8736
# 4 13.8920 19.2303 36.4829 31.0431 3.9391 -0.3950
# 5 -15.4803 -5.6600 -1.2790 3.9391 42.1260 3.8251
# 6 -11.7065 -5.6144 0.8736 -0.3950 3.8251 29.3023
#
#
#
# Elastic Compliance Matrix: (Units=1/GPa)
#
#
# Indices 1 2 3 4 5 6 
#
# 1 0.009712 0.000193 0.000079 -0.004993 0.003759 0.003357
# 2 0.000193 0.017961 0.006992 -0.019949 0.004337 0.002475
# 3 0.000079 0.006992 0.029667 -0.039963 0.005678 -0.000793
# 4 -0.004993 -0.019949 -0.039963 0.095598 -0.014537 -0.001439
# 5 0.003759 0.004337 0.005678 -0.014537 0.027380 -0.001607
# 6 0.003357 0.002475 -0.000793 -0.001439 -0.001607 0.036156
#
#
# Mechanical properties :
#
#
# Convention : Reuss Voigt Hill
#
# Bulk Modulus (GPa) = 13.91421 39.48297 26.69859
# Shear Modulus (GPa) = 22.13346 36.27307 29.20327
#
# Velocity S-wave (km/s) = 3.07981 3.94268 3.53765
# Velocity P-wave (km/s) = 4.31392 6.13569 5.30361
#
# Compressibility (1/GPa) = 0.07186897
#
# Stress axis : x y z
#
# Youngs Moduli (GPa) = 102.96469 55.67647 33.70714
#
# Poissons Ratio (x) = -0.01076 -0.00267
# Poissons Ratio (y) = -0.01989 -0.23567
# Poissons Ratio (z) = -0.00817 -0.38928
#
# Static dielectric constant tensor:
#      x y z
#    x 4.355770 0.231510 -0.049110 
#    y 0.231510 4.464140 -0.210000 
#    z -0.049110 -0.210000 4.849990 
# 
# 
# High freq. dielectric constant tensor:
#      x y z
#    x 1.942590 -0.002700 0.004540 
#    y -0.002700 1.892080 0.018810 
#    z 0.004540 0.018810 1.931450 
# 
# From -- ./inp_files/153808.got.cif
#   From: 2010.06.25/outbox.cif.g09.slc.cpg/sg2_77_cif.got.tgz:153808.got - 2010.06.27 13:26:56.
