data_PCOD8020554
_publ_section_title
;
Structure prediction by ZEFSAII (Michael W. Deem and Ramdas Pophale) SiO2 
 PCOD8020554
Probable space group: P -1
;
_chemical_formula_sum "Si O2"
_cell_formula_units_Z 16
_cell_length_a 20.460209
_cell_length_b 13.240780
_cell_length_c 14.689860
_cell_angle_alpha 157.607016
_cell_angle_beta 25.461877
_cell_angle_gamma 146.578533
_cell_volume 651.771337
_symmetry_space_group_name_H-M "P -1"
_symmetry_group_IT_number 2
_symmetry_cell_setting 'triclinic'
loop_
_space_group_symop_operation_xyz
x,y,z
-x,-y,-z
loop_
_atom_site_type_symbol
_atom_site_label
_atom_site_fract_x
_atom_site_fract_y
_atom_site_fract_z
Si Si1 0.776315 0.874060 0.119228
Si Si2 0.485471 0.701421 0.795107
Si Si3 0.069474 0.051562 0.823397
Si Si4 0.495182 0.798804 0.218593
Si Si5 0.318617 0.689192 0.176886
Si Si6 0.265748 0.636439 0.854313
Si Si7 0.785567 0.991551 0.923706
Si Si8 0.968511 0.485993 0.195687
O O1 0.855389 0.980143 0.199186
O O2 0.614687 0.023372 0.429287
O O3 0.749022 0.563827 0.897365
O O4 0.897521 0.934892 0.937586
O O5 0.367680 0.592018 0.778370
O O6 0.658359 0.592328 0.493582
O O7 0.416513 0.615535 0.905971
O O8 0.500000 0.000000 0.000000
O O9 0.179598 0.877156 0.475037
O O10 0.064551 0.353403 0.046859
O O11 0.428943 0.830550 0.227270
O O12 0.500000 0.500000 0.000000
O O13 0.665388 0.914072 0.089879
O O14 0.087255 0.601353 0.069232
O O15 0.287915 0.909675 0.997515
O O16 0.875840 0.724628 0.558291
O O17 0.879431 0.244716 0.056070
#
# Coordination Sequence:
#
# PCOD8020554 Si02
#       8
#     2   2   2   2   2   2   2   2
#     4  10  22  42  69  96 139 179 235 299 353 424
#     4  11  24  42  76 102 139 180 238 303 358 425
#     4  10  23  42  67 104 134 180 239 291 360 422
#     4  11  26  45  69 102 142 188 238 292 364 429
#     4  11  23  41  73  99 134 181 232 302 352 425
#     4  11  26  47  70 105 141 188 240 296 365 423
#     4  12  29  47  72 105 147 194 243 293 357 434
#     4  12  28  46  74 103 147 195 239 296 358 429
#
# _framework density 24.548486
#
# number of rings (size 3 to 8) (size 9 to 14) (size 15 to 20)
#    0.000    1.000    0.000    4.875   12.250    4.500 
#    0.000    0.000    0.000    0.000    0.000    0.000 
#    0.000    0.000    0.000    0.000    0.000    0.000 
#
# Total GULP energy -198279.343786 kJ/mol
# GULP energy per Si atom -12392.458987 kJ/mol
# Density = 2.449261 g / cm^3
# Si number density = 24.548486 Si / 1000 Ang^3
#
#
#
# Elastic Constant Matrix: (Units=GPa)
#
#
# Indices 1 2 3 4 5 6 
#
# 1 26.7210 1.5723 19.6703 -11.7373 -7.4950 3.4296
# 2 1.5723 129.8191 53.1588 -12.5822 0.6015 -3.0137
# 3 19.6703 53.1588 210.5633 -3.9195 -2.3407 -2.7394
# 4 -11.7373 -12.5822 -3.9195 53.3750 -6.9739 -1.6299
# 5 -7.4950 0.6015 -2.3407 -6.9739 35.2005 6.1052
# 6 3.4296 -3.0137 -2.7394 -1.6299 6.1052 39.7040
#
#
#
# Elastic Compliance Matrix: (Units=1/GPa)
#
#
# Indices 1 2 3 4 5 6 
#
# 1 0.051736 0.002559 -0.005154 0.013285 0.014353 -0.006292
# 2 0.002559 0.008922 -0.002432 0.002587 0.000693 0.000288
# 3 -0.005154 -0.002432 0.005817 -0.001397 -0.001080 0.000771
# 4 0.013285 0.002587 -0.001397 0.023104 0.007486 -0.001250
# 5 0.014353 0.000693 -0.001080 0.007486 0.033935 -0.006172
# 6 -0.006292 0.000288 0.000771 -0.001250 -0.006172 0.026703
#
#
# Mechanical properties :
#
#
# Convention : Reuss Voigt Hill
#
# Bulk Modulus (GPa) = 17.72403 57.32292 37.52347
# Shear Modulus (GPa) = 27.92097 45.16937 36.54517
#
# Velocity S-wave (km/s) = 3.37617 4.29418 3.86254
# Velocity P-wave (km/s) = 4.73642 6.92736 5.93388
#
# Compressibility (1/GPa) = 0.05642059
#
# Stress axis : x y z
#
# Youngs Moduli (GPa) = 19.32887 112.08200 171.92088
#
# Poissons Ratio (x) = -0.28681 0.88610
# Poissons Ratio (y) = -0.04946 0.41810
# Poissons Ratio (z) = 0.09962 0.27257
#
# Static dielectric constant tensor:
#      x y z
#    x 5.649480 0.542670 0.170920 
#    y 0.542670 4.725540 -0.143210 
#    z 0.170920 -0.143210 4.842930 
# 
# 
# High freq. dielectric constant tensor:
#      x y z
#    x 1.981720 -0.008930 -0.009480 
#    y -0.008930 1.981200 -0.007950 
#    z -0.009480 -0.007950 1.993380 
# 
# From -- ./inp_files/579340.got.cif
#   From: 2010.06.25/outbox.cif.g09.slc.cpg/sg2_290_cif.got.tgz:579340.got - 2010.06.27 13:26:56.
