data_PCOD8020709
_publ_section_title
;
Structure prediction by ZEFSAII (Michael W. Deem and Ramdas Pophale) SiO2 
 PCOD8020709
Probable space group: P -1
;
_chemical_formula_sum "Si O2"
_cell_formula_units_Z 16
_cell_length_a 5.523594
_cell_length_b 5.218553
_cell_length_c 24.136563
_cell_angle_alpha 59.928653
_cell_angle_beta 91.065538
_cell_angle_gamma 88.559696
_cell_volume 601.513736
_symmetry_space_group_name_H-M "P -1"
_symmetry_group_IT_number 2
_symmetry_cell_setting 'triclinic'
loop_
_space_group_symop_operation_xyz
x,y,z
-x,-y,-z
loop_
_atom_site_type_symbol
_atom_site_label
_atom_site_fract_x
_atom_site_fract_y
_atom_site_fract_z
Si Si1 0.988166 0.399183 0.871197
Si Si2 0.710611 0.765154 0.013677
Si Si3 0.952061 0.633580 0.303364
Si Si4 0.011388 0.920348 0.572893
Si Si5 0.321718 0.701849 0.214914
Si Si6 0.405715 0.255690 0.102840
Si Si7 0.725625 0.262776 0.245602
Si Si8 0.504434 0.151588 0.543207
O O1 0.907182 0.226149 0.834831
O O2 0.743599 0.567474 0.870924
O O3 0.073443 0.187564 0.946103
O O4 0.195071 0.619443 0.827627
O O5 0.631470 0.428389 0.061252
O O6 0.773263 0.803163 0.944847
O O7 0.500000 0.000000 0.000000
O O8 0.977773 0.436643 0.380447
O O9 0.881408 0.400512 0.280616
O O10 0.214183 0.748508 0.271721
O O11 0.757482 0.903851 0.284260
O O12 0.259579 0.054058 0.585069
O O13 0.000000 0.000000 0.500000
O O14 0.758969 0.049957 0.585858
O O15 0.448028 0.374879 0.243781
O O16 0.505032 0.956585 0.168378
O O17 0.500000 0.500000 0.500000
O O18 0.500000 0.000000 0.500000
#
# Coordination Sequence:
#
# PCOD8020709 Si02
#       8
#     2   2   2   2   2   2   2   2
#     4  11  23  43  65  97 136 185 240 300 374 437
#     4  11  25  41  63 102 137 184 237 302 382 446
#     4  11  27  47  74 111 148 198 251 313 379 460
#     4  10  24  48  76 118 158 205 257 323 393 468
#     4  11  26  46  72  99 141 194 248 309 373 452
#     4  11  23  41  68  94 138 184 238 304 370 448
#     4  11  26  46  74 104 149 193 254 307 378 450
#     4  10  22  42  72 107 151 201 245 303 376 456
#
# _framework density 26.59956
#
# number of rings (size 3 to 8) (size 9 to 14) (size 15 to 20)
#    0.000    1.250    1.250    3.000    5.250    8.000 
#    0.000    0.000    0.000    0.000    0.000    0.000 
#    0.000    0.000    0.000    0.000    0.000    0.000 
#
# Total GULP energy -198251.495536 kJ/mol
# GULP energy per Si atom -12390.718471 kJ/mol
# Density = 2.653902 g / cm^3
# Si number density = 26.599560 Si / 1000 Ang^3
#
#
#
# Elastic Constant Matrix: (Units=GPa)
#
#
# Indices 1 2 3 4 5 6 
#
# 1 128.5225 11.9093 21.2941 -22.5113 2.7724 -23.1650
# 2 11.9093 92.0554 32.1329 -28.7380 -1.7103 -19.5933
# 3 21.2941 32.1329 160.2545 -34.9848 -11.6278 -14.5747
# 4 -22.5113 -28.7380 -34.9848 52.1265 -1.8728 7.4553
# 5 2.7724 -1.7103 -11.6278 -1.8728 37.0874 -9.4843
# 6 -23.1650 -19.5933 -14.5747 7.4553 -9.4843 29.3244
#
#
#
# Elastic Compliance Matrix: (Units=1/GPa)
#
#
# Indices 1 2 3 4 5 6 
#
# 1 0.009830 0.001850 0.000153 0.004204 0.001809 0.008594
# 2 0.001850 0.015541 -0.000445 0.007646 0.003598 0.010843
# 3 0.000153 -0.000445 0.007954 0.004754 0.003661 0.003752
# 4 0.004204 0.007646 0.004754 0.027830 0.004235 0.005087
# 5 0.001809 0.003598 0.003661 0.004235 0.032188 0.014986
# 6 0.008594 0.010843 0.003752 0.005087 0.014986 0.053554
#
#
# Mechanical properties :
#
#
# Convention : Reuss Voigt Hill
#
# Bulk Modulus (GPa) = 27.44206 56.83390 42.13798
# Shear Modulus (GPa) = 32.06601 44.74074 38.40337
#
# Velocity S-wave (km/s) = 3.47581 4.10568 3.80381
# Velocity P-wave (km/s) = 5.14271 6.62483 5.93025
#
# Compressibility (1/GPa) = 0.03644041
#
# Stress axis : x y z
#
# Youngs Moduli (GPa) = 101.72744 64.34593 125.72782
#
# Poissons Ratio (x) = -0.11903 -0.01929
# Poissons Ratio (y) = -0.18818 0.05601
# Poissons Ratio (z) = -0.01561 0.02867
#
# Static dielectric constant tensor:
#      x y z
#    x 5.716950 0.073070 -0.073000 
#    y 0.073070 3.929160 0.095160 
#    z -0.073000 0.095160 5.164230 
# 
# 
# High freq. dielectric constant tensor:
#      x y z
#    x 2.067610 0.002050 -0.002270 
#    y 0.002050 2.051780 -0.006740 
#    z -0.002270 -0.006740 2.074520 
# 
# From -- ./inp_files/14621.got.cif
#   From: 2010.06.25/outbox.cif.g09.slc.cpg/sg2_8_cif.got.tgz:14621.got - 2010.06.27 13:26:56.
