data_PCOD8020896
_publ_section_title
;
Structure prediction by ZEFSAII (Michael W. Deem and Ramdas Pophale) SiO2 
 PCOD8020896
Probable space group: P -1
;
_chemical_formula_sum "Si O2"
_cell_formula_units_Z 16
_cell_length_a 9.284771
_cell_length_b 9.392618
_cell_length_c 17.851037
_cell_angle_alpha 90.934136
_cell_angle_beta 150.206984
_cell_angle_gamma 89.034501
_cell_volume 773.389633
_symmetry_space_group_name_H-M "P -1"
_symmetry_group_IT_number 2
_symmetry_cell_setting 'triclinic'
loop_
_space_group_symop_operation_xyz
x,y,z
-x,-y,-z
loop_
_atom_site_type_symbol
_atom_site_label
_atom_site_fract_x
_atom_site_fract_y
_atom_site_fract_z
Si Si1 0.616735 0.950890 0.632364
Si Si2 0.271167 0.972129 0.960770
Si Si3 0.739096 0.351469 0.027975
Si Si4 0.736003 0.434338 0.195458
Si Si5 0.197319 0.428992 0.527813
Si Si6 0.133986 0.108749 0.502532
Si Si7 0.467755 0.815030 0.814951
Si Si8 0.641295 0.675416 0.734763
O O1 0.600768 0.781637 0.645019
O O2 0.947128 0.002092 0.786247
O O3 0.500000 0.000000 0.500000
O O4 0.421680 0.035360 0.602914
O O5 0.329413 0.812563 0.008363
O O6 0.500000 0.000000 0.000000
O O7 0.316661 0.064083 0.057737
O O8 0.813102 0.414946 0.143527
O O9 0.024186 0.373312 0.105590
O O10 0.443829 0.422505 0.865294
O O11 0.508154 0.314517 0.117385
O O12 0.037915 0.430962 0.375822
O O13 0.246580 0.266923 0.578518
O O14 0.481195 0.525643 0.649014
O O15 0.000000 0.500000 0.500000
O O16 0.865752 0.131401 0.325038
O O17 0.000000 0.000000 0.500000
O O18 0.536272 0.762965 0.761241
#
# Coordination Sequence:
#
# PCOD8020896 Si02
#       8
#     2   2   2   2   2   2   2   2
#     4  11  25  43  66  99 131 169 222 272 324 393
#     4  11  23  42  69  94 129 175 215 269 333 380
#     4  10  24  42  64  93 129 166 220 271 320 389
#     4  10  22  43  65  90 126 171 215 266 323 388
#     4  11  22  41  68  94 128 174 209 262 330 380
#     4  11  22  43  67  97 131 168 216 269 320 391
#     4  11  22  43  68  91 135 168 214 273 324 388
#     4  11  24  45  63  98 133 167 219 273 323 386
#
# _framework density 20.688151000000001
#
# number of rings (size 3 to 8) (size 9 to 14) (size 15 to 20)
#    0.000    1.250    5.000    0.750    5.250    7.000 
#    2.250    0.000    0.000    0.000    0.000    0.000 
#    0.000    0.000    0.000    0.000    0.000    0.000 
#
# Total GULP energy -198240.183890 kJ/mol
# GULP energy per Si atom -12390.011493 kJ/mol
# Density = 2.064106 g / cm^3
# Si number density = 20.688151 Si / 1000 Ang^3
#
#
#
# Elastic Constant Matrix: (Units=GPa)
#
#
# Indices 1 2 3 4 5 6 
#
# 1 78.5461 45.3067 38.1733 -0.4767 26.8046 5.3825
# 2 45.3067 152.4094 65.0492 17.3227 13.7995 4.8120
# 3 38.1733 65.0492 92.0225 12.9640 16.0240 3.2050
# 4 -0.4767 17.3227 12.9640 36.1817 2.0313 6.3878
# 5 26.8046 13.7995 16.0240 2.0313 34.6371 0.9204
# 6 5.3825 4.8120 3.2050 6.3878 0.9204 32.6948
#
#
#
# Elastic Compliance Matrix: (Units=1/GPa)
#
#
# Indices 1 2 3 4 5 6 
#
# 1 0.022134 -0.003811 -0.004725 0.005147 -0.013641 -0.003242
# 2 -0.003811 0.010248 -0.005510 -0.003111 0.001592 0.000222
# 3 -0.004725 -0.005510 0.017587 -0.003723 -0.002083 0.000651
# 4 0.005147 -0.003111 -0.003723 0.031769 -0.002721 -0.006155
# 5 -0.013641 0.001592 -0.002083 -0.002721 0.039873 0.001625
# 6 -0.003242 0.000222 0.000651 -0.006155 0.001625 0.032180
#
#
# Mechanical properties :
#
#
# Convention : Reuss Voigt Hill
#
# Bulk Modulus (GPa) = 45.70977 68.89294 57.30136
# Shear Modulus (GPa) = 26.43052 32.33265 29.38158
#
# Velocity S-wave (km/s) = 3.57819 3.95759 3.77266
# Velocity P-wave (km/s) = 6.26210 7.36589 6.83631
#
# Compressibility (1/GPa) = 0.02187716
#
# Stress axis : x y z
#
# Youngs Moduli (GPa) = 45.17900 97.57655 56.86122
#
# Poissons Ratio (x) = 0.37184 0.26867
# Poissons Ratio (y) = 0.17217 0.31332
# Poissons Ratio (z) = 0.21347 0.53767
#
# Static dielectric constant tensor:
#      x y z
#    x 3.565020 -0.652500 -0.682530 
#    y -0.652500 6.323260 1.543220 
#    z -0.682530 1.543220 5.197760 
# 
# 
# High freq. dielectric constant tensor:
#      x y z
#    x 1.810910 0.002290 0.012440 
#    y 0.002290 1.826500 -0.006760 
#    z 0.012440 -0.006760 1.801690 
# 
# From -- ./inp_files/217699.got.cif
#   From: 2010.06.25/outbox.cif.g09.slc.cpg/sg2_109_cif.got.tgz:217699.got - 2010.06.27 13:26:56.
