data_PCOD8020979
_publ_section_title
;
Structure prediction by ZEFSAII (Michael W. Deem and Ramdas Pophale) SiO2 
 PCOD8020979
Probable space group: P -1
;
_chemical_formula_sum "Si O2"
_cell_formula_units_Z 16
_cell_length_a 11.913883
_cell_length_b 15.501951
_cell_length_c 9.345636
_cell_angle_alpha 60.870622
_cell_angle_beta 102.125966
_cell_angle_gamma 51.562289
_cell_volume 782.093565
_symmetry_space_group_name_H-M "P -1"
_symmetry_group_IT_number 2
_symmetry_cell_setting 'triclinic'
loop_
_space_group_symop_operation_xyz
x,y,z
-x,-y,-z
loop_
_atom_site_type_symbol
_atom_site_label
_atom_site_fract_x
_atom_site_fract_y
_atom_site_fract_z
Si Si1 0.000340 0.260457 0.851675
Si Si2 0.549975 0.559118 0.372603
Si Si3 0.881648 0.508575 0.060568
Si Si4 0.913420 0.542189 0.597341
Si Si5 0.436711 0.828638 0.296117
Si Si6 0.028526 0.766152 0.822774
Si Si7 0.414356 0.830940 0.621705
Si Si8 0.637349 0.325528 0.087030
O O1 0.810873 0.386317 0.581186
O O2 0.022882 0.359071 0.821514
O O3 0.917083 0.268431 0.966539
O O4 0.228275 0.049491 0.029148
O O5 0.500000 0.500000 0.500000
O O6 0.421711 0.743244 0.262262
O O7 0.474442 0.608595 0.149455
O O8 0.994290 0.434399 0.303876
O O9 0.877278 0.399653 0.092429
O O10 0.630407 0.721778 0.831934
O O11 0.000000 0.500000 0.000000
O O12 0.653469 0.730869 0.391586
O O13 0.000000 0.500000 0.500000
O O14 0.445131 0.785917 0.497368
O O15 0.127945 0.794842 0.765722
O O16 0.770770 0.952324 0.580961
O O17 0.340761 0.789637 0.724233
O O18 0.500000 0.500000 0.000000
#
# Coordination Sequence:
#
# PCOD8020979 Si02
#       8
#     2   2   2   2   2   2   2   2
#     4  10  22  43  66  92 127 167 212 262 318 385
#     4  11  22  41  64  92 128 168 211 252 313 381
#     4  12  22  42  67  94 125 171 216 260 322 382
#     4  11  25  42  64  91 129 166 211 267 321 377
#     4  10  23  44  65  92 127 169 211 260 323 383
#     4  11  23  43  66  97 130 169 216 263 320 379
#     4  11  24  42  66  97 132 166 215 268 318 378
#     4  12  24  43  67  95 135 172 211 268 318 373
#
# _framework density 20.457909999999998
#
# number of rings (size 3 to 8) (size 9 to 14) (size 15 to 20)
#    0.000    1.000    5.000    1.875    3.500    2.500 
#    6.750    0.000    0.000    0.000    0.000    0.000 
#    0.000    0.000    0.000    0.000    0.000    0.000 
#
# Total GULP energy -198369.881391 kJ/mol
# GULP energy per Si atom -12398.117587 kJ/mol
# Density = 2.041135 g / cm^3
# Si number density = 20.457910 Si / 1000 Ang^3
#
#
#
# Elastic Constant Matrix: (Units=GPa)
#
#
# Indices 1 2 3 4 5 6 
#
# 1 101.9211 24.3117 34.1538 -1.6827 11.6522 -17.7918
# 2 24.3117 106.6876 58.6651 -0.4252 15.2501 -8.0506
# 3 34.1538 58.6651 95.2460 -13.5993 19.8295 -3.8968
# 4 -1.6827 -0.4252 -13.5993 43.3137 -1.9287 -2.2432
# 5 11.6522 15.2501 19.8295 -1.9287 34.2060 5.7495
# 6 -17.7918 -8.0506 -3.8968 -2.2432 5.7495 36.5265
#
#
#
# Elastic Compliance Matrix: (Units=1/GPa)
#
#
# Indices 1 2 3 4 5 6 
#
# 1 0.012458 0.000111 -0.003682 -0.000495 -0.003225 0.006177
# 2 0.000111 0.014750 -0.008988 -0.002631 -0.001971 0.002495
# 3 -0.003682 -0.008988 0.019275 0.005549 -0.005514 -0.000509
# 4 -0.000495 -0.002631 0.005549 0.024826 -0.000712 0.001408
# 5 -0.003225 -0.001971 -0.005514 -0.000712 0.035758 -0.008266
# 6 0.006177 0.002495 -0.000509 0.001408 -0.008266 0.032269
#
#
# Mechanical properties :
#
#
# Convention : Reuss Voigt Hill
#
# Bulk Modulus (GPa) = 46.80751 59.79065 53.29908
# Shear Modulus (GPa) = 29.14207 35.25752 32.19979
#
# Velocity S-wave (km/s) = 3.77833 4.15591 3.97161
# Velocity P-wave (km/s) = 6.47796 7.23315 6.86594
#
# Compressibility (1/GPa) = 0.02136409
#
# Stress axis : x y z
#
# Youngs Moduli (GPa) = 80.27195 67.79856 51.88162
#
# Poissons Ratio (x) = -0.00752 0.19103
# Poissons Ratio (y) = -0.00890 0.46630
# Poissons Ratio (z) = 0.29556 0.60936
#
# Static dielectric constant tensor:
#      x y z
#    x 3.589950 -0.196020 0.088270 
#    y -0.196020 3.807750 -0.082820 
#    z 0.088270 -0.082820 3.628090 
# 
# 
# High freq. dielectric constant tensor:
#      x y z
#    x 1.806280 -0.008290 0.005570 
#    y -0.008290 1.801810 -0.003140 
#    z 0.005570 -0.003140 1.803070 
# 
# From -- ./inp_files/272588.got.cif
#   From: 2010.06.25/outbox.cif.g09.slc.cpg/sg2_137_cif.got.tgz:272588.got - 2010.06.27 13:26:56.
