data_PCOD8020000
_publ_section_title
;
Structure prediction by ZEFSAII (Michael W. Deem and Ramdas Pophale) SiO2 
 PCOD8020000
Probable space group: P -1
;
_chemical_formula_sum "Si O2"
_cell_formula_units_Z 14
_cell_length_a 11.475529
_cell_length_b 16.467801
_cell_length_c 8.863829
_cell_angle_alpha 135.621077
_cell_angle_beta 77.129737
_cell_angle_gamma 135.416301
_cell_volume 668.043341
_symmetry_space_group_name_H-M "P -1"
_symmetry_group_IT_number 2
_symmetry_cell_setting 'triclinic'
loop_
_space_group_symop_operation_xyz
x,y,z
-x,-y,-z
loop_
_atom_site_type_symbol
_atom_site_label
_atom_site_fract_x
_atom_site_fract_y
_atom_site_fract_z
Si Si1 0.971745 0.074206 0.982602
Si Si2 0.224929 0.649343 0.800430
Si Si3 0.202725 0.575121 0.364650
Si Si4 0.287173 0.376775 0.054386
Si Si5 0.756178 0.738519 0.404578
Si Si6 0.996080 0.736919 0.521464
Si Si7 0.400172 0.935639 0.604792
O O1 0.801253 0.902267 0.679460
O O2 0.923703 0.155556 0.193475
O O3 0.184197 0.255922 0.077004
O O4 0.000000 0.000000 0.000000
O O5 0.263700 0.642957 0.609412
O O6 0.040817 0.595978 0.805363
O O7 0.171078 0.494944 0.712299
O O8 0.437870 0.871953 0.082327
O O9 0.254410 0.486855 0.177310
O O10 0.335846 0.763237 0.468988
O O11 0.519938 0.524689 0.209968
O O12 0.193314 0.230131 0.746247
O O13 0.893195 0.755045 0.476846
O O14 0.195681 0.850013 0.527216
O O15 0.500000 0.000000 0.500000
#
# Coordination Sequence:
#
# PCOD8020000 Si02
#       7
#     2   2   2   2   2   2   2
#     4  10  22  42  64  93 124 166 213 257 305 372
#     4  10  22  43  67  92 127 162 212 262 311 379
#     4  10  23  42  67  94 125 166 210 257 314 377
#     4  11  23  43  66  94 128 170 207 258 321 366
#     4  10  25  41  65  95 130 165 213 259 313 372
#     4  10  23  42  66  95 126 167 210 260 314 372
#     4  11  26  41  65  99 125 166 209 258 323 375
#
# _framework density 20.956721999999999
#
# number of rings (size 3 to 8) (size 9 to 14) (size 15 to 20)
#    0.000    1.714    1.429    0.857    6.000    6.857 
#    5.143    0.000    0.000    0.000    0.000    0.000 
#    0.000    0.000    0.000    0.000    0.000    0.000 
#
# Total GULP energy -173580.063453 kJ/mol
# GULP energy per Si atom -12398.575961 kJ/mol
# Density = 2.090902 g / cm^3
# Si number density = 20.956722 Si / 1000 Ang^3
#
#
#
# Elastic Constant Matrix: (Units=GPa)
#
#
# Indices 1 2 3 4 5 6 
#
# 1 71.3898 27.2570 28.7720 4.3308 0.3741 6.8433
# 2 27.2570 136.8322 30.3197 -3.2069 -4.4712 6.6988
# 3 28.7720 30.3197 109.4959 0.9045 -0.8405 6.3017
# 4 4.3308 -3.2069 0.9045 33.7047 1.9976 -7.4578
# 5 0.3741 -4.4712 -0.8405 1.9976 23.9604 0.4722
# 6 6.8433 6.6988 6.3017 -7.4578 0.4722 20.9401
#
#
#
# Elastic Compliance Matrix: (Units=1/GPa)
#
#
# Indices 1 2 3 4 5 6 
#
# 1 0.017037 -0.002476 -0.003483 -0.003393 -0.000470 -0.004925
# 2 -0.002476 0.008271 -0.001571 0.000814 0.001481 -0.001107
# 3 -0.003483 -0.001571 0.010584 -0.000369 0.000196 -0.001680
# 4 -0.003393 0.000814 -0.000369 0.033204 -0.002829 0.012849
# 5 -0.000470 0.001481 0.000196 -0.002829 0.042308 -0.002341
# 6 -0.004925 -0.001107 -0.001680 0.012849 -0.002341 0.054853
#
#
# Mechanical properties :
#
#
# Convention : Reuss Voigt Hill
#
# Bulk Modulus (GPa) = 48.00342 54.49057 51.24700
# Shear Modulus (GPa) = 26.55856 31.14566 28.85211
#
# Velocity S-wave (km/s) = 3.56378 3.85930 3.71448
# Velocity P-wave (km/s) = 6.31584 6.77619 6.55006
#
# Compressibility (1/GPa) = 0.02083185
#
# Stress axis : x y z
#
# Youngs Moduli (GPa) = 58.69520 120.90033 94.47801
#
# Poissons Ratio (x) = 0.29931 0.32910
# Poissons Ratio (y) = 0.14531 0.14847
# Poissons Ratio (z) = 0.20446 0.18999
#
# Static dielectric constant tensor:
#      x y z
#    x 3.639370 0.077580 -0.189860 
#    y 0.077580 3.876270 -0.135340 
#    z -0.189860 -0.135340 4.364050 
# 
# 
# High freq. dielectric constant tensor:
#      x y z
#    x 1.808580 0.001880 -0.006230 
#    y 0.001880 1.835340 -0.004020 
#    z -0.006230 -0.004020 1.834310 
# 
# From -- ./inp_files/28366.got.cif
#   From: 2010.06.25/outbox.cif.g09.slc.cpg/sg2_15_cif.got.tgz:28366.got - 2010.06.27 13:26:56.
