data_PCOD8020086
_publ_section_title
;
Structure prediction by ZEFSAII (Michael W. Deem and Ramdas Pophale) SiO2 
 PCOD8020086
Probable space group: P -1
;
_chemical_formula_sum "Si O2"
_cell_formula_units_Z 14
_cell_length_a 8.182955
_cell_length_b 12.154116
_cell_length_c 9.099134
_cell_angle_alpha 116.588738
_cell_angle_beta 116.866583
_cell_angle_gamma 56.680754
_cell_volume 650.018777
_symmetry_space_group_name_H-M "P -1"
_symmetry_group_IT_number 2
_symmetry_cell_setting 'triclinic'
loop_
_space_group_symop_operation_xyz
x,y,z
-x,-y,-z
loop_
_atom_site_type_symbol
_atom_site_label
_atom_site_fract_x
_atom_site_fract_y
_atom_site_fract_z
Si Si1 0.053994 0.901722 0.247365
Si Si2 0.299330 0.079876 0.081178
Si Si3 0.159033 0.366506 0.297466
Si Si4 0.174445 0.355942 0.628524
Si Si5 0.582123 0.186907 0.866396
Si Si6 0.531171 0.243703 0.199333
Si Si7 0.939846 0.184695 0.487562
O O1 0.238399 0.813143 0.161592
O O2 0.054716 0.808016 0.328658
O O3 0.837683 0.958062 0.110744
O O4 0.083123 0.031832 0.397573
O O5 0.145653 0.223180 0.181560
O O6 0.485024 0.106523 0.098004
O O7 0.382296 0.967464 0.176499
O O8 0.235289 0.373563 0.498014
O O9 0.329544 0.370265 0.255899
O O10 0.942610 0.494429 0.254673
O O11 0.368813 0.263640 0.745569
O O12 0.018030 0.288680 0.515564
O O13 0.577235 0.267273 0.063995
O O14 0.710475 0.228123 0.370481
#
# Coordination Sequence:
#
# PCOD8020086 Si02
#       7
#     2   2   2   2   2   2   2
#     4  11  24  39  62  99 130 159 210 260 315 368
#     4  10  22  42  65  93 127 163 205 268 302 373
#     4   9  24  44  67  87 129 166 212 250 319 368
#     4  11  24  44  65  92 127 169 207 258 310 376
#     4  12  23  38  68  97 125 163 210 259 316 365
#     4  10  23  39  65  93 127 163 206 257 315 364
#     4  11  24  39  64  96 128 164 208 259 312 371
#
# _framework density 21.537842000000001
#
# number of rings (size 3 to 8) (size 9 to 14) (size 15 to 20)
#    0.857    0.571    1.429    3.429    6.000    2.286 
#    0.000    0.714    0.000    0.000    0.000    0.000 
#    0.000    0.000    0.000    0.000    0.000    0.000 
#
# Total GULP energy -173596.415242 kJ/mol
# GULP energy per Si atom -12399.743946 kJ/mol
# Density = 2.148882 g / cm^3
# Si number density = 21.537842 Si / 1000 Ang^3
#
#
#
# Elastic Constant Matrix: (Units=GPa)
#
#
# Indices 1 2 3 4 5 6 
#
# 1 104.5703 40.1572 51.8424 -6.8557 -14.4528 -28.1291
# 2 40.1572 101.4815 49.2383 -7.6049 2.5125 -17.6728
# 3 51.8424 49.2383 108.9664 -19.0618 -11.0840 -21.1774
# 4 -6.8557 -7.6049 -19.0618 26.0068 -14.0161 -0.7296
# 5 -14.4528 2.5125 -11.0840 -14.0161 43.0925 2.5803
# 6 -28.1291 -17.6728 -21.1774 -0.7296 2.5803 24.3886
#
#
#
# Elastic Compliance Matrix: (Units=1/GPa)
#
#
# Indices 1 2 3 4 5 6 
#
# 1 0.017103 -0.002721 -0.002263 0.005884 0.006311 0.015297
# 2 -0.002721 0.013894 -0.005385 -0.002774 -0.004166 0.002611
# 3 -0.002263 -0.005385 0.018138 0.016201 0.008964 0.008774
# 4 0.005884 -0.002774 0.016201 0.065947 0.026674 0.017995
# 5 0.006311 -0.004166 0.008964 0.026674 0.036006 0.009032
# 6 0.015297 0.002611 0.008774 0.017995 0.009032 0.067740
#
#
# Mechanical properties :
#
#
# Convention : Reuss Voigt Hill
#
# Bulk Modulus (GPa) = 35.21562 66.38821 50.80191
# Shear Modulus (GPa) = 20.07781 30.28293 25.18037
#
# Velocity S-wave (km/s) = 3.05652 3.75378 3.42295
# Velocity P-wave (km/s) = 5.37052 7.04831 6.26583
#
# Compressibility (1/GPa) = 0.02839649
#
# Stress axis : x y z
#
# Youngs Moduli (GPa) = 58.47008 71.97600 55.13226
#
# Poissons Ratio (x) = 0.19584 0.12477
# Poissons Ratio (y) = 0.15909 0.29688
# Poissons Ratio (z) = 0.13232 0.38759
#
# Static dielectric constant tensor:
#      x y z
#    x 3.750070 -0.163000 -0.229240 
#    y -0.163000 3.816170 0.106660 
#    z -0.229240 0.106660 3.805150 
# 
# 
# High freq. dielectric constant tensor:
#      x y z
#    x 1.844010 -0.021510 -0.015400 
#    y -0.021510 1.834630 0.003300 
#    z -0.015400 0.003300 1.848350 
# 
# From -- ./inp_files/180546.got.cif
#   From: 2010.06.25/outbox.cif.g09.slc.cpg/sg2_91_cif.got.tgz:180546.got - 2010.06.27 13:26:56.
