data_PCOD8020535
_publ_section_title
;
Structure prediction by ZEFSAII (Michael W. Deem and Ramdas Pophale) SiO2 
 PCOD8020535
Probable space group: P -1
;
_chemical_formula_sum "Si O2"
_cell_formula_units_Z 16
_cell_length_a 9.422229
_cell_length_b 11.698264
_cell_length_c 9.448065
_cell_angle_alpha 78.090567
_cell_angle_beta 43.831817
_cell_angle_gamma 74.412907
_cell_volume 694.569185
_symmetry_space_group_name_H-M "P -1"
_symmetry_group_IT_number 2
_symmetry_cell_setting 'triclinic'
loop_
_space_group_symop_operation_xyz
x,y,z
-x,-y,-z
loop_
_atom_site_type_symbol
_atom_site_label
_atom_site_fract_x
_atom_site_fract_y
_atom_site_fract_z
Si Si1 0.265770 0.981342 0.688838
Si Si2 0.195471 0.501001 0.762304
Si Si3 0.820667 0.079000 0.928482
Si Si4 0.788967 0.237095 0.393648
Si Si5 0.490043 0.645895 0.217355
Si Si6 0.786370 0.541684 0.563669
Si Si7 0.577052 0.752488 0.846423
Si Si8 0.846323 0.923132 0.703297
O O1 0.073983 0.074573 0.728012
O O2 0.500000 0.000000 0.500000
O O3 0.271653 0.850123 0.658286
O O4 0.211576 0.991274 0.889189
O O5 0.238338 0.633864 0.688471
O O6 0.382333 0.420864 0.728395
O O7 0.171867 0.447248 0.636931
O O8 0.000000 0.500000 0.000000
O O9 0.728715 0.008149 0.887053
O O10 0.675187 0.209767 0.001556
O O11 0.648631 0.239707 0.636660
O O12 0.024238 0.194082 0.286102
O O13 0.349786 0.557529 0.275851
O O14 0.622303 0.687346 0.982863
O O15 0.670006 0.668212 0.673161
O O16 0.000000 0.500000 0.500000
O O17 0.682074 0.871909 0.733516
O O18 0.000000 0.000000 0.500000
#
# Coordination Sequence:
#
# PCOD8020535 Si02
#       8
#     2   2   2   2   2   2   2   2
#     4  10  24  46  69 102 144 181 240 301 349 428
#     4  11  24  46  70 100 138 186 237 295 354 437
#     4  10  25  43  67 104 138 184 245 287 357 427
#     4  10  22  42  69  94 132 184 232 280 362 421
#     4  11  24  44  69 100 140 180 237 291 361 433
#     4  11  24  45  68 105 143 183 242 299 352 427
#     4  12  25  42  73 102 142 186 235 303 360 419
#     4  11  24  44  66  98 140 185 234 290 356 430
#
# _framework density 23.03586
#
# number of rings (size 3 to 8) (size 9 to 14) (size 15 to 20)
#    0.000    1.250    0.000    6.000    8.750    0.000 
#    4.500    0.000    0.000    0.000    0.000    0.000 
#    0.000    0.000    0.000    0.000    0.000    0.000 
#
# Total GULP energy -198304.773555 kJ/mol
# GULP energy per Si atom -12394.048347 kJ/mol
# Density = 2.298343 g / cm^3
# Si number density = 23.035860 Si / 1000 Ang^3
#
#
#
# Elastic Constant Matrix: (Units=GPa)
#
#
# Indices 1 2 3 4 5 6 
#
# 1 136.4052 57.7125 52.6156 11.4730 -9.8882 0.4717
# 2 57.7125 99.2916 64.5288 25.9141 -0.8501 3.3424
# 3 52.6156 64.5288 146.3427 17.3774 3.2646 18.6061
# 4 11.4730 25.9141 17.3774 49.1526 -1.2303 -0.2409
# 5 -9.8882 -0.8501 3.2646 -1.2303 45.2769 4.5744
# 6 0.4717 3.3424 18.6061 -0.2409 4.5744 44.3553
#
#
#
# Elastic Compliance Matrix: (Units=1/GPa)
#
#
# Indices 1 2 3 4 5 6 
#
# 1 0.010215 -0.005100 -0.001683 0.000959 0.002206 0.000760
# 2 -0.005100 0.018329 -0.005595 -0.006506 -0.000649 0.001052
# 3 -0.001683 -0.005595 0.010463 -0.000396 -0.000847 -0.003864
# 4 0.000959 -0.006506 -0.000396 0.023712 0.000689 0.000704
# 5 0.002206 -0.000649 -0.000847 0.000689 0.022835 -0.001970
# 6 0.000760 0.001052 -0.003864 0.000704 -0.001970 0.024286
#
#
# Mechanical properties :
#
#
# Convention : Reuss Voigt Hill
#
# Bulk Modulus (GPa) = 70.17735 81.30593 75.74164
# Shear Modulus (GPa) = 35.88180 41.56914 38.72547
#
# Velocity S-wave (km/s) = 3.95099 4.25260 4.10456
# Velocity P-wave (km/s) = 7.16549 7.71264 7.44409
#
# Compressibility (1/GPa) = 0.01424961
#
# Stress axis : x y z
#
# Youngs Moduli (GPa) = 97.89563 54.55835 95.57624
#
# Poissons Ratio (x) = 0.27826 0.16089
# Poissons Ratio (y) = 0.49929 0.53475
# Poissons Ratio (z) = 0.16479 0.30525
#
# Static dielectric constant tensor:
#      x y z
#    x 4.595300 -0.447620 -0.269090 
#    y -0.447620 4.680510 0.610100 
#    z -0.269090 0.610100 4.644450 
# 
# 
# High freq. dielectric constant tensor:
#      x y z
#    x 1.921400 -0.008110 0.001230 
#    y -0.008110 1.896580 0.021190 
#    z 0.001230 0.021190 1.926130 
# 
# From -- ./inp_files/187233.got.cif
#   From: 2010.06.25/outbox.cif.g09.slc.cpg/sg2_94_cif.got.tgz:187233.got - 2010.06.27 13:26:56.
