data_PCOD8020719
_publ_section_title
;
Structure prediction by ZEFSAII (Michael W. Deem and Ramdas Pophale) SiO2 
 PCOD8020719
Probable space group: P -1
;
_chemical_formula_sum "Si O2"
_cell_formula_units_Z 14
_cell_length_a 12.900041
_cell_length_b 5.463555
_cell_length_c 14.737440
_cell_angle_alpha 63.483848
_cell_angle_beta 131.379933
_cell_angle_gamma 133.532842
_cell_volume 564.958180
_symmetry_space_group_name_H-M "P -1"
_symmetry_group_IT_number 2
_symmetry_cell_setting 'triclinic'
loop_
_space_group_symop_operation_xyz
x,y,z
-x,-y,-z
loop_
_atom_site_type_symbol
_atom_site_label
_atom_site_fract_x
_atom_site_fract_y
_atom_site_fract_z
Si Si1 0.372909 0.629461 0.026947
Si Si2 0.174192 0.546908 0.105967
Si Si3 0.418496 0.010865 0.540015
Si Si4 0.209118 0.542706 0.771335
Si Si5 0.025415 0.909394 0.630114
Si Si6 0.756348 0.685783 0.650183
Si Si7 0.502372 0.220365 0.218622
O O1 0.235756 0.409472 0.903427
O O2 0.253576 0.555879 0.055106
O O3 0.502569 0.537818 0.141945
O O4 0.500000 0.000000 0.000000
O O5 0.143113 0.258901 0.206424
O O6 0.306411 0.906911 0.170842
O O7 0.000000 0.500000 0.000000
O O8 0.562216 0.369982 0.610499
O O9 0.247445 0.990255 0.426161
O O10 0.500000 0.000000 0.500000
O O11 0.386588 0.715147 0.636812
O O12 0.118801 0.236470 0.696789
O O13 0.399901 0.831523 0.795944
O O14 0.117588 0.725106 0.705395
O O15 0.000000 0.000000 0.500000
O O16 0.843342 0.643400 0.619217
#
# Coordination Sequence:
#
# PCOD8020719 Si02
#       7
#     2   2   2   2   2   2   2
#     4  12  25  46  74 105 148 195 254 314 374 455
#     4  11  25  45  71 106 153 192 250 311 381 447
#     4  10  22  42  72  98 141 192 250 310 376 448
#     4  12  27  45  76 105 149 199 251 313 380 453
#     4  12  28  48  75 109 151 198 254 317 384 451
#     4  10  24  44  69 107 146 193 252 311 376 451
#     4  11  25  43  72 106 141 196 254 304 377 454
#
# _framework density 24.780594000000001
#
# number of rings (size 3 to 8) (size 9 to 14) (size 15 to 20)
#    0.000    0.857    1.429    4.286    8.000    0.571 
#    0.000    0.000    0.000    0.000    0.000    0.000 
#    0.000    0.000    0.000    0.000    0.000    0.000 
#
# Total GULP energy -173476.233260 kJ/mol
# GULP energy per Si atom -12391.159519 kJ/mol
# Density = 2.472419 g / cm^3
# Si number density = 24.780594 Si / 1000 Ang^3
#
#
#
# Elastic Constant Matrix: (Units=GPa)
#
#
# Indices 1 2 3 4 5 6 
#
# 1 210.6666 28.6776 107.7459 -28.6392 9.7139 -0.9473
# 2 28.6776 62.1153 46.2961 -9.4050 10.4085 -8.1757
# 3 107.7459 46.2961 250.0315 -51.9266 -1.8317 -11.1794
# 4 -28.6392 -9.4050 -51.9266 40.4493 -3.8907 2.1848
# 5 9.7139 10.4085 -1.8317 -3.8907 63.9897 -4.7118
# 6 -0.9473 -8.1757 -11.1794 2.1848 -4.7118 42.8992
#
#
#
# Elastic Compliance Matrix: (Units=1/GPa)
#
#
# Indices 1 2 3 4 5 6 
#
# 1 0.006258 -0.000946 -0.002314 0.001202 -0.000848 -0.000799
# 2 -0.000946 0.019734 -0.003311 -0.000762 -0.003017 0.002585
# 3 -0.002314 -0.003311 0.007071 0.006767 0.001577 0.000989
# 4 0.001202 -0.000762 0.006767 0.034290 0.002231 0.000144
# 5 -0.000848 -0.003017 0.001577 0.002231 0.016540 0.001520
# 6 -0.000799 0.002585 0.000989 0.000144 0.001520 0.024203
#
#
# Mechanical properties :
#
#
# Convention : Reuss Voigt Hill
#
# Bulk Modulus (GPa) = 50.19740 98.69473 74.44606
# Shear Modulus (GPa) = 39.09977 52.14057 45.62017
#
# Velocity S-wave (km/s) = 3.97651 4.59201 4.29530
# Velocity P-wave (km/s) = 6.43306 8.24799 7.39640
#
# Compressibility (1/GPa) = 0.01992135
#
# Stress axis : x y z
#
# Youngs Moduli (GPa) = 159.79616 50.67386 141.42340
#
# Poissons Ratio (x) = 0.04792 0.32725
# Poissons Ratio (y) = 0.15111 0.46828
# Poissons Ratio (z) = 0.36977 0.16779
#
# Static dielectric constant tensor:
#      x y z
#    x 4.901050 0.663630 0.098910 
#    y 0.663630 5.027850 0.228420 
#    z 0.098910 0.228420 5.443010 
# 
# 
# High freq. dielectric constant tensor:
#      x y z
#    x 1.998340 0.012250 -0.001260 
#    y 0.012250 1.968730 -0.005360 
#    z -0.001260 -0.005360 2.018560 
# 
# From -- ./inp_files/510777.got.cif
#   From: 2010.06.25/outbox.cif.g09.slc.cpg/sg2_256_cif.got.tgz:510777.got - 2010.06.27 13:26:56.
