data_PCOD8020037
_publ_section_title
;
Structure prediction by ZEFSAII (Michael W. Deem and Ramdas Pophale) SiO2 
 PCOD8020037
Probable space group: P -1
;
_chemical_formula_sum "Si O2"
_cell_formula_units_Z 16
_cell_length_a 6.862303
_cell_length_b 11.313758
_cell_length_c 23.733868
_cell_angle_alpha 149.793651
_cell_angle_beta 122.718459
_cell_angle_gamma 71.695763
_cell_volume 727.203421
_symmetry_space_group_name_H-M "P -1"
_symmetry_group_IT_number 2
_symmetry_cell_setting 'triclinic'
loop_
_space_group_symop_operation_xyz
x,y,z
-x,-y,-z
loop_
_atom_site_type_symbol
_atom_site_label
_atom_site_fract_x
_atom_site_fract_y
_atom_site_fract_z
Si Si1 0.712198 0.546985 0.726846
Si Si2 0.467154 0.157113 0.335161
Si Si3 0.608860 0.547362 0.841173
Si Si4 0.055381 0.228242 0.646496
Si Si5 0.688027 0.645551 0.506133
Si Si6 0.975099 0.530170 0.075181
Si Si7 0.941487 0.024905 0.888445
Si Si8 0.151340 0.072518 0.718359
O O1 0.645761 0.562560 0.786839
O O2 0.855618 0.358384 0.659985
O O3 0.453945 0.441861 0.610387
O O4 0.872058 0.831127 0.849203
O O5 0.670841 0.409093 0.445072
O O6 0.435383 0.184006 0.407925
O O7 0.195852 0.113002 0.246800
O O8 0.572888 0.932847 0.249382
O O9 0.740043 0.361394 0.811354
O O10 0.321505 0.447502 0.769645
O O11 0.755891 0.832209 0.007970
O O12 0.036237 0.125030 0.664029
O O13 0.000000 0.000000 0.500000
O O14 0.973675 0.802756 0.602519
O O15 0.830127 0.713357 0.144197
O O16 0.000000 0.500000 0.000000
O O17 0.840503 0.259456 0.974564
#
# Coordination Sequence:
#
# PCOD8020037 Si02
#       8
#     2   2   2   2   2   2   2   2
#     4  11  22  44  64  93 125 175 213 261 324 381
#     4  10  22  42  65 100 125 173 217 261 327 386
#     4  10  24  43  63  90 133 163 214 267 322 376
#     4  12  26  39  64  99 126 169 218 261 321 395
#     4  10  23  41  67  92 138 168 212 271 316 385
#     4  10  23  43  63  92 130 170 209 269 326 373
#     4   9  22  42  67  87 129 169 209 267 320 378
#     4  12  24  39  67  95 129 170 217 267 323 384
#
# _framework density 22.002098
#
# number of rings (size 3 to 8) (size 9 to 14) (size 15 to 20)
#    0.750    0.750    1.250    3.000    5.250    2.000 
#    2.250    7.500    0.000    0.000    0.000    0.000 
#    0.000    0.000    0.000    0.000    0.000    0.000 
#
# Total GULP energy -198227.177784 kJ/mol
# GULP energy per Si atom -12389.198612 kJ/mol
# Density = 2.195202 g / cm^3
# Si number density = 22.002098 Si / 1000 Ang^3
#
#
#
# Elastic Constant Matrix: (Units=GPa)
#
#
# Indices 1 2 3 4 5 6 
#
# 1 62.3368 28.0472 27.6308 3.9277 -7.2744 7.5225
# 2 28.0472 72.9507 16.5885 -5.4621 -10.8404 13.5086
# 3 27.6308 16.5885 95.0198 -0.7798 -2.1953 17.3450
# 4 3.9277 -5.4621 -0.7798 39.0728 3.3827 -2.8218
# 5 -7.2744 -10.8404 -2.1953 3.3827 38.5601 3.9886
# 6 7.5225 13.5086 17.3450 -2.8218 3.9886 29.3935
#
#
#
# Elastic Compliance Matrix: (Units=1/GPa)
#
#
# Indices 1 2 3 4 5 6 
#
# 1 0.022050 -0.007277 -0.005142 -0.003512 0.002118 0.000111
# 2 -0.007277 0.018614 0.000310 0.002435 0.004413 -0.007240
# 3 -0.005142 0.000310 0.013195 0.000297 0.000531 -0.006656
# 4 -0.003512 0.002435 0.000297 0.026696 -0.002563 0.002515
# 5 0.002118 0.004413 0.000531 -0.002563 0.028553 -0.007004
# 6 0.000111 -0.007240 -0.006656 0.002515 -0.007004 0.042440
#
#
# Mechanical properties :
#
#
# Convention : Reuss Voigt Hill
#
# Bulk Modulus (GPa) = 33.73630 41.64894 37.69262
# Shear Modulus (GPa) = 26.93290 31.94133 29.43711
#
# Velocity S-wave (km/s) = 3.50252 3.81430 3.66173
# Velocity P-wave (km/s) = 5.63235 6.19429 5.91999
#
# Compressibility (1/GPa) = 0.02964166
#
# Stress axis : x y z
#
# Youngs Moduli (GPa) = 45.35112 53.72300 75.78689
#
# Poissons Ratio (x) = 0.39095 0.38967
# Poissons Ratio (y) = 0.33003 -0.02350
# Poissons Ratio (z) = 0.23318 -0.01666
#
# Static dielectric constant tensor:
#      x y z
#    x 3.731180 0.099940 0.129600 
#    y 0.099940 4.051300 0.046800 
#    z 0.129600 0.046800 4.120280 
# 
# 
# High freq. dielectric constant tensor:
#      x y z
#    x 1.839730 0.014100 0.008660 
#    y 0.014100 1.875040 -0.001150 
#    z 0.008660 -0.001150 1.876470 
# 
# From -- ./inp_files/427283.got.cif
#   From: 2010.06.25/outbox.cif.g09.slc.cpg/sg2_214_cif.got.tgz:427283.got - 2010.06.27 13:26:56.
