data_PCOD8020927
_publ_section_title
;
Structure prediction by ZEFSAII (Michael W. Deem and Ramdas Pophale) SiO2 
 PCOD8020927
Probable space group: P -1
;
_chemical_formula_sum "Si O2"
_cell_formula_units_Z 16
_cell_length_a 23.076128
_cell_length_b 6.346255
_cell_length_c 7.851662
_cell_angle_alpha 94.239664
_cell_angle_beta 117.153430
_cell_angle_gamma 46.412064
_cell_volume 687.430709
_symmetry_space_group_name_H-M "P -1"
_symmetry_group_IT_number 2
_symmetry_cell_setting 'triclinic'
loop_
_space_group_symop_operation_xyz
x,y,z
-x,-y,-z
loop_
_atom_site_type_symbol
_atom_site_label
_atom_site_fract_x
_atom_site_fract_y
_atom_site_fract_z
Si Si1 0.585403 0.209558 0.909114
Si Si2 0.845778 0.330531 0.501979
Si Si3 0.789148 0.553913 0.066315
Si Si4 0.467130 0.873881 0.848789
Si Si5 0.970068 0.346038 0.182610
Si Si6 0.221257 0.745883 0.269055
Si Si7 0.084811 0.437731 0.234397
Si Si8 0.431721 0.263475 0.559465
O O1 0.560537 0.518311 0.880404
O O2 0.488911 0.319432 0.724477
O O3 0.599264 0.117663 0.122314
O O4 0.682686 0.913243 0.923325
O O5 0.801653 0.409690 0.258033
O O6 0.781817 0.361802 0.557297
O O7 0.848762 0.573829 0.560652
O O8 0.955879 0.984575 0.639991
O O9 0.866606 0.557366 0.146370
O O10 0.806297 0.342861 0.928130
O O11 0.405083 0.121167 0.629212
O O12 0.500000 0.000000 0.000000
O O13 0.007594 0.500050 0.255850
O O14 0.966636 0.303967 0.970617
O O15 0.328198 0.587300 0.370534
O O16 0.148878 0.114971 0.196782
O O17 0.500000 0.000000 0.500000
#
# Coordination Sequence:
#
# PCOD8020927 Si02
#       8
#     2   2   2   2   2   2   2   2
#     4  10  22  43  65  95 130 174 221 269 329 388
#     4  11  24  46  68  96 134 178 216 274 337 395
#     4  12  24  43  69 100 134 171 224 276 327 394
#     4   9  21  41  65  89 126 172 214 273 325 388
#     4  10  23  44  67  99 133 171 220 274 331 398
#     4  11  25  44  65 100 136 172 224 276 323 397
#     4  10  23  43  71  93 133 181 212 271 341 392
#     4  11  22  40  63  93 131 171 217 267 328 381
#
# _framework density 23.275072999999999
#
# number of rings (size 3 to 8) (size 9 to 14) (size 15 to 20)
#    0.000    1.500    2.500    1.500    3.500    6.000 
#    4.500    0.000    0.000    0.000    0.000    0.000 
#    0.000    0.000    0.000    0.000    0.000    0.000 
#
# Total GULP energy -198275.472744 kJ/mol
# GULP energy per Si atom -12392.217046 kJ/mol
# Density = 2.322210 g / cm^3
# Si number density = 23.275073 Si / 1000 Ang^3
#
#
#
# Elastic Constant Matrix: (Units=GPa)
#
#
# Indices 1 2 3 4 5 6 
#
# 1 75.4652 33.9992 32.1369 -3.6495 16.1855 -8.8611
# 2 33.9992 110.0842 24.8633 -5.0232 7.1595 7.8959
# 3 32.1369 24.8633 86.7949 0.3108 -1.2944 -1.8356
# 4 -3.6495 -5.0232 0.3108 28.9050 -11.2126 0.2024
# 5 16.1855 7.1595 -1.2944 -11.2126 38.8059 -6.5359
# 6 -8.8611 7.8959 -1.8356 0.2024 -6.5359 30.0907
#
#
#
# Elastic Compliance Matrix: (Units=1/GPa)
#
#
# Indices 1 2 3 4 5 6 
#
# 1 0.020082 -0.004798 -0.006052 -0.001025 -0.007102 0.005268
# 2 -0.004798 0.011347 -0.001585 0.001191 -0.000579 -0.004621
# 3 -0.006052 -0.001585 0.014271 0.000110 0.003364 0.000234
# 4 -0.001025 0.001191 0.000110 0.039253 0.011840 0.001700
# 5 -0.007102 -0.000579 0.003364 0.011840 0.033283 0.005416
# 6 0.005268 -0.004621 0.000234 0.001700 0.005416 0.037176
#
#
# Mechanical properties :
#
#
# Convention : Reuss Voigt Hill
#
# Bulk Modulus (GPa) = 48.00595 50.48254 49.24424
# Shear Modulus (GPa) = 26.70569 31.64999 29.17784
#
# Velocity S-wave (km/s) = 3.39100 3.69158 3.54448
# Velocity P-wave (km/s) = 6.00017 6.31720 6.16072
#
# Compressibility (1/GPa) = 0.02083075
#
# Stress axis : x y z
#
# Youngs Moduli (GPa) = 49.79524 88.12742 70.07272
#
# Poissons Ratio (x) = 0.42285 0.42408
# Poissons Ratio (y) = 0.23893 0.11103
# Poissons Ratio (z) = 0.30136 0.13964
#
# Static dielectric constant tensor:
#      x y z
#    x 2.343970 -1.112260 -1.376670 
#    y -1.112260 3.401000 -0.863820 
#    z -1.376670 -0.863820 3.436740 
# 
# 
# High freq. dielectric constant tensor:
#      x y z
#    x 1.920600 -0.002280 -0.003150 
#    y -0.002280 1.914090 -0.007380 
#    z -0.003150 -0.007380 1.916800 
# 
# From -- ./inp_files/351031.got.cif
#   From: 2010.06.25/outbox.cif.g09.slc.cpg/sg2_176_cif.got.tgz:351031.got - 2010.06.27 13:26:56.
