data_PCOD8020983
_publ_section_title
;
Structure prediction by ZEFSAII (Michael W. Deem and Ramdas Pophale) SiO2 
 PCOD8020983
Probable space group: P -1
;
_chemical_formula_sum "Si O2"
_cell_formula_units_Z 16
_cell_length_a 11.443391
_cell_length_b 12.402296
_cell_length_c 11.615576
_cell_angle_alpha 56.565785
_cell_angle_beta 146.069983
_cell_angle_gamma 108.513605
_cell_volume 732.595036
_symmetry_space_group_name_H-M "P -1"
_symmetry_group_IT_number 2
_symmetry_cell_setting 'triclinic'
loop_
_space_group_symop_operation_xyz
x,y,z
-x,-y,-z
loop_
_atom_site_type_symbol
_atom_site_label
_atom_site_fract_x
_atom_site_fract_y
_atom_site_fract_z
Si Si1 0.263456 0.737145 0.466649
Si Si2 0.730591 0.561955 0.376752
Si Si3 0.957101 0.816213 0.751569
Si Si4 0.590686 0.371791 0.728599
Si Si5 0.979329 0.750982 0.546864
Si Si6 0.459022 0.654394 0.901362
Si Si7 0.483310 0.831610 0.376662
Si Si8 0.882521 0.945608 0.154036
O O1 0.188059 0.600057 0.482411
O O2 0.441231 0.729927 0.719189
O O3 0.366778 0.764280 0.416261
O O4 0.047683 0.859595 0.244163
O O5 0.502216 0.592396 0.241116
O O6 0.912881 0.611124 0.565024
O O7 0.667102 0.652082 0.153779
O O8 0.727522 0.823341 0.621312
O O9 0.924982 0.821376 0.584831
O O10 0.022421 0.943189 0.776107
O O11 0.143556 0.677123 0.020943
O O12 0.500000 0.500000 0.500000
O O13 0.499849 0.253325 0.676627
O O14 0.234842 0.720283 0.748381
O O15 0.837947 0.854674 0.275085
O O16 0.500000 0.500000 0.000000
O O17 0.341870 0.985293 0.140390
#
# Coordination Sequence:
#
# PCOD8020983 Si02
#       8
#     2   2   2   2   2   2   2   2
#     4  10  22  43  66  92 135 174 211 269 320 390
#     4  11  21  41  69  98 128 162 215 272 330 379
#     4  11  24  42  66  96 130 172 219 264 323 382
#     4  11  22  42  65  99 134 163 207 276 328 385
#     4  11  22  41  68  97 127 171 217 267 324 379
#     4   9  21  39  60  93 132 165 206 260 317 382
#     4  11  23  43  66  98 128 175 220 260 327 381
#     4  10  25  42  63  93 134 175 220 266 309 383
#
# _framework density 21.840168999999999
#
# number of rings (size 3 to 8) (size 9 to 14) (size 15 to 20)
#    0.000    1.500    3.750    0.750    0.000    8.000 
#    4.500    6.250    0.000    0.000    0.000    0.000 
#    0.000    0.000    0.000    0.000    0.000    0.000 
#
# Total GULP energy -198329.929914 kJ/mol
# GULP energy per Si atom -12395.620620 kJ/mol
# Density = 2.179046 g / cm^3
# Si number density = 21.840169 Si / 1000 Ang^3
#
#
#
# Elastic Constant Matrix: (Units=GPa)
#
#
# Indices 1 2 3 4 5 6 
#
# 1 66.6787 22.5131 29.1202 -6.4785 -3.2841 -8.1760
# 2 22.5131 86.2743 36.7862 -4.0124 9.2733 -10.4803
# 3 29.1202 36.7862 113.7347 -13.8165 1.5874 3.3477
# 4 -6.4785 -4.0124 -13.8165 37.8185 0.6704 -0.4386
# 5 -3.2841 9.2733 1.5874 0.6704 29.5761 -3.9702
# 6 -8.1760 -10.4803 3.3477 -0.4386 -3.9702 31.3380
#
#
#
# Elastic Compliance Matrix: (Units=1/GPa)
#
#
# Indices 1 2 3 4 5 6 
#
# 1 0.018582 -0.002990 -0.003806 0.001463 0.003811 0.004758
# 2 -0.002990 0.015128 -0.004231 -0.000328 -0.004279 0.004185
# 3 -0.003806 -0.004231 0.011624 0.003109 -0.000279 -0.003642
# 4 0.001463 -0.000328 0.003109 0.027805 -0.000496 0.000266
# 5 0.003811 -0.004279 -0.000279 -0.000496 0.036161 0.004167
# 6 0.004758 0.004185 -0.003642 0.000266 0.004167 0.035472
#
#
# Mechanical properties :
#
#
# Convention : Reuss Voigt Hill
#
# Bulk Modulus (GPa) = 42.95378 49.28075 46.11726
# Shear Modulus (GPa) = 28.63907 31.63107 30.13507
#
# Velocity S-wave (km/s) = 3.62512 3.80978 3.71860
# Velocity P-wave (km/s) = 6.10180 6.47810 6.29277
#
# Compressibility (1/GPa) = 0.02328084
#
# Stress axis : x y z
#
# Youngs Moduli (GPa) = 53.81475 66.10248 86.02831
#
# Poissons Ratio (x) = 0.19762 0.32745
# Poissons Ratio (y) = 0.16088 0.36398
# Poissons Ratio (z) = 0.20483 0.27967
#
# Static dielectric constant tensor:
#      x y z
#    x 4.040270 -0.376010 -0.221950 
#    y -0.376010 3.970140 -0.009380 
#    z -0.221950 -0.009380 4.344630 
# 
# 
# High freq. dielectric constant tensor:
#      x y z
#    x 1.854150 -0.023700 -0.005990 
#    y -0.023700 1.853320 -0.009500 
#    z -0.005990 -0.009500 1.864450 
# 
# From -- ./inp_files/66785.got.cif
#   From: 2010.06.25/outbox.cif.g09.slc.cpg/sg2_34_cif.got.tgz:66785.got - 2010.06.27 13:26:56.
