data_PCOD8020541
_publ_section_title
;
Structure prediction by ZEFSAII (Michael W. Deem and Ramdas Pophale) SiO2 
 PCOD8020541
Probable space group: P -1
;
_chemical_formula_sum "Si O2"
_cell_formula_units_Z 12
_cell_length_a 19.991613
_cell_length_b 13.735430
_cell_length_c 9.411321
_cell_angle_alpha 137.593876
_cell_angle_beta 33.922833
_cell_angle_gamma 155.950245
_cell_volume 585.614394
_symmetry_space_group_name_H-M "P -1"
_symmetry_group_IT_number 2
_symmetry_cell_setting 'triclinic'
loop_
_space_group_symop_operation_xyz
x,y,z
-x,-y,-z
loop_
_atom_site_type_symbol
_atom_site_label
_atom_site_fract_x
_atom_site_fract_y
_atom_site_fract_z
Si Si1 0.516478 0.580966 0.850570
Si Si2 0.564968 0.806463 0.484021
Si Si3 0.272772 0.441164 0.388390
Si Si4 0.188918 0.699385 0.478910
Si Si5 0.445536 0.126690 0.103650
Si Si6 0.020991 0.619335 0.226395
O O1 0.387860 0.320762 0.736134
O O2 0.711878 0.704083 0.722649
O O3 0.583937 0.746412 0.781130
O O4 0.385095 0.547479 0.154029
O O5 0.381569 0.658535 0.539102
O O6 0.507282 0.806100 0.741751
O O7 0.754403 0.076444 0.381213
O O8 0.050547 0.286226 0.586707
O O9 0.134636 0.596397 0.620382
O O10 0.000000 0.500000 0.500000
O O11 0.374160 0.786440 0.188468
O O12 0.243380 0.840503 0.133867
O O13 0.000000 0.500000 0.000000
#
# Coordination Sequence:
#
# PCOD8020541 Si02
#       6
#     2   2   2   2   2   2
#     4   9  21  42  71  94 134 174 215 272 326 383
#     4  10  22  42  69  95 132 177 214 269 327 386
#     4   9  21  43  65  99 133 169 220 266 332 380
#     4  12  26  44  66  97 137 171 220 279 321 387
#     4  12  24  44  69  97 135 171 225 269 321 400
#     4  12  27  41  69 103 127 179 221 265 337 388
#
# _framework density 20.491301
#
# number of rings (size 3 to 8) (size 9 to 14) (size 15 to 20)
#    1.000    0.333    3.333    2.000    4.667    2.000 
#    0.000    5.000    0.000    0.000    0.000    0.000 
#    0.000    0.000    0.000    0.000    0.000    0.000 
#
# Total GULP energy -148711.682276 kJ/mol
# GULP energy per Si atom -12392.640190 kJ/mol
# Density = 2.044466 g / cm^3
# Si number density = 20.491301 Si / 1000 Ang^3
#
#
#
# Elastic Constant Matrix: (Units=GPa)
#
#
# Indices 1 2 3 4 5 6 
#
# 1 81.4470 38.6052 58.1751 -5.8749 7.4169 -7.2934
# 2 38.6052 99.7390 50.5995 0.0921 18.5111 -5.1068
# 3 58.1751 50.5995 138.2337 2.7100 12.9272 11.8553
# 4 -5.8749 0.0921 2.7100 30.8355 7.9100 4.3482
# 5 7.4169 18.5111 12.9272 7.9100 35.1035 3.3295
# 6 -7.2934 -5.1068 11.8553 4.3482 3.3295 41.3655
#
#
#
# Elastic Compliance Matrix: (Units=1/GPa)
#
#
# Indices 1 2 3 4 5 6 
#
# 1 0.020235 -0.003520 -0.007641 0.004092 -0.001000 0.004973
# 2 -0.003520 0.014382 -0.003457 0.000766 -0.005981 0.002547
# 3 -0.007641 -0.003457 0.012202 -0.001757 -0.000179 -0.005072
# 4 0.004092 0.000766 -0.001757 0.035795 -0.008521 -0.001757
# 5 -0.001000 -0.005981 -0.000179 -0.008521 0.034096 -0.002712
# 6 0.004973 0.002547 -0.005072 -0.001757 -0.002712 0.027223
#
#
# Mechanical properties :
#
#
# Convention : Reuss Voigt Hill
#
# Bulk Modulus (GPa) = 56.87213 68.24215 62.55714
# Shear Modulus (GPa) = 27.92826 32.93024 30.42925
#
# Velocity S-wave (km/s) = 3.69580 4.01313 3.85773
# Velocity P-wave (km/s) = 6.78428 7.40601 7.10195
#
# Compressibility (1/GPa) = 0.01758331
#
# Stress axis : x y z
#
# Youngs Moduli (GPa) = 49.41820 69.52996 81.95706
#
# Poissons Ratio (x) = 0.24472 0.62623
# Poissons Ratio (y) = 0.17393 0.28336
# Poissons Ratio (z) = 0.37760 0.24039
#
# Static dielectric constant tensor:
#      x y z
#    x 4.208320 -0.438940 0.179780 
#    y -0.438940 4.036630 -0.046590 
#    z 0.179780 -0.046590 3.641690 
# 
# 
# High freq. dielectric constant tensor:
#      x y z
#    x 1.817820 -0.003620 0.008510 
#    y -0.003620 1.784770 0.013690 
#    z 0.008510 0.013690 1.797750 
# 
# From -- ./inp_files/130862.got.cif
#   From: 2010.06.25/outbox.cif.g09.slc.cpg/sg2_66_cif.got.tgz:130862.got - 2010.06.27 13:26:56.
