data_PCOD8020380
_publ_section_title
;
Structure prediction by ZEFSAII (Michael W. Deem and Ramdas Pophale) SiO2 
 PCOD8020380
Probable space group: P -1
;
_chemical_formula_sum "Si O2"
_cell_formula_units_Z 14
_cell_length_a 5.521757
_cell_length_b 19.319402
_cell_length_c 8.826538
_cell_angle_alpha 142.217458
_cell_angle_beta 79.431015
_cell_angle_gamma 100.262163
_cell_volume 566.231230
_symmetry_space_group_name_H-M "P -1"
_symmetry_group_IT_number 2
_symmetry_cell_setting 'triclinic'
loop_
_space_group_symop_operation_xyz
x,y,z
-x,-y,-z
loop_
_atom_site_type_symbol
_atom_site_label
_atom_site_fract_x
_atom_site_fract_y
_atom_site_fract_z
Si Si1 0.177407 0.941365 0.094213
Si Si2 0.836412 0.307267 0.250574
Si Si3 0.443760 0.099816 0.567747
Si Si4 0.620831 0.668962 0.875699
Si Si5 0.024387 0.660269 0.385088
Si Si6 0.356691 0.527235 0.915697
Si Si7 0.170551 0.894955 0.701241
O O1 0.264199 0.047355 0.369024
O O2 0.149084 0.828746 0.003605
O O3 0.328449 0.917233 0.878873
O O4 0.919938 0.982663 0.127271
O O5 0.600291 0.345066 0.247751
O O6 0.798381 0.343225 0.492213
O O7 0.105751 0.363127 0.264734
O O8 0.676122 0.151277 0.536229
O O9 0.500000 0.000000 0.500000
O O10 0.337328 0.202181 0.848883
O O11 0.543732 0.582324 0.867259
O O12 0.968460 0.791380 0.583124
O O13 0.771837 0.589806 0.334679
O O14 0.147421 0.611558 0.135745
O O15 0.500000 0.500000 0.000000
#
# Coordination Sequence:
#
# PCOD8020380 Si02
#       7
#     2   2   2   2   2   2   2
#     4  10  23  41  67 100 144 180 244 273 358 423
#     4  11  27  49  71 110 144 192 230 294 355 435
#     4  12  23  38  65  99 142 183 228 288 348 419
#     4  12  28  46  74 104 149 185 240 291 364 412
#     4  10  25  48  73  99 145 184 246 292 360 420
#     4  11  27  47  74 107 135 189 244 303 352 425
#     4  10  22  42  67  99 134 194 228 296 344 425
#
# _framework density 24.724879999999999
#
# number of rings (size 3 to 8) (size 9 to 14) (size 15 to 20)
#    0.000    1.143    2.857    1.286   10.000    2.286 
#    5.143    0.000    0.000    0.000    0.000    0.000 
#    0.000    0.000    0.000    0.000    0.000    0.000 
#
# Total GULP energy -173432.827416 kJ/mol
# GULP energy per Si atom -12388.059101 kJ/mol
# Density = 2.466861 g / cm^3
# Si number density = 24.724880 Si / 1000 Ang^3
#
#
#
# Elastic Constant Matrix: (Units=GPa)
#
#
# Indices 1 2 3 4 5 6 
#
# 1 107.2924 30.3246 0.4631 -9.4995 23.1304 9.1531
# 2 30.3246 136.9013 28.0505 12.1405 10.1489 -7.3079
# 3 0.4631 28.0505 96.1289 8.6234 19.6836 -5.0896
# 4 -9.4995 12.1405 8.6234 50.1832 1.4920 -4.5526
# 5 23.1304 10.1489 19.6836 1.4920 41.4670 -0.8530
# 6 9.1531 -7.3079 -5.0896 -4.5526 -0.8530 49.7657
#
#
#
# Elastic Compliance Matrix: (Units=1/GPa)
#
#
# Indices 1 2 3 4 5 6 
#
# 1 0.012090 -0.002899 0.001872 0.002667 -0.007067 -0.002335
# 2 -0.002899 0.008645 -0.002397 -0.002125 0.000744 0.001376
# 3 0.001872 -0.002397 0.012502 -0.000991 -0.006348 0.000383
# 4 0.002667 -0.002125 -0.000991 0.021245 -0.001241 0.001018
# 5 -0.007067 0.000744 -0.006348 -0.001241 0.030958 0.001177
# 6 -0.002335 0.001376 0.000383 0.001018 0.001177 0.020878
#
#
# Mechanical properties :
#
#
# Convention : Reuss Voigt Hill
#
# Bulk Modulus (GPa) = 37.89515 50.88877 44.39196
# Shear Modulus (GPa) = 40.99576 47.04880 44.02228
#
# Velocity S-wave (km/s) = 4.07637 4.36695 4.22416
# Velocity P-wave (km/s) = 6.12501 6.78629 6.46411
#
# Compressibility (1/GPa) = 0.02638860
#
# Stress axis : x y z
#
# Youngs Moduli (GPa) = 82.71011 115.67871 79.98527
#
# Poissons Ratio (x) = 0.33534 -0.14972
# Poissons Ratio (y) = 0.23977 0.19176
# Poissons Ratio (z) = -0.15482 0.27733
#
# Static dielectric constant tensor:
#      x y z
#    x 4.143700 0.112040 0.123260 
#    y 0.112040 4.616350 -0.331640 
#    z 0.123260 -0.331640 5.032050 
# 
# 
# High freq. dielectric constant tensor:
#      x y z
#    x 1.951130 0.001620 0.014080 
#    y 0.001620 2.000340 -0.004700 
#    z 0.014080 -0.004700 2.000770 
# 
# From -- ./inp_files/36934.got.cif
#   From: 2010.06.25/outbox.cif.g09.slc.cpg/sg2_19_cif.got.tgz:36934.got - 2010.06.27 13:26:56.
