data_PCOD8020598
_publ_section_title
;
Structure prediction by ZEFSAII (Michael W. Deem and Ramdas Pophale) SiO2 
 PCOD8020598
Probable space group: P -1
;
_chemical_formula_sum "Si O2"
_cell_formula_units_Z 16
_cell_length_a 14.585664
_cell_length_b 9.286404
_cell_length_c 18.543979
_cell_angle_alpha 141.947191
_cell_angle_beta 36.793421
_cell_angle_gamma 151.065057
_cell_volume 694.568733
_symmetry_space_group_name_H-M "P -1"
_symmetry_group_IT_number 2
_symmetry_cell_setting 'triclinic'
loop_
_space_group_symop_operation_xyz
x,y,z
-x,-y,-z
loop_
_atom_site_type_symbol
_atom_site_label
_atom_site_fract_x
_atom_site_fract_y
_atom_site_fract_z
Si Si1 0.323484 0.301412 0.824218
Si Si2 0.569160 0.537174 0.327349
Si Si3 0.924202 0.159129 0.406492
Si Si4 0.909805 0.958387 0.869703
Si Si5 0.718159 0.460027 0.914063
Si Si6 0.160034 0.711863 0.769051
Si Si7 0.688975 0.160568 0.119993
Si Si8 0.829802 0.810357 0.473905
O O1 0.497565 0.502119 0.730862
O O2 0.289898 0.995348 0.742389
O O3 0.372279 0.496746 0.942083
O O4 0.123292 0.201369 0.871971
O O5 0.728173 0.477504 0.212225
O O6 0.380753 0.300300 0.405453
O O7 0.697330 0.898654 0.412040
O O8 0.000000 0.500000 0.500000
O O9 0.083188 0.184253 0.264682
O O10 0.913086 0.042759 0.447022
O O11 0.754216 0.675570 0.911342
O O12 0.820647 0.125277 0.970170
O O13 0.920715 0.524665 0.835244
O O14 0.551564 0.108619 0.852193
O O15 0.239572 0.863134 0.856950
O O16 0.212755 0.497847 0.640438
O O17 0.000000 0.000000 0.500000
#
# Coordination Sequence:
#
# PCOD8020598 Si02
#       8
#     2   2   2   2   2   2   2   2
#     4  10  22  43  68 104 144 183 231 300 358 423
#     4  11  27  47  70 105 147 187 241 298 361 423
#     4  11  27  47  74 103 141 189 243 295 352 434
#     4  10  22  42  70 105 140 185 233 295 364 419
#     4  11  22  41  71 107 147 177 236 300 355 426
#     4  11  23  44  72  99 147 187 237 298 357 427
#     4  12  23  41  75 104 139 192 230 294 369 419
#     4  12  28  49  69 102 143 198 238 297 363 419
#
# _framework density 23.035875000000001
#
# number of rings (size 3 to 8) (size 9 to 14) (size 15 to 20)
#    0.000    1.000    3.750    2.250    7.000    5.000 
#    0.000    0.000    0.000    0.000    0.000    0.000 
#    0.000    0.000    0.000    0.000    0.000    0.000 
#
# Total GULP energy -198336.272493 kJ/mol
# GULP energy per Si atom -12396.017031 kJ/mol
# Density = 2.298344 g / cm^3
# Si number density = 23.035875 Si / 1000 Ang^3
#
#
#
# Elastic Constant Matrix: (Units=GPa)
#
#
# Indices 1 2 3 4 5 6 
#
# 1 100.2726 52.3112 55.0894 -6.6823 12.2735 -17.6523
# 2 52.3112 84.2451 57.6011 10.6416 4.7306 -12.9065
# 3 55.0894 57.6011 155.5739 1.6067 4.2182 -16.0865
# 4 -6.6823 10.6416 1.6067 32.8517 -13.2695 7.3888
# 5 12.2735 4.7306 4.2182 -13.2695 43.4406 0.9191
# 6 -17.6523 -12.9065 -16.0865 7.3888 0.9191 40.0098
#
#
#
# Elastic Compliance Matrix: (Units=1/GPa)
#
#
# Indices 1 2 3 4 5 6 
#
# 1 0.017116 -0.009076 -0.002409 0.005057 -0.002128 0.002770
# 2 -0.009076 0.022788 -0.004663 -0.010969 -0.002890 0.003564
# 3 -0.002409 -0.004663 0.009091 0.000537 0.000449 0.000979
# 4 0.005057 -0.010969 0.000537 0.042235 0.012809 -0.009185
# 5 -0.002128 -0.002890 0.000449 0.012809 0.027904 -0.004697
# 6 0.002770 0.003564 0.000979 -0.009185 -0.004697 0.029563
#
#
# Mechanical properties :
#
#
# Convention : Reuss Voigt Hill
#
# Bulk Modulus (GPa) = 59.88341 74.45501 67.16921
# Shear Modulus (GPa) = 26.80103 34.93307 30.86705
#
# Velocity S-wave (km/s) = 3.41464 3.89840 3.66451
# Velocity P-wave (km/s) = 6.44969 7.25637 6.86489
#
# Compressibility (1/GPa) = 0.01669911
#
# Stress axis : x y z
#
# Youngs Moduli (GPa) = 58.42444 43.88252 110.00262
#
# Poissons Ratio (x) = 0.39829 0.26494
# Poissons Ratio (y) = 0.53027 0.51296
# Poissons Ratio (z) = 0.14072 0.20463
#
# Static dielectric constant tensor:
#      x y z
#    x 4.207900 -0.239740 0.301930 
#    y -0.239740 4.296900 -0.247520 
#    z 0.301930 -0.247520 4.425130 
# 
# 
# High freq. dielectric constant tensor:
#      x y z
#    x 1.908330 -0.010720 0.013270 
#    y -0.010720 1.909260 0.004910 
#    z 0.013270 0.004910 1.917500 
# 
# From -- ./inp_files/572935.got.cif
#   From: 2010.06.25/outbox.cif.g09.slc.cpg/sg2_287_cif.got.tgz:572935.got - 2010.06.27 13:26:56.
