data_PCOD8020257
_publ_section_title
;
Structure prediction by ZEFSAII (Michael W. Deem and Ramdas Pophale) SiO2 
 PCOD8020257
Probable space group: P -1
;
_chemical_formula_sum "Si O2"
_cell_formula_units_Z 16
_cell_length_a 13.971813
_cell_length_b 17.398089
_cell_length_c 6.962791
_cell_angle_alpha 80.974202
_cell_angle_beta 70.351876
_cell_angle_gamma 27.800830
_cell_volume 704.346531
_symmetry_space_group_name_H-M "P -1"
_symmetry_group_IT_number 2
_symmetry_cell_setting 'triclinic'
loop_
_space_group_symop_operation_xyz
x,y,z
-x,-y,-z
loop_
_atom_site_type_symbol
_atom_site_label
_atom_site_fract_x
_atom_site_fract_y
_atom_site_fract_z
Si Si1 0.020830 0.747391 0.223480
Si Si2 0.334968 0.539190 0.767212
Si Si3 0.146859 0.996101 0.572564
Si Si4 0.369418 0.267132 0.566300
Si Si5 0.565934 0.032028 0.207704
Si Si6 0.197274 0.790081 0.594325
Si Si7 0.074293 0.612391 0.615085
Si Si8 0.680652 0.800737 0.049209
O O1 0.984873 0.715580 0.442418
O O2 0.025543 0.834499 0.249624
O O3 0.822991 0.874604 0.149805
O O4 0.251274 0.568343 0.022456
O O5 0.266889 0.676901 0.744266
O O6 0.604637 0.341316 0.650924
O O7 0.219612 0.572968 0.655877
O O8 0.386987 0.875302 0.458350
O O9 0.175572 0.888622 0.676675
O O10 0.043852 0.063237 0.400718
O O11 0.391015 0.185890 0.421516
O O12 0.233739 0.432606 0.507515
O O13 0.227808 0.328886 0.818733
O O14 0.540247 0.956464 0.222291
O O15 0.494662 0.118177 0.016180
O O16 0.873411 0.715707 0.839051
#
# Coordination Sequence:
#
# PCOD8020257 Si02
#       8
#     2   2   2   2   2   2   2   2
#     4  11  25  42  69  97 138 175 218 272 333 390
#     4  11  23  44  69  96 135 177 213 275 339 388
#     4  10  22  42  67 101 130 170 221 283 317 392
#     4  11  25  44  68  96 140 172 225 272 327 390
#     4  10  25  41  66 100 126 172 223 275 316 398
#     4  10  22  43  71  96 132 172 224 271 333 392
#     4  12  25  45  64 101 139 173 221 273 327 399
#     4  11  25  42  74  94 131 180 223 266 337 388
#
# _framework density 22.716092
#
# number of rings (size 3 to 8) (size 9 to 14) (size 15 to 20)
#    0.000    1.250    3.750    0.750   10.500    2.500 
#    0.000    1.250    0.000    0.000    0.000    0.000 
#    0.000    0.000    0.000    0.000    0.000    0.000 
#
# Total GULP energy -198316.122806 kJ/mol
# GULP energy per Si atom -12394.757675 kJ/mol
# Density = 2.266439 g / cm^3
# Si number density = 22.716092 Si / 1000 Ang^3
#
#
#
# Elastic Constant Matrix: (Units=GPa)
#
#
# Indices 1 2 3 4 5 6 
#
# 1 101.0851 38.0295 58.4135 -6.8749 12.7052 1.6093
# 2 38.0295 100.5576 39.6914 1.1702 5.6513 16.0901
# 3 58.4135 39.6914 104.5613 4.3117 6.4454 20.2716
# 4 -6.8749 1.1702 4.3117 26.8700 -2.9933 -1.9177
# 5 12.7052 5.6513 6.4454 -2.9933 24.7589 -0.2046
# 6 1.6093 16.0901 20.2716 -1.9177 -0.2046 24.7771
#
#
#
# Elastic Compliance Matrix: (Units=1/GPa)
#
#
# Indices 1 2 3 4 5 6 
#
# 1 0.018788 -0.004354 -0.010985 0.007011 -0.004848 0.011097
# 2 -0.004354 0.013285 -0.000968 -0.002186 -0.000874 -0.007729
# 3 -0.010985 -0.000968 0.019261 -0.006940 -0.000119 -0.014954
# 4 0.007011 -0.002186 -0.006940 0.041346 0.003788 0.009873
# 5 -0.004848 -0.000874 -0.000119 0.003788 0.043579 0.001633
# 6 0.011097 -0.007729 -0.014954 0.009873 0.001633 0.057671
#
#
# Mechanical properties :
#
#
# Convention : Reuss Voigt Hill
#
# Bulk Modulus (GPa) = 53.42115 64.27475 58.84795
# Shear Modulus (GPa) = 21.47928 26.61918 24.04923
#
# Velocity S-wave (km/s) = 3.07832 3.42690 3.25728
# Velocity P-wave (km/s) = 6.01687 6.63434 6.33313
#
# Compressibility (1/GPa) = 0.01871918
#
# Stress axis : x y z
#
# Youngs Moduli (GPa) = 53.22500 75.27559 51.91940
#
# Poissons Ratio (x) = 0.32777 0.57033
# Poissons Ratio (y) = 0.23176 0.05025
# Poissons Ratio (z) = 0.58467 0.07285
#
# Static dielectric constant tensor:
#      x y z
#    x 4.246200 0.130010 0.229100 
#    y 0.130010 4.224380 0.071360 
#    z 0.229100 0.071360 3.880590 
# 
# 
# High freq. dielectric constant tensor:
#      x y z
#    x 1.903010 0.004310 0.010810 
#    y 0.004310 1.901050 0.005030 
#    z 0.010810 0.005030 1.875770 
# 
# From -- ./inp_files/99662.got.cif
#   From: 2010.06.25/outbox.cif.g09.slc.cpg/sg2_50_cif.got.tgz:99662.got - 2010.06.27 13:26:56.
