data_PCOD8020491
_publ_section_title
;
Structure prediction by ZEFSAII (Michael W. Deem and Ramdas Pophale) SiO2 
 PCOD8020491
Probable space group: P -1
;
_chemical_formula_sum "Si O2"
_cell_formula_units_Z 14
_cell_length_a 20.010110
_cell_length_b 6.091078
_cell_length_c 5.926449
_cell_angle_alpha 99.975235
_cell_angle_beta 57.752183
_cell_angle_gamma 79.276633
_cell_volume 567.051691
_symmetry_space_group_name_H-M "P -1"
_symmetry_group_IT_number 2
_symmetry_cell_setting 'triclinic'
loop_
_space_group_symop_operation_xyz
x,y,z
-x,-y,-z
loop_
_atom_site_type_symbol
_atom_site_label
_atom_site_fract_x
_atom_site_fract_y
_atom_site_fract_z
Si Si1 0.177158 0.055055 0.207373
Si Si2 0.558060 0.269793 0.973680
Si Si3 0.400189 0.190623 0.396052
Si Si4 0.746717 0.631328 0.605344
Si Si5 0.883954 0.574452 0.018888
Si Si6 0.028720 0.149442 0.785544
Si Si7 0.693606 0.399768 0.036592
O O1 0.230369 0.144283 0.310096
O O2 0.141790 0.256687 0.119990
O O3 0.098203 0.998685 0.453785
O O4 0.244997 0.807815 0.950561
O O5 0.624117 0.310962 0.032081
O O6 0.600924 0.080285 0.661660
O O7 0.500000 0.500000 0.000000
O O8 0.496606 0.175882 0.220996
O O9 0.351055 0.304093 0.275213
O O10 0.350690 0.346163 0.721415
O O11 0.759363 0.434650 0.740502
O O12 0.802452 0.531635 0.265098
O O13 0.949721 0.311582 0.807006
O O14 0.927247 0.686009 0.145478
O O15 0.000000 0.000000 0.000000
#
# Coordination Sequence:
#
# PCOD8020491 Si02
#       7
#     2   2   2   2   2   2   2
#     4  11  24  42  69 102 144 184 241 290 358 426
#     4  11  24  47  70 101 143 186 239 296 353 428
#     4  11  25  44  70 101 143 184 238 297 354 424
#     4  11  23  44  65 102 142 180 238 295 347 425
#     4  10  23  41  67 102 138 188 233 296 351 420
#     4  10  22  42  68  99 143 185 235 294 352 421
#     4  12  25  43  73 105 138 194 237 291 365 420
#
# _framework density 24.689108999999998
#
# number of rings (size 3 to 8) (size 9 to 14) (size 15 to 20)
#    0.000    1.143    2.857    2.571    0.000    8.000 
#    0.000    0.000    0.000    0.000    0.000    0.000 
#    0.000    0.000    0.000    0.000    0.000    0.000 
#
# Total GULP energy -173461.879769 kJ/mol
# GULP energy per Si atom -12390.134269 kJ/mol
# Density = 2.463292 g / cm^3
# Si number density = 24.689109 Si / 1000 Ang^3
#
#
#
# Elastic Constant Matrix: (Units=GPa)
#
#
# Indices 1 2 3 4 5 6 
#
# 1 99.7561 56.5870 54.7222 14.7567 -15.3162 -12.2805
# 2 56.5870 130.7508 60.1727 13.9854 -6.5168 -30.7152
# 3 54.7222 60.1727 133.3364 6.3250 -13.4755 -8.2371
# 4 14.7567 13.9854 6.3250 52.6391 1.5015 -4.1807
# 5 -15.3162 -6.5168 -13.4755 1.5015 32.3826 1.4224
# 6 -12.2805 -30.7152 -8.2371 -4.1807 1.4224 44.6527
#
#
#
# Elastic Compliance Matrix: (Units=1/GPa)
#
#
# Indices 1 2 3 4 5 6 
#
# 1 0.015940 -0.004539 -0.003825 -0.002941 0.005165 0.000116
# 2 -0.004539 0.012977 -0.003642 -0.001149 -0.001302 0.006940
# 3 -0.003825 -0.003642 0.010790 0.000561 0.001992 -0.001577
# 4 -0.002941 -0.001149 0.000561 0.020164 -0.002344 0.000467
# 5 0.005165 -0.001302 0.001992 -0.002344 0.034017 -0.000411
# 6 0.000116 0.006940 -0.001577 0.000467 -0.000411 0.026967
#
#
# Mechanical properties :
#
#
# Convention : Reuss Voigt Hill
#
# Bulk Modulus (GPa) = 63.71108 78.53412 71.12260
# Shear Modulus (GPa) = 33.31170 38.75897 36.03534
#
# Velocity S-wave (km/s) = 3.67719 3.96647 3.82457
# Velocity P-wave (km/s) = 6.62498 7.27018 6.95506
#
# Compressibility (1/GPa) = 0.01569586
#
# Stress axis : x y z
#
# Youngs Moduli (GPa) = 62.73638 77.05989 92.67675
#
# Poissons Ratio (x) = 0.34978 0.35446
# Poissons Ratio (y) = 0.28476 0.33751
# Poissons Ratio (z) = 0.23995 0.28064
#
# Static dielectric constant tensor:
#      x y z
#    x 4.922650 0.144700 -0.442360 
#    y 0.144700 4.495270 0.187050 
#    z -0.442360 0.187050 4.478690 
# 
# 
# High freq. dielectric constant tensor:
#      x y z
#    x 2.005540 0.003130 -0.016110 
#    y 0.003130 1.981930 0.013400 
#    z -0.016110 0.013400 1.965620 
# 
# From -- ./inp_files/114697.got.cif
#   From: 2010.06.25/outbox.cif.g09.slc.cpg/sg2_58_cif.got.tgz:114697.got - 2010.06.27 13:26:56.
