data_PCOD8020466
_publ_section_title
;
Structure prediction by ZEFSAII (Michael W. Deem and Ramdas Pophale) SiO2 
 PCOD8020466
Probable space group: P -1
;
_chemical_formula_sum "Si O2"
_cell_formula_units_Z 16
_cell_length_a 6.563873
_cell_length_b 18.306678
_cell_length_c 9.040524
_cell_angle_alpha 106.054939
_cell_angle_beta 130.965382
_cell_angle_gamma 62.271068
_cell_volume 725.433402
_symmetry_space_group_name_H-M "P -1"
_symmetry_group_IT_number 2
_symmetry_cell_setting 'triclinic'
loop_
_space_group_symop_operation_xyz
x,y,z
-x,-y,-z
loop_
_atom_site_type_symbol
_atom_site_label
_atom_site_fract_x
_atom_site_fract_y
_atom_site_fract_z
Si Si1 0.877959 0.327284 0.900567
Si Si2 0.696493 0.680591 0.346658
Si Si3 0.588636 0.711251 0.651137
Si Si4 0.730129 0.408473 0.579509
Si Si5 0.319927 0.148090 0.600440
Si Si6 0.202807 0.150872 0.861013
Si Si7 0.971471 0.033370 0.835215
Si Si8 0.770504 0.137736 0.260034
O O1 0.565939 0.346710 0.842845
O O2 0.837478 0.395801 0.794104
O O3 0.941284 0.240087 0.799640
O O4 0.123578 0.323441 0.129957
O O5 0.700950 0.698586 0.531915
O O6 0.666878 0.764947 0.299138
O O7 0.993153 0.604997 0.400688
O O8 0.405172 0.656714 0.571866
O O9 0.389690 0.808942 0.640411
O O10 0.500000 0.500000 0.500000
O O11 0.215550 0.114885 0.681579
O O12 0.632374 0.083481 0.657858
O O13 0.054853 0.158997 0.363638
O O14 0.154601 0.091118 0.929463
O O15 0.511588 0.162614 0.030117
O O16 0.099112 0.962037 0.731877
O O17 0.000000 0.000000 0.000000
#
# Coordination Sequence:
#
# PCOD8020466 Si02
#       8
#     2   2   2   2   2   2   2   2
#     4  10  22  42  68  97 132 176 215 268 327 387
#     4  11  22  43  69  96 128 171 221 265 332 397
#     4  10  24  43  66 100 133 171 223 268 325 397
#     4  11  24  45  71  99 136 170 211 274 332 395
#     4  12  23  42  66  92 128 177 222 269 330 384
#     4  11  23  44  62  90 134 171 219 275 322 381
#     4  12  26  43  63  95 133 177 226 272 324 377
#     4  11  24  42  62  94 132 169 221 278 316 375
#
# _framework density 22.055781
#
# number of rings (size 3 to 8) (size 9 to 14) (size 15 to 20)
#    0.000    1.000    5.000    1.500    0.000    7.000 
#    0.000    1.250    0.000    0.000    0.000    0.000 
#    0.000    0.000    0.000    0.000    0.000    0.000 
#
# Total GULP energy -198268.880142 kJ/mol
# GULP energy per Si atom -12391.805009 kJ/mol
# Density = 2.200558 g / cm^3
# Si number density = 22.055781 Si / 1000 Ang^3
#
#
#
# Elastic Constant Matrix: (Units=GPa)
#
#
# Indices 1 2 3 4 5 6 
#
# 1 130.7696 47.5164 59.3221 -12.3127 19.8574 -20.6730
# 2 47.5164 98.0977 21.8044 -21.4181 4.8043 -25.7143
# 3 59.3221 21.8044 98.4879 -9.3569 23.2631 -4.1416
# 4 -12.3127 -21.4181 -9.3569 27.8482 -0.7029 7.2703
# 5 19.8574 4.8043 23.2631 -0.7029 34.7778 -11.1694
# 6 -20.6730 -25.7143 -4.1416 7.2703 -11.1694 36.7117
#
#
#
# Elastic Compliance Matrix: (Units=1/GPa)
#
#
# Indices 1 2 3 4 5 6 
#
# 1 0.012612 -0.003848 -0.006319 -0.000418 -0.001372 0.003359
# 2 -0.003848 0.016108 -0.000928 0.008262 0.003467 0.008430
# 3 -0.006319 -0.000928 0.016355 0.003260 -0.008982 -0.005741
# 4 -0.000418 0.008262 0.003260 0.044094 -0.003431 -0.003857
# 5 -0.001372 0.003467 -0.008982 -0.003431 0.039258 0.013266
# 6 0.003359 0.008430 -0.005741 -0.003857 0.013266 0.039187
#
#
# Mechanical properties :
#
#
# Convention : Reuss Voigt Hill
#
# Bulk Modulus (GPa) = 43.69651 64.96010 54.32830
# Shear Modulus (GPa) = 25.32532 33.11504 29.22018
#
# Velocity S-wave (km/s) = 3.39224 3.87902 3.64377
# Velocity P-wave (km/s) = 5.93278 7.04124 6.51064
#
# Compressibility (1/GPa) = 0.02288512
#
# Stress axis : x y z
#
# Youngs Moduli (GPa) = 79.29133 62.08180 61.14439
#
# Poissons Ratio (x) = 0.23889 0.38636
# Poissons Ratio (y) = 0.30511 0.05673
# Poissons Ratio (z) = 0.50103 0.05760
#
# Static dielectric constant tensor:
#      x y z
#    x 4.177490 -0.128590 0.296290 
#    y -0.128590 3.898110 -0.045410 
#    z 0.296290 -0.045410 3.924630 
# 
# 
# High freq. dielectric constant tensor:
#      x y z
#    x 1.874300 -0.016900 0.024470 
#    y -0.016900 1.849880 -0.008220 
#    z 0.024470 -0.008220 1.867330 
# 
# From -- ./inp_files/116406.got.cif
#   From: 2010.06.25/outbox.cif.g09.slc.cpg/sg2_59_cif.got.tgz:116406.got - 2010.06.27 13:26:56.
