data_PCOD8020117
_publ_section_title
;
Structure prediction by ZEFSAII (Michael W. Deem and Ramdas Pophale) SiO2 
 PCOD8020117
Probable space group: P -1
;
_chemical_formula_sum "Si O2"
_cell_formula_units_Z 16
_cell_length_a 9.333322
_cell_length_b 10.869533
_cell_length_c 9.794603
_cell_angle_alpha 54.190472
_cell_angle_beta 68.368181
_cell_angle_gamma 77.770722
_cell_volume 749.055826
_symmetry_space_group_name_H-M "P -1"
_symmetry_group_IT_number 2
_symmetry_cell_setting 'triclinic'
loop_
_space_group_symop_operation_xyz
x,y,z
-x,-y,-z
loop_
_atom_site_type_symbol
_atom_site_label
_atom_site_fract_x
_atom_site_fract_y
_atom_site_fract_z
Si Si1 0.395149 0.206203 0.463555
Si Si2 0.986181 0.847058 0.694155
Si Si3 0.697942 0.838837 0.999423
Si Si4 0.638692 0.130571 0.992691
Si Si5 0.352035 0.395050 0.609492
Si Si6 0.899220 0.638534 0.625582
Si Si7 0.161707 0.623082 0.357160
Si Si8 0.300831 0.862558 0.726610
O O1 0.395809 0.252448 0.591368
O O2 0.274595 0.303589 0.357499
O O3 0.565186 0.238511 0.322758
O O4 0.342536 0.035404 0.572377
O O5 0.967095 0.693957 0.710056
O O6 0.139029 0.819966 0.744640
O O7 0.843217 0.860284 0.837323
O O8 0.000000 0.000000 0.500000
O O9 0.546172 0.860490 0.945408
O O10 0.698177 0.674854 0.180953
O O11 0.700327 0.968046 0.030084
O O12 0.701889 0.256695 0.784150
O O13 0.708601 0.170174 0.088774
O O14 0.500000 0.500000 0.500000
O O15 0.213690 0.491790 0.530414
O O16 0.886813 0.456425 0.719036
O O17 0.012634 0.704844 0.423265
#
# Coordination Sequence:
#
# PCOD8020117 Si02
#       8
#     2   2   2   2   2   2   2   2
#     4  10  22  42  65  96 130 176 219 272 329 398
#     4  12  25  41  66  99 135 175 220 278 337 387
#     4  11  25  42  69  99 135 172 227 278 323 398
#     4  11  23  43  66 101 131 173 230 273 327 396
#     4  11  22  43  68 100 132 179 218 272 333 396
#     4  10  22  44  65  94 132 175 221 267 332 399
#     4  10  23  42  72  94 134 180 218 272 338 393
#     4  11  24  39  67  97 134 173 222 276 332 389
#
# _framework density 21.360223000000001
#
# number of rings (size 3 to 8) (size 9 to 14) (size 15 to 20)
#    0.000    1.250    3.750    1.500    3.500    3.500 
#    2.250    3.125    0.000    0.000    0.000    0.000 
#    0.000    0.000    0.000    0.000    0.000    0.000 
#
# Total GULP energy -198363.896802 kJ/mol
# GULP energy per Si atom -12397.743550 kJ/mol
# Density = 2.131161 g / cm^3
# Si number density = 21.360223 Si / 1000 Ang^3
#
#
#
# Elastic Constant Matrix: (Units=GPa)
#
#
# Indices 1 2 3 4 5 6 
#
# 1 156.6553 57.8486 60.8299 22.0498 -13.7491 2.6797
# 2 57.8486 70.5029 33.3703 11.2362 -2.9916 -2.9682
# 3 60.8299 33.3703 117.7367 1.3906 -12.7115 -8.2573
# 4 22.0498 11.2362 1.3906 29.7053 0.0711 -4.6518
# 5 -13.7491 -2.9916 -12.7115 0.0711 42.9480 9.3396
# 6 2.6797 -2.9682 -8.2573 -4.6518 9.3396 33.0885
#
#
#
# Elastic Compliance Matrix: (Units=1/GPa)
#
#
# Indices 1 2 3 4 5 6 
#
# 1 0.011700 -0.006676 -0.004051 -0.006659 0.003039 -0.004351
# 2 -0.006676 0.021337 -0.002630 -0.002684 -0.001847 0.001942
# 3 -0.004051 -0.002630 0.011646 0.003955 0.001265 0.003197
# 4 -0.006659 -0.002684 0.003955 0.040669 -0.002917 0.007826
# 5 0.003039 -0.001847 0.001265 -0.002917 0.026227 -0.007909
# 6 -0.004351 0.001942 0.003197 0.007826 -0.007909 0.034879
#
#
# Mechanical properties :
#
#
# Convention : Reuss Voigt Hill
#
# Bulk Modulus (GPa) = 55.64982 72.11028 63.88005
# Shear Modulus (GPa) = 27.90745 34.00476 30.95610
#
# Velocity S-wave (km/s) = 3.61850 3.99427 3.81102
# Velocity P-wave (km/s) = 6.60057 7.42326 7.02397
#
# Compressibility (1/GPa) = 0.01796951
#
# Stress axis : x y z
#
# Youngs Moduli (GPa) = 85.46957 46.86632 85.86424
#
# Poissons Ratio (x) = 0.31286 0.34787
# Poissons Ratio (y) = 0.57055 0.22584
# Poissons Ratio (z) = 0.34627 0.12327
#
# Static dielectric constant tensor:
#      x y z
#    x 4.027440 0.042980 -0.069170 
#    y 0.042980 4.072390 0.208310 
#    z -0.069170 0.208310 3.708020 
# 
# 
# High freq. dielectric constant tensor:
#      x y z
#    x 1.853540 0.005810 -0.011730 
#    y 0.005810 1.838980 0.012340 
#    z -0.011730 0.012340 1.821600 
# 
# From -- ./inp_files/184801.got.cif
#   From: 2010.06.25/outbox.cif.g09.slc.cpg/sg2_93_cif.got.tgz:184801.got - 2010.06.27 13:26:56.
