data_PCOD8020381
_publ_section_title
;
Structure prediction by ZEFSAII (Michael W. Deem and Ramdas Pophale) SiO2 
 PCOD8020381
Probable space group: P -1
;
_chemical_formula_sum "Si O2"
_cell_formula_units_Z 14
_cell_length_a 9.323205
_cell_length_b 14.051098
_cell_length_c 10.932123
_cell_angle_alpha 150.257037
_cell_angle_beta 117.404377
_cell_angle_gamma 72.528872
_cell_volume 614.483222
_symmetry_space_group_name_H-M "P -1"
_symmetry_group_IT_number 2
_symmetry_cell_setting 'triclinic'
loop_
_space_group_symop_operation_xyz
x,y,z
-x,-y,-z
loop_
_atom_site_type_symbol
_atom_site_label
_atom_site_fract_x
_atom_site_fract_y
_atom_site_fract_z
Si Si1 0.671156 0.070977 0.027239
Si Si2 0.178924 0.406962 0.960205
Si Si3 0.125737 0.750433 0.459954
Si Si4 0.729416 0.090495 0.798117
Si Si5 0.596279 0.722464 0.776261
Si Si6 0.467755 0.296677 0.831343
Si Si7 0.935465 0.843671 0.149466
O O1 0.795644 0.203513 0.323014
O O2 0.501360 0.148126 0.033539
O O3 0.765673 0.095607 0.962704
O O4 0.618718 0.838654 0.784054
O O5 0.339622 0.316290 0.910813
O O6 0.045319 0.267208 0.841500
O O7 0.066110 0.386040 0.767482
O O8 0.232603 0.629040 0.283353
O O9 0.119958 0.954270 0.619693
O O10 0.637729 0.263332 0.917999
O O11 0.902336 0.122862 0.832530
O O12 0.611004 0.880439 0.487206
O O13 0.500000 0.500000 0.500000
O O14 0.778185 0.704597 0.867621
O O15 0.500000 0.500000 0.000000
#
# Coordination Sequence:
#
# PCOD8020381 Si02
#       7
#     2   2   2   2   2   2   2
#     4  10  23  44  66  99 142 178 225 279 345 409
#     4  11  23  43  70  99 133 177 237 282 330 411
#     4  10  23  39  71 100 130 178 227 281 333 394
#     4  11  26  45  68 102 139 180 226 281 351 413
#     4  10  22  42  67  99 135 183 227 272 339 401
#     4  11  27  46  68 100 138 182 226 286 350 403
#     4  11  23  42  71 100 133 180 227 283 337 401
#
# _framework density 22.783373999999998
#
# number of rings (size 3 to 8) (size 9 to 14) (size 15 to 20)
#    0.000    1.429    1.429    2.143    4.000    9.143 
#    0.000    2.857    0.000    0.000    0.000    0.000 
#    0.000    0.000    0.000    0.000    0.000    0.000 
#
# Total GULP energy -173444.570816 kJ/mol
# GULP energy per Si atom -12388.897915 kJ/mol
# Density = 2.273152 g / cm^3
# Si number density = 22.783374 Si / 1000 Ang^3
#
#
#
# Elastic Constant Matrix: (Units=GPa)
#
#
# Indices 1 2 3 4 5 6 
#
# 1 116.5181 62.7185 39.2240 -7.2988 3.6453 -3.5814
# 2 62.7185 102.5327 69.2039 7.9313 1.4683 5.4046
# 3 39.2240 69.2039 133.3314 6.4412 2.6477 -5.1974
# 4 -7.2988 7.9313 6.4412 28.7683 -5.3429 1.2246
# 5 3.6453 1.4683 2.6477 -5.3429 37.6189 2.5011
# 6 -3.5814 5.4046 -5.1974 1.2246 2.5011 41.3854
#
#
#
# Elastic Compliance Matrix: (Units=1/GPa)
#
#
# Indices 1 2 3 4 5 6 
#
# 1 0.013956 -0.009569 0.000678 0.005860 -0.000353 0.002390
# 2 -0.009569 0.022097 -0.008525 -0.006404 0.000061 -0.004599
# 3 0.000678 -0.008525 0.011867 -0.000400 -0.000806 0.002723
# 4 0.005860 -0.006404 -0.000400 0.039090 0.005274 -0.000182
# 5 -0.000353 0.000061 -0.000806 0.005274 0.027550 -0.001961
# 6 0.002390 -0.004599 0.002723 -0.000182 -0.001961 0.025436
#
#
# Mechanical properties :
#
#
# Convention : Reuss Voigt Hill
#
# Bulk Modulus (GPa) = 76.40454 77.18609 76.79532
# Shear Modulus (GPa) = 27.90302 33.63692 30.76997
#
# Velocity S-wave (km/s) = 3.50338 3.84654 3.67896
# Velocity P-wave (km/s) = 7.06915 7.32664 7.19905
#
# Compressibility (1/GPa) = 0.01308823
#
# Stress axis : x y z
#
# Youngs Moduli (GPa) = 71.65203 45.25469 84.26632
#
# Poissons Ratio (x) = 0.43303 -0.05713
# Poissons Ratio (y) = 0.68562 0.71840
# Poissons Ratio (z) = -0.04857 0.38581
#
# Static dielectric constant tensor:
#      x y z
#    x 4.423810 -0.427040 0.031700 
#    y -0.427040 4.338850 0.033340 
#    z 0.031700 0.033340 4.252870 
# 
# 
# High freq. dielectric constant tensor:
#      x y z
#    x 1.895780 -0.026070 0.001280 
#    y -0.026070 1.896620 0.012120 
#    z 0.001280 0.012120 1.906460 
# 
# From -- ./inp_files/400089.got.cif
#   From: 2010.06.25/outbox.cif.g09.slc.cpg/sg2_201_cif.got.tgz:400089.got - 2010.06.27 13:26:56.
