data_PCOD8020340
_publ_section_title
;
Structure prediction by ZEFSAII (Michael W. Deem and Ramdas Pophale) SiO2 
 PCOD8020340
Probable space group: P -1
;
_chemical_formula_sum "Si O2"
_cell_formula_units_Z 14
_cell_length_a 10.265775
_cell_length_b 13.859272
_cell_length_c 22.135080
_cell_angle_alpha 158.005648
_cell_angle_beta 147.918304
_cell_angle_gamma 33.364682
_cell_volume 606.687776
_symmetry_space_group_name_H-M "P -1"
_symmetry_group_IT_number 2
_symmetry_cell_setting 'triclinic'
loop_
_space_group_symop_operation_xyz
x,y,z
-x,-y,-z
loop_
_atom_site_type_symbol
_atom_site_label
_atom_site_fract_x
_atom_site_fract_y
_atom_site_fract_z
Si Si1 0.637940 0.308319 0.157939
Si Si2 0.446096 0.154144 0.506218
Si Si3 0.238181 0.333495 0.916711
Si Si4 0.926629 0.087312 0.840060
Si Si5 0.979560 0.620222 0.749484
Si Si6 0.050211 0.040554 0.472871
Si Si7 0.684057 0.148889 0.901453
O O1 0.545400 0.538901 0.304872
O O2 0.818271 0.418448 0.247634
O O3 0.405154 0.245887 0.992223
O O4 0.793762 0.039988 0.096946
O O5 0.649840 0.021952 0.458154
O O6 0.500000 0.000000 0.500000
O O7 0.165580 0.127650 0.361978
O O8 0.413379 0.312617 0.913734
O O9 0.054259 0.143502 0.722192
O O10 0.074364 0.639773 0.037673
O O11 0.704118 0.167475 0.848760
O O12 0.913552 0.344068 0.578591
O O13 0.089196 0.731877 0.916108
O O14 0.724677 0.839343 0.757983
O O15 0.000000 0.000000 0.500000
#
# Coordination Sequence:
#
# PCOD8020340 Si02
#       7
#     2   2   2   2   2   2   2
#     4  10  22  42  67  96 120 173 221 262 311 378
#     4  12  22  44  69  91 128 170 219 263 312 380
#     4  11  22  38  61  94 137 168 203 265 327 380
#     4  11  21  39  68  93 126 167 224 262 309 381
#     4   9  18  37  62  93 126 161 220 259 306 377
#     4  12  25  39  65  98 134 169 207 264 330 378
#     4   9  18  35  64  91 122 169 212 263 307 371
#
# _framework density 23.07612
#
# number of rings (size 3 to 8) (size 9 to 14) (size 15 to 20)
#    0.000    1.429    2.857    4.286    0.000    1.143 
#    0.000    3.571    0.000    0.000    0.000    0.000 
#    0.000    0.000    0.000    0.000    0.000    0.000 
#
# Total GULP energy -173581.081296 kJ/mol
# GULP energy per Si atom -12398.648664 kJ/mol
# Density = 2.302360 g / cm^3
# Si number density = 23.076120 Si / 1000 Ang^3
#
#
#
# Elastic Constant Matrix: (Units=GPa)
#
#
# Indices 1 2 3 4 5 6 
#
# 1 47.1866 15.8576 1.9089 4.0856 -7.6866 0.2244
# 2 15.8576 146.7538 63.3465 9.6206 6.2346 10.7134
# 3 1.9089 63.3465 149.2292 6.2046 2.1475 7.0971
# 4 4.0856 9.6206 6.2046 41.2067 1.8304 -6.7659
# 5 -7.6866 6.2346 2.1475 1.8304 30.0370 3.1819
# 6 0.2244 10.7134 7.0971 -6.7659 3.1819 21.6931
#
#
#
# Elastic Compliance Matrix: (Units=1/GPa)
#
#
# Indices 1 2 3 4 5 6 
#
# 1 0.023482 -0.003074 0.001033 -0.002189 0.006785 -0.000741
# 2 -0.003074 0.009151 -0.003571 -0.001798 -0.001940 -0.003595
# 3 0.001033 -0.003571 0.008288 -0.000753 0.000595 -0.001280
# 4 -0.002189 -0.001798 -0.000753 0.026772 -0.002815 0.009920
# 5 0.006785 -0.001940 0.000595 -0.002815 0.036142 -0.005486
# 6 -0.000741 -0.003595 -0.001280 0.009920 -0.005486 0.052198
#
#
# Mechanical properties :
#
#
# Convention : Reuss Voigt Hill
#
# Bulk Modulus (GPa) = 33.67488 56.15509 44.91498
# Shear Modulus (GPa) = 28.22384 36.05780 32.14082
#
# Velocity S-wave (km/s) = 3.50104 3.95721 3.73610
# Velocity P-wave (km/s) = 5.56486 6.72807 6.17392
#
# Compressibility (1/GPa) = 0.02969573
#
# Stress axis : x y z
#
# Youngs Moduli (GPa) = 42.58568 109.28187 120.66279
#
# Poissons Ratio (x) = 0.33593 -0.12466
# Poissons Ratio (y) = 0.13091 0.43093
# Poissons Ratio (z) = -0.04400 0.39029
#
# Static dielectric constant tensor:
#      x y z
#    x 3.896970 -0.073320 -0.281060 
#    y -0.073320 4.183750 0.085540 
#    z -0.281060 0.085540 4.244520 
# 
# 
# High freq. dielectric constant tensor:
#      x y z
#    x 1.887660 0.003230 -0.022440 
#    y 0.003230 1.913240 0.006630 
#    z -0.022440 0.006630 1.913700 
# 
# From -- ./inp_files/255975.got.cif
#   From: 2010.06.25/outbox.cif.g09.slc.cpg/sg2_128_cif.got.tgz:255975.got - 2010.06.27 13:26:56.
