data_PCOD8020496
_publ_section_title
;
Structure prediction by ZEFSAII (Michael W. Deem and Ramdas Pophale) SiO2 
 PCOD8020496
Probable space group: P -1
;
_chemical_formula_sum "Si O2"
_cell_formula_units_Z 12
_cell_length_a 15.459528
_cell_length_b 7.994429
_cell_length_c 6.391338
_cell_angle_alpha 99.868477
_cell_angle_beta 130.619707
_cell_angle_gamma 57.735905
_cell_volume 487.532558
_symmetry_space_group_name_H-M "P -1"
_symmetry_group_IT_number 2
_symmetry_cell_setting 'triclinic'
loop_
_space_group_symop_operation_xyz
x,y,z
-x,-y,-z
loop_
_atom_site_type_symbol
_atom_site_label
_atom_site_fract_x
_atom_site_fract_y
_atom_site_fract_z
Si Si1 0.910285 0.405808 0.312202
Si Si2 0.643976 0.939410 0.307159
Si Si3 0.299087 0.600963 0.763589
Si Si4 0.847205 0.643932 0.882871
Si Si5 0.432735 0.643669 0.623017
Si Si6 0.176917 0.053386 0.761805
O O1 0.805695 0.462543 0.354080
O O2 0.000000 0.500000 0.500000
O O3 0.023716 0.158282 0.437854
O O4 0.826644 0.503198 0.983966
O O5 0.723549 0.734866 0.535815
O O6 0.735748 0.899748 0.242189
O O7 0.627739 0.119592 0.468840
O O8 0.500000 0.000000 0.000000
O O9 0.312207 0.629977 0.541343
O O10 0.248549 0.811324 0.855881
O O11 0.449475 0.419069 0.034637
O O12 0.837071 0.837707 0.016759
O O13 0.000000 0.500000 0.000000
O O14 0.500000 0.500000 0.500000
#
# Coordination Sequence:
#
# PCOD8020496 Si02
#       6
#     2   2   2   2   2   2
#     4  10  22  42  69 100 140 183 229 290 355 413
#     4  11  25  43  71 103 140 186 238 293 355 419
#     4  10  22  44  68 101 140 185 231 290 354 424
#     4  11  23  43  69  99 141 186 235 288 351 425
#     4  10  23  46  71 100 138 187 239 289 351 420
#     4  10  22  43  68  99 144 180 234 291 355 417
#
# _framework density 24.613738000000001
#
# number of rings (size 3 to 8) (size 9 to 14) (size 15 to 20)
#    0.000    1.667    1.667    1.500    4.667    0.667 
#   15.000    0.833    0.000    0.000    0.000    0.000 
#    0.000    0.000    0.000    0.000    0.000    0.000 
#
# Total GULP energy -148687.039639 kJ/mol
# GULP energy per Si atom -12390.586637 kJ/mol
# Density = 2.455772 g / cm^3
# Si number density = 24.613738 Si / 1000 Ang^3
#
#
#
# Elastic Constant Matrix: (Units=GPa)
#
#
# Indices 1 2 3 4 5 6 
#
# 1 187.3751 35.1578 41.8900 -2.1339 -3.0909 -14.1251
# 2 35.1578 96.5389 29.2846 -1.9768 -18.9926 -23.2309
# 3 41.8900 29.2846 125.3084 -28.1780 6.3998 -5.2450
# 4 -2.1339 -1.9768 -28.1780 48.6123 -6.9042 -10.1747
# 5 -3.0909 -18.9926 6.3998 -6.9042 27.7470 -0.4244
# 6 -14.1251 -23.2309 -5.2450 -10.1747 -0.4244 41.6278
#
#
#
# Elastic Compliance Matrix: (Units=1/GPa)
#
#
# Indices 1 2 3 4 5 6 
#
# 1 0.006072 -0.001499 -0.001791 -0.000671 -0.000091 0.000833
# 2 -0.001499 0.016563 -0.003066 0.002530 0.012646 0.009096
# 3 -0.001791 -0.003066 0.010749 0.005627 -0.003371 0.000377
# 4 -0.000671 0.002530 0.005627 0.026696 0.007132 0.008491
# 5 -0.000091 0.012646 -0.003371 0.007132 0.047373 0.008828
# 6 0.000833 0.009096 0.000377 0.008491 0.008828 0.031594
#
#
# Mechanical properties :
#
#
# Convention : Reuss Voigt Hill
#
# Bulk Modulus (GPa) = 48.37402 69.09855 58.73629
# Shear Modulus (GPa) = 31.51587 43.79009 37.65298
#
# Velocity S-wave (km/s) = 3.58217 4.22250 3.91545
# Velocity P-wave (km/s) = 6.06673 7.20464 6.66003
#
# Compressibility (1/GPa) = 0.02067225
#
# Stress axis : x y z
#
# Youngs Moduli (GPa) = 164.68364 60.37553 93.03349
#
# Poissons Ratio (x) = 0.09052 0.16662
# Poissons Ratio (y) = 0.24691 0.28521
# Poissons Ratio (z) = 0.29493 0.18509
#
# Static dielectric constant tensor:
#      x y z
#    x 4.672160 -0.135220 -0.241470 
#    y -0.135220 4.806270 -0.729130 
#    z -0.241470 -0.729130 4.740830 
# 
# 
# High freq. dielectric constant tensor:
#      x y z
#    x 1.980930 -0.017690 -0.006690 
#    y -0.017690 1.996820 -0.026180 
#    z -0.006690 -0.026180 1.960880 
# 
# From -- ./inp_files/88996.got.cif
#   From: 2010.06.25/outbox.cif.g09.slc.cpg/sg2_45_cif.got.tgz:88996.got - 2010.06.27 13:26:56.
