data_PCOD8020894
_publ_section_title
;
Structure prediction by ZEFSAII (Michael W. Deem and Ramdas Pophale) SiO2 
 PCOD8020894
Probable space group: P -1
;
_chemical_formula_sum "Si O2"
_cell_formula_units_Z 14
_cell_length_a 8.505672
_cell_length_b 4.771366
_cell_length_c 12.407510
_cell_angle_alpha 68.649328
_cell_angle_beta 84.941536
_cell_angle_gamma 97.759051
_cell_volume 459.516576
_symmetry_space_group_name_H-M "P -1"
_symmetry_group_IT_number 2
_symmetry_cell_setting 'triclinic'
loop_
_space_group_symop_operation_xyz
x,y,z
-x,-y,-z
loop_
_atom_site_type_symbol
_atom_site_label
_atom_site_fract_x
_atom_site_fract_y
_atom_site_fract_z
Si Si1 0.306780 0.745720 0.097669
Si Si2 0.165260 0.329257 0.000886
Si Si3 0.714575 0.498278 0.538167
Si Si4 0.949040 0.558177 0.693254
Si Si5 0.450944 0.329770 0.744443
Si Si6 0.711406 0.135530 0.377265
Si Si7 0.109613 0.053017 0.816459
O O1 0.191015 0.467608 0.205806
O O2 0.490117 0.753283 0.127137
O O3 0.251553 0.062217 0.080181
O O4 0.278194 0.648142 0.987037
O O5 0.993793 0.769246 0.280663
O O6 0.152722 0.304859 0.876709
O O7 0.983469 0.264775 0.078703
O O8 0.878586 0.641368 0.571110
O O9 0.592974 0.301004 0.657476
O O10 0.754870 0.279118 0.472869
O O11 0.636219 0.775673 0.451677
O O12 0.103267 0.811924 0.693112
O O13 0.410404 0.671470 0.698812
O O14 0.293833 0.065275 0.755981
#
# Coordination Sequence:
#
# PCOD8020894 Si02
#       7
#     2   2   2   2   2   2   2
#     4  10  23  41  63  92 126 161 200 253 305 362
#     4  10  22  43  65  90 124 162 204 247 304 366
#     4  11  23  40  60  87 123 160 201 252 304 357
#     4   9  21  38  61  89 120 159 205 248 299 359
#     4  10  23  41  63  93 126 160 204 254 308 359
#     4  11  23  40  61  87 121 162 204 249 300 359
#     4   9  21  41  65  93 123 161 204 253 302 364
#
# _framework density 30.466798000000001
#
# number of rings (size 3 to 8) (size 9 to 14) (size 15 to 20)
#    0.000    2.000    0.000    1.714    0.000   17.714 
#    0.000   10.000    0.000    0.000    0.000    0.000 
#    0.000    0.000    0.000    0.000    0.000    0.000 
#
# Total GULP energy -173655.688783 kJ/mol
# GULP energy per Si atom -12403.977770 kJ/mol
# Density = 3.039745 g / cm^3
# Si number density = 30.466798 Si / 1000 Ang^3
#
#
#
# Elastic Constant Matrix: (Units=GPa)
#
#
# Indices 1 2 3 4 5 6 
#
# 1 152.8788 27.2306 22.1166 3.5866 27.2603 19.5227
# 2 27.2306 109.5872 -2.2371 -12.5552 4.0359 9.3397
# 3 22.1166 -2.2371 75.1796 -8.0660 8.7649 -6.5942
# 4 3.5866 -12.5552 -8.0660 29.8676 12.3517 0.5105
# 5 27.2603 4.0359 8.7649 12.3517 50.1645 2.2023
# 6 19.5227 9.3397 -6.5942 0.5105 2.2023 44.7511
#
#
#
# Elastic Compliance Matrix: (Units=1/GPa)
#
#
# Indices 1 2 3 4 5 6 
#
# 1 0.008316 -0.001794 -0.002479 -0.000886 -0.003572 -0.003433
# 2 -0.001794 0.010397 0.001508 0.005616 -0.001457 -0.001157
# 3 -0.002479 0.001508 0.015399 0.006345 -0.003164 0.003119
# 4 -0.000886 0.005616 0.006345 0.042429 -0.011536 0.000233
# 5 -0.003572 -0.001457 -0.003164 -0.011536 0.025374 0.000279
# 6 -0.003433 -0.001157 0.003119 0.000233 0.000279 0.024528
#
#
# Mechanical properties :
#
#
# Convention : Reuss Voigt Hill
#
# Bulk Modulus (GPa) = 34.98855 47.98509 41.48682
# Shear Modulus (GPa) = 35.33550 44.32567 39.83059
#
# Velocity S-wave (km/s) = 3.40928 3.81843 3.61964
# Velocity P-wave (km/s) = 5.19680 5.93504 5.57815
#
# Compressibility (1/GPa) = 0.02858078
#
# Stress axis : x y z
#
# Youngs Moduli (GPa) = 120.25660 96.17711 64.93918
#
# Poissons Ratio (x) = 0.17257 0.16101
# Poissons Ratio (y) = 0.21578 -0.09794
# Poissons Ratio (z) = 0.29816 -0.14505
#
# Static dielectric constant tensor:
#      x y z
#    x 5.957660 0.216760 -0.028880 
#    y 0.216760 5.835530 0.485680 
#    z -0.028880 0.485680 5.797290 
# 
# 
# High freq. dielectric constant tensor:
#      x y z
#    x 2.258720 0.008830 0.009130 
#    y 0.008830 2.266010 0.019780 
#    z 0.009130 0.019780 2.264910 
# 
# From -- ./inp_files/323598.got.cif
#   From: 2010.06.25/outbox.cif.g09.slc.cpg/sg2_162_cif.got.tgz:323598.got - 2010.06.27 13:26:56.
