data_PCOD8020889
_publ_section_title
;
Structure prediction by ZEFSAII (Michael W. Deem and Ramdas Pophale) SiO2 
 PCOD8020889
Probable space group: P -1
;
_chemical_formula_sum "Si O2"
_cell_formula_units_Z 16
_cell_length_a 12.041360
_cell_length_b 15.807316
_cell_length_c 12.489926
_cell_angle_alpha 34.224118
_cell_angle_beta 35.957759
_cell_angle_gamma 53.592255
_cell_volume 764.190395
_symmetry_space_group_name_H-M "P -1"
_symmetry_group_IT_number 2
_symmetry_cell_setting 'triclinic'
loop_
_space_group_symop_operation_xyz
x,y,z
-x,-y,-z
loop_
_atom_site_type_symbol
_atom_site_label
_atom_site_fract_x
_atom_site_fract_y
_atom_site_fract_z
Si Si1 0.698780 0.112486 0.690879
Si Si2 0.094243 0.902255 0.107870
Si Si3 0.550178 0.388014 0.243044
Si Si4 0.267326 0.899303 0.567047
Si Si5 0.713441 0.657553 0.692018
Si Si6 0.496569 0.629602 0.456260
Si Si7 0.147886 0.087758 0.073636
Si Si8 0.530611 0.131173 0.250223
O O1 0.761135 0.088366 0.548302
O O2 0.677026 0.290007 0.530973
O O3 0.866013 0.063944 0.681397
O O4 0.500000 0.000000 0.000000
O O5 0.923424 0.768816 0.429696
O O6 0.204560 0.026375 0.979076
O O7 0.247320 0.822881 0.011583
O O8 0.000000 0.000000 0.000000
O O9 0.616456 0.227571 0.355911
O O10 0.341548 0.373262 0.359457
O O11 0.538053 0.440513 0.322317
O O12 0.712413 0.508650 0.922232
O O13 0.057302 0.865268 0.823001
O O14 0.389779 0.067124 0.328957
O O15 0.530133 0.719371 0.814335
O O16 0.500000 0.500000 0.500000
O O17 0.695228 0.761907 0.166852
O O18 0.500000 0.000000 0.500000
#
# Coordination Sequence:
#
# PCOD8020889 Si02
#       8
#     2   2   2   2   2   2   2   2
#     4   9  20  38  61  88 119 161 212 263 309 361
#     4  12  22  39  67  97 127 160 214 261 314 376
#     4  10  23  43  61  88 136 168 201 264 320 377
#     4  11  20  40  63  89 129 164 206 265 318 374
#     4  11  23  42  63  98 131 167 211 256 320 385
#     4  10  22  43  65  87 126 171 210 262 319 375
#     4  11  22  39  64  96 120 163 215 262 315 373
#     4  12  21  37  66  94 123 164 210 259 313 371
#
# _framework density 20.937192
#
# number of rings (size 3 to 8) (size 9 to 14) (size 15 to 20)
#    0.000    1.250    3.750    3.375    0.000    3.000 
#    6.750    2.500    0.000    0.000    0.000    0.000 
#    0.000    0.000    0.000    0.000    0.000    0.000 
#
# Total GULP energy -198292.714180 kJ/mol
# GULP energy per Si atom -12393.294636 kJ/mol
# Density = 2.088954 g / cm^3
# Si number density = 20.937192 Si / 1000 Ang^3
#
#
#
# Elastic Constant Matrix: (Units=GPa)
#
#
# Indices 1 2 3 4 5 6 
#
# 1 99.1297 35.9716 30.0950 -7.2806 14.2214 9.5298
# 2 35.9716 82.6357 27.1817 10.1395 1.2461 20.0099
# 3 30.0950 27.1817 91.5893 4.8784 -1.9792 1.9088
# 4 -7.2806 10.1395 4.8784 33.5419 -2.5794 -7.5466
# 5 14.2214 1.2461 -1.9792 -2.5794 41.8772 2.5254
# 6 9.5298 20.0099 1.9088 -7.5466 2.5254 29.4935
#
#
#
# Elastic Compliance Matrix: (Units=1/GPa)
#
#
# Indices 1 2 3 4 5 6 
#
# 1 0.014181 -0.006047 -0.003281 0.005370 -0.004551 0.001496
# 2 -0.006047 0.020538 -0.003230 -0.010198 0.001537 -0.014512
# 3 -0.003281 -0.003230 0.013005 -0.001051 0.001640 0.002000
# 4 0.005370 -0.010198 -0.001051 0.037549 -0.000154 0.014873
# 5 -0.004551 0.001537 0.001640 -0.000154 0.025562 -0.001906
# 6 0.001496 -0.014512 0.002000 0.014873 -0.001906 0.047108
#
#
# Mechanical properties :
#
#
# Convention : Reuss Voigt Hill
#
# Bulk Modulus (GPa) = 44.22830 51.09458 47.66144
# Shear Modulus (GPa) = 26.23389 32.98962 29.61175
#
# Velocity S-wave (km/s) = 3.54359 3.97375 3.76482
# Velocity P-wave (km/s) = 6.15734 6.74618 6.45847
#
# Compressibility (1/GPa) = 0.02260996
#
# Stress axis : x y z
#
# Youngs Moduli (GPa) = 70.51500 48.69033 76.89622
#
# Poissons Ratio (x) = 0.29441 0.25229
# Poissons Ratio (y) = 0.42637 0.24834
# Poissons Ratio (z) = 0.23135 0.15725
#
# Static dielectric constant tensor:
#      x y z
#    x 4.184780 0.032720 -0.009200 
#    y 0.032720 3.918310 0.009250 
#    z -0.009200 0.009250 3.217600 
# 
# 
# High freq. dielectric constant tensor:
#      x y z
#    x 1.829600 0.003710 0.013200 
#    y 0.003710 1.818260 0.006340 
#    z 0.013200 0.006340 1.807260 
# 
# From -- ./inp_files/433704.got.cif
#   From: 2010.06.25/outbox.cif.g09.slc.cpg/sg2_217_cif.got.tgz:433704.got - 2010.06.27 13:26:56.
