data_PCOD8020299
_publ_section_title
;
Structure prediction by ZEFSAII (Michael W. Deem and Ramdas Pophale) SiO2 
 PCOD8020299
Probable space group: P -1
;
_chemical_formula_sum "Si O2"
_cell_formula_units_Z 16
_cell_length_a 9.859444
_cell_length_b 14.850835
_cell_length_c 11.159273
_cell_angle_alpha 105.835814
_cell_angle_beta 74.390576
_cell_angle_gamma 42.884735
_cell_volume 746.351004
_symmetry_space_group_name_H-M "P -1"
_symmetry_group_IT_number 2
_symmetry_cell_setting 'triclinic'
loop_
_space_group_symop_operation_xyz
x,y,z
-x,-y,-z
loop_
_atom_site_type_symbol
_atom_site_label
_atom_site_fract_x
_atom_site_fract_y
_atom_site_fract_z
Si Si1 0.033073 0.673134 0.605155
Si Si2 0.423516 0.131959 0.490523
Si Si3 0.960322 0.402621 0.192198
Si Si4 0.585266 0.203757 0.630316
Si Si5 0.164029 0.470420 0.286132
Si Si6 0.406222 0.002864 0.868019
Si Si7 0.790944 0.069472 0.984406
Si Si8 0.978633 0.909095 0.624469
O O1 0.198064 0.571396 0.658197
O O2 0.114636 0.533715 0.457956
O O3 0.704150 0.866181 0.802741
O O4 0.077387 0.743168 0.545207
O O5 0.595888 0.121441 0.493183
O O6 0.077812 0.336230 0.662986
O O7 0.500000 0.000000 0.500000
O O8 0.520137 0.070805 0.309775
O O9 0.740025 0.569829 0.206648
O O10 0.109698 0.392799 0.241585
O O11 0.188749 0.215105 0.990846
O O12 0.676274 0.101077 0.696383
O O13 0.786064 0.174474 0.540294
O O14 0.497413 0.298429 0.115366
O O15 0.277301 0.992026 0.968344
O O16 0.955046 0.964619 0.782360
O O17 0.000000 0.000000 0.000000
#
# Coordination Sequence:
#
# PCOD8020299 Si02
#       8
#     2   2   2   2   2   2   2   2
#     4  11  21  38  67  89 128 164 204 260 314 365
#     4  10  22  42  67  93 126 169 207 252 318 378
#     4  11  21  38  66  94 124 163 208 262 313 364
#     4  10  24  42  63  91 128 171 206 254 310 381
#     4  10  23  37  63  96 125 160 211 262 307 374
#     4  11  22  39  62  95 127 158 208 264 307 364
#     4  12  25  40  63  93 127 165 208 263 318 364
#     4  11  24  44  62  90 132 167 208 255 316 374
#
# _framework density 21.437636000000001
#
# number of rings (size 3 to 8) (size 9 to 14) (size 15 to 20)
#    0.000    1.250    2.500    3.750    5.250    2.500 
#    0.000    3.125    0.000    5.250    0.000    0.000 
#    0.000    0.000    0.000    0.000    0.000    0.000 
#
# Total GULP energy -198245.776438 kJ/mol
# GULP energy per Si atom -12390.361027 kJ/mol
# Density = 2.138884 g / cm^3
# Si number density = 21.437636 Si / 1000 Ang^3
#
#
#
# Elastic Constant Matrix: (Units=GPa)
#
#
# Indices 1 2 3 4 5 6 
#
# 1 89.0161 31.8701 24.6405 12.0957 8.0562 -3.7946
# 2 31.8701 97.2801 11.6137 7.9502 12.1881 -2.4623
# 3 24.6405 11.6137 67.3273 15.0529 16.2625 3.7661
# 4 12.0957 7.9502 15.0529 33.7396 5.4353 3.9589
# 5 8.0562 12.1881 16.2625 5.4353 30.3118 0.7839
# 6 -3.7946 -2.4623 3.7661 3.9589 0.7839 35.5604
#
#
#
# Elastic Compliance Matrix: (Units=1/GPa)
#
#
# Indices 1 2 3 4 5 6 
#
# 1 0.014193 -0.003949 -0.004150 -0.002610 0.000460 0.001961
# 2 -0.003949 0.012107 0.000517 -0.001104 -0.003912 0.000571
# 3 -0.004150 0.000517 0.019769 -0.005871 -0.008615 -0.001657
# 4 -0.002610 -0.001104 -0.005871 0.034146 -0.001744 -0.003496
# 5 0.000460 -0.003912 -0.008615 -0.001744 0.039376 0.000017
# 6 0.001961 0.000571 -0.001657 -0.003496 0.000017 0.028934
#
#
# Mechanical properties :
#
#
# Convention : Reuss Voigt Hill
#
# Bulk Modulus (GPa) = 32.35849 43.31915 37.83882
# Shear Modulus (GPa) = 28.73709 32.28898 30.51303
#
# Velocity S-wave (km/s) = 3.66525 3.88517 3.77681
# Velocity P-wave (km/s) = 5.74797 6.35429 6.05871
#
# Compressibility (1/GPa) = 0.03090379
#
# Stress axis : x y z
#
# Youngs Moduli (GPa) = 70.45553 82.60002 50.58414
#
# Poissons Ratio (x) = 0.32619 0.20995
# Poissons Ratio (y) = 0.27823 -0.02615
# Poissons Ratio (z) = 0.29242 -0.04270
#
# Static dielectric constant tensor:
#      x y z
#    x 3.825350 -0.017880 0.046440 
#    y -0.017880 4.176980 0.269140 
#    z 0.046440 0.269140 3.737530 
# 
# 
# High freq. dielectric constant tensor:
#      x y z
#    x 1.837620 -0.001450 0.017420 
#    y -0.001450 1.856830 0.011860 
#    z 0.017420 0.011860 1.827430 
# 
# From -- ./inp_files/399270.got.cif
#   From: 2010.06.25/outbox.cif.g09.slc.cpg/sg2_200_cif.got.tgz:399270.got - 2010.06.27 13:26:56.
