data_PCOD8020736
_publ_section_title
;
Structure prediction by ZEFSAII (Michael W. Deem and Ramdas Pophale) SiO2 
 PCOD8020736
Probable space group: P -1
;
_chemical_formula_sum "Si O2"
_cell_formula_units_Z 16
_cell_length_a 7.713543
_cell_length_b 23.148564
_cell_length_c 5.324347
_cell_angle_alpha 56.989856
_cell_angle_beta 86.833183
_cell_angle_gamma 54.204183
_cell_volume 596.185202
_symmetry_space_group_name_H-M "P -1"
_symmetry_group_IT_number 2
_symmetry_cell_setting 'triclinic'
loop_
_space_group_symop_operation_xyz
x,y,z
-x,-y,-z
loop_
_atom_site_type_symbol
_atom_site_label
_atom_site_fract_x
_atom_site_fract_y
_atom_site_fract_z
Si Si1 0.730485 0.989370 0.667918
Si Si2 0.972977 0.180829 0.655591
Si Si3 0.865606 0.100134 0.508115
Si Si4 0.366583 0.461603 0.597544
Si Si5 0.417717 0.721916 0.209095
Si Si6 0.244132 0.273666 0.565008
Si Si7 0.722661 0.818827 0.706440
Si Si8 0.762179 0.461257 0.075540
O O1 0.869629 0.957777 0.470458
O O2 0.811406 0.034988 0.714313
O O3 0.452441 0.071121 0.474430
O O4 0.794417 0.901478 0.013983
O O5 0.844638 0.144419 0.668444
O O6 0.781975 0.266294 0.646390
O O7 0.036510 0.211029 0.339722
O O8 0.681244 0.181602 0.132821
O O9 0.500000 0.500000 0.500000
O O10 0.516045 0.352083 0.830276
O O11 0.217442 0.495092 0.784592
O O12 0.202192 0.504372 0.263518
O O13 0.627024 0.689419 0.457130
O O14 0.361853 0.207749 0.460831
O O15 0.973830 0.352168 0.326738
O O16 0.236224 0.229336 0.920953
O O17 0.500000 0.500000 0.000000
#
# Coordination Sequence:
#
# PCOD8020736 Si02
#       8
#     2   2   2   2   2   2   2   2
#     4  10  22  44  67 110 146 202 247 305 367 431
#     4  11  26  41  73 107 151 200 253 305 366 438
#     4  10  22  42  73 104 150 198 250 301 367 440
#     4  10  24  44  76 108 146 186 243 307 373 445
#     4  11  26  45  73 110 148 199 250 303 372 451
#     4  12  28  49  74 109 151 195 250 308 376 442
#     4  12  28  45  76 109 154 195 250 312 364 437
#     4  10  24  46  73 106 142 188 236 308 376 444
#
# _framework density 26.837299000000002
#
# number of rings (size 3 to 8) (size 9 to 14) (size 15 to 20)
#    0.000    1.250    1.250    2.250   10.500    2.500 
#    0.000    0.000    0.000    0.000    0.000    0.000 
#    0.000    0.000    0.000    0.000    0.000    0.000 
#
# Total GULP energy -198245.173963 kJ/mol
# GULP energy per Si atom -12390.323373 kJ/mol
# Density = 2.677622 g / cm^3
# Si number density = 26.837299 Si / 1000 Ang^3
#
#
#
# Elastic Constant Matrix: (Units=GPa)
#
#
# Indices 1 2 3 4 5 6 
#
# 1 54.2870 -6.2010 21.9954 -16.6207 5.4804 -2.9261
# 2 -6.2010 138.3681 52.3915 6.1412 3.4334 -4.1623
# 3 21.9954 52.3915 123.7616 20.5927 4.2430 -25.2526
# 4 -16.6207 6.1412 20.5927 44.2945 -5.1151 1.4264
# 5 5.4804 3.4334 4.2430 -5.1151 31.6781 -6.6851
# 6 -2.9261 -4.1623 -25.2526 1.4264 -6.6851 40.3967
#
#
#
# Elastic Compliance Matrix: (Units=1/GPa)
#
#
# Indices 1 2 3 4 5 6 
#
# 1 0.027191 0.004239 -0.009824 0.014036 -0.002564 -0.004655
# 2 0.004239 0.009396 -0.005700 0.002898 -0.001062 -0.002566
# 3 -0.009824 -0.005700 0.015812 -0.010490 0.000410 0.009023
# 4 0.014036 0.002898 -0.010490 0.032822 0.002706 -0.005953
# 5 -0.002564 -0.001062 0.000410 0.002706 0.033655 0.005435
# 6 -0.004655 -0.002566 0.009023 -0.005953 0.005435 0.030903
#
#
# Mechanical properties :
#
#
# Convention : Reuss Voigt Hill
#
# Bulk Modulus (GPa) = 33.52663 50.30985 41.91824
# Shear Modulus (GPa) = 27.42839 39.82257 33.62548
#
# Velocity S-wave (km/s) = 3.20038 3.85626 3.54353
# Velocity P-wave (km/s) = 5.11627 6.21406 5.69170
#
# Compressibility (1/GPa) = 0.02982704
#
# Stress axis : x y z
#
# Youngs Moduli (GPa) = 36.77741 106.42855 63.24400
#
# Poissons Ratio (x) = -0.45115 0.62133
# Poissons Ratio (y) = -0.15590 0.36051
# Poissons Ratio (z) = 0.36131 0.60668
#
# Static dielectric constant tensor:
#      x y z
#    x 4.615540 0.096360 0.218810 
#    y 0.096360 5.546030 0.505370 
#    z 0.218810 0.505370 5.140000 
# 
# 
# High freq. dielectric constant tensor:
#      x y z
#    x 2.064620 0.005390 0.005520 
#    y 0.005390 2.101990 0.010960 
#    z 0.005520 0.010960 2.069970 
# 
# From -- ./inp_files/55368.got.cif
#   From: 2010.06.25/outbox.cif.g09.slc.cpg/sg2_28_cif.got.tgz:55368.got - 2010.06.27 13:26:56.
