data_PCOD8020410
_publ_section_title
;
Structure prediction by ZEFSAII (Michael W. Deem and Ramdas Pophale) SiO2 
 PCOD8020410
Probable space group: P -1
;
_chemical_formula_sum "Si O2"
_cell_formula_units_Z 16
_cell_length_a 10.894829
_cell_length_b 13.283676
_cell_length_c 25.551874
_cell_angle_alpha 31.399072
_cell_angle_beta 23.657861
_cell_angle_gamma 41.038527
_cell_volume 766.357134
_symmetry_space_group_name_H-M "P -1"
_symmetry_group_IT_number 2
_symmetry_cell_setting 'triclinic'
loop_
_space_group_symop_operation_xyz
x,y,z
-x,-y,-z
loop_
_atom_site_type_symbol
_atom_site_label
_atom_site_fract_x
_atom_site_fract_y
_atom_site_fract_z
Si Si1 0.836452 0.735817 0.390278
Si Si2 0.727922 0.911872 0.911916
Si Si3 0.724442 0.953980 0.669609
Si Si4 0.577837 0.231231 0.372177
Si Si5 0.604281 0.485081 0.765101
Si Si6 0.238514 0.191291 0.167312
Si Si7 0.308972 0.433699 0.185979
Si Si8 0.391416 0.674123 0.495252
O O1 0.635159 0.665455 0.550580
O O2 0.610624 0.728030 0.433931
O O3 0.113189 0.605154 0.333285
O O4 0.943896 0.967454 0.255955
O O5 0.658926 0.936261 0.865453
O O6 0.693836 0.680634 0.039465
O O7 0.500000 0.000000 0.000000
O O8 0.823652 0.940304 0.698017
O O9 0.528544 0.749994 0.817335
O O10 0.545906 0.140902 0.650879
O O11 0.000000 0.000000 0.500000
O O12 0.514004 0.332885 0.297557
O O13 0.932689 0.280739 0.229130
O O14 0.500000 0.000000 0.500000
O O15 0.720442 0.563219 0.741500
O O16 0.508620 0.367860 0.996038
O O17 0.959133 0.390119 0.319320
O O18 0.500000 0.500000 0.500000
#
# Coordination Sequence:
#
# PCOD8020410 Si02
#       8
#     2   2   2   2   2   2   2   2
#     4  11  22  42  64  91 134 165 217 269 318 386
#     4   9  21  42  66  92 129 172 211 264 335 379
#     4  10  23  39  66  94 128 172 211 263 324 375
#     4  12  25  37  63 102 127 167 216 265 327 387
#     4  10  23  41  66  93 130 171 210 267 327 383
#     4  11  23  43  66  96 134 165 217 277 316 390
#     4  10  22  42  68  90 133 168 217 264 325 380
#     4  11  23  41  65  95 124 174 219 259 319 387
#
# _framework density 20.877994999999999
#
# number of rings (size 3 to 8) (size 9 to 14) (size 15 to 20)
#    0.000    1.500    2.500    2.250    5.250    3.000 
#    4.500    0.625    0.000    0.000    0.000    0.000 
#    0.000    0.000    0.000    0.000    0.000    0.000 
#
# Total GULP energy -198241.064487 kJ/mol
# GULP energy per Si atom -12390.066530 kJ/mol
# Density = 2.083048 g / cm^3
# Si number density = 20.877995 Si / 1000 Ang^3
#
#
#
# Elastic Constant Matrix: (Units=GPa)
#
#
# Indices 1 2 3 4 5 6 
#
# 1 123.5020 48.5249 54.5059 -16.1924 10.8559 5.0895
# 2 48.5249 111.1100 34.7719 -12.4384 7.8170 7.4752
# 3 54.5059 34.7719 92.6345 -6.0865 -0.1772 1.1493
# 4 -16.1924 -12.4384 -6.0865 34.4329 9.5656 1.9468
# 5 10.8559 7.8170 -0.1772 9.5656 47.3159 -0.3559
# 6 5.0895 7.4752 1.1493 1.9468 -0.3559 39.8594
#
#
#
# Elastic Compliance Matrix: (Units=1/GPa)
#
#
# Indices 1 2 3 4 5 6 
#
# 1 0.012985 -0.002819 -0.006242 0.005045 -0.003566 -0.001228
# 2 -0.002819 0.011615 -0.002479 0.003072 -0.001917 -0.001914
# 3 -0.006242 -0.002479 0.015272 -0.001815 0.002273 0.000931
# 4 0.005045 0.003072 -0.001815 0.034794 -0.008728 -0.002945
# 5 -0.003566 -0.001917 0.002273 -0.008728 0.024053 0.001390
# 6 -0.001228 -0.001914 0.000931 -0.002945 0.001390 0.025733
#
#
# Mechanical properties :
#
#
# Convention : Reuss Voigt Hill
#
# Bulk Modulus (GPa) = 59.55616 66.98353 63.26984
# Shear Modulus (GPa) = 32.65187 36.95123 34.80155
#
# Velocity S-wave (km/s) = 3.95895 4.21154 4.08720
# Velocity P-wave (km/s) = 7.03459 7.47010 7.25561
#
# Compressibility (1/GPa) = 0.01679087
#
# Stress axis : x y z
#
# Youngs Moduli (GPa) = 77.01120 86.09782 65.47885
#
# Poissons Ratio (x) = 0.24273 0.40874
# Poissons Ratio (y) = 0.21711 0.16232
# Poissons Ratio (z) = 0.48073 0.21343
#
# Static dielectric constant tensor:
#      x y z
#    x 3.758580 0.237470 -0.160440 
#    y 0.237470 4.323000 -0.023620 
#    z -0.160440 -0.023620 4.399650 
# 
# 
# High freq. dielectric constant tensor:
#      x y z
#    x 1.815420 0.027800 0.003070 
#    y 0.027800 1.817410 -0.005190 
#    z 0.003070 -0.005190 1.823050 
# 
# From -- ./inp_files/589426.got.cif
#   From: 2010.06.25/outbox.cif.g09.slc.cpg/sg2_295_cif.got.tgz:589426.got - 2010.06.27 13:26:56.
