data_PCOD8020162
_publ_section_title
;
Structure prediction by ZEFSAII (Michael W. Deem and Ramdas Pophale) SiO2 
 PCOD8020162
Probable space group: P -1
;
_chemical_formula_sum "Si O2"
_cell_formula_units_Z 16
_cell_length_a 9.168272
_cell_length_b 27.186390
_cell_length_c 9.105172
_cell_angle_alpha 47.394909
_cell_angle_beta 45.506255
_cell_angle_gamma 30.575575
_cell_volume 806.388214
_symmetry_space_group_name_H-M "P -1"
_symmetry_group_IT_number 2
_symmetry_cell_setting 'triclinic'
loop_
_space_group_symop_operation_xyz
x,y,z
-x,-y,-z
loop_
_atom_site_type_symbol
_atom_site_label
_atom_site_fract_x
_atom_site_fract_y
_atom_site_fract_z
Si Si1 0.494349 0.245430 0.569265
Si Si2 0.149118 0.108556 0.911051
Si Si3 0.275493 0.726224 0.897703
Si Si4 0.290906 0.947903 0.304492
Si Si5 0.661579 0.264073 0.710767
Si Si6 0.179979 0.609097 0.320033
Si Si7 0.743856 0.386852 0.403203
Si Si8 0.196068 0.389857 0.032125
O O1 0.701911 0.250529 0.329770
O O2 0.573124 0.151933 0.656006
O O3 0.556900 0.238150 0.712586
O O4 0.143992 0.343617 0.584437
O O5 0.458718 0.074459 0.725519
O O6 0.918971 0.166007 0.822181
O O7 0.021550 0.173554 0.017411
O O8 0.207527 0.016609 0.089092
O O9 0.266066 0.647840 0.067575
O O10 0.570425 0.684321 0.855021
O O11 0.000000 0.000000 0.500000
O O12 0.790379 0.301939 0.474088
O O13 0.375615 0.358513 0.818079
O O14 0.413013 0.492368 0.379554
O O15 0.202801 0.633472 0.418450
O O16 0.986469 0.376803 0.179365
O O17 0.000000 0.500000 0.000000
#
# Coordination Sequence:
#
# PCOD8020162 Si02
#       8
#     2   2   2   2   2   2   2   2
#     4  12  25  40  61  92 130 161 198 259 319 357
#     4  10  22  42  66  90 119 154 210 254 297 377
#     4  11  20  37  63  90 120 161 207 252 295 364
#     4  11  22  41  71  93 111 157 209 250 307 373
#     4  11  26  41  58  95 132 160 200 257 309 358
#     4  11  21  37  64  89 124 165 213 254 290 362
#     4  11  20  37  62  91 120 170 213 248 295 359
#     4  11  20  38  65  90 115 169 220 245 290 364
#
# _framework density 19.841560999999999
#
# number of rings (size 3 to 8) (size 9 to 14) (size 15 to 20)
#    0.000    1.000    7.500    0.750    0.000    2.000 
#    0.000    1.875    0.000    0.000    0.000    0.000 
#    0.000    0.000    0.000    0.000    0.000    0.000 
#
# Total GULP energy -198412.941069 kJ/mol
# GULP energy per Si atom -12400.808817 kJ/mol
# Density = 1.979640 g / cm^3
# Si number density = 19.841561 Si / 1000 Ang^3
#
#
#
# Elastic Constant Matrix: (Units=GPa)
#
#
# Indices 1 2 3 4 5 6 
#
# 1 73.6365 35.4148 45.6237 2.8642 -1.8237 -10.7418
# 2 35.4148 76.4897 36.7567 -3.1062 0.2987 -24.2173
# 3 45.6237 36.7567 110.7457 -7.4253 -15.6226 -7.7177
# 4 2.8642 -3.1062 -7.4253 34.9106 -0.9514 -7.6469
# 5 -1.8237 0.2987 -15.6226 -0.9514 31.3784 1.6837
# 6 -10.7418 -24.2173 -7.7177 -7.6469 1.6837 25.0539
#
#
#
# Elastic Compliance Matrix: (Units=1/GPa)
#
#
# Indices 1 2 3 4 5 6 
#
# 1 0.021288 -0.006809 -0.007170 -0.004108 -0.002352 -0.000758
# 2 -0.006809 0.025903 -0.004246 0.006935 -0.003790 0.023182
# 3 -0.007170 -0.004246 0.014421 0.002964 0.007017 -0.002303
# 4 -0.004108 0.006935 0.002964 0.033787 0.001333 0.016078
# 5 -0.002352 -0.003790 0.007017 0.001333 0.035544 -0.004492
# 6 -0.000758 0.023182 -0.002303 0.016078 -0.004492 0.066496
#
#
# Mechanical properties :
#
#
# Convention : Reuss Voigt Hill
#
# Bulk Modulus (GPa) = 39.74347 55.16247 47.45297
# Shear Modulus (GPa) = 20.63762 27.80704 24.22233
#
# Velocity S-wave (km/s) = 3.22859 3.74766 3.49777
# Velocity P-wave (km/s) = 5.82857 6.82557 6.34668
#
# Compressibility (1/GPa) = 0.02516136
#
# Stress axis : x y z
#
# Youngs Moduli (GPa) = 46.97440 38.60631 69.34260
#
# Poissons Ratio (x) = 0.26285 0.49721
# Poissons Ratio (y) = 0.31983 0.29446
# Poissons Ratio (z) = 0.33682 0.16394
#
# Static dielectric constant tensor:
#      x y z
#    x 3.376840 -0.209860 -0.228560 
#    y -0.209860 3.730510 -0.018800 
#    z -0.228560 -0.018800 3.703320 
# 
# 
# High freq. dielectric constant tensor:
#      x y z
#    x 1.747950 -0.019500 -0.025670 
#    y -0.019500 1.777700 -0.010340 
#    z -0.025670 -0.010340 1.780060 
# 
# From -- ./inp_files/215273.got.cif
#   From: 2010.06.25/outbox.cif.g09.slc.cpg/sg2_108_cif.got.tgz:215273.got - 2010.06.27 13:26:56.
