data_PCOD8020817
_publ_section_title
;
Structure prediction by ZEFSAII (Michael W. Deem and Ramdas Pophale) SiO2 
 PCOD8020817
Probable space group: P -1
;
_chemical_formula_sum "Si O2"
_cell_formula_units_Z 14
_cell_length_a 14.680183
_cell_length_b 14.217591
_cell_length_c 7.509589
_cell_angle_alpha 114.722431
_cell_angle_beta 99.165833
_cell_angle_gamma 28.139474
_cell_volume 585.686666
_symmetry_space_group_name_H-M "P -1"
_symmetry_group_IT_number 2
_symmetry_cell_setting 'triclinic'
loop_
_space_group_symop_operation_xyz
x,y,z
-x,-y,-z
loop_
_atom_site_type_symbol
_atom_site_label
_atom_site_fract_x
_atom_site_fract_y
_atom_site_fract_z
Si Si1 0.021035 0.305115 0.834640
Si Si2 0.539373 0.846612 0.169659
Si Si3 0.555944 0.621457 0.598927
Si Si4 0.180325 0.077300 0.046658
Si Si5 0.152052 0.748706 0.890607
Si Si6 0.110778 0.779364 0.309856
Si Si7 0.482494 0.900362 0.592226
O O1 0.057728 0.145448 0.675199
O O2 0.214343 0.170560 0.687529
O O3 0.771690 0.594490 0.936588
O O4 0.065935 0.277374 0.038356
O O5 0.351510 0.958768 0.136238
O O6 0.591867 0.768150 0.330177
O O7 0.453651 0.051030 0.277288
O O8 0.621079 0.482897 0.339687
O O9 0.702205 0.439799 0.666559
O O10 0.570612 0.728063 0.627760
O O11 0.307837 0.861934 0.788414
O O12 0.988414 0.208293 0.189902
O O13 0.215057 0.678779 0.063090
O O14 0.000000 0.000000 0.000000
O O15 0.000000 0.000000 0.500000
#
# Coordination Sequence:
#
# PCOD8020817 Si02
#       7
#     2   2   2   2   2   2   2
#     4  10  22  43  63  95 136 170 221 278 323 400
#     4  11  22  44  67  98 137 170 230 272 327 408
#     4  11  23  44  67  97 137 173 220 281 325 396
#     4  10  24  41  69  99 130 180 221 273 335 399
#     4  11  24  44  68 100 137 172 227 279 330 399
#     4  11  22  42  68  98 133 175 223 274 330 398
#     4  10  24  41  65 101 130 178 222 273 337 393
#
# _framework density 23.903566000000001
#
# number of rings (size 3 to 8) (size 9 to 14) (size 15 to 20)
#    0.000    1.429    2.857    2.143    2.000    2.857 
#    5.143    2.857    0.000    0.000    0.000    0.000 
#    0.000    0.000    0.000    0.000    0.000    0.000 
#
# Total GULP energy -173438.628559 kJ/mol
# GULP energy per Si atom -12388.473468 kJ/mol
# Density = 2.384916 g / cm^3
# Si number density = 23.903566 Si / 1000 Ang^3
#
#
#
# Elastic Constant Matrix: (Units=GPa)
#
#
# Indices 1 2 3 4 5 6 
#
# 1 50.9405 7.6410 10.8383 -4.8709 13.1566 4.1599
# 2 7.6410 101.3038 17.6977 -4.6554 9.2254 13.0309
# 3 10.8383 17.6977 101.7456 -5.5865 9.8008 -5.0311
# 4 -4.8709 -4.6554 -5.5865 28.9423 1.0213 -1.6465
# 5 13.1566 9.2254 9.8008 1.0213 34.7272 -0.2000
# 6 4.1599 13.0309 -5.0311 -1.6465 -0.2000 38.6173
#
#
#
# Elastic Compliance Matrix: (Units=1/GPa)
#
#
# Indices 1 2 3 4 5 6 
#
# 1 0.022655 -0.000214 -0.001505 0.003638 -0.008222 -0.002452
# 2 -0.000214 0.010971 -0.001778 0.001250 -0.002391 -0.003870
# 3 -0.001505 -0.001778 0.010696 0.001723 -0.002014 0.002219
# 4 0.003638 0.001250 0.001723 0.035864 -0.003246 0.000923
# 5 -0.008222 -0.002391 -0.002014 -0.003246 0.033218 0.001464
# 6 -0.002452 -0.003870 0.002219 0.000923 0.001464 0.027801
#
#
# Mechanical properties :
#
#
# Convention : Reuss Voigt Hill
#
# Bulk Modulus (GPa) = 26.79051 36.26044 31.52548
# Shear Modulus (GPa) = 31.12479 34.97821 33.05150
#
# Velocity S-wave (km/s) = 3.61237 3.82947 3.72250
# Velocity P-wave (km/s) = 5.35080 5.89538 5.62968
#
# Compressibility (1/GPa) = 0.03732665
#
# Stress axis : x y z
#
# Youngs Moduli (GPa) = 44.14051 91.14974 93.48994
#
# Poissons Ratio (x) = 0.01955 0.14074
# Poissons Ratio (y) = 0.00947 0.16622
# Poissons Ratio (z) = 0.06645 0.16206
#
# Static dielectric constant tensor:
#      x y z
#    x 4.343080 0.104990 0.042990 
#    y 0.104990 4.460380 0.170320 
#    z 0.042990 0.170320 4.787010 
# 
# 
# High freq. dielectric constant tensor:
#      x y z
#    x 1.934930 0.011460 -0.001740 
#    y 0.011460 1.948610 0.004240 
#    z -0.001740 0.004240 1.948180 
# 
# From -- ./inp_files/313945.got.cif
#   From: 2010.06.25/outbox.cif.g09.slc.cpg/sg2_157_cif.got.tgz:313945.got - 2010.06.27 13:26:56.
