data_PCOD8020812
_publ_section_title
;
Structure prediction by ZEFSAII (Michael W. Deem and Ramdas Pophale) SiO2 
 PCOD8020812
Probable space group: P -1
;
_chemical_formula_sum "Si O2"
_cell_formula_units_Z 16
_cell_length_a 14.645407
_cell_length_b 8.973830
_cell_length_c 8.192562
_cell_angle_alpha 127.683902
_cell_angle_beta 62.428539
_cell_angle_gamma 112.932076
_cell_volume 746.546863
_symmetry_space_group_name_H-M "P -1"
_symmetry_group_IT_number 2
_symmetry_cell_setting 'triclinic'
loop_
_space_group_symop_operation_xyz
x,y,z
-x,-y,-z
loop_
_atom_site_type_symbol
_atom_site_label
_atom_site_fract_x
_atom_site_fract_y
_atom_site_fract_z
Si Si1 0.244324 0.067021 0.519269
Si Si2 0.908919 0.171587 0.749339
Si Si3 0.524724 0.680102 0.218771
Si Si4 0.614207 0.566864 0.383162
Si Si5 0.779925 0.339615 0.224955
Si Si6 0.355308 0.917227 0.613329
Si Si7 0.957261 0.868612 0.100105
Si Si8 0.025350 0.493453 0.663518
O O1 0.322418 0.232759 0.473614
O O2 0.164772 0.134647 0.763792
O O3 0.184272 0.964380 0.348659
O O4 0.313478 0.937617 0.477565
O O5 0.980664 0.060764 0.734927
O O6 0.978765 0.287300 0.630866
O O7 0.857877 0.315410 0.999715
O O8 0.603849 0.598465 0.220428
O O9 0.422998 0.741626 0.432541
O O10 0.582504 0.882556 0.233322
O O11 0.500000 0.500000 0.000000
O O12 0.500000 0.500000 0.500000
O O13 0.681695 0.407886 0.268612
O O14 0.738880 0.144248 0.224329
O O15 0.849329 0.478887 0.390204
O O16 0.972455 0.654262 0.906187
O O17 0.000000 0.000000 0.000000
O O18 0.000000 0.500000 0.500000
#
# Coordination Sequence:
#
# PCOD8020812 Si02
#       8
#     2   2   2   2   2   2   2   2
#     4  11  23  40  64  93 128 170 214 271 332 395
#     4  11  23  40  64  94 128 169 216 267 335 398
#     4  10  23  43  67  89 127 174 223 276 329 383
#     4  11  23  42  62  92 127 169 218 272 323 386
#     4  11  22  41  64  93 132 169 217 270 328 393
#     4  10  22  43  63  93 132 167 219 279 327 389
#     4  11  22  40  64  95 132 166 214 271 328 397
#     4  11  23  42  66  96 130 174 212 268 332 400
#
# _framework density 21.432009999999998
#
# number of rings (size 3 to 8) (size 9 to 14) (size 15 to 20)
#    0.000    1.250    1.250    6.375    1.750    2.000 
#    4.500    1.250    0.000    0.000    0.000    0.000 
#    0.000    0.000    0.000    0.000    0.000    0.000 
#
# Total GULP energy -198276.754739 kJ/mol
# GULP energy per Si atom -12392.297171 kJ/mol
# Density = 2.138323 g / cm^3
# Si number density = 21.432010 Si / 1000 Ang^3
#
#
#
# Elastic Constant Matrix: (Units=GPa)
#
#
# Indices 1 2 3 4 5 6 
#
# 1 140.0124 51.6585 38.5543 3.5553 8.4899 6.1744
# 2 51.6585 147.5628 34.2703 -6.3448 11.9736 15.7742
# 3 38.5543 34.2703 69.6761 10.5199 17.2748 5.1308
# 4 3.5553 -6.3448 10.5199 32.5633 3.8053 1.2467
# 5 8.4899 11.9736 17.2748 3.8053 41.9489 2.3376
# 6 6.1744 15.7742 5.1308 1.2467 2.3376 43.4785
#
#
#
# Elastic Compliance Matrix: (Units=1/GPa)
#
#
# Indices 1 2 3 4 5 6 
#
# 1 0.009059 -0.002297 -0.003969 -0.000210 0.000476 -0.000004
# 2 -0.002297 0.008786 -0.003118 0.003173 -0.000905 -0.002536
# 3 -0.003969 -0.003118 0.020556 -0.006081 -0.006208 -0.000223
# 4 -0.000210 0.003173 -0.006081 0.033520 -0.001328 -0.001294
# 5 0.000476 -0.000905 -0.006208 -0.001328 0.026700 -0.000404
# 6 -0.000004 -0.002536 -0.000223 -0.001294 -0.000404 0.024006
#
#
# Mechanical properties :
#
#
# Convention : Reuss Voigt Hill
#
# Bulk Modulus (GPa) = 50.93630 67.35752 59.14691
# Shear Modulus (GPa) = 33.79772 39.11602 36.45687
#
# Velocity S-wave (km/s) = 3.97542 4.27678 4.12885
# Velocity P-wave (km/s) = 6.70000 7.47559 7.09840
#
# Compressibility (1/GPa) = 0.01963237
#
# Stress axis : x y z
#
# Youngs Moduli (GPa) = 110.38425 113.81724 48.64823
#
# Poissons Ratio (x) = 0.26142 0.19309
# Poissons Ratio (y) = 0.25353 0.15170
# Poissons Ratio (z) = 0.43813 0.35493
#
# Static dielectric constant tensor:
#      x y z
#    x 4.480500 -0.030800 0.006560 
#    y -0.030800 4.137490 0.041980 
#    z 0.006560 0.041980 3.673470 
# 
# 
# High freq. dielectric constant tensor:
#      x y z
#    x 1.867880 -0.001730 0.002060 
#    y -0.001730 1.855440 0.000520 
#    z 0.002060 0.000520 1.811720 
# 
# From -- ./inp_files/299643.got.cif
#   From: 2010.06.25/outbox.cif.g09.slc.cpg/sg2_150_cif.got.tgz:299643.got - 2010.06.27 13:26:56.
