data_PCOD8020841
_publ_section_title
;
Structure prediction by ZEFSAII (Michael W. Deem and Ramdas Pophale) SiO2 
 PCOD8020841
Probable space group: P -1
;
_chemical_formula_sum "Si O2"
_cell_formula_units_Z 16
_cell_length_a 8.361259
_cell_length_b 18.708602
_cell_length_c 20.346505
_cell_angle_alpha 19.750670
_cell_angle_beta 136.612197
_cell_angle_gamma 136.148699
_cell_volume 729.290448
_symmetry_space_group_name_H-M "P -1"
_symmetry_group_IT_number 2
_symmetry_cell_setting 'triclinic'
loop_
_space_group_symop_operation_xyz
x,y,z
-x,-y,-z
loop_
_atom_site_type_symbol
_atom_site_label
_atom_site_fract_x
_atom_site_fract_y
_atom_site_fract_z
Si Si1 0.807432 0.149041 0.405304
Si Si2 0.749874 0.530399 0.700278
Si Si3 0.480111 0.155464 0.724746
Si Si4 0.282453 0.221796 0.210024
Si Si5 0.089300 0.896834 0.911916
Si Si6 0.784622 0.379085 0.079995
Si Si7 0.023784 0.840828 0.086245
Si Si8 0.517073 0.704315 0.060327
O O1 0.547878 0.188249 0.311989
O O2 0.840530 0.169088 0.318270
O O3 0.998790 0.321420 0.349399
O O4 0.839412 0.916318 0.644312
O O5 0.568572 0.649686 0.503455
O O6 0.641923 0.474999 0.788471
O O7 0.781369 0.311198 0.863364
O O8 0.273852 0.098434 0.766441
O O9 0.728763 0.245282 0.756856
O O10 0.494137 0.942708 0.870833
O O11 0.137314 0.149536 0.163188
O O12 0.277584 0.468764 0.010971
O O13 0.015147 0.953254 0.914709
O O14 0.564692 0.314153 0.023302
O O15 0.000000 0.500000 0.000000
O O16 0.788772 0.661379 0.178053
O O17 0.000000 0.000000 0.000000
#
# Coordination Sequence:
#
# PCOD8020841 Si02
#       8
#     2   2   2   2   2   2   2   2
#     4  11  23  39  59  90 127 164 208 248 297 361
#     4  11  22  39  65  89 125 165 207 249 301 364
#     4  10  22  43  64  90 123 161 210 256 302 360
#     4  11  24  39  62  92 125 164 209 249 297 366
#     4  11  21  41  68  90 120 162 205 253 305 366
#     4  12  22  38  63  93 129 167 197 249 305 363
#     4  10  23  43  67  91 122 159 201 260 316 364
#     4  10  23  41  62  92 127 166 203 247 311 361
#
# _framework density 21.939132000000001
#
# number of rings (size 3 to 8) (size 9 to 14) (size 15 to 20)
#    0.000    1.250    3.750    2.250    1.750    2.500 
#    0.000    3.750    0.000    0.000    0.000    0.000 
#    0.000    0.000    0.000    0.000    0.000    0.000 
#
# Total GULP energy -198344.264393 kJ/mol
# GULP energy per Si atom -12396.516525 kJ/mol
# Density = 2.188920 g / cm^3
# Si number density = 21.939132 Si / 1000 Ang^3
#
#
#
# Elastic Constant Matrix: (Units=GPa)
#
#
# Indices 1 2 3 4 5 6 
#
# 1 82.9625 40.6296 21.5302 14.2560 -23.9731 -2.9282
# 2 40.6296 118.8001 35.4044 31.9317 -8.3738 5.6560
# 3 21.5302 35.4044 119.2808 17.6398 -25.7520 -2.9082
# 4 14.2560 31.9317 17.6398 34.5870 -0.1388 -3.9647
# 5 -23.9731 -8.3738 -25.7520 -0.1388 31.1696 10.8178
# 6 -2.9282 5.6560 -2.9082 -3.9647 10.8178 36.3437
#
#
#
# Elastic Compliance Matrix: (Units=1/GPa)
#
#
# Indices 1 2 3 4 5 6 
#
# 1 0.019204 -0.004536 0.002068 -0.005058 0.016271 -0.002976
# 2 -0.004536 0.013336 -0.001796 -0.009941 -0.000180 -0.003616
# 3 0.002068 -0.001796 0.011840 -0.005497 0.011810 -0.002721
# 4 -0.005058 -0.009941 -0.005497 0.044040 -0.014294 0.009759
# 5 0.016271 -0.000180 0.011810 -0.014294 0.060211 -0.017197
# 6 -0.002976 -0.003616 -0.002721 0.009759 -0.017197 0.033804
#
#
# Mechanical properties :
#
#
# Convention : Reuss Voigt Hill
#
# Bulk Modulus (GPa) = 27.89268 57.35242 42.62255
# Shear Modulus (GPa) = 24.64110 35.31866 29.97988
#
# Velocity S-wave (km/s) = 3.35499 4.01664 3.70063
# Velocity P-wave (km/s) = 5.26775 6.90721 6.14243
#
# Compressibility (1/GPa) = 0.03585170
#
# Stress axis : x y z
#
# Youngs Moduli (GPa) = 52.07188 74.98672 84.46163
#
# Poissons Ratio (x) = 0.34014 -0.17469
# Poissons Ratio (y) = 0.23620 0.15171
# Poissons Ratio (z) = -0.10770 0.13469
#
# Static dielectric constant tensor:
#      x y z
#    x 2.404240 1.701780 -1.065180 
#    y 1.701780 3.066900 0.860730 
#    z -1.065180 0.860730 3.816580 
# 
# 
# High freq. dielectric constant tensor:
#      x y z
#    x 1.864390 0.018270 -0.022260 
#    y 0.018270 1.871410 0.018090 
#    z -0.022260 0.018090 1.854140 
# 
# From -- ./inp_files/529455.got.cif
#   From: 2010.06.25/outbox.cif.g09.slc.cpg/sg2_265_cif.got.tgz:529455.got - 2010.06.27 13:26:56.
