data_PCOD8020206
_publ_section_title
;
Structure prediction by ZEFSAII (Michael W. Deem and Ramdas Pophale) SiO2 
 PCOD8020206
Probable space group: P -1
;
_chemical_formula_sum "Si O2"
_cell_formula_units_Z 12
_cell_length_a 8.111252
_cell_length_b 10.230022
_cell_length_c 11.496153
_cell_angle_alpha 64.206973
_cell_angle_beta 35.458784
_cell_angle_gamma 79.770741
_cell_volume 468.834782
_symmetry_space_group_name_H-M "P -1"
_symmetry_group_IT_number 2
_symmetry_cell_setting 'triclinic'
loop_
_space_group_symop_operation_xyz
x,y,z
-x,-y,-z
loop_
_atom_site_type_symbol
_atom_site_label
_atom_site_fract_x
_atom_site_fract_y
_atom_site_fract_z
Si Si1 0.156600 0.593899 0.685133
Si Si2 0.334152 0.095872 0.130608
Si Si3 0.520673 0.558054 0.095388
Si Si4 0.252423 0.377727 0.532793
Si Si5 0.490094 0.932373 0.300281
Si Si6 0.931163 0.980469 0.215323
O O1 0.076166 0.463824 0.680013
O O2 0.407690 0.576416 0.633305
O O3 0.856958 0.573683 0.939884
O O4 0.253727 0.760760 0.503459
O O5 0.523052 0.275890 0.940287
O O6 0.328027 0.043077 0.289555
O O7 0.994968 0.052387 0.283105
O O8 0.500000 0.000000 0.000000
O O9 0.500000 0.500000 0.000000
O O10 0.271640 0.439683 0.365837
O O11 0.079388 0.196101 0.707087
O O12 0.624653 0.994367 0.328505
O O13 0.779796 0.923275 0.064941
#
# Coordination Sequence:
#
# PCOD8020206 Si02
#       6
#     2   2   2   2   2   2
#     4  10  23  44  72  98 138 182 228 288 341 412
#     4  10  22  42  66  94 134 181 222 280 337 403
#     4  12  28  44  64 106 141 180 229 283 344 414
#     4  10  22  45  71 100 136 184 227 281 353 410
#     4   9  19  39  63 100 126 171 230 272 339 403
#     4   9  19  38  70  96 125 178 225 280 335 407
#
# _framework density 25.595369999999999
#
# number of rings (size 3 to 8) (size 9 to 14) (size 15 to 20)
#    0.000    2.000    0.000    2.500    7.000    2.667 
#    3.000    1.667    0.000    0.000    0.000    0.000 
#    0.000    0.000    0.000    0.000    0.000    0.000 
#
# Total GULP energy -148791.377552 kJ/mol
# GULP energy per Si atom -12399.281463 kJ/mol
# Density = 2.553711 g / cm^3
# Si number density = 25.595370 Si / 1000 Ang^3
#
#
#
# Elastic Constant Matrix: (Units=GPa)
#
#
# Indices 1 2 3 4 5 6 
#
# 1 130.1229 16.5013 6.7099 -7.7975 23.3595 4.1500
# 2 16.5013 88.8585 17.6136 -17.4034 15.3649 8.2135
# 3 6.7099 17.6136 76.8391 -19.9198 18.2355 0.9511
# 4 -7.7975 -17.4034 -19.9198 33.5755 -4.4471 -7.5971
# 5 23.3595 15.3649 18.2355 -4.4471 41.1872 -0.0283
# 6 4.1500 8.2135 0.9511 -7.5971 -0.0283 39.9483
#
#
#
# Elastic Compliance Matrix: (Units=1/GPa)
#
#
# Indices 1 2 3 4 5 6 
#
# 1 0.008712 -0.000605 0.000954 0.001498 -0.004977 -0.000522
# 2 -0.000605 0.013382 -0.000668 0.005535 -0.003757 -0.001623
# 3 0.000954 -0.000668 0.017148 0.009462 -0.006861 0.001425
# 4 0.001498 0.005535 0.009462 0.039600 -0.002824 0.006010
# 5 -0.004977 -0.003757 -0.006861 -0.002824 0.031237 0.000938
# 6 -0.000522 -0.001623 0.001425 0.006010 0.000938 0.026530
#
#
# Mechanical properties :
#
#
# Convention : Reuss Voigt Hill
#
# Bulk Modulus (GPa) = 25.90406 41.94114 33.92260
# Shear Modulus (GPa) = 33.30765 39.94190 36.62478
#
# Velocity S-wave (km/s) = 3.61129 3.95462 3.78685
# Velocity P-wave (km/s) = 5.24701 6.10523 5.69232
#
# Compressibility (1/GPa) = 0.03860399
#
# Stress axis : x y z
#
# Youngs Moduli (GPa) = 114.77941 74.72584 58.31670
#
# Poissons Ratio (x) = 0.04519 -0.05562
# Poissons Ratio (y) = 0.06941 0.03897
# Poissons Ratio (z) = -0.10947 0.04993
#
# Static dielectric constant tensor:
#      x y z
#    x 5.936530 0.025410 -0.054900 
#    y 0.025410 4.412410 0.000830 
#    z -0.054900 0.000830 4.520180 
# 
# 
# High freq. dielectric constant tensor:
#      x y z
#    x 2.050320 -0.004370 -0.006000 
#    y -0.004370 2.004930 -0.004280 
#    z -0.006000 -0.004280 2.020220 
# 
# From -- ./inp_files/166932.got.cif
#   From: 2010.06.25/outbox.cif.g09.slc.cpg/sg2_84_cif.got.tgz:166932.got - 2010.06.27 13:26:56.
