data_PCOD8020290
_publ_section_title
;
Structure prediction by ZEFSAII (Michael W. Deem and Ramdas Pophale) SiO2 
 PCOD8020290
Probable space group: P -1
;
_chemical_formula_sum "Si O2"
_cell_formula_units_Z 16
_cell_length_a 16.747327
_cell_length_b 8.487287
_cell_length_c 20.039924
_cell_angle_alpha 132.418762
_cell_angle_beta 20.134092
_cell_angle_gamma 124.232640
_cell_volume 695.198462
_symmetry_space_group_name_H-M "P -1"
_symmetry_group_IT_number 2
_symmetry_cell_setting 'triclinic'
loop_
_space_group_symop_operation_xyz
x,y,z
-x,-y,-z
loop_
_atom_site_type_symbol
_atom_site_label
_atom_site_fract_x
_atom_site_fract_y
_atom_site_fract_z
Si Si1 0.014453 0.840991 0.554224
Si Si2 0.724597 0.628398 0.813090
Si Si3 0.741327 0.242591 0.032523
Si Si4 0.727296 0.726780 0.184933
Si Si5 0.718908 0.291261 0.906730
Si Si6 0.502892 0.068699 0.802993
Si Si7 0.188152 0.965028 0.680632
Si Si8 0.093995 0.310989 0.108368
O O1 0.107607 0.620708 0.372724
O O2 0.228499 0.948462 0.436946
O O3 0.893728 0.779054 0.698868
O O4 0.826833 0.043148 0.719344
O O5 0.544705 0.603370 0.887442
O O6 0.581284 0.728391 0.019820
O O7 0.720983 0.485546 0.147314
O O8 0.521154 0.160807 0.212627
O O9 0.698169 0.255951 0.991510
O O10 0.999385 0.067609 0.799104
O O11 0.834342 0.842664 0.192438
O O12 0.460510 0.874782 0.413887
O O13 0.913180 0.692399 0.967199
O O14 0.890741 0.451892 0.806882
O O15 0.335496 0.121658 0.884799
O O16 0.131815 0.752045 0.699569
#
# Coordination Sequence:
#
# PCOD8020290 Si02
#       8
#     2   2   2   2   2   2   2   2
#     4  11  24  39  66  82 122 173 198 260 306 339
#     4  11  24  45  56  90 128 161 210 253 300 352
#     4  10  23  40  63  92 128 152 203 258 293 361
#     4  10  22  42  67  92 121 160 197 244 312 370
#     4  11  23  42  61  91 123 164 207 250 299 357
#     4  11  23  42  61  91 123 164 207 250 299 357
#     4  10  22  42  67  92 121 160 197 244 312 370
#     4  10  23  40  63  92 128 152 203 258 293 361
#
# _framework density 23.01501
#
# number of rings (size 3 to 8) (size 9 to 14) (size 15 to 20)
#    0.000    1.500    2.500    1.500    3.500    0.500 
#    2.250    0.000    0.000    7.500    0.000    0.000 
#    0.000    0.000    0.000    0.000    0.000    0.000 
#
# Total GULP energy -198373.090323 kJ/mol
# GULP energy per Si atom -12398.318145 kJ/mol
# Density = 2.296263 g / cm^3
# Si number density = 23.015010 Si / 1000 Ang^3
#
#
#
# Elastic Constant Matrix: (Units=GPa)
#
#
# Indices 1 2 3 4 5 6 
#
# 1 72.7429 28.3983 14.5647 -1.8167 1.8907 2.9034
# 2 28.3983 153.3499 25.8007 11.7079 4.1955 5.9243
# 3 14.5647 25.8007 60.6671 1.4402 -5.0121 -0.5697
# 4 -1.8167 11.7079 1.4402 43.5778 2.9307 -3.7130
# 5 1.8907 4.1955 -5.0121 2.9307 19.9944 -0.6160
# 6 2.9034 5.9243 -0.5697 -3.7130 -0.6160 25.2667
#
#
#
# Elastic Compliance Matrix: (Units=1/GPa)
#
#
# Indices 1 2 3 4 5 6 
#
# 1 0.015382 -0.002375 -0.002885 0.001409 -0.001920 -0.001115
# 2 -0.002375 0.007727 -0.002837 -0.002123 -0.001857 -0.001960
# 3 -0.002885 -0.002837 0.018872 -0.000234 0.005680 0.001526
# 4 0.001409 -0.002123 -0.000234 0.024121 -0.003165 0.003798
# 5 -0.001920 -0.001857 0.005680 -0.003165 0.052522 0.001600
# 6 -0.001115 -0.001960 0.001526 0.003798 0.001600 0.040797
#
#
# Mechanical properties :
#
#
# Convention : Reuss Voigt Hill
#
# Bulk Modulus (GPa) = 38.78201 47.14304 42.96252
# Shear Modulus (GPa) = 27.14283 32.30088 29.72186
#
# Velocity S-wave (km/s) = 3.43790 3.75036 3.59752
# Velocity P-wave (km/s) = 5.71368 6.26751 5.99699
#
# Compressibility (1/GPa) = 0.02578515
#
# Stress axis : x y z
#
# Youngs Moduli (GPa) = 65.01313 129.41864 52.98876
#
# Poissons Ratio (x) = 0.30736 0.15289
# Poissons Ratio (y) = 0.15440 0.15035
# Poissons Ratio (z) = 0.18758 0.36721
#
# Static dielectric constant tensor:
#      x y z
#    x 3.808020 -0.051790 -0.104660 
#    y -0.051790 4.614690 0.092630 
#    z -0.104660 0.092630 4.018570 
# 
# 
# High freq. dielectric constant tensor:
#      x y z
#    x 1.888610 -0.003030 -0.004360 
#    y -0.003030 1.936520 0.000280 
#    z -0.004360 0.000280 1.893440 
# 
# From -- ./inp_files/599544.got.cif
#   From: 2010.06.25/outbox.cif.g09.slc.cpg/sg2_300_cif.got.tgz:599544.got - 2010.06.27 13:26:56.
