data_PCOD8020791
_publ_section_title
;
Structure prediction by ZEFSAII (Michael W. Deem and Ramdas Pophale) SiO2 
 PCOD8020791
Probable space group: P -1
;
_chemical_formula_sum "Si O2"
_cell_formula_units_Z 14
_cell_length_a 9.034148
_cell_length_b 13.829086
_cell_length_c 7.333441
_cell_angle_alpha 83.859197
_cell_angle_beta 73.836180
_cell_angle_gamma 48.410494
_cell_volume 654.280379
_symmetry_space_group_name_H-M "P -1"
_symmetry_group_IT_number 2
_symmetry_cell_setting 'triclinic'
loop_
_space_group_symop_operation_xyz
x,y,z
-x,-y,-z
loop_
_atom_site_type_symbol
_atom_site_label
_atom_site_fract_x
_atom_site_fract_y
_atom_site_fract_z
Si Si1 0.871077 0.724171 0.805845
Si Si2 0.025564 0.151852 0.479255
Si Si3 0.710496 0.129710 0.468734
Si Si4 0.726920 0.423585 0.717405
Si Si5 0.299936 0.517267 0.873374
Si Si6 0.650039 0.716810 0.190951
Si Si7 0.703807 0.653014 0.578736
O O1 0.821644 0.660944 0.691482
O O2 0.828407 0.848156 0.709260
O O3 0.114499 0.619287 0.781250
O O4 0.737272 0.767997 0.027478
O O5 0.869945 0.151402 0.415260
O O6 0.908974 0.276843 0.621700
O O7 0.170667 0.021375 0.579015
O O8 0.591355 0.169235 0.697539
O O9 0.544050 0.222064 0.347583
O O10 0.506415 0.473284 0.719257
O O11 0.754229 0.518337 0.603228
O O12 0.739734 0.418346 0.931543
O O13 0.320444 0.392790 0.916119
O O14 0.779255 0.655820 0.349818
#
# Coordination Sequence:
#
# PCOD8020791 Si02
#       7
#     2   2   2   2   2   2   2
#     4  12  25  39  68 102 132 169 216 270 335 379
#     4  11  23  42  70  96 127 178 220 264 325 389
#     4   9  23  46  67  92 132 176 219 265 321 391
#     4  11  22  40  69  98 131 171 220 270 324 385
#     4  11  23  38  65 101 134 167 219 273 323 385
#     4  10  22  43  62  96 137 165 212 275 312 398
#     4  10  23  41  69  94 134 172 210 270 331 376
#
# _framework density 21.397556000000002
#
# number of rings (size 3 to 8) (size 9 to 14) (size 15 to 20)
#    0.857    0.571    2.857    2.143    2.000    4.000 
#    0.000    1.429    0.000    5.143    0.000    0.000 
#    0.000    0.000    0.000    0.000    0.000    0.000 
#
# Total GULP energy -173562.112452 kJ/mol
# GULP energy per Si atom -12397.293747 kJ/mol
# Density = 2.134885 g / cm^3
# Si number density = 21.397556 Si / 1000 Ang^3
#
#
#
# Elastic Constant Matrix: (Units=GPa)
#
#
# Indices 1 2 3 4 5 6 
#
# 1 80.0867 31.0351 25.7923 -2.6577 9.6979 2.1736
# 2 31.0351 133.9749 25.8000 -7.5797 2.8591 3.2603
# 3 25.7923 25.8000 91.6413 -1.4094 -10.2014 17.3925
# 4 -2.6577 -7.5797 -1.4094 16.6487 -1.2436 -4.6219
# 5 9.6979 2.8591 -10.2014 -1.2436 35.0388 -9.7970
# 6 2.1736 3.2603 17.3925 -4.6219 -9.7970 23.3216
#
#
#
# Elastic Compliance Matrix: (Units=1/GPa)
#
#
# Indices 1 2 3 4 5 6 
#
# 1 0.015523 -0.002645 -0.004192 0.000500 -0.005306 -0.000081
# 2 -0.002645 0.008612 -0.001842 0.003646 -0.000067 0.001111
# 3 -0.004192 -0.001842 0.014720 -0.002748 0.002785 -0.009704
# 4 0.000500 0.003646 -0.002748 0.066800 0.005953 0.017232
# 5 -0.005306 -0.000067 0.002785 0.005953 0.035042 0.014327
# 6 -0.000081 0.001111 -0.009704 0.017232 0.014327 0.059401
#
#
# Mechanical properties :
#
#
# Convention : Reuss Voigt Hill
#
# Bulk Modulus (GPa) = 46.51929 52.32865 49.42397
# Shear Modulus (GPa) = 22.25952 29.87353 26.06652
#
# Velocity S-wave (km/s) = 3.22884 3.74052 3.49406
# Velocity P-wave (km/s) = 5.97396 6.56992 6.27902
#
# Compressibility (1/GPa) = 0.02149646
#
# Stress axis : x y z
#
# Youngs Moduli (GPa) = 64.42156 116.11304 67.93424
#
# Poissons Ratio (x) = 0.30713 0.28477
# Poissons Ratio (y) = 0.17040 0.12516
# Poissons Ratio (z) = 0.27004 0.21393
#
# Static dielectric constant tensor:
#      x y z
#    x 4.015770 0.022020 -0.151210 
#    y 0.022020 3.734770 -0.069130 
#    z -0.151210 -0.069130 3.708370 
# 
# 
# High freq. dielectric constant tensor:
#      x y z
#    x 1.850880 0.003440 -0.008530 
#    y 0.003440 1.826450 -0.004170 
#    z -0.008530 -0.004170 1.827910 
# 
# From -- ./inp_files/169393.got.cif
#   From: 2010.06.25/outbox.cif.g09.slc.cpg/sg2_85_cif.got.tgz:169393.got - 2010.06.27 13:26:56.
