data_PCOD8020484
_publ_section_title
;
Structure prediction by ZEFSAII (Michael W. Deem and Ramdas Pophale) SiO2 
 PCOD8020484
Probable space group: P -1
;
_chemical_formula_sum "Si O2"
_cell_formula_units_Z 16
_cell_length_a 24.486843
_cell_length_b 8.942751
_cell_length_c 5.177673
_cell_angle_alpha 90.830821
_cell_angle_beta 71.584637
_cell_angle_gamma 137.424976
_cell_volume 684.491553
_symmetry_space_group_name_H-M "P -1"
_symmetry_group_IT_number 2
_symmetry_cell_setting 'triclinic'
loop_
_space_group_symop_operation_xyz
x,y,z
-x,-y,-z
loop_
_atom_site_type_symbol
_atom_site_label
_atom_site_fract_x
_atom_site_fract_y
_atom_site_fract_z
Si Si1 0.360664 0.937045 0.130988
Si Si2 0.869929 0.517223 0.096349
Si Si3 0.983742 0.796663 0.444446
Si Si4 0.830474 0.933328 0.678628
Si Si5 0.754131 0.035605 0.486485
Si Si6 0.332771 0.397315 0.699474
Si Si7 0.245764 0.468248 0.526394
Si Si8 0.476055 0.120849 0.470887
O O1 0.432680 0.053324 0.253434
O O2 0.306869 0.984017 0.239289
O O3 0.288856 0.656660 0.239954
O O4 0.407005 0.041902 0.787216
O O5 0.938935 0.686612 0.230994
O O6 0.813512 0.252176 0.206776
O O7 0.800624 0.518188 0.189115
O O8 0.920275 0.597849 0.753029
O O9 0.000000 0.000000 0.500000
O O10 0.077828 0.893312 0.289658
O O11 0.831748 0.797202 0.472687
O O12 0.825745 0.082420 0.545234
O O13 0.740219 0.731606 0.971761
O O14 0.684968 0.790367 0.432627
O O15 0.325489 0.529475 0.533075
O O16 0.434016 0.596802 0.663437
O O17 0.500000 0.000000 0.500000
#
# Coordination Sequence:
#
# PCOD8020484 Si02
#       8
#     2   2   2   2   2   2   2   2
#     4  11  26  45  71 102 137 180 228 284 343 408
#     4  11  26  45  71 102 137 180 228 284 343 408
#     4  12  25  44  74 106 136 174 236 289 340 397
#     4  11  25  43  69  97 141 182 229 280 346 409
#     4  10  28  46  66 100 142 188 224 272 352 414
#     4  11  25  43  69  97 141 182 229 280 346 409
#     4  10  22  42  68  98 136 178 226 286 342 410
#     4  12  25  44  74 106 136 174 236 289 340 397
#
# _framework density 23.375014
#
# number of rings (size 3 to 8) (size 9 to 14) (size 15 to 20)
#    0.000    1.000    2.500    2.250   10.500    4.000 
#    0.000    0.000    0.000    0.000    0.000    0.000 
#    0.000    0.000    0.000    0.000    0.000    0.000 
#
# Total GULP energy -198466.780366 kJ/mol
# GULP energy per Si atom -12404.173773 kJ/mol
# Density = 2.332181 g / cm^3
# Si number density = 23.375014 Si / 1000 Ang^3
#
#
#
# Elastic Constant Matrix: (Units=GPa)
#
#
# Indices 1 2 3 4 5 6 
#
# 1 84.9175 49.3994 2.2172 -1.9306 -19.3594 -13.8822
# 2 49.3994 78.4832 -5.2222 -8.1442 -4.6844 -10.2031
# 3 2.2172 -5.2222 80.3344 -17.7007 -6.4550 -9.9101
# 4 -1.9306 -8.1442 -17.7007 30.0234 9.5340 0.8321
# 5 -19.3594 -4.6844 -6.4550 9.5340 20.8117 0.7212
# 6 -13.8822 -10.2031 -9.9101 0.8321 0.7212 44.1127
#
#
#
# Elastic Compliance Matrix: (Units=1/GPa)
#
#
# Indices 1 2 3 4 5 6 
#
# 1 0.028703 -0.017314 -0.002003 -0.013047 0.028007 0.004366
# 2 -0.017314 0.024414 0.003728 0.012512 -0.015223 0.001048
# 3 -0.002003 0.003728 0.015331 0.010155 -0.001043 0.003502
# 4 -0.013047 0.012512 0.010155 0.051255 -0.029671 0.000588
# 5 0.028007 -0.015223 -0.001043 -0.029671 0.083798 0.004248
# 6 0.004366 0.001048 0.003502 0.000588 0.004248 0.024992
#
#
# Mechanical properties :
#
#
# Convention : Reuss Voigt Hill
#
# Bulk Modulus (GPa) = 26.83231 37.39155 32.11193
# Shear Modulus (GPa) = 18.37589 32.14561 25.26075
#
# Velocity S-wave (km/s) = 2.80685 3.71241 3.29093
# Velocity P-wave (km/s) = 4.69132 5.86575 5.31110
#
# Compressibility (1/GPa) = 0.03726850
#
# Stress axis : x y z
#
# Youngs Moduli (GPa) = 34.83970 40.96050 65.22577
#
# Poissons Ratio (x) = 0.70920 0.13067
# Poissons Ratio (y) = 0.60322 -0.24315
# Poissons Ratio (z) = 0.06980 -0.15270
#
# Static dielectric constant tensor:
#      x y z
#    x 4.394480 0.045200 -0.084910 
#    y 0.045200 4.340750 -0.072220 
#    z -0.084910 -0.072220 4.228710 
# 
# 
# High freq. dielectric constant tensor:
#      x y z
#    x 1.933340 -0.000440 -0.002960 
#    y -0.000440 1.932930 -0.003580 
#    z -0.002960 -0.003580 1.920630 
# 
# From -- ./inp_files/39737.got.cif
#   From: 2010.06.25/outbox.cif.g09.slc.cpg/sg2_20_cif.got.tgz:39737.got - 2010.06.27 13:26:56.
