data_PCOD8020010
_publ_section_title
;
Structure prediction by ZEFSAII (Michael W. Deem and Ramdas Pophale) SiO2 
 PCOD8020010
Probable space group: P -1
;
_chemical_formula_sum "Si O2"
_cell_formula_units_Z 16
_cell_length_a 9.398107
_cell_length_b 11.734655
_cell_length_c 17.987412
_cell_angle_alpha 49.389180
_cell_angle_beta 76.515341
_cell_angle_gamma 37.605159
_cell_volume 728.303740
_symmetry_space_group_name_H-M "P -1"
_symmetry_group_IT_number 2
_symmetry_cell_setting 'triclinic'
loop_
_space_group_symop_operation_xyz
x,y,z
-x,-y,-z
loop_
_atom_site_type_symbol
_atom_site_label
_atom_site_fract_x
_atom_site_fract_y
_atom_site_fract_z
Si Si1 0.023173 0.863376 0.894157
Si Si2 0.986221 0.857322 0.482520
Si Si3 0.297281 0.167536 0.525212
Si Si4 0.592300 0.090501 0.956965
Si Si5 0.325743 0.151076 0.693486
Si Si6 0.378284 0.820294 0.923138
Si Si7 0.067829 0.762241 0.677447
Si Si8 0.404018 0.790844 0.332372
O O1 0.111322 0.941689 0.889215
O O2 0.310474 0.540299 0.957377
O O3 0.879245 0.874307 0.964928
O O4 0.789211 0.102877 0.756089
O O5 0.983160 0.783285 0.596258
O O6 0.326314 0.565601 0.537307
O O7 0.816348 0.902421 0.427176
O O8 0.821438 0.163566 0.373059
O O9 0.451756 0.055661 0.633919
O O10 0.027963 0.523341 0.399800
O O11 0.500000 0.000000 0.500000
O O12 0.320393 0.435599 0.819516
O O13 0.684251 0.041384 0.050853
O O14 0.500000 0.000000 0.000000
O O15 0.464810 0.159813 0.723593
O O16 0.409176 0.914721 0.814478
O O17 0.776947 0.023012 0.650465
#
# Coordination Sequence:
#
# PCOD8020010 Si02
#       8
#     2   2   2   2   2   2   2   2
#     4  11  25  44  68  95 134 176 227 276 338 395
#     4  10  23  40  66  96 130 170 221 271 329 399
#     4  10  22  42  64  94 134 171 211 273 334 395
#     4  12  26  43  70  98 135 178 227 279 335 402
#     4  10  24  40  65  98 129 169 223 264 332 402
#     4  11  26  45  67  96 134 180 222 280 337 400
#     4  11  23  40  64  98 128 169 219 274 329 390
#     4  11  21  42  67  94 131 167 219 273 328 396
#
# _framework density 21.968855999999999
#
# number of rings (size 3 to 8) (size 9 to 14) (size 15 to 20)
#    0.000    1.250    2.500    2.250    5.250    3.000 
#    2.250    0.000    0.000    0.000    0.000    0.000 
#    0.000    0.000    0.000    0.000    0.000    0.000 
#
# Total GULP energy -198399.999054 kJ/mol
# GULP energy per Si atom -12399.999941 kJ/mol
# Density = 2.191885 g / cm^3
# Si number density = 21.968856 Si / 1000 Ang^3
#
#
#
# Elastic Constant Matrix: (Units=GPa)
#
#
# Indices 1 2 3 4 5 6 
#
# 1 127.6845 20.2937 35.4112 -2.6538 8.4317 13.0069
# 2 20.2937 125.4237 14.1653 7.8502 9.4209 -2.8375
# 3 35.4112 14.1653 79.6236 -3.4823 -0.8592 7.1188
# 4 -2.6538 7.8502 -3.4823 25.4326 4.5841 -1.2003
# 5 8.4317 9.4209 -0.8592 4.5841 34.3673 3.3020
# 6 13.0069 -2.8375 7.1188 -1.2003 3.3020 33.6478
#
#
#
# Elastic Compliance Matrix: (Units=1/GPa)
#
#
# Indices 1 2 3 4 5 6 
#
# 1 0.009477 -0.001086 -0.003754 0.001042 -0.001998 -0.002728
# 2 -0.001086 0.008637 -0.001322 -0.002538 -0.001943 0.001528
# 3 -0.003754 -0.001322 0.014721 0.001653 0.001611 -0.001874
# 4 0.001042 -0.002538 0.001653 0.041412 -0.005140 0.001015
# 5 -0.001998 -0.001943 0.001611 -0.005140 0.031131 -0.002971
# 6 -0.002728 0.001528 -0.001874 0.001015 -0.002971 0.031627
#
#
# Mechanical properties :
#
#
# Convention : Reuss Voigt Hill
#
# Bulk Modulus (GPa) = 48.75369 52.49688 50.62529
# Shear Modulus (GPa) = 32.01699 36.21366 34.11533
#
# Velocity S-wave (km/s) = 3.82171 4.06446 3.94495
# Velocity P-wave (km/s) = 6.45866 6.78044 6.62151
#
# Compressibility (1/GPa) = 0.02051127
#
# Stress axis : x y z
#
# Youngs Moduli (GPa) = 105.51987 115.77564 67.93081
#
# Poissons Ratio (x) = 0.12576 0.25498
# Poissons Ratio (y) = 0.11462 0.08981
# Poissons Ratio (z) = 0.39608 0.15307
#
# Static dielectric constant tensor:
#      x y z
#    x 4.112450 0.117430 0.073940 
#    y 0.117430 4.141890 0.052530 
#    z 0.073940 0.052530 3.736580 
# 
# 
# High freq. dielectric constant tensor:
#      x y z
#    x 1.872470 0.009060 0.003090 
#    y 0.009060 1.877270 0.004590 
#    z 0.003090 0.004590 1.851110 
# 
# From -- ./inp_files/272489.got.cif
#   From: 2010.06.25/outbox.cif.g09.slc.cpg/sg2_137_cif.got.tgz:272489.got - 2010.06.27 13:26:56.
