data_PCOD8020092
_publ_section_title
;
Structure prediction by ZEFSAII (Michael W. Deem and Ramdas Pophale) SiO2 
 PCOD8020092
Probable space group: P -1
;
_chemical_formula_sum "Si O2"
_cell_formula_units_Z 14
_cell_length_a 11.710717
_cell_length_b 17.489238
_cell_length_c 9.055335
_cell_angle_alpha 133.370515
_cell_angle_beta 140.344215
_cell_angle_gamma 35.447603
_cell_volume 677.492122
_symmetry_space_group_name_H-M "P -1"
_symmetry_group_IT_number 2
_symmetry_cell_setting 'triclinic'
loop_
_space_group_symop_operation_xyz
x,y,z
-x,-y,-z
loop_
_atom_site_type_symbol
_atom_site_label
_atom_site_fract_x
_atom_site_fract_y
_atom_site_fract_z
Si Si1 0.940164 0.635968 0.822121
Si Si2 0.077683 0.779418 0.960181
Si Si3 0.509637 0.250396 0.614354
Si Si4 0.052170 0.993722 0.372420
Si Si5 0.826963 0.263230 0.336064
Si Si6 0.935694 0.643901 0.151423
Si Si7 0.365519 0.333538 0.893072
O O1 0.969133 0.715106 0.834355
O O2 0.153674 0.481621 0.828289
O O3 0.716116 0.650572 0.575076
O O4 0.896521 0.705792 0.031218
O O5 0.050916 0.786043 0.766242
O O6 0.346250 0.691819 0.158140
O O7 0.950557 0.929995 0.096131
O O8 0.452868 0.238402 0.711083
O O9 0.673418 0.101819 0.508358
O O10 0.942463 0.139080 0.396266
O O11 0.000000 0.000000 0.500000
O O12 0.864578 0.364764 0.578903
O O13 0.558786 0.339001 0.160323
O O14 0.709559 0.725052 0.136064
O O15 0.000000 0.500000 0.000000
#
# Coordination Sequence:
#
# PCOD8020092 Si02
#       7
#     2   2   2   2   2   2   2
#     4  11  21  39  61  94 129 162 210 255 315 368
#     4   9  22  39  65  95 121 172 206 255 311 371
#     4   9  22  39  61  93 125 165 209 253 310 371
#     4  10  22  42  65  94 125 164 211 262 312 368
#     4  11  22  43  64  90 129 166 213 256 313 373
#     4  10  24  39  60  94 126 167 209 255 313 367
#     4  10  23  39  65  93 126 170 203 261 312 374
#
# _framework density 20.664446999999999
#
# number of rings (size 3 to 8) (size 9 to 14) (size 15 to 20)
#    0.857    1.143    0.000    2.571    2.000    8.000 
#    2.571    2.857    0.000    0.000    0.000    0.000 
#    0.000    0.000    0.000    0.000    0.000    0.000 
#
# Total GULP energy -173494.681445 kJ/mol
# GULP energy per Si atom -12392.477246 kJ/mol
# Density = 2.061741 g / cm^3
# Si number density = 20.664447 Si / 1000 Ang^3
#
#
#
# Elastic Constant Matrix: (Units=GPa)
#
#
# Indices 1 2 3 4 5 6 
#
# 1 140.3049 37.7275 48.8214 -7.4779 -22.0502 -6.7265
# 2 37.7275 89.1786 39.1590 -5.8231 2.2859 -3.2831
# 3 48.8214 39.1590 147.7528 -12.1907 -6.4677 -8.0039
# 4 -7.4779 -5.8231 -12.1907 22.7566 -2.9511 0.2587
# 5 -22.0502 2.2859 -6.4677 -2.9511 37.6817 0.5797
# 6 -6.7265 -3.2831 -8.0039 0.2587 0.5797 34.1741
#
#
#
# Elastic Compliance Matrix: (Units=1/GPa)
#
#
# Indices 1 2 3 4 5 6 
#
# 1 0.009712 -0.003261 -0.001866 0.002086 0.005708 0.001049
# 2 -0.003261 0.013899 -0.002686 0.000634 -0.003164 0.000113
# 3 -0.001866 -0.002686 0.008476 0.003324 0.000766 0.001322
# 4 0.002086 0.000634 0.003324 0.047268 0.005442 0.000800
# 5 0.005708 -0.003164 0.000766 0.005442 0.030621 0.000438
# 6 0.001049 0.000113 0.001322 0.000800 0.000438 0.029775
#
#
# Mechanical properties :
#
#
# Convention : Reuss Voigt Hill
#
# Bulk Modulus (GPa) = 60.75055 69.85023 65.30039
# Shear Modulus (GPa) = 31.08188 35.69104 33.38646
#
# Velocity S-wave (km/s) = 3.88251 4.16043 4.02387
# Velocity P-wave (km/s) = 7.03995 7.54682 7.29779
#
# Compressibility (1/GPa) = 0.01646076
#
# Stress axis : x y z
#
# Youngs Moduli (GPa) = 102.96558 71.94644 117.97967
#
# Poissons Ratio (x) = 0.23460 0.22017
# Poissons Ratio (y) = 0.33575 0.31693
# Poissons Ratio (z) = 0.19215 0.19327
#
# Static dielectric constant tensor:
#      x y z
#    x 4.340500 -0.148810 -0.178680 
#    y -0.148810 3.290010 -0.038510 
#    z -0.178680 -0.038510 3.841260 
# 
# 
# High freq. dielectric constant tensor:
#      x y z
#    x 1.828420 -0.007990 -0.012830 
#    y -0.007990 1.767750 -0.002110 
#    z -0.012830 -0.002110 1.814900 
# 
# From -- ./inp_files/277032.got.cif
#   From: 2010.06.25/outbox.cif.g09.slc.cpg/sg2_139_cif.got.tgz:277032.got - 2010.06.27 13:26:56.
