data_PCOD8020723
_publ_section_title
;
Structure prediction by ZEFSAII (Michael W. Deem and Ramdas Pophale) SiO2 
 PCOD8020723
Probable space group: P -1
;
_chemical_formula_sum "Si O2"
_cell_formula_units_Z 16
_cell_length_a 9.073828
_cell_length_b 11.966281
_cell_length_c 8.901505
_cell_angle_alpha 128.749609
_cell_angle_beta 112.257045
_cell_angle_gamma 77.037363
_cell_volume 697.511795
_symmetry_space_group_name_H-M "P -1"
_symmetry_group_IT_number 2
_symmetry_cell_setting 'triclinic'
loop_
_space_group_symop_operation_xyz
x,y,z
-x,-y,-z
loop_
_atom_site_type_symbol
_atom_site_label
_atom_site_fract_x
_atom_site_fract_y
_atom_site_fract_z
Si Si1 0.225133 0.044786 0.663252
Si Si2 0.830490 0.611386 0.439477
Si Si3 0.378970 0.872608 0.827367
Si Si4 0.617973 0.689012 0.153966
Si Si5 0.919324 0.167586 0.791181
Si Si6 0.334712 0.612924 0.173344
Si Si7 0.871860 0.280918 0.189207
Si Si8 0.550638 0.638669 0.552892
O O1 0.374060 0.155279 0.790738
O O2 0.089908 0.149393 0.764491
O O3 0.259765 0.916146 0.683584
O O4 0.182707 0.971422 0.423892
O O5 0.739297 0.696422 0.347467
O O6 0.832972 0.442316 0.251520
O O7 0.735207 0.627345 0.572045
O O8 0.999451 0.689856 0.603109
O O9 0.275154 0.809705 0.872779
O O10 0.517173 0.761717 0.758801
O O11 0.500000 0.000000 0.000000
O O12 0.432387 0.658483 0.097618
O O13 0.678469 0.559524 0.962693
O O14 0.837205 0.314390 0.827594
O O15 0.932264 0.181977 0.990346
O O16 0.439907 0.673662 0.398960
O O17 0.500000 0.500000 0.500000
#
# Coordination Sequence:
#
# PCOD8020723 Si02
#       8
#     2   2   2   2   2   2   2   2
#     4  11  28  47  65 102 142 181 227 282 348 419
#     4  10  23  43  72 107 133 183 233 294 341 402
#     4  12  29  46  70 105 143 183 231 286 353 418
#     4  10  23  42  71 100 136 173 236 285 343 401
#     4  11  25  47  69  98 138 188 225 280 351 408
#     4  10  22  42  72  99 132 181 236 288 333 400
#     4  11  25  46  71 100 144 180 235 284 350 412
#     4  11  23  44  71 102 139 184 239 290 335 410
#
# _framework density 22.938676999999998
#
# number of rings (size 3 to 8) (size 9 to 14) (size 15 to 20)
#    0.000    1.250    3.750    0.000    8.750    3.500 
#    0.000    0.000    0.000    0.000    0.000    0.000 
#    0.000    0.000    0.000    0.000    0.000    0.000 
#
# Total GULP energy -198240.990801 kJ/mol
# GULP energy per Si atom -12390.061925 kJ/mol
# Density = 2.288647 g / cm^3
# Si number density = 22.938677 Si / 1000 Ang^3
#
#
#
# Elastic Constant Matrix: (Units=GPa)
#
#
# Indices 1 2 3 4 5 6 
#
# 1 86.2026 7.8102 38.1684 15.1709 -14.8315 -1.4694
# 2 7.8102 65.7129 18.4409 20.6671 -8.6704 5.9574
# 3 38.1684 18.4409 124.4500 21.4398 -15.4273 15.7427
# 4 15.1709 20.6671 21.4398 34.0408 -4.4219 3.1160
# 5 -14.8315 -8.6704 -15.4273 -4.4219 42.0923 8.4603
# 6 -1.4694 5.9574 15.7427 3.1160 8.4603 38.5794
#
#
#
# Elastic Compliance Matrix: (Units=1/GPa)
#
#
# Indices 1 2 3 4 5 6 
#
# 1 0.014478 0.000993 -0.003608 -0.004507 0.003202 0.001532
# 2 0.000993 0.019484 -0.000478 -0.011270 0.003535 -0.002641
# 3 -0.003608 -0.000478 0.010938 -0.004129 0.003189 -0.004893
# 4 -0.004507 -0.011270 -0.004129 0.040651 -0.001199 0.000233
# 5 0.003202 0.003535 0.003189 -0.001199 0.028228 -0.007819
# 6 0.001532 -0.002641 -0.004893 0.000233 -0.007819 0.030079
#
#
# Mechanical properties :
#
#
# Convention : Reuss Voigt Hill
#
# Bulk Modulus (GPa) = 25.82979 45.02271 35.42625
# Shear Modulus (GPa) = 30.68429 37.07225 33.87827
#
# Velocity S-wave (km/s) = 3.66138 4.02449 3.84722
# Velocity P-wave (km/s) = 5.39991 6.42382 5.93399
#
# Compressibility (1/GPa) = 0.03871499
#
# Stress axis : x y z
#
# Youngs Moduli (GPa) = 69.06815 51.32392 91.42172
#
# Poissons Ratio (x) = -0.05096 0.32985
# Poissons Ratio (y) = -0.06857 0.04368
# Poissons Ratio (z) = 0.24920 0.02452
#
# Static dielectric constant tensor:
#      x y z
#    x 4.304520 -0.377300 -0.101900 
#    y -0.377300 4.305330 -0.120160 
#    z -0.101900 -0.120160 4.133170 
# 
# 
# High freq. dielectric constant tensor:
#      x y z
#    x 1.900800 -0.012060 -0.000980 
#    y -0.012060 1.897620 0.003300 
#    z -0.000980 0.003300 1.918980 
# 
# From -- ./inp_files/190923.got.cif
#   From: 2010.06.25/outbox.cif.g09.slc.cpg/sg2_96_cif.got.tgz:190923.got - 2010.06.27 13:26:56.
