data_PCOD8020628
_publ_section_title
;
Structure prediction by ZEFSAII (Michael W. Deem and Ramdas Pophale) SiO2 
 PCOD8020628
Probable space group: P -1
;
_chemical_formula_sum "Si O2"
_cell_formula_units_Z 16
_cell_length_a 11.468090
_cell_length_b 8.279854
_cell_length_c 17.998444
_cell_angle_alpha 58.145477
_cell_angle_beta 44.422621
_cell_angle_gamma 35.588597
_cell_volume 690.231448
_symmetry_space_group_name_H-M "P -1"
_symmetry_group_IT_number 2
_symmetry_cell_setting 'triclinic'
loop_
_space_group_symop_operation_xyz
x,y,z
-x,-y,-z
loop_
_atom_site_type_symbol
_atom_site_label
_atom_site_fract_x
_atom_site_fract_y
_atom_site_fract_z
Si Si1 0.681386 0.574378 0.188637
Si Si2 0.876695 0.040262 0.898122
Si Si3 0.752082 0.963057 0.268770
Si Si4 0.030198 0.498172 0.612536
Si Si5 0.425954 0.279626 0.961757
Si Si6 0.877536 0.792453 0.095292
Si Si7 0.765736 0.455130 0.633745
Si Si8 0.831204 0.041034 0.626791
O O1 0.564777 0.641004 0.144183
O O2 0.768973 0.717905 0.112063
O O3 0.926690 0.247626 0.169048
O O4 0.464843 0.711329 0.314276
O O5 0.609803 0.256177 0.931207
O O6 0.862323 0.993889 0.002773
O O7 0.979970 0.166232 0.817221
O O8 0.710660 0.931909 0.210660
O O9 0.756032 0.784449 0.368514
O O10 0.529266 0.295112 0.304752
O O11 0.844414 0.492939 0.665195
O O12 0.908065 0.753560 0.664164
O O13 0.136524 0.515397 0.489523
O O14 0.156016 0.523338 0.059488
O O15 0.500000 0.000000 0.000000
O O16 0.862445 0.153261 0.658656
O O17 0.000000 0.000000 0.500000
#
# Coordination Sequence:
#
# PCOD8020628 Si02
#       8
#     2   2   2   2   2   2   2   2
#     4  11  21  40  67  91 127 173 220 266 334 391
#     4  11  23  41  62  93 131 175 217 266 331 390
#     4  12  25  40  66  97 134 172 221 273 331 399
#     4  10  24  42  68 101 129 176 226 273 333 397
#     4  11  21  38  64  91 127 169 222 274 318 391
#     4  11  24  39  61  96 130 173 218 273 329 392
#     4  10  22  47  67  92 140 175 216 280 337 392
#     4  10  22  42  70  98 130 171 219 272 332 398
#
# _framework density 23.180631000000002
#
# number of rings (size 3 to 8) (size 9 to 14) (size 15 to 20)
#    0.000    1.250    3.750    2.250    3.500    1.500 
#    0.000    0.000    0.000    8.250    0.000    0.000 
#    0.000    0.000    0.000    0.000    0.000    0.000 
#
# Total GULP energy -198231.135913 kJ/mol
# GULP energy per Si atom -12389.445995 kJ/mol
# Density = 2.312787 g / cm^3
# Si number density = 23.180631 Si / 1000 Ang^3
#
#
#
# Elastic Constant Matrix: (Units=GPa)
#
#
# Indices 1 2 3 4 5 6 
#
# 1 129.0440 44.8560 18.3269 5.2294 -1.8503 7.9225
# 2 44.8560 96.8044 20.7948 5.2351 19.8900 5.1615
# 3 18.3269 20.7948 67.3688 13.0654 -0.1232 -6.1072
# 4 5.2294 5.2351 13.0654 30.3385 -2.2676 -5.4381
# 5 -1.8503 19.8900 -0.1232 -2.2676 28.6187 6.3349
# 6 7.9225 5.1615 -6.1072 -5.4381 6.3349 43.1799
#
#
#
# Elastic Compliance Matrix: (Units=1/GPa)
#
#
# Indices 1 2 3 4 5 6 
#
# 1 0.009928 -0.005167 -0.001226 -0.000320 0.004668 -0.002102
# 2 -0.005167 0.015845 -0.003247 -0.001283 -0.011488 0.000119
# 3 -0.001226 -0.003247 0.017602 -0.006333 0.001283 0.002117
# 4 -0.000320 -0.001283 -0.006333 0.036818 0.002983 0.003516
# 5 0.004668 -0.011488 0.001283 0.002983 0.044684 -0.005482
# 6 -0.002102 0.000119 0.002117 0.003516 -0.005482 0.025077
#
#
# Mechanical properties :
#
#
# Convention : Reuss Voigt Hill
#
# Bulk Modulus (GPa) = 41.50060 51.24138 46.37099
# Shear Modulus (GPa) = 28.20622 34.37672 31.29147
#
# Velocity S-wave (km/s) = 3.49205 3.85514 3.67808
# Velocity P-wave (km/s) = 5.84818 6.47838 6.17133
#
# Compressibility (1/GPa) = 0.02409604
#
# Stress axis : x y z
#
# Youngs Moduli (GPa) = 100.72158 63.11075 56.81178
#
# Poissons Ratio (x) = 0.32608 0.06966
# Poissons Ratio (y) = 0.52040 0.18446
# Poissons Ratio (z) = 0.12350 0.20491
#
# Static dielectric constant tensor:
#      x y z
#    x 4.397550 0.283470 -0.151530 
#    y 0.283470 4.175300 0.249520 
#    z -0.151530 0.249520 4.145720 
# 
# 
# High freq. dielectric constant tensor:
#      x y z
#    x 1.918770 0.019380 -0.017490 
#    y 0.019380 1.904630 0.011990 
#    z -0.017490 0.011990 1.918600 
# 
# From -- ./inp_files/335361.got.cif
#   From: 2010.06.25/outbox.cif.g09.slc.cpg/sg2_168_cif.got.tgz:335361.got - 2010.06.27 13:26:56.
