data_PCOD8020446
_publ_section_title
;
Structure prediction by ZEFSAII (Michael W. Deem and Ramdas Pophale) SiO2 
 PCOD8020446
Probable space group: P -1
;
_chemical_formula_sum "Si O2"
_cell_formula_units_Z 16
_cell_length_a 19.763621
_cell_length_b 11.478830
_cell_length_c 9.219314
_cell_angle_alpha 124.108339
_cell_angle_beta 42.262963
_cell_angle_gamma 147.617962
_cell_volume 741.260797
_symmetry_space_group_name_H-M "P -1"
_symmetry_group_IT_number 2
_symmetry_cell_setting 'triclinic'
loop_
_space_group_symop_operation_xyz
x,y,z
-x,-y,-z
loop_
_atom_site_type_symbol
_atom_site_label
_atom_site_fract_x
_atom_site_fract_y
_atom_site_fract_z
Si Si1 0.110686 0.006418 0.516008
Si Si2 0.356501 0.148311 0.755440
Si Si3 0.427707 0.042760 0.046423
Si Si4 0.856863 0.331213 0.215191
Si Si5 0.061666 0.633699 0.351912
Si Si6 0.622422 0.321369 0.647594
Si Si7 0.379646 0.249696 0.469256
Si Si8 0.793162 0.781686 0.786832
O O1 0.032557 0.768791 0.484689
O O2 0.968803 0.967011 0.708404
O O3 0.223752 0.154312 0.579488
O O4 0.209742 0.131424 0.296971
O O5 0.525710 0.282720 0.640233
O O6 0.343633 0.124979 0.585607
O O7 0.223131 0.902805 0.859375
O O8 0.323525 0.269934 0.950119
O O9 0.445947 0.212105 0.218221
O O10 0.245318 0.803851 0.143916
O O11 0.512582 0.141536 0.824788
O O12 0.500000 0.000000 0.000000
O O13 0.724531 0.309502 0.403044
O O14 0.940626 0.419001 0.296189
O O15 0.000000 0.500000 0.000000
O O16 0.000000 0.500000 0.500000
O O17 0.736246 0.562290 0.699590
O O18 0.500000 0.500000 0.500000
#
# Coordination Sequence:
#
# PCOD8020446 Si02
#       8
#     2   2   2   2   2   2   2   2
#     4  10  22  42  68  95 132 182 231 272 328 415
#     4  12  25  41  66 104 135 173 219 289 338 395
#     4  11  24  43  69  97 130 181 233 275 327 412
#     4  12  25  42  66  99 134 172 223 283 339 389
#     4  11  22  44  68  94 135 182 226 272 329 408
#     4  12  24  45  70  97 135 182 230 273 342 413
#     4  11  23  43  64  96 138 169 220 280 345 391
#     4  11  23  42  72  96 134 180 232 273 337 412
#
# _framework density 21.584844
#
# number of rings (size 3 to 8) (size 9 to 14) (size 15 to 20)
#    0.000    0.750    1.250    8.250    1.750    1.500 
#    2.250    0.000    0.000    0.000    0.000    0.000 
#    0.000    0.000    0.000    0.000    0.000    0.000 
#
# Total GULP energy -198378.805128 kJ/mol
# GULP energy per Si atom -12398.675320 kJ/mol
# Density = 2.153572 g / cm^3
# Si number density = 21.584844 Si / 1000 Ang^3
#
#
#
# Elastic Constant Matrix: (Units=GPa)
#
#
# Indices 1 2 3 4 5 6 
#
# 1 154.6609 23.1452 47.3750 -10.6691 -3.0332 21.0566
# 2 23.1452 98.6546 12.2069 -3.4535 -9.5095 5.5609
# 3 47.3750 12.2069 105.5575 -18.8163 -4.4031 0.3488
# 4 -10.6691 -3.4535 -18.8163 31.5476 -0.3418 3.8473
# 5 -3.0332 -9.5095 -4.4031 -0.3418 33.6355 -4.6303
# 6 21.0566 5.5609 0.3488 3.8473 -4.6303 48.2457
#
#
#
# Elastic Compliance Matrix: (Units=1/GPa)
#
#
# Indices 1 2 3 4 5 6 
#
# 1 0.008244 -0.001333 -0.003368 0.001061 -0.000553 -0.003558
# 2 -0.001333 0.010819 -0.000434 0.000558 0.002828 -0.000435
# 3 -0.003368 -0.000434 0.012148 0.005941 0.001374 0.001090
# 4 0.001061 0.000558 0.005941 0.036081 0.000936 -0.003358
# 5 -0.000553 0.002828 0.001374 0.000936 0.031056 0.002812
# 6 -0.003558 -0.000435 0.001090 -0.003358 0.002812 0.022860
#
#
# Mechanical properties :
#
#
# Convention : Reuss Voigt Hill
#
# Bulk Modulus (GPa) = 47.75225 58.25859 53.00542
# Shear Modulus (GPa) = 36.11191 41.09548 38.60369
#
# Velocity S-wave (km/s) = 4.09470 4.36811 4.23361
# Velocity P-wave (km/s) = 6.67281 7.24497 6.96477
#
# Compressibility (1/GPa) = 0.02094142
#
# Stress axis : x y z
#
# Youngs Moduli (GPa) = 121.30696 92.42624 82.31848
#
# Poissons Ratio (x) = 0.12320 0.27723
# Poissons Ratio (y) = 0.16170 0.03573
# Poissons Ratio (z) = 0.40854 0.04011
#
# Static dielectric constant tensor:
#      x y z
#    x 4.159930 0.087220 0.033550 
#    y 0.087220 3.864570 -0.160930 
#    z 0.033550 -0.160930 3.806230 
# 
# 
# High freq. dielectric constant tensor:
#      x y z
#    x 1.868610 0.004720 0.001370 
#    y 0.004720 1.859930 -0.005280 
#    z 0.001370 -0.005280 1.838120 
# 
# From -- ./inp_files/208422.got.cif
#   From: 2010.06.25/outbox.cif.g09.slc.cpg/sg2_105_cif.got.tgz:208422.got - 2010.06.27 13:26:56.
