data_PCOD8020283
_publ_section_title
;
Structure prediction by ZEFSAII (Michael W. Deem and Ramdas Pophale) SiO2 
 PCOD8020283
Probable space group: P -1
;
_chemical_formula_sum "Si O2"
_cell_formula_units_Z 16
_cell_length_a 12.196282
_cell_length_b 8.636124
_cell_length_c 20.700039
_cell_angle_alpha 72.392954
_cell_angle_beta 159.037099
_cell_angle_gamma 108.368572
_cell_volume 740.073453
_symmetry_space_group_name_H-M "P -1"
_symmetry_group_IT_number 2
_symmetry_cell_setting 'triclinic'
loop_
_space_group_symop_operation_xyz
x,y,z
-x,-y,-z
loop_
_atom_site_type_symbol
_atom_site_label
_atom_site_fract_x
_atom_site_fract_y
_atom_site_fract_z
Si Si1 0.227662 0.926424 0.454106
Si Si2 0.325042 0.350928 0.251336
Si Si3 0.846129 0.935238 0.117294
Si Si4 0.193318 0.461414 0.298272
Si Si5 0.249009 0.826489 0.247583
Si Si6 0.574014 0.346432 0.021896
Si Si7 0.600587 0.811190 0.177334
Si Si8 0.313959 0.709233 0.162459
O O1 0.416777 0.774855 0.599370
O O2 0.121496 0.914662 0.322254
O O3 0.925543 0.919365 0.334239
O O4 0.427253 0.100468 0.551722
O O5 0.224046 0.339109 0.271466
O O6 0.441464 0.539689 0.276827
O O7 0.034472 0.305538 0.051878
O O8 0.984618 0.927368 0.121596
O O9 0.555438 0.805079 0.986860
O O10 0.697680 0.103539 0.021637
O O11 0.500000 0.500000 0.500000
O O12 0.114023 0.640308 0.210246
O O13 0.942981 0.364979 0.218511
O O14 0.305725 0.840115 0.199915
O O15 0.500000 0.500000 0.000000
O O16 0.418214 0.341057 0.864499
O O17 0.560211 0.767881 0.235546
#
# Coordination Sequence:
#
# PCOD8020283 Si02
#       8
#     2   2   2   2   2   2   2   2
#     4  11  24  41  64  99 132 165 214 269 330 375
#     4  10  22  42  67  91 127 172 213 268 313 385
#     4  11  24  43  66  96 134 173 206 266 334 380
#     4  11  23  37  65  97 128 163 210 273 323 376
#     4  11  24  40  64  97 126 171 221 264 310 388
#     4  11  22  40  62  96 127 165 211 260 325 381
#     4  11  25  43  67  91 136 176 204 266 325 385
#     4  10  23  45  66  91 126 176 225 251 321 383
#
# _framework density 21.619477
#
# number of rings (size 3 to 8) (size 9 to 14) (size 15 to 20)
#    0.000    1.250    2.500    3.375    5.250    3.000 
#    0.000    0.000    0.000    0.000    0.000    0.000 
#    0.000    0.000    0.000    0.000    0.000    0.000 
#
# Total GULP energy -198256.934122 kJ/mol
# GULP energy per Si atom -12391.058383 kJ/mol
# Density = 2.157027 g / cm^3
# Si number density = 21.619477 Si / 1000 Ang^3
#
#
#
# Elastic Constant Matrix: (Units=GPa)
#
#
# Indices 1 2 3 4 5 6 
#
# 1 166.4316 37.1431 36.2726 15.1022 15.1902 -12.5569
# 2 37.1431 56.0778 22.6168 15.5276 -2.5592 -9.9902
# 3 36.2726 22.6168 88.7692 11.3183 7.6148 -5.3302
# 4 15.1022 15.5276 11.3183 42.2621 9.3908 3.1280
# 5 15.1902 -2.5592 7.6148 9.3908 33.7035 5.3125
# 6 -12.5569 -9.9902 -5.3302 3.1280 5.3125 34.1582
#
#
#
# Elastic Compliance Matrix: (Units=1/GPa)
#
#
# Indices 1 2 3 4 5 6 
#
# 1 0.007831 -0.004327 -0.001647 -0.000073 -0.003773 0.001950
# 2 -0.004327 0.025931 -0.003967 -0.008731 0.006433 0.005173
# 3 -0.001647 -0.003967 0.013336 -0.001050 -0.002403 0.000785
# 4 -0.000073 -0.008731 -0.001050 0.029238 -0.007878 -0.004197
# 5 -0.003773 0.006433 -0.002403 -0.007878 0.035331 -0.004654
# 6 0.001950 0.005173 0.000785 -0.004197 -0.004654 0.032736
#
#
# Mechanical properties :
#
#
# Convention : Reuss Voigt Hill
#
# Bulk Modulus (GPa) = 36.74297 55.92708 46.33503
# Shear Modulus (GPa) = 28.84206 36.37451 32.60829
#
# Velocity S-wave (km/s) = 3.65647 4.10626 3.88788
# Velocity P-wave (km/s) = 5.90411 6.95750 6.45234
#
# Compressibility (1/GPa) = 0.02721609
#
# Stress axis : x y z
#
# Youngs Moduli (GPa) = 127.69207 38.56386 74.98458
#
# Poissons Ratio (x) = 0.16687 0.12353
# Poissons Ratio (y) = 0.55254 0.29743
# Poissons Ratio (z) = 0.21037 0.15297
#
# Static dielectric constant tensor:
#      x y z
#    x 4.242550 0.201570 0.138990 
#    y 0.201570 4.414800 0.157090 
#    z 0.138990 0.157090 3.816860 
# 
# 
# High freq. dielectric constant tensor:
#      x y z
#    x 1.856190 -0.006190 0.015270 
#    y -0.006190 1.854390 0.013220 
#    z 0.015270 0.013220 1.833680 
# 
# From -- ./inp_files/390382.got.cif
#   From: 2010.06.25/outbox.cif.g09.slc.cpg/sg2_196_cif.got.tgz:390382.got - 2010.06.27 13:26:56.
