data_PCOD8020813
_publ_section_title
;
Structure prediction by ZEFSAII (Michael W. Deem and Ramdas Pophale) SiO2 
 PCOD8020813
Probable space group: P -1
;
_chemical_formula_sum "Si O2"
_cell_formula_units_Z 14
_cell_length_a 13.618658
_cell_length_b 7.495010
_cell_length_c 10.052078
_cell_angle_alpha 72.532858
_cell_angle_beta 109.343963
_cell_angle_gamma 58.413198
_cell_volume 666.271945
_symmetry_space_group_name_H-M "P -1"
_symmetry_group_IT_number 2
_symmetry_cell_setting 'triclinic'
loop_
_space_group_symop_operation_xyz
x,y,z
-x,-y,-z
loop_
_atom_site_type_symbol
_atom_site_label
_atom_site_fract_x
_atom_site_fract_y
_atom_site_fract_z
Si Si1 0.871288 0.646237 0.804820
Si Si2 0.317019 0.716774 0.738746
Si Si3 0.615773 0.530353 0.896219
Si Si4 0.837866 0.259224 0.843813
Si Si5 0.130851 0.305724 0.503702
Si Si6 0.569764 0.988139 0.669956
Si Si7 0.290603 0.497333 0.531651
O O1 0.821183 0.498389 0.800075
O O2 0.920805 0.663540 0.679696
O O3 0.718646 0.923101 0.726192
O O4 0.000000 0.500000 0.000000
O O5 0.467356 0.611885 0.778487
O O6 0.257392 0.647950 0.617982
O O7 0.209673 0.020929 0.651029
O O8 0.330178 0.580802 0.907836
O O9 0.731330 0.300515 0.894967
O O10 0.597472 0.776674 0.825746
O O11 0.789810 0.276858 0.667374
O O12 0.000000 0.000000 0.000000
O O13 0.233772 0.356358 0.547813
O O14 0.000000 0.500000 0.500000
O O15 0.500000 0.000000 0.500000
O O16 0.460982 0.269339 0.627797
#
# Coordination Sequence:
#
# PCOD8020813 Si02
#       7
#     2   2   2   2   2   2   2
#     4  10  23  40  66  97 125 173 217 272 329 383
#     4  11  25  42  66  98 129 169 222 265 329 398
#     4  10  22  43  63  93 134 167 214 278 320 390
#     4  10  23  40  64  92 134 167 218 275 322 380
#     4  11  25  45  64  91 139 170 214 271 331 390
#     4  11  18  45  71  90 133 171 221 275 322 387
#     4  11  24  43  71  96 121 183 220 268 328 389
#
# _framework density 21.012440000000002
#
# number of rings (size 3 to 8) (size 9 to 14) (size 15 to 20)
#    0.000    1.429    5.714    0.000    6.000    5.143 
#    2.571    0.000    0.000    0.000    0.000    0.000 
#    0.000    0.000    0.000    0.000    0.000    0.000 
#
# Total GULP energy -173578.605629 kJ/mol
# GULP energy per Si atom -12398.471831 kJ/mol
# Density = 2.096462 g / cm^3
# Si number density = 21.012440 Si / 1000 Ang^3
#
#
#
# Elastic Constant Matrix: (Units=GPa)
#
#
# Indices 1 2 3 4 5 6 
#
# 1 65.4307 39.7150 49.0684 -1.6928 -3.1829 -23.0894
# 2 39.7150 118.1692 58.8389 -11.8039 -0.3587 -21.7796
# 3 49.0684 58.8389 142.8018 -8.9332 4.1822 -16.9641
# 4 -1.6928 -11.8039 -8.9332 34.9760 -0.7947 9.4341
# 5 -3.1829 -0.3587 4.1822 -0.7947 33.2120 -0.9296
# 6 -23.0894 -21.7796 -16.9641 9.4341 -0.9296 36.6144
#
#
#
# Elastic Compliance Matrix: (Units=1/GPa)
#
#
# Indices 1 2 3 4 5 6 
#
# 1 0.027395 -0.003965 -0.006635 -0.005205 0.003665 0.013277
# 2 -0.003965 0.012094 -0.003169 0.002380 0.000280 0.002619
# 3 -0.006635 -0.003169 0.010556 0.001710 -0.002005 -0.001670
# 4 -0.005205 0.002380 0.001710 0.032097 -0.000182 -0.009349
# 5 0.003665 0.000280 -0.002005 -0.000182 0.030779 0.002377
# 6 0.013277 0.002619 -0.001670 -0.009349 0.002377 0.038938
#
#
# Mechanical properties :
#
#
# Convention : Reuss Voigt Hill
#
# Bulk Modulus (GPa) = 44.43166 69.07184 56.75175
# Shear Modulus (GPa) = 26.75257 32.87909 29.81583
#
# Velocity S-wave (km/s) = 3.57203 3.95998 3.77100
# Velocity P-wave (km/s) = 6.18093 7.33838 6.78438
#
# Compressibility (1/GPa) = 0.02250647
#
# Stress axis : x y z
#
# Youngs Moduli (GPa) = 36.50338 82.68379 94.73583
#
# Poissons Ratio (x) = 0.32784 0.62859
# Poissons Ratio (y) = 0.14473 0.30021
# Poissons Ratio (z) = 0.24221 0.26202
#
# Static dielectric constant tensor:
#      x y z
#    x 3.878450 -0.302330 -0.220370 
#    y -0.302330 3.888590 0.186180 
#    z -0.220370 0.186180 3.707700 
# 
# 
# High freq. dielectric constant tensor:
#      x y z
#    x 1.817930 -0.015990 -0.006790 
#    y -0.015990 1.822210 -0.007580 
#    z -0.006790 -0.007580 1.833000 
# 
# From -- ./inp_files/294888.got.cif
#   From: 2010.06.25/outbox.cif.g09.slc.cpg/sg2_148_cif.got.tgz:294888.got - 2010.06.27 13:26:56.
