data_PCOD8020382
_publ_section_title
;
Structure prediction by ZEFSAII (Michael W. Deem and Ramdas Pophale) SiO2 
 PCOD8020382
Probable space group: P -1
;
_chemical_formula_sum "Si O2"
_cell_formula_units_Z 12
_cell_length_a 13.224202
_cell_length_b 16.876749
_cell_length_c 8.344070
_cell_angle_alpha 102.635305
_cell_angle_beta 73.637480
_cell_angle_gamma 163.191655
_cell_volume 507.915950
_symmetry_space_group_name_H-M "P -1"
_symmetry_group_IT_number 2
_symmetry_cell_setting 'triclinic'
loop_
_space_group_symop_operation_xyz
x,y,z
-x,-y,-z
loop_
_atom_site_type_symbol
_atom_site_label
_atom_site_fract_x
_atom_site_fract_y
_atom_site_fract_z
Si Si1 0.016474 0.544742 0.755589
Si Si2 0.888616 0.300068 0.528174
Si Si3 0.009814 0.938265 0.337064
Si Si4 0.370652 0.316595 0.914345
Si Si5 0.260341 0.520852 0.952547
Si Si6 0.866591 0.149165 0.689121
O O1 0.885278 0.496353 0.630623
O O2 0.852681 0.334475 0.712923
O O3 0.442589 0.846581 0.716690
O O4 0.856849 0.473298 0.950107
O O5 0.060091 0.344309 0.546936
O O6 0.500000 0.000000 0.500000
O O7 0.379771 0.211894 0.194381
O O8 0.982869 0.830979 0.387717
O O9 0.000000 0.000000 0.500000
O O10 0.669036 0.702054 0.267217
O O11 0.500000 0.500000 0.000000
O O12 0.686709 0.488664 0.907515
O O13 0.000000 0.000000 0.000000
O O14 0.952798 0.247458 0.870166
#
# Coordination Sequence:
#
# PCOD8020382 Si02
#       6
#     2   2   2   2   2   2
#     4  10  22  42  67  99 137 172 221 276 356 418
#     4   9  21  40  62  94 133 175 216 273 339 417
#     4  11  26  45  68  99 135 183 237 293 349 414
#     4  10  22  47  68  98 138 186 240 290 356 419
#     4  11  24  42  69  97 134 181 226 287 350 422
#     4  11  22  41  67  99 134 171 227 279 352 421
#
# _framework density 23.625955999999999
#
# number of rings (size 3 to 8) (size 9 to 14) (size 15 to 20)
#    0.000    1.667    1.667    1.500    0.000   11.333 
#    6.000    0.000    0.000    0.000    0.000    0.000 
#    0.000    0.000    0.000    0.000    0.000    0.000 
#
# Total GULP energy -148671.156106 kJ/mol
# GULP energy per Si atom -12389.263009 kJ/mol
# Density = 2.357218 g / cm^3
# Si number density = 23.625956 Si / 1000 Ang^3
#
#
#
# Elastic Constant Matrix: (Units=GPa)
#
#
# Indices 1 2 3 4 5 6 
#
# 1 175.5297 36.3160 61.4655 24.7668 17.4780 -16.4538
# 2 36.3160 80.4028 38.0756 37.5697 -2.6350 -12.8703
# 3 61.4655 38.0756 124.9851 37.4564 -12.9955 -3.2885
# 4 24.7668 37.5697 37.4564 46.4506 -0.4705 -0.7821
# 5 17.4780 -2.6350 -12.9955 -0.4705 46.2553 14.4135
# 6 -16.4538 -12.8703 -3.2885 -0.7821 14.4135 37.6387
#
#
#
# Elastic Compliance Matrix: (Units=1/GPa)
#
#
# Indices 1 2 3 4 5 6 
#
# 1 0.008589 -0.001084 -0.004347 -0.000170 -0.006206 0.005377
# 2 -0.001084 0.022233 -0.001293 -0.016253 -0.001059 0.007083
# 3 -0.004347 -0.001293 0.013307 -0.007366 0.006413 -0.003788
# 4 -0.000170 -0.016253 -0.007366 0.040610 -0.000937 -0.005073
# 5 -0.006206 -0.001059 0.006413 -0.000937 0.030074 -0.014051
# 6 0.005377 0.007083 -0.003788 -0.005073 -0.014051 0.036286
#
#
# Mechanical properties :
#
#
# Convention : Reuss Voigt Hill
#
# Bulk Modulus (GPa) = 32.59235 72.51466 52.55351
# Shear Modulus (GPa) = 28.60833 42.40627 35.50730
#
# Velocity S-wave (km/s) = 3.48355 4.24122 3.88092
# Velocity P-wave (km/s) = 5.47771 7.39888 6.50956
#
# Compressibility (1/GPa) = 0.03068204
#
# Stress axis : x y z
#
# Youngs Moduli (GPa) = 116.42174 44.97784 75.14837
#
# Poissons Ratio (x) = 0.04878 0.32664
# Poissons Ratio (y) = 0.12625 0.09715
# Poissons Ratio (z) = 0.50604 0.05814
#
# Static dielectric constant tensor:
#      x y z
#    x 5.517180 -0.208490 0.660420 
#    y -0.208490 4.200970 0.426270 
#    z 0.660420 0.426270 4.493220 
# 
# 
# High freq. dielectric constant tensor:
#      x y z
#    x 1.961930 -0.007040 0.018820 
#    y -0.007040 1.925640 0.037760 
#    z 0.018820 0.037760 1.925320 
# 
# From -- ./inp_files/21788.got.cif
#   From: 2010.06.25/outbox.cif.g09.slc.cpg/sg2_11_cif.got.tgz:21788.got - 2010.06.27 13:26:56.
