data_PCOD8020695
_publ_section_title
;
Structure prediction by ZEFSAII (Michael W. Deem and Ramdas Pophale) SiO2 
 PCOD8020695
Probable space group: P -1
;
_chemical_formula_sum "Si O2"
_cell_formula_units_Z 16
_cell_length_a 12.811458
_cell_length_b 31.068815
_cell_length_c 9.044675
_cell_angle_alpha 30.498058
_cell_angle_beta 47.748480
_cell_angle_gamma 27.815817
_cell_volume 789.054263
_symmetry_space_group_name_H-M "P -1"
_symmetry_group_IT_number 2
_symmetry_cell_setting 'triclinic'
loop_
_space_group_symop_operation_xyz
x,y,z
-x,-y,-z
loop_
_atom_site_type_symbol
_atom_site_label
_atom_site_fract_x
_atom_site_fract_y
_atom_site_fract_z
Si Si1 0.019288 0.575544 0.346401
Si Si2 0.296037 0.560297 0.916140
Si Si3 0.851192 0.874410 0.281808
Si Si4 0.972418 0.912400 0.762027
Si Si5 0.481550 0.127249 0.427436
Si Si6 0.785606 0.580466 0.071686
Si Si7 0.488943 0.103586 0.165626
Si Si8 0.525936 0.400977 0.859126
O O1 0.129882 0.510589 0.594672
O O2 0.000000 0.500000 0.500000
O O3 0.196054 0.537819 0.182854
O O4 0.764915 0.746728 0.107586
O O5 0.405734 0.467718 0.936329
O O6 0.079882 0.730136 0.583128
O O7 0.500000 0.500000 0.000000
O O8 0.671554 0.885240 0.373423
O O9 0.702957 0.015318 0.105369
O O10 0.959219 0.873453 0.047055
O O11 0.740267 0.995281 0.647538
O O12 0.000000 0.000000 0.500000
O O13 0.196720 0.762952 0.901271
O O14 0.524230 0.135110 0.193462
O O15 0.332325 0.272839 0.215361
O O16 0.598686 0.612819 0.070867
O O17 0.000000 0.500000 0.000000
O O18 0.500000 0.000000 0.500000
O O19 0.500000 0.500000 0.500000
#
# Coordination Sequence:
#
# PCOD8020695 Si02
#       8
#     2   2   2   2   2   2   2   2
#     4  12  23  43  71 103 139 180 230 290 346 408
#     4  12  26  45  70 102 140 181 233 289 350 417
#     4  11  24  46  69 103 138 184 238 283 347 421
#     4  12  27  45  70 102 144 182 232 288 356 413
#     4  11  23  47  68 102 139 184 231 294 343 415
#     4  12  26  43  72 104 144 181 237 292 347 413
#     4  10  22  42  72 100 136 175 239 282 340 413
#     4  12  26  47  69 101 142 187 233 287 354 418
#
# _framework density 20.277439999999999
#
# number of rings (size 3 to 8) (size 9 to 14) (size 15 to 20)
#    0.000    0.500    6.250    2.625    3.500    3.000 
#    0.000    0.625    0.000    0.000    0.000    0.000 
#    0.000    0.000    0.000    0.000    0.000    0.000 
#
# Total GULP energy -198373.122713 kJ/mol
# GULP energy per Si atom -12398.320170 kJ/mol
# Density = 2.023129 g / cm^3
# Si number density = 20.277440 Si / 1000 Ang^3
#
#
#
# Elastic Constant Matrix: (Units=GPa)
#
#
# Indices 1 2 3 4 5 6 
#
# 1 121.4223 55.8273 51.6890 -5.7079 8.9055 -2.9962
# 2 55.8273 171.7478 72.6785 -8.5508 4.4522 13.1514
# 3 51.6890 72.6785 115.3989 -3.8160 8.5242 -10.3288
# 4 -5.7079 -8.5508 -3.8160 50.9685 2.5801 3.0348
# 5 8.9055 4.4522 8.5242 2.5801 39.3719 -3.6375
# 6 -2.9962 13.1514 -10.3288 3.0348 -3.6375 41.9367
#
#
#
# Elastic Compliance Matrix: (Units=1/GPa)
#
#
# Indices 1 2 3 4 5 6 
#
# 1 0.010753 -0.002027 -0.003373 0.000663 -0.001479 0.000397
# 2 -0.002027 0.009045 -0.005143 0.001159 0.000074 -0.004325
# 3 -0.003373 -0.005143 0.013913 -0.000419 -0.001204 0.004724
# 4 0.000663 0.001159 -0.000419 0.020063 -0.001691 -0.002018
# 5 -0.001479 0.000074 -0.001204 -0.001691 0.026279 0.001977
# 6 0.000397 -0.004325 0.004724 -0.002018 0.001977 0.026711
#
#
# Mechanical properties :
#
#
# Convention : Reuss Voigt Hill
#
# Bulk Modulus (GPa) = 79.20538 85.43986 82.32262
# Shear Modulus (GPa) = 37.86202 41.68038 39.77120
#
# Velocity S-wave (km/s) = 4.32580 4.53869 4.43352
# Velocity P-wave (km/s) = 8.00598 8.34824 8.17890
#
# Compressibility (1/GPa) = 0.01262540
#
# Stress axis : x y z
#
# Youngs Moduli (GPa) = 92.99664 110.56357 71.87383
#
# Poissons Ratio (x) = 0.22410 0.24244
# Poissons Ratio (y) = 0.18850 0.36962
# Poissons Ratio (z) = 0.31370 0.56859
#
# Static dielectric constant tensor:
#      x y z
#    x 3.646390 0.359840 -0.110240 
#    y 0.359840 4.227630 -0.003010 
#    z -0.110240 -0.003010 3.569860 
# 
# 
# High freq. dielectric constant tensor:
#      x y z
#    x 1.796670 0.006780 0.006030 
#    y 0.006780 1.815740 -0.007530 
#    z 0.006030 -0.007530 1.803430 
# 
# From -- ./inp_files/184311.got.cif
#   From: 2010.06.25/outbox.cif.g09.slc.cpg/sg2_93_cif.got.tgz:184311.got - 2010.06.27 13:26:56.
