data_PCOD8020235
_publ_section_title
;
Structure prediction by ZEFSAII (Michael W. Deem and Ramdas Pophale) SiO2 
 PCOD8020235
Probable space group: P -1
;
_chemical_formula_sum "Si O2"
_cell_formula_units_Z 12
_cell_length_a 5.167763
_cell_length_b 13.600597
_cell_length_c 11.765260
_cell_angle_alpha 126.188067
_cell_angle_beta 68.534058
_cell_angle_gamma 124.009508
_cell_volume 552.442286
_symmetry_space_group_name_H-M "P -1"
_symmetry_group_IT_number 2
_symmetry_cell_setting 'triclinic'
loop_
_space_group_symop_operation_xyz
x,y,z
-x,-y,-z
loop_
_atom_site_type_symbol
_atom_site_label
_atom_site_fract_x
_atom_site_fract_y
_atom_site_fract_z
Si Si1 0.625711 0.086601 0.698057
Si Si2 0.841225 0.521174 0.428943
Si Si3 0.719819 0.934299 0.776935
Si Si4 0.253761 0.731170 0.870258
Si Si5 0.763535 0.825974 0.047531
Si Si6 0.914164 0.182766 0.492138
O O1 0.444813 0.178856 0.811104
O O2 0.910030 0.167980 0.620448
O O3 0.738306 0.061355 0.785610
O O4 0.410859 0.934944 0.581485
O O5 0.500000 0.500000 0.500000
O O6 0.831068 0.419108 0.262142
O O7 0.000000 0.500000 0.500000
O O8 0.056929 0.671682 0.448312
O O9 0.379928 0.842084 0.822486
O O10 0.797302 0.832745 0.618373
O O11 0.974753 0.012538 0.889190
O O12 0.540127 0.775510 0.940837
O O13 0.938800 0.730816 0.968911
#
# Coordination Sequence:
#
# PCOD8020235 Si02
#       6
#     2   2   2   2   2   2
#     4  10  22  42  66  98 132 170 216 268 319 385
#     4  12  25  46  67  96 131 168 217 266 322 385
#     4  11  21  38  69  93 134 161 221 268 322 372
#     4  12  24  39  66  95 131 167 213 264 324 379
#     4  11  24  40  62  97 130 170 211 262 324 379
#     4  10  23  41  67  99 127 174 216 270 319 377
#
# _framework density 21.721726
#
# number of rings (size 3 to 8) (size 9 to 14) (size 15 to 20)
#    0.000    1.000    3.333    3.500    4.667    0.000 
#    0.000    1.667    0.000    0.000    0.000    0.000 
#    0.000    0.000    0.000    0.000    0.000    0.000 
#
# Total GULP energy -148740.790359 kJ/mol
# GULP energy per Si atom -12395.065863 kJ/mol
# Density = 2.167229 g / cm^3
# Si number density = 21.721726 Si / 1000 Ang^3
#
#
#
# Elastic Constant Matrix: (Units=GPa)
#
#
# Indices 1 2 3 4 5 6 
#
# 1 115.6630 30.4827 54.1317 5.5226 -3.5258 -11.1399
# 2 30.4827 96.4085 46.3548 8.4189 6.8688 -4.9112
# 3 54.1317 46.3548 157.1899 22.4439 -14.6872 3.8843
# 4 5.5226 8.4189 22.4439 24.0523 -9.5847 -2.9819
# 5 -3.5258 6.8688 -14.6872 -9.5847 34.5698 -1.4456
# 6 -11.1399 -4.9112 3.8843 -2.9819 -1.4456 19.5789
#
#
#
# Elastic Compliance Matrix: (Units=1/GPa)
#
#
# Indices 1 2 3 4 5 6 
#
# 1 0.011573 -0.001676 -0.004013 0.002980 0.000948 0.007484
# 2 -0.001676 0.013275 -0.003469 -0.002709 -0.004938 0.002287
# 3 -0.004013 -0.003469 0.010159 -0.007160 0.002357 -0.006085
# 4 0.002980 -0.002709 -0.007160 0.055443 0.013669 0.011890
# 5 0.000948 -0.004938 0.002357 0.013669 0.034942 0.003495
# 6 0.007484 0.002287 -0.006085 0.011890 0.003495 0.059184
#
#
# Mechanical properties :
#
#
# Convention : Reuss Voigt Hill
#
# Bulk Modulus (GPa) = 59.90825 70.13331 65.02078
# Shear Modulus (GPa) = 23.98590 31.52635 27.75613
#
# Velocity S-wave (km/s) = 3.32661 3.81382 3.57852
# Velocity P-wave (km/s) = 6.51113 7.19381 6.86097
#
# Compressibility (1/GPa) = 0.01669219
#
# Stress axis : x y z
#
# Youngs Moduli (GPa) = 86.40698 75.32854 98.43021
#
# Poissons Ratio (x) = 0.12626 0.39500
# Poissons Ratio (y) = 0.14483 0.34142
# Poissons Ratio (z) = 0.34675 0.26129
#
# Static dielectric constant tensor:
#      x y z
#    x 3.861300 -0.012260 -0.050600 
#    y -0.012260 3.689550 -0.084510 
#    z -0.050600 -0.084510 4.300650 
# 
# 
# High freq. dielectric constant tensor:
#      x y z
#    x 1.855850 -0.000630 -0.005450 
#    y -0.000630 1.812120 -0.003970 
#    z -0.005450 -0.003970 1.878140 
# 
# From -- ./inp_files/61762.got.cif
#   From: 2010.06.25/outbox.cif.g09.slc.cpg/sg2_31_cif.got.tgz:61762.got - 2010.06.27 13:26:56.
