data_PCOD8020882
_publ_section_title
;
Structure prediction by ZEFSAII (Michael W. Deem and Ramdas Pophale) SiO2 
 PCOD8020882
Probable space group: P -1
;
_chemical_formula_sum "Si O2"
_cell_formula_units_Z 14
_cell_length_a 9.129013
_cell_length_b 18.358169
_cell_length_c 5.224320
_cell_angle_alpha 66.219230
_cell_angle_beta 78.983296
_cell_angle_gamma 45.737375
_cell_volume 568.310268
_symmetry_space_group_name_H-M "P -1"
_symmetry_group_IT_number 2
_symmetry_cell_setting 'triclinic'
loop_
_space_group_symop_operation_xyz
x,y,z
-x,-y,-z
loop_
_atom_site_type_symbol
_atom_site_label
_atom_site_fract_x
_atom_site_fract_y
_atom_site_fract_z
Si Si1 0.517844 0.597547 0.621138
Si Si2 0.264216 0.537811 0.758099
Si Si3 0.842629 0.711603 0.887849
Si Si4 0.533621 0.901065 0.359839
Si Si5 0.912346 0.074409 0.172032
Si Si6 0.491603 0.775598 0.171537
Si Si7 0.164095 0.131386 0.058425
O O1 0.324030 0.609051 0.648134
O O2 0.686121 0.514444 0.464131
O O3 0.440687 0.715977 0.441261
O O4 0.617986 0.554270 0.929734
O O5 0.018394 0.616172 0.772676
O O6 0.631689 0.818819 0.677295
O O7 0.935002 0.751131 0.962549
O O8 0.736999 0.681643 0.140603
O O9 0.452387 0.868720 0.220220
O O10 0.332604 0.026076 0.339491
O O11 0.710966 0.894491 0.204058
O O12 0.972739 0.145023 0.047615
O O13 0.663378 0.164304 0.106794
O O14 0.000000 0.000000 0.500000
O O15 0.000000 0.000000 0.000000
#
# Coordination Sequence:
#
# PCOD8020882 Si02
#       7
#     2   2   2   2   2   2   2
#     4  10  25  47  73 104 136 185 233 304 353 424
#     4  10  25  47  73 100 142 180 242 289 365 427
#     4  11  25  42  71 103 140 194 232 295 355 428
#     4  10  22  43  65 101 144 185 237 281 353 423
#     4  12  27  44  69 104 143 188 238 291 342 415
#     4  11  26  43  71 107 145 184 241 297 356 416
#     4  10  23  41  68  96 144 190 234 283 347 422
#
# _framework density 24.634430999999999
#
# number of rings (size 3 to 8) (size 9 to 14) (size 15 to 20)
#    0.000    1.429    1.429    1.286   10.000    3.429 
#    0.000    0.000    0.000    0.000    0.000    0.000 
#    0.000    0.000    0.000    0.000    0.000    0.000 
#
# Total GULP energy -173581.483530 kJ/mol
# GULP energy per Si atom -12398.677395 kJ/mol
# Density = 2.457836 g / cm^3
# Si number density = 24.634431 Si / 1000 Ang^3
#
#
#
# Elastic Constant Matrix: (Units=GPa)
#
#
# Indices 1 2 3 4 5 6 
#
# 1 130.6719 14.8956 30.9291 -3.7878 -23.3407 3.5704
# 2 14.8956 50.2925 9.5366 4.6334 -12.2723 -13.8106
# 3 30.9291 9.5366 97.3320 -5.6484 -10.3994 10.6301
# 4 -3.7878 4.6334 -5.6484 38.2792 6.0979 -6.1996
# 5 -23.3407 -12.2723 -10.3994 6.0979 30.1625 1.5945
# 6 3.5704 -13.8106 10.6301 -6.1996 1.5945 28.0292
#
#
#
# Elastic Compliance Matrix: (Units=1/GPa)
#
#
# Indices 1 2 3 4 5 6 
#
# 1 0.009428 -0.001240 -0.002071 -0.000458 0.006248 -0.001483
# 2 -0.001240 0.026928 -0.002930 -0.003070 0.008902 0.013352
# 3 -0.002071 -0.002930 0.012043 0.000771 0.001501 -0.005662
# 4 -0.000458 -0.003070 0.000771 0.028546 -0.007373 0.004987
# 5 0.006248 0.008902 0.001501 -0.007373 0.043676 -0.001094
# 6 -0.001483 0.013352 -0.005662 0.004987 -0.001094 0.045757
#
#
# Mechanical properties :
#
#
# Convention : Reuss Voigt Hill
#
# Bulk Modulus (GPa) = 27.84251 43.22432 35.53342
# Shear Modulus (GPa) = 26.20113 34.15651 30.17882
#
# Velocity S-wave (km/s) = 3.26482 3.72766 3.50389
# Velocity P-wave (km/s) = 5.05360 6.00930 5.55205
#
# Compressibility (1/GPa) = 0.03591630
#
# Stress axis : x y z
#
# Youngs Moduli (GPa) = 106.07163 37.13625 83.03716
#
# Poissons Ratio (x) = 0.04605 0.17200
# Poissons Ratio (y) = 0.13152 0.24327
# Poissons Ratio (z) = 0.21972 0.10880
#
# Static dielectric constant tensor:
#      x y z
#    x 4.588470 0.042530 -0.252280 
#    y 0.042530 4.152830 0.037650 
#    z -0.252280 0.037650 4.494130 
# 
# 
# High freq. dielectric constant tensor:
#      x y z
#    x 1.991410 0.001740 -0.015590 
#    y 0.001740 1.959170 0.004090 
#    z -0.015590 0.004090 1.982740 
# 
# From -- ./inp_files/40162.got.cif
#   From: 2010.06.25/outbox.cif.g09.slc.cpg/sg2_21_cif.got.tgz:40162.got - 2010.06.27 13:26:56.
