data_PCOD8020861
_publ_section_title
;
Structure prediction by ZEFSAII (Michael W. Deem and Ramdas Pophale) SiO2 
 PCOD8020861
Probable space group: P -1
;
_chemical_formula_sum "Si O2"
_cell_formula_units_Z 16
_cell_length_a 5.119173
_cell_length_b 10.144488
_cell_length_c 16.010630
_cell_angle_alpha 87.877269
_cell_angle_beta 55.786926
_cell_angle_gamma 87.181735
_cell_volume 686.696973
_symmetry_space_group_name_H-M "P -1"
_symmetry_group_IT_number 2
_symmetry_cell_setting 'triclinic'
loop_
_space_group_symop_operation_xyz
x,y,z
-x,-y,-z
loop_
_atom_site_type_symbol
_atom_site_label
_atom_site_fract_x
_atom_site_fract_y
_atom_site_fract_z
Si Si1 0.936955 0.431840 0.099825
Si Si2 0.904436 0.360531 0.552598
Si Si3 0.125036 0.983629 0.662600
Si Si4 0.152289 0.829298 0.945267
Si Si5 0.503769 0.792799 0.495274
Si Si6 0.516681 0.730471 0.031071
Si Si7 0.393779 0.042282 0.782926
Si Si8 0.487275 0.337039 0.783805
O O1 0.728075 0.300211 0.127824
O O2 0.771905 0.541481 0.186842
O O3 0.000000 0.500000 0.000000
O O4 0.295476 0.378251 0.060701
O O5 0.633763 0.312084 0.541109
O O6 0.779307 0.365328 0.670237
O O7 0.000000 0.500000 0.500000
O O8 0.217742 0.267539 0.495793
O O9 0.224486 0.844030 0.606073
O O10 0.175556 0.977476 0.753088
O O11 0.767263 0.019253 0.700329
O O12 0.365932 0.090610 0.585942
O O13 0.297966 0.965101 0.885821
O O14 0.229186 0.161485 0.988469
O O15 0.240777 0.804177 0.027294
O O16 0.385187 0.667341 0.142762
O O17 0.325470 0.199255 0.794445
#
# Coordination Sequence:
#
# PCOD8020861 Si02
#       8
#     2   2   2   2   2   2   2   2
#     4   8  20  43  61  93 125 180 222 268 325 404
#     4  12  26  46  66 106 138 174 227 284 338 405
#     4  11  23  43  72  94 132 182 223 278 338 413
#     4  10  22  43  64  96 136 170 231 276 314 411
#     4  11  23  47  70  93 134 181 226 276 343 405
#     4   9  22  43  66  93 133 181 226 263 335 402
#     4  12  24  41  67 107 134 169 234 278 340 398
#     4  11  23  43  68  97 136 180 215 286 340 396
#
# _framework density 23.299942000000001
#
# number of rings (size 3 to 8) (size 9 to 14) (size 15 to 20)
#    0.750    0.750    2.500    1.875    0.000    9.000 
#    4.500    0.000    0.000    0.000    0.000    0.000 
#    0.000    0.000    0.000    0.000    0.000    0.000 
#
# Total GULP energy -198246.575530 kJ/mol
# GULP energy per Si atom -12390.410971 kJ/mol
# Density = 2.324691 g / cm^3
# Si number density = 23.299942 Si / 1000 Ang^3
#
#
#
# Elastic Constant Matrix: (Units=GPa)
#
#
# Indices 1 2 3 4 5 6 
#
# 1 93.0035 16.5372 14.7837 2.4121 3.6229 4.3867
# 2 16.5372 121.0912 51.2107 -7.6675 -0.7675 3.8747
# 3 14.7837 51.2107 80.3605 -4.7139 7.1918 8.7018
# 4 2.4121 -7.6675 -4.7139 35.9476 -0.8834 0.1504
# 5 3.6229 -0.7675 7.1918 -0.8834 29.2829 -6.7579
# 6 4.3867 3.8747 8.7018 0.1504 -6.7579 21.9667
#
#
#
# Elastic Compliance Matrix: (Units=1/GPa)
#
#
# Indices 1 2 3 4 5 6 
#
# 1 0.011317 -0.001116 -0.001052 -0.001168 -0.001705 -0.002163
# 2 -0.001116 0.011691 -0.007624 0.001630 0.002838 0.002043
# 3 -0.001052 -0.007624 0.018996 0.000808 -0.006555 -0.007992
# 4 -0.001168 0.001630 0.000808 0.028370 0.000768 -0.000332
# 5 -0.001705 0.002838 -0.006555 0.000768 0.039428 0.014561
# 6 -0.002163 0.002043 -0.007992 -0.000332 0.014561 0.053243
#
#
# Mechanical properties :
#
#
# Convention : Reuss Voigt Hill
#
# Bulk Modulus (GPa) = 44.60773 51.05761 47.83267
# Shear Modulus (GPa) = 26.30146 31.56767 28.93457
#
# Velocity S-wave (km/s) = 3.36344 3.68481 3.52778
# Velocity P-wave (km/s) = 5.85407 6.32965 6.09650
#
# Compressibility (1/GPa) = 0.02241764
#
# Stress axis : x y z
#
# Youngs Moduli (GPa) = 88.36448 85.53653 52.64351
#
# Poissons Ratio (x) = 0.09546 0.05541
# Poissons Ratio (y) = 0.09861 0.40138
# Poissons Ratio (z) = 0.09300 0.65217
#
# Static dielectric constant tensor:
#      x y z
#    x 4.457360 -0.381630 -0.069420 
#    y -0.381630 4.829210 0.409290 
#    z -0.069420 0.409290 4.291300 
# 
# 
# High freq. dielectric constant tensor:
#      x y z
#    x 1.914590 -0.005350 -0.005930 
#    y -0.005350 1.927990 0.007700 
#    z -0.005930 0.007700 1.907720 
# 
# From -- ./inp_files/548074.got.cif
#   From: 2010.06.25/outbox.cif.g09.slc.cpg/sg2_275_cif.got.tgz:548074.got - 2010.06.27 13:26:56.
