data_PCOD8020026
_publ_section_title
;
Structure prediction by ZEFSAII (Michael W. Deem and Ramdas Pophale) SiO2 
 PCOD8020026
Probable space group: P -1
;
_chemical_formula_sum "Si O2"
_cell_formula_units_Z 16
_cell_length_a 6.947109
_cell_length_b 15.564024
_cell_length_c 9.636853
_cell_angle_alpha 79.092677
_cell_angle_beta 46.035334
_cell_angle_gamma 82.218770
_cell_volume 736.426280
_symmetry_space_group_name_H-M "P -1"
_symmetry_group_IT_number 2
_symmetry_cell_setting 'triclinic'
loop_
_space_group_symop_operation_xyz
x,y,z
-x,-y,-z
loop_
_atom_site_type_symbol
_atom_site_label
_atom_site_fract_x
_atom_site_fract_y
_atom_site_fract_z
Si Si1 0.257938 0.207784 0.694331
Si Si2 0.305765 0.549707 0.182441
Si Si3 0.549581 0.914157 0.594121
Si Si4 0.757711 0.474889 0.466149
Si Si5 0.242036 0.135308 0.213879
Si Si6 0.031706 0.084130 0.056520
Si Si7 0.804959 0.273390 0.484505
Si Si8 0.714253 0.255543 0.848266
O O1 0.276630 0.151034 0.563569
O O2 0.515706 0.268204 0.557626
O O3 0.984574 0.261285 0.801703
O O4 0.237719 0.149106 0.860435
O O5 0.327078 0.509359 0.337490
O O6 0.413074 0.648664 0.101104
O O7 0.999260 0.540019 0.286089
O O8 0.500000 0.500000 0.000000
O O9 0.715395 0.925427 0.651908
O O10 0.261896 0.873972 0.789267
O O11 0.500000 0.000000 0.500000
O O12 0.500000 0.500000 0.500000
O O13 0.872946 0.376224 0.414724
O O14 0.153996 0.068707 0.154750
O O15 0.022095 0.212865 0.316051
O O16 0.521687 0.181036 0.024858
O O17 0.000000 0.000000 0.000000
O O18 0.786526 0.236035 0.659499
#
# Coordination Sequence:
#
# PCOD8020026 Si02
#       8
#     2   2   2   2   2   2   2   2
#     4  12  23  44  66  95 134 166 224 276 328 391
#     4  10  22  42  64  97 137 173 221 269 326 392
#     4  12  26  45  68  98 131 172 221 278 340 396
#     4  10  22  42  64  98 135 176 220 267 328 389
#     4  12  25  44  70  99 130 176 227 272 333 400
#     4  12  26  45  66  99 134 169 218 277 337 404
#     4  11  23  41  69  97 133 175 222 273 325 391
#     4  11  23  41  69  97 132 178 217 276 328 384
#
# _framework density 21.726545999999999
#
# number of rings (size 3 to 8) (size 9 to 14) (size 15 to 20)
#    0.000    0.750    6.250    1.500    0.000    1.500 
#    6.750    0.000    0.000    0.000    0.000    0.000 
#    0.000    0.000    0.000    0.000    0.000    0.000 
#
# Total GULP energy -198346.298331 kJ/mol
# GULP energy per Si atom -12396.643646 kJ/mol
# Density = 2.167710 g / cm^3
# Si number density = 21.726546 Si / 1000 Ang^3
#
#
#
# Elastic Constant Matrix: (Units=GPa)
#
#
# Indices 1 2 3 4 5 6 
#
# 1 156.0388 24.5523 41.6603 3.6162 11.2386 -0.3743
# 2 24.5523 65.5374 30.2449 3.8506 11.3515 5.7936
# 3 41.6603 30.2449 94.6345 9.6387 7.6452 0.7290
# 4 3.6162 3.8506 9.6387 27.6528 2.5566 -1.3001
# 5 11.2386 11.3515 7.6452 2.5566 41.1122 3.8049
# 6 -0.3743 5.7936 0.7290 -1.3001 3.8049 29.6199
#
#
#
# Elastic Compliance Matrix: (Units=1/GPa)
#
#
# Indices 1 2 3 4 5 6 
#
# 1 0.007448 -0.001368 -0.002781 0.000327 -0.001217 0.000601
# 2 -0.001368 0.019073 -0.005125 -0.000506 -0.003613 -0.003180
# 3 -0.002781 -0.005125 0.013819 -0.003697 -0.000210 0.000492
# 4 0.000327 -0.000506 -0.003697 0.037743 -0.001802 0.002082
# 5 -0.001217 -0.003613 -0.000210 -0.001802 0.026058 -0.002730
# 6 0.000601 -0.003180 0.000492 0.002082 -0.002730 0.034821
#
#
# Mechanical properties :
#
#
# Convention : Reuss Voigt Hill
#
# Bulk Modulus (GPa) = 45.89152 56.56954 51.23053
# Shear Modulus (GPa) = 30.34439 34.32719 32.33579
#
# Velocity S-wave (km/s) = 3.74123 3.97919 3.86204
# Velocity P-wave (km/s) = 6.31115 6.87063 6.59682
#
# Compressibility (1/GPa) = 0.02179052
#
# Stress axis : x y z
#
# Youngs Moduli (GPa) = 134.26433 52.42988 72.36405
#
# Poissons Ratio (x) = 0.07174 0.20125
# Poissons Ratio (y) = 0.18372 0.37089
# Poissons Ratio (z) = 0.37340 0.26872
#
# Static dielectric constant tensor:
#      x y z
#    x 4.025500 0.133950 0.027980 
#    y 0.133950 3.711920 -0.031260 
#    z 0.027980 -0.031260 4.176820 
# 
# 
# High freq. dielectric constant tensor:
#      x y z
#    x 1.866830 0.004940 0.000110 
#    y 0.004940 1.835160 0.004230 
#    z 0.000110 0.004230 1.865080 
# 
# From -- ./inp_files/48084.got.cif
#   From: 2010.06.25/outbox.cif.g09.slc.cpg/sg2_25_cif.got.tgz:48084.got - 2010.06.27 13:26:56.
