data_PCOD8020770
_publ_section_title
;
Structure prediction by ZEFSAII (Michael W. Deem and Ramdas Pophale) SiO2 
 PCOD8020770
Probable space group: P -1
;
_chemical_formula_sum "Si O2"
_cell_formula_units_Z 16
_cell_length_a 10.856366
_cell_length_b 14.837772
_cell_length_c 18.828477
_cell_angle_alpha 161.132020
_cell_angle_beta 121.414473
_cell_angle_gamma 67.001347
_cell_volume 777.177023
_symmetry_space_group_name_H-M "P -1"
_symmetry_group_IT_number 2
_symmetry_cell_setting 'triclinic'
loop_
_space_group_symop_operation_xyz
x,y,z
-x,-y,-z
loop_
_atom_site_type_symbol
_atom_site_label
_atom_site_fract_x
_atom_site_fract_y
_atom_site_fract_z
Si Si1 0.693730 0.082636 0.702974
Si Si2 0.163389 0.248498 0.755093
Si Si3 0.210470 0.163428 0.318111
Si Si4 0.053564 0.860556 0.687409
Si Si5 0.119697 0.825702 0.905098
Si Si6 0.656669 0.006181 0.476919
Si Si7 0.116252 0.369802 0.977153
Si Si8 0.681865 0.160761 0.163467
O O1 0.715041 0.964411 0.542785
O O2 0.702524 0.859634 0.600360
O O3 0.526379 0.105262 0.667846
O O4 0.826305 0.411360 0.003486
O O5 0.188672 0.222912 0.828081
O O6 0.301090 0.205488 0.722166
O O7 0.000000 0.000000 0.500000
O O8 0.293853 0.495228 0.561488
O O9 0.033106 0.122986 0.252980
O O10 0.216363 0.928325 0.084378
O O11 0.232585 0.936109 0.817903
O O12 0.976708 0.529418 0.384086
O O13 0.032850 0.108899 0.813948
O O14 0.246381 0.903688 0.937381
O O15 0.000000 0.000000 0.000000
O O16 0.743870 0.354947 0.739583
O O17 0.000000 0.500000 0.000000
O O18 0.500000 0.000000 0.000000
#
# Coordination Sequence:
#
# PCOD8020770 Si02
#       8
#     2   2   2   2   2   2   2   2
#     4  10  24  40  63  90 124 173 207 260 321 375
#     4  11  22  37  61  90 125 163 212 256 305 378
#     4  11  23  41  68  93 122 166 218 255 320 387
#     4  11  23  41  68  92 126 168 211 262 319 377
#     4  11  21  45  67  92 124 169 215 263 314 387
#     4  10  22  43  60  85 135 165 209 261 316 374
#     4  11  23  39  61  96 125 163 211 259 314 375
#     4  11  25  44  65  97 130 160 211 271 324 379
#
# _framework density 20.587330000000001
#
# number of rings (size 3 to 8) (size 9 to 14) (size 15 to 20)
#    0.000    1.250    3.750    2.625    3.500    1.500 
#    2.250    0.000    0.000    0.000    0.000    0.000 
#    0.000    0.000    0.000    0.000    0.000    0.000 
#
# Total GULP energy -198313.574290 kJ/mol
# GULP energy per Si atom -12394.598393 kJ/mol
# Density = 2.054047 g / cm^3
# Si number density = 20.587330 Si / 1000 Ang^3
#
#
#
# Elastic Constant Matrix: (Units=GPa)
#
#
# Indices 1 2 3 4 5 6 
#
# 1 108.5497 38.0882 49.7606 -6.1191 -4.4450 9.8072
# 2 38.0882 104.0881 50.7509 9.9180 7.6356 -1.6843
# 3 49.7606 50.7509 107.2991 -0.1771 -5.1864 4.5585
# 4 -6.1191 9.9180 -0.1771 28.7836 5.9440 3.0842
# 5 -4.4450 7.6356 -5.1864 5.9440 42.7773 -6.8641
# 6 9.8072 -1.6843 4.5585 3.0842 -6.8641 26.8255
#
#
#
# Elastic Compliance Matrix: (Units=1/GPa)
#
#
# Indices 1 2 3 4 5 6 
#
# 1 0.012957 -0.003120 -0.004326 0.004299 0.000030 -0.004684
# 2 -0.003120 0.014163 -0.005499 -0.005428 -0.002283 0.003004
# 3 -0.004326 -0.005499 0.014056 0.000721 0.002021 -0.000718
# 4 0.004299 -0.005428 0.000721 0.039463 -0.005251 -0.007916
# 5 0.000030 -0.002283 0.002021 -0.005251 0.025840 0.006718
# 6 -0.004684 0.003004 -0.000718 -0.007916 0.006718 0.041930
#
#
# Mechanical properties :
#
#
# Convention : Reuss Voigt Hill
#
# Bulk Modulus (GPa) = 65.41413 66.34848 65.88130
# Shear Modulus (GPa) = 27.87155 31.76642 29.81899
#
# Velocity S-wave (km/s) = 3.68342 3.93238 3.80993
# Velocity P-wave (km/s) = 7.06633 7.27433 7.17109
#
# Compressibility (1/GPa) = 0.01528722
#
# Stress axis : x y z
#
# Youngs Moduli (GPa) = 77.18026 70.60490 71.14280
#
# Poissons Ratio (x) = 0.22026 0.30774
# Poissons Ratio (y) = 0.24077 0.39123
# Poissons Ratio (z) = 0.33386 0.38827
#
# Static dielectric constant tensor:
#      x y z
#    x 3.977090 0.184830 -0.190390 
#    y 0.184830 3.674640 -0.093240 
#    z -0.190390 -0.093240 3.961650 
# 
# 
# High freq. dielectric constant tensor:
#      x y z
#    x 1.812690 0.009030 -0.004360 
#    y 0.009030 1.790060 -0.003760 
#    z -0.004360 -0.003760 1.813010 
# 
# From -- ./inp_files/570010.got.cif
#   From: 2010.06.25/outbox.cif.g09.slc.cpg/sg2_286_cif.got.tgz:570010.got - 2010.06.27 13:26:56.
