data_PCOD8020325
_publ_section_title
;
Structure prediction by ZEFSAII (Michael W. Deem and Ramdas Pophale) SiO2 
 PCOD8020325
Probable space group: P -1
;
_chemical_formula_sum "Si O2"
_cell_formula_units_Z 14
_cell_length_a 8.169361
_cell_length_b 16.878053
_cell_length_c 8.605656
_cell_angle_alpha 116.283300
_cell_angle_beta 34.441018
_cell_angle_gamma 106.261617
_cell_volume 593.149675
_symmetry_space_group_name_H-M "P -1"
_symmetry_group_IT_number 2
_symmetry_cell_setting 'triclinic'
loop_
_space_group_symop_operation_xyz
x,y,z
-x,-y,-z
loop_
_atom_site_type_symbol
_atom_site_label
_atom_site_fract_x
_atom_site_fract_y
_atom_site_fract_z
Si Si1 0.076455 0.791215 0.669725
Si Si2 0.523492 0.535600 0.841318
Si Si3 0.734721 0.751816 0.197109
Si Si4 0.930092 0.965274 0.754694
Si Si5 0.244742 0.414057 0.763801
Si Si6 0.085541 0.356894 0.533022
Si Si7 0.668211 0.920029 0.607355
O O1 0.423657 0.755553 0.356813
O O2 0.005103 0.896464 0.778272
O O3 0.904787 0.740317 0.633690
O O4 0.973877 0.774179 0.908265
O O5 0.524831 0.454256 0.645586
O O6 0.818012 0.577913 0.619885
O O7 0.500000 0.500000 0.000000
O O8 0.234635 0.611098 0.115015
O O9 0.846341 0.653156 0.093252
O O10 0.708571 0.821995 0.418867
O O11 0.842847 0.912381 0.626260
O O12 0.217752 0.008188 0.532244
O O13 0.675661 0.046301 0.069840
O O14 0.315932 0.358892 0.498020
O O15 0.000000 0.500000 0.000000
#
# Coordination Sequence:
#
# PCOD8020325 Si02
#       7
#     2   2   2   2   2   2   2
#     4  12  25  41  64  95 131 168 207 261 317 374
#     4  11  22  39  63  89 121 156 203 260 315 368
#     4  12  26  42  64  95 129 165 214 264 318 372
#     4  10  22  42  67  95 129 169 210 252 315 375
#     4  10  24  44  66  92 124 168 216 263 317 378
#     4  11  23  40  61  87 121 162 206 251 309 372
#     4  10  22  42  67  95 128 168 211 257 305 380
#
# _framework density 23.602810000000002
#
# number of rings (size 3 to 8) (size 9 to 14) (size 15 to 20)
#    0.000    1.143    0.000    6.000    0.000    9.143 
#    0.000    8.571    0.000    0.000    0.000    0.000 
#    0.000    0.000    0.000    0.000    0.000    0.000 
#
# Total GULP energy -173615.811033 kJ/mol
# GULP energy per Si atom -12401.129360 kJ/mol
# Density = 2.354909 g / cm^3
# Si number density = 23.602810 Si / 1000 Ang^3
#
#
#
# Elastic Constant Matrix: (Units=GPa)
#
#
# Indices 1 2 3 4 5 6 
#
# 1 68.6776 26.9373 6.7856 9.3217 3.4797 1.8023
# 2 26.9373 116.1358 19.1382 1.4750 -1.6342 -20.2245
# 3 6.7856 19.1382 69.3665 -8.3758 7.1096 4.5409
# 4 9.3217 1.4750 -8.3758 39.2142 5.1890 9.1680
# 5 3.4797 -1.6342 7.1096 5.1890 24.3377 2.6364
# 6 1.8023 -20.2245 4.5409 9.1680 2.6364 46.4713
#
#
#
# Elastic Compliance Matrix: (Units=1/GPa)
#
#
# Indices 1 2 3 4 5 6 
#
# 1 0.016795 -0.004039 -0.000675 -0.003406 -0.001578 -0.001582
# 2 -0.004039 0.011145 -0.003478 -0.001787 0.002118 0.005579
# 3 -0.000675 -0.003478 0.016977 0.005610 -0.005868 -0.003920
# 4 -0.003406 -0.001787 0.005610 0.030070 -0.006954 -0.006731
# 5 -0.001578 0.002118 -0.005868 -0.006954 0.044610 0.000397
# 6 -0.001582 0.005579 -0.003920 -0.006731 0.000397 0.025696
#
#
# Mechanical properties :
#
#
# Convention : Reuss Voigt Hill
#
# Bulk Modulus (GPa) = 35.04511 39.98912 37.51712
# Shear Modulus (GPa) = 29.20771 35.42589 32.31680
#
# Velocity S-wave (km/s) = 3.52158 3.87837 3.70428
# Velocity P-wave (km/s) = 5.60495 6.08564 5.85023
#
# Compressibility (1/GPa) = 0.02853465
#
# Stress axis : x y z
#
# Youngs Moduli (GPa) = 59.54026 89.73001 58.90269
#
# Poissons Ratio (x) = 0.36241 0.03974
# Poissons Ratio (y) = 0.24047 0.20485
# Poissons Ratio (z) = 0.04017 0.31206
#
# Static dielectric constant tensor:
#      x y z
#    x 4.627520 0.280070 0.106170 
#    y 0.280070 4.228690 -0.111800 
#    z 0.106170 -0.111800 4.212090 
# 
# 
# High freq. dielectric constant tensor:
#      x y z
#    x 1.940990 0.011020 0.015350 
#    y 0.011020 1.942010 -0.007100 
#    z 0.015350 -0.007100 1.921960 
# 
# From -- ./inp_files/41477.got.cif
#   From: 2010.06.25/outbox.cif.g09.slc.cpg/sg2_21_cif.got.tgz:41477.got - 2010.06.27 13:26:56.
