data_PCOD8020185
_publ_section_title
;
Structure prediction by ZEFSAII (Michael W. Deem and Ramdas Pophale) SiO2 
 PCOD8020185
Probable space group: P -1
;
_chemical_formula_sum "Si O2"
_cell_formula_units_Z 16
_cell_length_a 8.684022
_cell_length_b 25.701797
_cell_length_c 9.049543
_cell_angle_alpha 45.527852
_cell_angle_beta 132.370171
_cell_angle_gamma 151.038814
_cell_volume 686.963819
_symmetry_space_group_name_H-M "P -1"
_symmetry_group_IT_number 2
_symmetry_cell_setting 'triclinic'
loop_
_space_group_symop_operation_xyz
x,y,z
-x,-y,-z
loop_
_atom_site_type_symbol
_atom_site_label
_atom_site_fract_x
_atom_site_fract_y
_atom_site_fract_z
Si Si1 0.058842 0.191712 0.898176
Si Si2 0.814830 0.015108 0.550246
Si Si3 0.319861 0.554506 0.174163
Si Si4 0.220639 0.774881 0.134144
Si Si5 0.442889 0.413391 0.041396
Si Si6 0.666793 0.992345 0.820397
Si Si7 0.822043 0.372421 0.415325
Si Si8 0.322411 0.157001 0.359595
O O1 0.424726 0.317244 0.855166
O O2 0.835439 0.198356 0.798648
O O3 0.057929 0.131504 0.147061
O O4 0.913182 0.114051 0.815115
O O5 0.842890 0.007203 0.759428
O O6 0.590951 0.893892 0.569296
O O7 0.658059 0.051875 0.348444
O O8 0.170537 0.102988 0.532298
O O9 0.197258 0.477934 0.393481
O O10 0.481891 0.550392 0.155959
O O11 0.000000 0.500000 0.000000
O O12 0.223206 0.688971 0.345420
O O13 0.554673 0.893768 0.043970
O O14 0.933597 0.711464 0.954971
O O15 0.660785 0.408426 0.266782
O O16 0.500000 0.500000 0.000000
O O17 0.645213 0.289627 0.323574
#
# Coordination Sequence:
#
# PCOD8020185 Si02
#       8
#     2   2   2   2   2   2   2   2
#     4  11  21  39  70  95 133 173 219 277 320 391
#     4  10  24  40  65  92 137 175 216 268 329 394
#     4   9  19  42  66  92 123 172 221 263 323 393
#     4  11  23  41  67  98 135 176 218 272 333 396
#     4  10  22  42  66  93 132 170 217 282 326 385
#     4  11  23  43  62 101 132 171 224 273 324 389
#     4  11  22  42  69  94 125 177 224 262 331 399
#     4  11  21  41  66  94 128 179 212 265 334 391
#
# _framework density 23.290890000000001
#
# number of rings (size 3 to 8) (size 9 to 14) (size 15 to 20)
#    0.000    1.500    5.000    1.125    3.500    4.000 
#    0.000    5.000    0.000    0.000    0.000    0.000 
#    0.000    0.000    0.000    0.000    0.000    0.000 
#
# Total GULP energy -198338.481054 kJ/mol
# GULP energy per Si atom -12396.155066 kJ/mol
# Density = 2.323788 g / cm^3
# Si number density = 23.290890 Si / 1000 Ang^3
#
#
#
# Elastic Constant Matrix: (Units=GPa)
#
#
# Indices 1 2 3 4 5 6 
#
# 1 119.6759 57.5987 49.8595 -17.3937 -12.7386 -22.9289
# 2 57.5987 138.8933 37.6369 -26.1075 -28.4092 -13.8306
# 3 49.8595 37.6369 127.4344 -23.8919 -10.6137 -1.7912
# 4 -17.3937 -26.1075 -23.8919 31.5519 -5.5138 2.3021
# 5 -12.7386 -28.4092 -10.6137 -5.5138 31.5973 3.4887
# 6 -22.9289 -13.8306 -1.7912 2.3021 3.4887 30.1649
#
#
#
# Elastic Compliance Matrix: (Units=1/GPa)
#
#
# Indices 1 2 3 4 5 6 
#
# 1 0.013390 -0.003418 -0.003892 0.001054 0.000289 0.008266
# 2 -0.003418 0.013417 0.000695 0.011904 0.012864 0.001199
# 3 -0.003892 0.000695 0.010933 0.007705 0.004414 -0.003089
# 4 0.001054 0.011904 0.007705 0.051929 0.022765 0.000121
# 5 0.000289 0.012864 0.004414 0.022765 0.048898 -0.001013
# 6 0.008266 0.001199 -0.003089 0.000121 -0.001013 0.039908
#
#
# Mechanical properties :
#
#
# Convention : Reuss Voigt Hill
#
# Bulk Modulus (GPa) = 40.79802 75.13265 57.96533
# Shear Modulus (GPa) = 25.01566 34.72338 29.86952
#
# Velocity S-wave (km/s) = 3.28083 3.86535 3.58502
# Velocity P-wave (km/s) = 5.64859 7.22839 6.48676
#
# Compressibility (1/GPa) = 0.02451100
#
# Stress axis : x y z
#
# Youngs Moduli (GPa) = 74.68368 74.53229 91.46272
#
# Poissons Ratio (x) = 0.25474 0.35593
# Poissons Ratio (y) = 0.25525 -0.06354
# Poissons Ratio (z) = 0.29063 -0.05178
#
# Static dielectric constant tensor:
#      x y z
#    x 4.017430 0.101510 -0.016650 
#    y 0.101510 4.258580 -0.260870 
#    z -0.016650 -0.260870 4.385710 
# 
# 
# High freq. dielectric constant tensor:
#      x y z
#    x 1.900820 0.005130 0.010940 
#    y 0.005130 1.925280 -0.004840 
#    z 0.010940 -0.004840 1.919570 
# 
# From -- ./inp_files/227411.got.cif
#   From: 2010.06.25/outbox.cif.g09.slc.cpg/sg2_114_cif.got.tgz:227411.got - 2010.06.27 13:26:56.
