data_PCOD8020421
_publ_section_title
;
Structure prediction by ZEFSAII (Michael W. Deem and Ramdas Pophale) SiO2 
 PCOD8020421
Probable space group: P -1
;
_chemical_formula_sum "Si O2"
_cell_formula_units_Z 14
_cell_length_a 14.146490
_cell_length_b 11.123213
_cell_length_c 14.240662
_cell_angle_alpha 35.794047
_cell_angle_beta 37.929636
_cell_angle_gamma 45.662382
_cell_volume 794.659866
_symmetry_space_group_name_H-M "P -1"
_symmetry_group_IT_number 2
_symmetry_cell_setting 'triclinic'
loop_
_space_group_symop_operation_xyz
x,y,z
-x,-y,-z
loop_
_atom_site_type_symbol
_atom_site_label
_atom_site_fract_x
_atom_site_fract_y
_atom_site_fract_z
Si Si1 0.800006 0.485566 0.499830
Si Si2 0.043218 0.104670 0.494046
Si Si3 0.175991 0.879781 0.708988
Si Si4 0.466665 0.592921 0.725605
Si Si5 0.722226 0.591149 0.866635
Si Si6 0.017846 0.780130 0.073732
Si Si7 0.684610 0.720954 0.608313
O O1 0.617333 0.492620 0.608581
O O2 0.802880 0.539278 0.575426
O O3 0.893053 0.255546 0.556962
O O4 0.868348 0.664807 0.274851
O O5 0.178604 0.237390 0.283338
O O6 0.101916 0.921084 0.638245
O O7 0.000000 0.000000 0.500000
O O8 0.329262 0.701168 0.696791
O O9 0.229634 0.081741 0.583366
O O10 0.044530 0.810189 0.922782
O O11 0.523437 0.759233 0.649850
O O12 0.409630 0.415077 0.947581
O O13 0.829801 0.366689 0.911562
O O14 0.645917 0.653764 0.785943
O O15 0.000000 0.000000 0.000000
#
# Coordination Sequence:
#
# PCOD8020421 Si02
#       7
#     2   2   2   2   2   2   2
#     4   9  20  32  53  75 109 132 173 205 258 306
#     4  10  22  40  54  70  98 140 187 221 245 289
#     4  10  19  32  54  78 105 140 165 206 264 306
#     4   9  18  33  49  83 108 133 161 208 264 318
#     4   9  19  31  52  77 106 140 168 203 262 308
#     4  10  17  28  47  81 108 134 163 204 253 314
#     4   9  17  29  53  77 112 133 163 200 262 314
#
# _framework density 17.617602000000002
#
# number of rings (size 3 to 8) (size 9 to 14) (size 15 to 20)
#    0.857    1.714    1.429    0.857    2.000    1.714 
#    0.000   10.714    0.000    0.000    0.000    0.000 
#    0.000    0.000    0.000    0.000    0.000    0.000 
#
# Total GULP energy -173463.635751 kJ/mol
# GULP energy per Si atom -12390.259696 kJ/mol
# Density = 1.757750 g / cm^3
# Si number density = 17.617602 Si / 1000 Ang^3
#
#
#
# Elastic Constant Matrix: (Units=GPa)
#
#
# Indices 1 2 3 4 5 6 
#
# 1 92.7654 32.5452 40.2039 3.9989 13.4019 -5.2021
# 2 32.5452 62.5658 44.6439 14.5815 0.7668 -17.4402
# 3 40.2039 44.6439 109.6567 18.0348 8.6728 -16.5232
# 4 3.9989 14.5815 18.0348 26.3525 -7.5017 -6.0703
# 5 13.4019 0.7668 8.6728 -7.5017 20.0689 -2.6000
# 6 -5.2021 -17.4402 -16.5232 -6.0703 -2.6000 20.9186
#
#
#
# Elastic Compliance Matrix: (Units=1/GPa)
#
#
# Indices 1 2 3 4 5 6 
#
# 1 0.015794 -0.007754 -0.002656 -0.000556 -0.010095 -0.006051
# 2 -0.007754 0.030973 -0.006811 -0.005065 0.007372 0.017962
# 3 -0.002656 -0.006811 0.015026 -0.007517 -0.006948 0.002485
# 4 -0.000556 -0.005065 -0.007517 0.055345 0.025661 0.008951
# 5 -0.010095 0.007372 -0.006948 0.025661 0.070747 0.014387
# 6 -0.006051 0.017962 0.002485 0.008951 0.014387 0.067624
#
#
# Mechanical properties :
#
#
# Convention : Reuss Voigt Hill
#
# Bulk Modulus (GPa) = 36.55930 55.53046 46.04488
# Shear Modulus (GPa) = 16.71861 23.30766 20.01313
#
# Velocity S-wave (km/s) = 3.08388 3.64122 3.37408
# Velocity P-wave (km/s) = 5.78594 7.01899 6.43208
#
# Compressibility (1/GPa) = 0.02735282
#
# Stress axis : x y z
#
# Youngs Moduli (GPa) = 63.31351 32.28591 66.55073
#
# Poissons Ratio (x) = 0.25035 0.17674
# Poissons Ratio (y) = 0.49095 0.45325
# Poissons Ratio (z) = 0.16814 0.21989
#
# Static dielectric constant tensor:
#      x y z
#    x 2.988000 -0.212250 0.021610 
#    y -0.212250 3.082300 0.081700 
#    z 0.021610 0.081700 3.518930 
# 
# 
# High freq. dielectric constant tensor:
#      x y z
#    x 1.648700 -0.018790 0.001370 
#    y -0.018790 1.660550 0.008360 
#    z 0.001370 0.008360 1.695910 
# 
# From -- ./inp_files/302592.got.cif
#   From: 2010.06.25/outbox.cif.g09.slc.cpg/sg2_152_cif.got.tgz:302592.got - 2010.06.27 13:26:56.
