data_PCOD8020157
_publ_section_title
;
Structure prediction by ZEFSAII (Michael W. Deem and Ramdas Pophale) SiO2 
 PCOD8020157
Probable space group: P -1
;
_chemical_formula_sum "Si O2"
_cell_formula_units_Z 16
_cell_length_a 9.363849
_cell_length_b 14.026732
_cell_length_c 18.228998
_cell_angle_alpha 160.723024
_cell_angle_beta 98.052317
_cell_angle_gamma 79.913037
_cell_volume 775.864930
_symmetry_space_group_name_H-M "P -1"
_symmetry_group_IT_number 2
_symmetry_cell_setting 'triclinic'
loop_
_space_group_symop_operation_xyz
x,y,z
-x,-y,-z
loop_
_atom_site_type_symbol
_atom_site_label
_atom_site_fract_x
_atom_site_fract_y
_atom_site_fract_z
Si Si1 0.684450 0.626410 0.736110
Si Si2 0.644067 0.284121 0.227651
Si Si3 0.844919 0.244304 0.593918
Si Si4 0.889337 0.018033 0.662457
Si Si5 0.670788 0.961400 0.494531
Si Si6 0.204200 0.548873 0.778209
Si Si7 0.147959 0.589914 0.546163
Si Si8 0.984067 0.787117 0.044481
O O1 0.520680 0.571752 0.665257
O O2 0.752422 0.381218 0.618430
O O3 0.783955 0.618980 0.665539
O O4 0.673362 0.943392 0.002892
O O5 0.684673 0.312928 0.165636
O O6 0.741307 0.454157 0.410288
O O7 0.740988 0.059308 0.496586
O O8 0.978438 0.008381 0.405843
O O9 0.902346 0.501059 0.832403
O O10 0.877074 0.682456 0.443110
O O11 0.737448 0.138306 0.695909
O O12 0.918046 0.217158 0.877831
O O13 0.500000 0.000000 0.500000
O O14 0.715439 0.619032 0.267655
O O15 0.084110 0.791898 0.981942
O O16 0.000000 0.500000 0.500000
O O17 0.129229 0.920165 0.753858
#
# Coordination Sequence:
#
# PCOD8020157 Si02
#       8
#     2   2   2   2   2   2   2   2
#     4  11  24  40  62  92 125 163 207 246 315 361
#     4  11  23  41  62  89 128 167 197 258 302 369
#     4  11  21  41  65  88 122 163 205 253 300 366
#     4   9  21  39  62  90 118 157 204 251 301 351
#     4  10  22  42  66  88 122 164 199 252 311 361
#     4   9  22  39  63  90 121 160 205 248 310 356
#     4  12  24  38  64  94 125 162 210 252 304 363
#     4  11  21  38  63  94 120 156 212 254 300 357
#
# _framework density 20.622146999999998
#
# number of rings (size 3 to 8) (size 9 to 14) (size 15 to 20)
#    0.750    0.750    2.500    3.000    1.750    1.500 
#    0.000    0.625    2.750    0.000    0.000    0.000 
#    0.000    0.000    0.000    0.000    0.000    0.000 
#
# Total GULP energy -198301.947022 kJ/mol
# GULP energy per Si atom -12393.871689 kJ/mol
# Density = 2.057521 g / cm^3
# Si number density = 20.622147 Si / 1000 Ang^3
#
#
#
# Elastic Constant Matrix: (Units=GPa)
#
#
# Indices 1 2 3 4 5 6 
#
# 1 132.3466 50.3664 20.4084 -14.8550 8.5690 -6.6631
# 2 50.3664 101.8040 23.2029 -9.7835 10.5715 -1.4427
# 3 20.4084 23.2029 54.2956 -18.5709 0.3737 -11.2762
# 4 -14.8550 -9.7835 -18.5709 30.9294 -3.7837 5.2376
# 5 8.5690 10.5715 0.3737 -3.7837 24.6168 -3.5521
# 6 -6.6631 -1.4427 -11.2762 5.2376 -3.5521 39.2862
#
#
#
# Elastic Compliance Matrix: (Units=1/GPa)
#
#
# Indices 1 2 3 4 5 6 
#
# 1 0.009690 -0.004255 -0.000759 0.002587 -0.001017 0.000833
# 2 -0.004255 0.013385 -0.004804 -0.000937 -0.004612 -0.001901
# 3 -0.000759 -0.004804 0.026647 0.013705 0.004889 0.005958
# 4 0.002587 -0.000937 0.013705 0.042336 0.005687 -0.000792
# 5 -0.001017 -0.004612 0.004889 0.005687 0.044380 0.004316
# 6 0.000833 -0.001901 0.005958 -0.000792 0.004316 0.027732
#
#
# Mechanical properties :
#
#
# Convention : Reuss Voigt Hill
#
# Bulk Modulus (GPa) = 33.23821 52.93349 43.08585
# Shear Modulus (GPa) = 25.79497 31.93105 28.86301
#
# Velocity S-wave (km/s) = 3.54056 3.93922 3.74520
# Velocity P-wave (km/s) = 5.73295 6.81278 6.29606
#
# Compressibility (1/GPa) = 0.03008585
#
# Stress axis : x y z
#
# Youngs Moduli (GPa) = 103.19390 74.71091 37.52726
#
# Poissons Ratio (x) = 0.31791 0.02849
# Poissons Ratio (y) = 0.43912 0.18028
# Poissons Ratio (z) = 0.07835 0.35891
#
# Static dielectric constant tensor:
#      x y z
#    x 3.733150 -0.090670 0.017960 
#    y -0.090670 3.656370 -0.012560 
#    z 0.017960 -0.012560 3.496990 
# 
# 
# High freq. dielectric constant tensor:
#      x y z
#    x 1.807760 -0.002320 0.003890 
#    y -0.002320 1.809880 -0.002830 
#    z 0.003890 -0.002830 1.783810 
# 
# From -- ./inp_files/561259.got.cif
#   From: 2010.06.25/outbox.cif.g09.slc.cpg/sg2_281_cif.got.tgz:561259.got - 2010.06.27 13:26:56.
