data_PCOD8020936
_publ_section_title
;
Structure prediction by ZEFSAII (Michael W. Deem and Ramdas Pophale) SiO2 
 PCOD8020936
Probable space group: P -1
;
_chemical_formula_sum "Si O2"
_cell_formula_units_Z 16
_cell_length_a 9.032986
_cell_length_b 9.178360
_cell_length_c 14.440004
_cell_angle_alpha 95.365761
_cell_angle_beta 69.394149
_cell_angle_gamma 46.021756
_cell_volume 697.582893
_symmetry_space_group_name_H-M "P -1"
_symmetry_group_IT_number 2
_symmetry_cell_setting 'triclinic'
loop_
_space_group_symop_operation_xyz
x,y,z
-x,-y,-z
loop_
_atom_site_type_symbol
_atom_site_label
_atom_site_fract_x
_atom_site_fract_y
_atom_site_fract_z
Si Si1 0.878207 0.917619 0.420910
Si Si2 0.355837 0.371405 0.015667
Si Si3 0.358780 0.423340 0.591323
Si Si4 0.062402 0.300745 0.428448
Si Si5 0.746322 0.258838 0.035293
Si Si6 0.483969 0.120144 0.797584
Si Si7 0.438498 0.613741 0.279634
Si Si8 0.904963 0.652530 0.251505
O O1 0.811918 0.881960 0.528084
O O2 0.901013 0.803006 0.319042
O O3 0.140588 0.811053 0.373289
O O4 0.635460 0.193946 0.474488
O O5 0.623012 0.240639 0.985574
O O6 0.191835 0.422314 0.138827
O O7 0.206740 0.613654 0.011613
O O8 0.414478 0.190824 0.924922
O O9 0.398054 0.515433 0.668685
O O10 0.202819 0.396706 0.662746
O O11 0.187687 0.598748 0.552579
O O12 0.000000 0.500000 0.500000
O O13 0.269719 0.159917 0.291437
O O14 0.550937 0.413033 0.173205
O O15 0.000000 0.000000 0.000000
O O16 0.535443 0.243922 0.756196
O O17 0.254735 0.211110 0.798943
#
# Coordination Sequence:
#
# PCOD8020936 Si02
#       8
#     2   2   2   2   2   2   2   2
#     4  12  22  44  65  92 133 169 219 263 322 382
#     4  10  22  43  67  94 128 173 216 258 322 387
#     4  11  24  40  64  91 132 170 213 268 321 374
#     4  12  24  41  64  96 129 170 214 266 324 377
#     4  10  22  43  65  97 134 166 208 271 322 376
#     4  10  23  42  68  91 132 170 213 267 322 376
#     4  10  22  43  66  94 129 171 213 265 321 381
#     4  11  20  42  67  91 127 175 209 264 320 383
#
# _framework density 22.936340999999999
#
# number of rings (size 3 to 8) (size 9 to 14) (size 15 to 20)
#    0.000    1.250    5.000    1.875    1.750    0.500 
#    6.750    0.625    0.000    0.000    0.000    0.000 
#    0.000    0.000    0.000    0.000    0.000    0.000 
#
# Total GULP energy -198335.560056 kJ/mol
# GULP energy per Si atom -12395.972504 kJ/mol
# Density = 2.288414 g / cm^3
# Si number density = 22.936341 Si / 1000 Ang^3
#
#
#
# Elastic Constant Matrix: (Units=GPa)
#
#
# Indices 1 2 3 4 5 6 
#
# 1 97.7421 9.1260 27.4581 -4.3962 14.2744 -24.3469
# 2 9.1260 54.3648 15.8455 14.0185 1.4506 -22.4486
# 3 27.4581 15.8455 136.8104 15.6516 15.2087 -4.2090
# 4 -4.3962 14.0185 15.6516 25.6544 -5.6584 -1.7871
# 5 14.2744 1.4506 15.2087 -5.6584 50.8634 -6.2804
# 6 -24.3469 -22.4486 -4.2090 -1.7871 -6.2804 26.2989
#
#
#
# Elastic Compliance Matrix: (Units=1/GPa)
#
#
# Indices 1 2 3 4 5 6 
#
# 1 0.015499 0.005155 -0.003387 0.002973 -0.000907 0.018192
# 2 0.005155 0.036368 -0.002592 -0.014794 0.000919 0.034616
# 3 -0.003387 -0.002592 0.009120 -0.005727 -0.002955 -0.004983
# 4 0.002973 -0.014794 -0.005727 0.052077 0.006386 -0.005729
# 5 -0.000907 0.000919 -0.002955 0.006386 0.022123 0.005189
# 6 0.018192 0.034616 -0.004983 -0.005729 0.005189 0.084467
#
#
# Mechanical properties :
#
#
# Convention : Reuss Voigt Hill
#
# Bulk Modulus (GPa) = 16.85211 43.75297 30.30254
# Shear Modulus (GPa) = 20.73988 36.32920 28.53454
#
# Velocity S-wave (km/s) = 3.01031 3.98416 3.53097
# Velocity P-wave (km/s) = 4.40976 6.34681 5.46479
#
# Compressibility (1/GPa) = 0.05933977
#
# Stress axis : x y z
#
# Youngs Moduli (GPa) = 64.52032 27.49644 109.65211
#
# Poissons Ratio (x) = -0.14175 0.37143
# Poissons Ratio (y) = -0.33262 0.28417
# Poissons Ratio (z) = 0.21855 0.07126
#
# Static dielectric constant tensor:
#      x y z
#    x 4.320960 -0.218890 0.369410 
#    y -0.218890 3.932080 0.065280 
#    z 0.369410 0.065280 4.642530 
# 
# 
# High freq. dielectric constant tensor:
#      x y z
#    x 1.918800 -0.021840 0.012210 
#    y -0.021840 1.872200 0.003530 
#    z 0.012210 0.003530 1.921920 
# 
# From -- ./inp_files/495176.got.cif
#   From: 2010.06.25/outbox.cif.g09.slc.cpg/sg2_248_cif.got.tgz:495176.got - 2010.06.27 13:26:56.
