data_PCOD8020926
_publ_section_title
;
Structure prediction by ZEFSAII (Michael W. Deem and Ramdas Pophale) SiO2 
 PCOD8020926
Probable space group: P -1
;
_chemical_formula_sum "Si O2"
_cell_formula_units_Z 16
_cell_length_a 11.618625
_cell_length_b 9.238935
_cell_length_c 14.105992
_cell_angle_alpha 75.664760
_cell_angle_beta 30.390154
_cell_angle_gamma 85.411918
_cell_volume 714.060053
_symmetry_space_group_name_H-M "P -1"
_symmetry_group_IT_number 2
_symmetry_cell_setting 'triclinic'
loop_
_space_group_symop_operation_xyz
x,y,z
-x,-y,-z
loop_
_atom_site_type_symbol
_atom_site_label
_atom_site_fract_x
_atom_site_fract_y
_atom_site_fract_z
Si Si1 0.393783 0.371560 0.308902
Si Si2 0.987821 0.116790 0.572422
Si Si3 0.395209 0.859623 0.526392
Si Si4 0.822378 0.374233 0.546130
Si Si5 0.900750 0.874904 0.820713
Si Si6 0.392383 0.553995 0.660425
Si Si7 0.660395 0.762022 0.194467
Si Si8 0.285698 0.447600 0.088353
O O1 0.258265 0.203317 0.393556
O O2 0.232783 0.487841 0.374647
O O3 0.417291 0.368422 0.406108
O O4 0.650101 0.431828 0.065487
O O5 0.847208 0.237159 0.619507
O O6 0.000000 0.000000 0.500000
O O7 0.859129 0.023254 0.771013
O O8 0.280403 0.693546 0.688518
O O9 0.622699 0.853068 0.301542
O O10 0.179733 0.887132 0.613598
O O11 0.500000 0.000000 0.500000
O O12 0.603557 0.307894 0.643820
O O13 0.044607 0.450883 0.309026
O O14 0.738975 0.723860 0.907700
O O15 0.824586 0.878759 0.984096
O O16 0.500000 0.500000 0.500000
O O17 0.228488 0.386703 0.843018
O O18 0.500000 0.500000 0.000000
#
# Coordination Sequence:
#
# PCOD8020926 Si02
#       8
#     2   2   2   2   2   2   2   2
#     4  11  23  43  65  95 133 167 222 275 318 393
#     4  12  23  39  64  95 135 177 213 265 333 391
#     4  11  23  43  67  93 132 172 214 274 337 379
#     4  11  22  41  67  93 130 176 213 267 326 389
#     4  12  24  42  65  95 135 173 217 272 325 392
#     4   9  20  39  67  90 118 168 218 268 320 375
#     4  10  22  43  65  95 130 169 220 271 322 391
#     4  12  22  40  69  98 130 170 218 266 324 392
#
# _framework density 22.407079
#
# number of rings (size 3 to 8) (size 9 to 14) (size 15 to 20)
#    0.000    1.000    6.250    1.125    0.000    1.500 
#    0.000    3.750    0.000    0.000    0.000    0.000 
#    0.000    0.000    0.000    0.000    0.000    0.000 
#
# Total GULP energy -198269.696520 kJ/mol
# GULP energy per Si atom -12391.856033 kJ/mol
# Density = 2.235608 g / cm^3
# Si number density = 22.407079 Si / 1000 Ang^3
#
#
#
# Elastic Constant Matrix: (Units=GPa)
#
#
# Indices 1 2 3 4 5 6 
#
# 1 91.2242 47.1831 21.1636 -12.5976 21.3489 4.9690
# 2 47.1831 106.8820 35.2073 -14.0125 17.1595 8.9572
# 3 21.1636 35.2073 104.6195 -14.2156 29.7593 -5.5035
# 4 -12.5976 -14.0125 -14.2156 31.0635 -2.4587 1.2639
# 5 21.3489 17.1595 29.7593 -2.4587 38.4316 -7.5547
# 6 4.9690 8.9572 -5.5035 1.2639 -7.5547 43.4574
#
#
#
# Elastic Compliance Matrix: (Units=1/GPa)
#
#
# Indices 1 2 3 4 5 6 
#
# 1 0.015957 -0.005559 0.001200 0.004003 -0.007436 -0.001936
# 2 -0.005559 0.013508 -0.002920 0.002531 -0.001066 -0.002777
# 3 0.001200 -0.002920 0.013676 0.004654 -0.009577 0.000396
# 4 0.004003 0.002531 0.004654 0.036781 -0.005064 -0.002340
# 5 -0.007436 -0.001066 -0.009577 -0.005064 0.039054 0.006794
# 6 -0.001936 -0.002777 0.000396 -0.002340 0.006794 0.025104
#
#
# Mechanical properties :
#
#
# Convention : Reuss Voigt Hill
#
# Bulk Modulus (GPa) = 34.98596 56.64817 45.81707
# Shear Modulus (GPa) = 29.73258 35.86862 32.80060
#
# Velocity S-wave (km/s) = 3.64665 4.00531 3.83018
# Velocity P-wave (km/s) = 5.77741 6.83566 6.32869
#
# Compressibility (1/GPa) = 0.02858289
#
# Stress axis : x y z
#
# Youngs Moduli (GPa) = 62.66770 74.03215 73.12193
#
# Poissons Ratio (x) = 0.41152 -0.08774
# Poissons Ratio (y) = 0.34835 0.21353
# Poissons Ratio (z) = -0.07520 0.21618
#
# Static dielectric constant tensor:
#      x y z
#    x 4.301550 -0.135400 0.348270 
#    y -0.135400 4.432700 -0.236110 
#    z 0.348270 -0.236110 4.091230 
# 
# 
# High freq. dielectric constant tensor:
#      x y z
#    x 1.895200 0.010630 0.020390 
#    y 0.010630 1.879750 -0.013730 
#    z 0.020390 -0.013730 1.864470 
# 
# From -- ./inp_files/515293.got.cif
#   From: 2010.06.25/outbox.cif.g09.slc.cpg/sg2_258_cif.got.tgz:515293.got - 2010.06.27 13:26:56.
