data_PCOD8020713
_publ_section_title
;
Structure prediction by ZEFSAII (Michael W. Deem and Ramdas Pophale) SiO2 
 PCOD8020713
Probable space group: P -1
;
_chemical_formula_sum "Si O2"
_cell_formula_units_Z 16
_cell_length_a 13.749969
_cell_length_b 8.114066
_cell_length_c 11.231107
_cell_angle_alpha 102.586384
_cell_angle_beta 146.220109
_cell_angle_gamma 74.490293
_cell_volume 671.299755
_symmetry_space_group_name_H-M "P -1"
_symmetry_group_IT_number 2
_symmetry_cell_setting 'triclinic'
loop_
_space_group_symop_operation_xyz
x,y,z
-x,-y,-z
loop_
_atom_site_type_symbol
_atom_site_label
_atom_site_fract_x
_atom_site_fract_y
_atom_site_fract_z
Si Si1 0.533437 0.143982 0.647805
Si Si2 0.426072 0.945132 0.065730
Si Si3 0.946885 0.110710 0.344189
Si Si4 0.061255 0.882026 0.931374
Si Si5 0.257326 0.305970 0.710394
Si Si6 0.342175 0.341332 0.047541
Si Si7 0.016444 0.514978 0.880518
Si Si8 0.666137 0.521381 0.425237
O O1 0.404534 0.325178 0.529243
O O2 0.500000 0.000000 0.500000
O O3 0.493662 0.073874 0.724200
O O4 0.731778 0.181457 0.849387
O O5 0.598689 0.871929 0.150168
O O6 0.342354 0.141448 0.000894
O O7 0.266724 0.834426 0.859645
O O8 0.983548 0.030463 0.232427
O O9 0.056691 0.268617 0.484899
O O10 0.000000 0.000000 0.500000
O O11 0.974057 0.711128 0.823950
O O12 0.000000 0.000000 0.000000
O O13 0.265145 0.420425 0.855058
O O14 0.325176 0.410551 0.689044
O O15 0.208626 0.416858 0.026430
O O16 0.537329 0.380764 0.278174
O O17 0.859785 0.427690 0.647774
O O18 0.000000 0.500000 0.000000
#
# Coordination Sequence:
#
# PCOD8020713 Si02
#       8
#     2   2   2   2   2   2   2   2
#     4  10  22  42  72  97 133 183 240 294 350 417
#     4  10  25  42  69 106 136 178 246 294 347 431
#     4  11  23  43  75 106 140 182 246 298 356 419
#     4  11  24  46  72 102 141 182 245 299 349 431
#     4  11  24  46  75 100 139 188 242 288 364 426
#     4  12  26  45  67 107 147 183 231 298 365 425
#     4  12  29  46  67 104 147 189 240 286 362 433
#     4  11  25  47  69 101 143 189 234 293 360 430
#
# _framework density 23.83436
#
# number of rings (size 3 to 8) (size 9 to 14) (size 15 to 20)
#    0.000    1.000    3.750    1.500    7.000    4.000 
#    0.000    0.000    0.000    0.000    0.000    0.000 
#    0.000    0.000    0.000    0.000    0.000    0.000 
#
# Total GULP energy -198269.070076 kJ/mol
# GULP energy per Si atom -12391.816880 kJ/mol
# Density = 2.378011 g / cm^3
# Si number density = 23.834360 Si / 1000 Ang^3
#
#
#
# Elastic Constant Matrix: (Units=GPa)
#
#
# Indices 1 2 3 4 5 6 
#
# 1 143.6969 34.4388 48.2547 5.0591 -6.4036 -0.3321
# 2 34.4388 41.2543 16.6764 0.0616 6.7258 4.0053
# 3 48.2547 16.6764 141.1819 19.5860 12.0854 11.1227
# 4 5.0591 0.0616 19.5860 32.0367 8.1576 -2.7211
# 5 -6.4036 6.7258 12.0854 8.1576 53.6320 6.6188
# 6 -0.3321 4.0053 11.1227 -2.7211 6.6188 15.6545
#
#
#
# Elastic Compliance Matrix: (Units=1/GPa)
#
#
# Indices 1 2 3 4 5 6 
#
# 1 0.009936 -0.007826 -0.002919 -0.000117 0.002444 0.003234
# 2 -0.007826 0.032303 -0.000612 0.002202 -0.004476 -0.005720
# 3 -0.002919 -0.000612 0.009615 -0.005896 -0.000616 -0.007501
# 4 -0.000117 0.002202 -0.005896 0.037509 -0.006244 0.012783
# 5 0.002444 -0.004476 -0.000616 -0.006244 0.021649 -0.008604
# 6 0.003234 -0.005720 -0.007501 0.012783 -0.008604 0.076601
#
#
# Mechanical properties :
#
#
# Convention : Reuss Voigt Hill
#
# Bulk Modulus (GPa) = 34.32012 58.31923 46.31968
# Shear Modulus (GPa) = 22.72309 35.38219 29.05264
#
# Velocity S-wave (km/s) = 3.09103 3.85711 3.49512
# Velocity P-wave (km/s) = 5.21248 6.66018 5.98030
#
# Compressibility (1/GPa) = 0.02913743
#
# Stress axis : x y z
#
# Youngs Moduli (GPa) = 100.64813 30.95719 104.00629
#
# Poissons Ratio (x) = 0.24228 0.30362
# Poissons Ratio (y) = 0.78771 0.06368
# Poissons Ratio (z) = 0.29381 0.01895
#
# Static dielectric constant tensor:
#      x y z
#    x 4.686340 -0.111550 0.023320 
#    y -0.111550 4.032900 0.082160 
#    z 0.023320 0.082160 4.621540 
# 
# 
# High freq. dielectric constant tensor:
#      x y z
#    x 1.968800 -0.000250 0.000890 
#    y -0.000250 1.908230 0.007600 
#    z 0.000890 0.007600 1.961860 
# 
# From -- ./inp_files/447954.got.cif
#   From: 2010.06.25/outbox.cif.g09.slc.cpg/sg2_224_cif.got.tgz:447954.got - 2010.06.27 13:26:56.
