data_PCOD8020034
_publ_section_title
;
Structure prediction by ZEFSAII (Michael W. Deem and Ramdas Pophale) SiO2 
 PCOD8020034
Probable space group: P -1
;
_chemical_formula_sum "Si O2"
_cell_formula_units_Z 16
_cell_length_a 20.541375
_cell_length_b 12.118743
_cell_length_c 11.119144
_cell_angle_alpha 57.792679
_cell_angle_beta 150.426659
_cell_angle_gamma 142.027686
_cell_volume 726.643225
_symmetry_space_group_name_H-M "P -1"
_symmetry_group_IT_number 2
_symmetry_cell_setting 'triclinic'
loop_
_space_group_symop_operation_xyz
x,y,z
-x,-y,-z
loop_
_atom_site_type_symbol
_atom_site_label
_atom_site_fract_x
_atom_site_fract_y
_atom_site_fract_z
Si Si1 0.415931 0.382133 0.057070
Si Si2 0.371544 0.271963 0.627444
Si Si3 0.178372 0.704417 0.090906
Si Si4 0.042643 0.187957 0.696415
Si Si5 0.222785 0.183405 0.187925
Si Si6 0.396543 0.117231 0.312547
Si Si7 0.032178 0.595149 0.654180
Si Si8 0.651052 0.238934 0.111726
O O1 0.565610 0.550311 0.305097
O O2 0.425693 0.233346 0.175113
O O3 0.500000 0.500000 0.000000
O O4 0.174389 0.244404 0.758433
O O5 0.385546 0.318955 0.481033
O O6 0.526054 0.274725 0.908761
O O7 0.142494 0.054757 0.432600
O O8 0.376894 0.763216 0.353747
O O9 0.244416 0.884624 0.162482
O O10 0.000000 0.500000 0.000000
O O11 0.074063 0.660354 0.821298
O O12 0.962464 0.271639 0.499191
O O13 0.208423 0.300818 0.010288
O O14 0.285807 0.106679 0.251851
O O15 0.000000 0.000000 0.000000
O O16 0.808633 0.350554 0.415771
O O17 0.217473 0.649206 0.865842
O O18 0.500000 0.000000 0.000000
#
# Coordination Sequence:
#
# PCOD8020034 Si02
#       8
#     2   2   2   2   2   2   2   2
#     4  11  26  43  67 100 137 180 226 281 340 415
#     4  11  22  42  68  98 136 181 220 282 348 403
#     4  11  27  47  73  98 138 185 233 291 344 412
#     4  10  22  42  64  99 130 172 224 277 336 408
#     4   9  21  43  68  99 135 171 224 282 343 410
#     4  10  25  49  69 105 134 181 236 284 350 413
#     4  11  24  43  66 101 135 176 231 280 339 412
#     4  11  23  41  67 101 135 181 222 280 343 403
#
# _framework density 22.019058000000001
#
# number of rings (size 3 to 8) (size 9 to 14) (size 15 to 20)
#    0.000    1.500    2.500    0.750    3.500    8.500 
#    6.750    0.000    0.000    0.000    0.000    0.000 
#    0.000    0.000    0.000    0.000    0.000    0.000 
#
# Total GULP energy -198334.159122 kJ/mol
# GULP energy per Si atom -12395.884945 kJ/mol
# Density = 2.196894 g / cm^3
# Si number density = 22.019058 Si / 1000 Ang^3
#
#
#
# Elastic Constant Matrix: (Units=GPa)
#
#
# Indices 1 2 3 4 5 6 
#
# 1 141.3816 45.5388 64.8692 -3.3703 -5.6619 12.7414
# 2 45.5388 124.5760 46.4956 2.0188 -2.5275 3.1996
# 3 64.8692 46.4956 120.0374 8.0333 -7.1031 4.2490
# 4 -3.3703 2.0188 8.0333 34.8283 -1.2022 -0.3112
# 5 -5.6619 -2.5275 -7.1031 -1.2022 36.1912 1.2050
# 6 12.7414 3.1996 4.2490 -0.3112 1.2050 34.6545
#
#
#
# Elastic Compliance Matrix: (Units=1/GPa)
#
#
# Indices 1 2 3 4 5 6 
#
# 1 0.010236 -0.001896 -0.004797 0.002204 0.000701 -0.003005
# 2 -0.001896 0.009744 -0.002757 -0.000117 -0.000166 0.000140
# 3 -0.004797 -0.002757 0.012261 -0.003082 0.001346 0.000440
# 4 0.002204 -0.000117 -0.003082 0.029667 0.000723 -0.000180
# 5 0.000701 -0.000166 0.001346 0.000723 0.028063 -0.001377
# 6 -0.003005 0.000140 0.000440 -0.000180 -0.001377 0.029940
#
#
# Mechanical properties :
#
#
# Convention : Reuss Voigt Hill
#
# Bulk Modulus (GPa) = 74.94946 77.75580 76.35263
# Shear Modulus (GPa) = 34.90207 36.40759 35.65483
#
# Velocity S-wave (km/s) = 3.98563 4.07068 4.02838
# Velocity P-wave (km/s) = 7.43590 7.58179 7.50920
#
# Compressibility (1/GPa) = 0.01334232
#
# Stress axis : x y z
#
# Youngs Moduli (GPa) = 97.69380 102.62673 81.55762
#
# Poissons Ratio (x) = 0.19455 0.39124
# Poissons Ratio (y) = 0.18520 0.22484
# Poissons Ratio (z) = 0.46864 0.28292
#
# Static dielectric constant tensor:
#      x y z
#    x 6.517220 0.934080 0.447370 
#    y 0.934080 4.384470 0.239410 
#    z 0.447370 0.239410 4.435640 
# 
# 
# High freq. dielectric constant tensor:
#      x y z
#    x 1.863220 0.006300 0.010570 
#    y 0.006300 1.868500 0.007100 
#    z 0.010570 0.007100 1.885100 
# 
# From -- ./inp_files/471191.got.cif
#   From: 2010.06.25/outbox.cif.g09.slc.cpg/sg2_236_cif.got.tgz:471191.got - 2010.06.27 13:26:56.
