data_PCOD8020928
_publ_section_title
;
Structure prediction by ZEFSAII (Michael W. Deem and Ramdas Pophale) SiO2 
 PCOD8020928
Probable space group: P -1
;
_chemical_formula_sum "Si O2"
_cell_formula_units_Z 16
_cell_length_a 24.931477
_cell_length_b 12.320080
_cell_length_c 12.067700
_cell_angle_alpha 145.243593
_cell_angle_beta 143.738405
_cell_angle_gamma 21.848161
_cell_volume 769.496539
_symmetry_space_group_name_H-M "P -1"
_symmetry_group_IT_number 2
_symmetry_cell_setting 'triclinic'
loop_
_space_group_symop_operation_xyz
x,y,z
-x,-y,-z
loop_
_atom_site_type_symbol
_atom_site_label
_atom_site_fract_x
_atom_site_fract_y
_atom_site_fract_z
Si Si1 0.814677 0.100234 0.046068
Si Si2 0.344588 0.688427 0.447296
Si Si3 0.656414 0.967596 0.736448
Si Si4 0.178736 0.266531 0.795661
Si Si5 0.905456 0.519214 0.930247
Si Si6 0.427748 0.135406 0.114909
Si Si7 0.080901 0.063854 0.156905
Si Si8 0.585461 0.759672 0.282128
O O1 0.722033 0.062261 0.889586
O O2 0.820767 0.123891 0.945749
O O3 0.742004 0.399766 0.234314
O O4 0.984436 0.830152 0.142623
O O5 0.500000 0.500000 0.500000
O O6 0.389107 0.406543 0.325670
O O7 0.284165 0.922614 0.640843
O O8 0.205053 0.918395 0.327648
O O9 0.770897 0.664767 0.753746
O O10 0.615616 0.917014 0.516297
O O11 0.511903 0.216767 0.781780
O O12 0.032294 0.568175 0.734810
O O13 0.142250 0.278279 0.872046
O O14 0.268716 0.310960 0.983905
O O15 0.000000 0.500000 0.000000
O O16 0.523735 0.874631 0.150632
O O17 0.500000 0.000000 0.000000
O O18 0.000000 0.000000 0.000000
#
# Coordination Sequence:
#
# PCOD8020928 Si02
#       8
#     2   2   2   2   2   2   2   2
#     4  10  23  41  68  91 128 178 214 272 332 395
#     4  12  26  42  69 101 128 182 226 268 338 404
#     4  10  22  43  65  95 132 166 223 276 327 398
#     4  11  23  44  67  94 134 175 218 280 328 401
#     4   9  20  44  63  90 125 167 220 268 326 381
#     4  12  24  42  67  97 138 171 218 279 331 397
#     4  11  24  45  66  98 141 175 223 275 334 397
#     4  11  24  40  66  99 130 170 220 276 332 391
#
# _framework density 20.792815999999998
#
# number of rings (size 3 to 8) (size 9 to 14) (size 15 to 20)
#    0.000    1.250    3.750    1.500    1.750    0.500 
#   15.750    0.000    0.000    0.000    0.000    0.000 
#    0.000    0.000    0.000    0.000    0.000    0.000 
#
# Total GULP energy -198209.443155 kJ/mol
# GULP energy per Si atom -12388.090197 kJ/mol
# Density = 2.074549 g / cm^3
# Si number density = 20.792816 Si / 1000 Ang^3
#
#
#
# Elastic Constant Matrix: (Units=GPa)
#
#
# Indices 1 2 3 4 5 6 
#
# 1 119.5151 34.6613 47.1520 13.2463 -16.3727 -12.0870
# 2 34.6613 109.9790 45.3891 9.1081 -14.9716 -21.1247
# 3 47.1520 45.3891 74.1344 3.5427 -6.1327 -8.3699
# 4 13.2463 9.1081 3.5427 46.7996 0.0212 -7.6868
# 5 -16.3727 -14.9716 -6.1327 0.0212 32.0923 1.6668
# 6 -12.0870 -21.1247 -8.3699 -7.6868 1.6668 28.2022
#
#
#
# Elastic Compliance Matrix: (Units=1/GPa)
#
#
# Indices 1 2 3 4 5 6 
#
# 1 0.012345 0.000520 -0.007349 -0.002633 0.005009 0.002485
# 2 0.000520 0.014510 -0.007817 -0.001037 0.005116 0.008186
# 3 -0.007349 -0.007817 0.022427 0.001621 -0.003022 -0.001729
# 4 -0.002633 -0.001037 0.001621 0.023006 -0.001790 0.004952
# 5 0.005009 0.005116 -0.003022 -0.001790 0.035396 0.002502
# 6 0.002485 0.008186 -0.001729 0.004952 0.002502 0.043344
#
#
# Mechanical properties :
#
#
# Convention : Reuss Voigt Hill
#
# Bulk Modulus (GPa) = 50.02960 62.00370 56.01665
# Shear Modulus (GPa) = 26.74007 33.18055 29.96031
#
# Velocity S-wave (km/s) = 3.59001 3.99904 3.80003
# Velocity P-wave (km/s) = 6.42631 7.15595 6.80092
#
# Compressibility (1/GPa) = 0.01998817
#
# Stress axis : x y z
#
# Youngs Moduli (GPa) = 81.00196 68.91901 44.58909
#
# Poissons Ratio (x) = -0.03582 0.32771
# Poissons Ratio (y) = -0.04210 0.34856
# Poissons Ratio (z) = 0.59532 0.53876
#
# Static dielectric constant tensor:
#      x y z
#    x 3.920040 0.216920 -0.235500 
#    y 0.216920 7.745580 -1.843990 
#    z -0.235500 -1.843990 4.407180 
# 
# 
# High freq. dielectric constant tensor:
#      x y z
#    x 1.824560 -0.011670 -0.009600 
#    y -0.011670 1.834180 -0.009270 
#    z -0.009600 -0.009270 1.798730 
# 
# From -- ./inp_files/474880.got.cif
#   From: 2010.06.25/outbox.cif.g09.slc.cpg/sg2_238_cif.got.tgz:474880.got - 2010.06.27 13:26:56.
