data_PCOD8020254
_publ_section_title
;
Structure prediction by ZEFSAII (Michael W. Deem and Ramdas Pophale) SiO2 
 PCOD8020254
Probable space group: P -1
;
_chemical_formula_sum "Si O2"
_cell_formula_units_Z 16
_cell_length_a 9.678027
_cell_length_b 15.394816
_cell_length_c 7.902911
_cell_angle_alpha 88.419638
_cell_angle_beta 60.599335
_cell_angle_gamma 47.081381
_cell_volume 658.725612
_symmetry_space_group_name_H-M "P -1"
_symmetry_group_IT_number 2
_symmetry_cell_setting 'triclinic'
loop_
_space_group_symop_operation_xyz
x,y,z
-x,-y,-z
loop_
_atom_site_type_symbol
_atom_site_label
_atom_site_fract_x
_atom_site_fract_y
_atom_site_fract_z
Si Si1 0.821558 0.459271 0.743233
Si Si2 0.116325 0.772566 0.101747
Si Si3 0.687329 0.709279 0.709128
Si Si4 0.795527 0.248637 0.325831
Si Si5 0.320199 0.148791 0.667576
Si Si6 0.263774 0.153651 0.089555
Si Si7 0.719351 0.091986 0.301604
Si Si8 0.563269 0.405172 0.776968
O O1 0.730292 0.593111 0.739585
O O2 0.683364 0.450724 0.699731
O O3 0.121658 0.337419 0.551277
O O4 0.723090 0.474976 0.992618
O O5 0.300021 0.710993 0.151502
O O6 0.948711 0.758467 0.263393
O O7 0.254133 0.698108 0.840801
O O8 0.930932 0.931088 0.171985
O O9 0.734618 0.751820 0.836938
O O10 0.401196 0.839177 0.815087
O O11 0.840952 0.126322 0.305422
O O12 0.569300 0.363948 0.585236
O O13 0.024904 0.198271 0.284797
O O14 0.472405 0.173331 0.552969
O O15 0.500000 0.000000 0.500000
O O16 0.249713 0.167758 0.899976
O O17 0.500000 0.000000 0.000000
#
# Coordination Sequence:
#
# PCOD8020254 Si02
#       8
#     2   2   2   2   2   2   2   2
#     4  10  24  43  70  95 129 189 233 273 330 400
#     4  10  22  42  67 100 140 176 216 280 353 404
#     4  11  22  45  72  94 138 180 225 279 338 402
#     4  11  24  40  65 103 136 173 226 278 341 406
#     4   9  20  36  59  94 135 167 211 264 329 407
#     4  11  23  39  68  99 133 177 221 272 342 411
#     4  11  23  41  66 104 138 171 219 283 353 403
#     4  11  23  44  70  96 134 180 233 282 335 393
#
# _framework density 24.289325999999999
#
# number of rings (size 3 to 8) (size 9 to 14) (size 15 to 20)
#    0.000    1.500    1.250    4.125    5.250    1.500 
#    0.000    6.250    2.750    0.000    0.000    0.000 
#    0.000    0.000    0.000    0.000    0.000    0.000 
#
# Total GULP energy -198214.828786 kJ/mol
# GULP energy per Si atom -12388.426799 kJ/mol
# Density = 2.423404 g / cm^3
# Si number density = 24.289326 Si / 1000 Ang^3
#
#
#
# Elastic Constant Matrix: (Units=GPa)
#
#
# Indices 1 2 3 4 5 6 
#
# 1 97.5867 33.9841 44.8002 6.0450 9.3648 20.6996
# 2 33.9841 71.6079 15.6318 8.4051 0.5097 12.8583
# 3 44.8002 15.6318 139.2596 3.2039 4.9680 10.2568
# 4 6.0450 8.4051 3.2039 31.2667 -2.6999 -7.5159
# 5 9.3648 0.5097 4.9680 -2.6999 33.8923 2.5238
# 6 20.6996 12.8583 10.2568 -7.5159 2.5238 40.9135
#
#
#
# Elastic Compliance Matrix: (Units=1/GPa)
#
#
# Indices 1 2 3 4 5 6 
#
# 1 0.015477 -0.005156 -0.003801 -0.002854 -0.003454 -0.005568
# 2 -0.005156 0.017625 0.000030 -0.004576 0.001077 -0.003845
# 3 -0.003801 0.000030 0.008428 -0.000207 -0.000185 -0.000226
# 4 -0.002854 -0.004576 -0.000207 0.036315 0.003079 0.009415
# 5 -0.003454 0.001077 -0.000185 0.003079 0.030707 0.000127
# 6 -0.005568 -0.003845 -0.000226 0.009415 0.000127 0.030246
#
#
# Mechanical properties :
#
#
# Convention : Reuss Voigt Hill
#
# Bulk Modulus (GPa) = 42.23563 55.25406 48.74484
# Shear Modulus (GPa) = 30.38694 35.48372 32.93533
#
# Velocity S-wave (km/s) = 3.54084 3.82629 3.68633
# Velocity P-wave (km/s) = 5.84321 6.50525 6.18310
#
# Compressibility (1/GPa) = 0.02367669
#
# Stress axis : x y z
#
# Youngs Moduli (GPa) = 64.61038 56.73701 118.64735
#
# Poissons Ratio (x) = 0.29254 0.45102
# Poissons Ratio (y) = 0.33314 -0.00360
# Poissons Ratio (z) = 0.24561 -0.00172
#
# Static dielectric constant tensor:
#      x y z
#    x 4.576920 0.224780 -0.171650 
#    y 0.224780 4.451990 -0.235040 
#    z -0.171650 -0.235040 5.499320 
# 
# 
# High freq. dielectric constant tensor:
#      x y z
#    x 1.956390 0.010020 -0.027530 
#    y 0.010020 1.978200 0.000080 
#    z -0.027530 0.000080 1.980340 
# 
# From -- ./inp_files/207595.got.cif
#   From: 2010.06.25/outbox.cif.g09.slc.cpg/sg2_104_cif.got.tgz:207595.got - 2010.06.27 13:26:56.
