data_PCOD8020998
_publ_section_title
;
Structure prediction by ZEFSAII (Michael W. Deem and Ramdas Pophale) SiO2 
 PCOD8020998
Probable space group: P -1
;
_chemical_formula_sum "Si O2"
_cell_formula_units_Z 12
_cell_length_a 11.799965
_cell_length_b 6.487767
_cell_length_c 9.345355
_cell_angle_alpha 123.821994
_cell_angle_beta 112.835137
_cell_angle_gamma 83.057163
_cell_volume 543.536863
_symmetry_space_group_name_H-M "P -1"
_symmetry_group_IT_number 2
_symmetry_cell_setting 'triclinic'
loop_
_space_group_symop_operation_xyz
x,y,z
-x,-y,-z
loop_
_atom_site_type_symbol
_atom_site_label
_atom_site_fract_x
_atom_site_fract_y
_atom_site_fract_z
Si Si1 0.625057 0.954299 0.404593
Si Si2 0.461394 0.593424 0.363778
Si Si3 0.846831 0.090766 0.096139
Si Si4 0.123063 0.875837 0.540450
Si Si5 0.952850 0.597788 0.866984
Si Si6 0.576412 0.944354 0.883171
O O1 0.586811 0.699808 0.376881
O O2 0.506148 0.009882 0.275800
O O3 0.635862 0.200840 0.607407
O O4 0.753884 0.941633 0.379830
O O5 0.500000 0.500000 0.500000
O O6 0.393491 0.335685 0.168942
O O7 0.870437 0.156019 0.299202
O O8 0.870773 0.815564 0.949685
O O9 0.928390 0.300075 0.127719
O O10 0.705369 0.121580 0.001690
O O11 0.122168 0.617860 0.351545
O O12 0.000000 0.000000 0.500000
O O13 0.000000 0.500000 0.000000
O O14 0.500000 0.000000 0.000000
#
# Coordination Sequence:
#
# PCOD8020998 Si02
#       6
#     2   2   2   2   2   2
#     4  10  22  43  66  95 129 169 218 267 330 388
#     4   9  21  41  64  96 128 170 211 267 328 390
#     4  11  25  46  68  99 133 174 226 271 332 393
#     4  12  24  45  70  98 133 175 224 273 330 394
#     4  11  25  46  69  97 134 179 220 274 329 395
#     4  11  22  40  66  95 129 165 212 271 326 387
#
# _framework density 22.077618999999999
#
# number of rings (size 3 to 8) (size 9 to 14) (size 15 to 20)
#    0.000    1.333    3.333    1.500    0.000    7.333 
#    6.000    0.000    0.000    0.000    0.000    0.000 
#    0.000    0.000    0.000    0.000    0.000    0.000 
#
# Total GULP energy -148670.715605 kJ/mol
# GULP energy per Si atom -12389.226300 kJ/mol
# Density = 2.202737 g / cm^3
# Si number density = 22.077619 Si / 1000 Ang^3
#
#
#
# Elastic Constant Matrix: (Units=GPa)
#
#
# Indices 1 2 3 4 5 6 
#
# 1 156.2102 45.7167 40.9936 -23.8161 16.8324 31.9069
# 2 45.7167 106.9550 36.7080 -15.7889 6.0264 35.1519
# 3 40.9936 36.7080 118.6919 -2.6451 -6.8992 9.0199
# 4 -23.8161 -15.7889 -2.6451 21.6316 1.8482 -3.3057
# 5 16.8324 6.0264 -6.8992 1.8482 38.7150 -5.5453
# 6 31.9069 35.1519 9.0199 -3.3057 -5.5453 40.6137
#
#
#
# Elastic Compliance Matrix: (Units=1/GPa)
#
#
# Indices 1 2 3 4 5 6 
#
# 1 0.011927 0.002213 -0.004203 0.013359 -0.008408 -0.010412
# 2 0.002213 0.017768 -0.005198 0.012979 -0.007556 -0.015937
# 3 -0.004203 -0.005198 0.011249 -0.006691 0.005755 0.005544
# 4 0.013359 0.012979 -0.006691 0.068296 -0.014671 -0.016687
# 5 -0.008408 -0.007556 0.005755 -0.014671 0.034593 0.015397
# 6 -0.010412 -0.015937 0.005544 -0.016687 0.015397 0.046109
#
#
# Mechanical properties :
#
#
# Convention : Reuss Voigt Hill
#
# Bulk Modulus (GPa) = 37.64283 69.85486 53.74885
# Shear Modulus (GPa) = 23.45511 37.42133 30.43822
#
# Velocity S-wave (km/s) = 3.26297 4.12149 3.71710
# Velocity P-wave (km/s) = 5.59314 7.37280 6.54375
#
# Compressibility (1/GPa) = 0.02656548
#
# Stress axis : x y z
#
# Youngs Moduli (GPa) = 83.84602 56.28151 88.90018
#
# Poissons Ratio (x) = -0.12453 0.37367
# Poissons Ratio (y) = -0.18551 0.46211
# Poissons Ratio (z) = 0.35243 0.29256
#
# Static dielectric constant tensor:
#      x y z
#    x 4.046790 0.174730 -0.316710 
#    y 0.174730 4.046980 0.674210 
#    z -0.316710 0.674210 4.663180 
# 
# 
# High freq. dielectric constant tensor:
#      x y z
#    x 1.880070 0.016850 -0.012160 
#    y 0.016850 1.865980 0.006160 
#    z -0.012160 0.006160 1.874120 
# 
# From -- ./inp_files/27424.got.cif
#   From: 2010.06.25/outbox.cif.g09.slc.cpg/sg2_14_cif.got.tgz:27424.got - 2010.06.27 13:26:56.
