data_PCOD8020181
_publ_section_title
;
Structure prediction by ZEFSAII (Michael W. Deem and Ramdas Pophale) SiO2 
 PCOD8020181
Probable space group: P -1
;
_chemical_formula_sum "Si O2"
_cell_formula_units_Z 16
_cell_length_a 11.516566
_cell_length_b 17.626633
_cell_length_c 22.760862
_cell_angle_alpha 21.504834
_cell_angle_beta 152.655032
_cell_angle_gamma 138.355312
_cell_volume 686.730290
_symmetry_space_group_name_H-M "P -1"
_symmetry_group_IT_number 2
_symmetry_cell_setting 'triclinic'
loop_
_space_group_symop_operation_xyz
x,y,z
-x,-y,-z
loop_
_atom_site_type_symbol
_atom_site_label
_atom_site_fract_x
_atom_site_fract_y
_atom_site_fract_z
Si Si1 0.767554 0.463465 0.387735
Si Si2 0.944332 0.690763 0.887905
Si Si3 0.496603 0.438750 0.390744
Si Si4 0.781150 0.042504 0.226685
Si Si5 0.308029 0.431971 0.041009
Si Si6 0.255089 0.133409 0.538547
Si Si7 0.864232 0.635036 0.480600
Si Si8 0.681693 0.655564 0.020907
O O1 0.673326 0.320309 0.494673
O O2 0.000000 0.500000 0.500000
O O3 0.912849 0.337564 0.483442
O O4 0.493800 0.706677 0.072666
O O5 0.182891 0.619591 0.097397
O O6 0.663269 0.733752 0.769827
O O7 0.938794 0.922454 0.688917
O O8 0.000000 0.500000 0.000000
O O9 0.477109 0.242321 0.564016
O O10 0.629104 0.581372 0.382479
O O11 0.839566 0.909654 0.409853
O O12 0.711162 0.886381 0.261924
O O13 0.597099 0.449370 0.146610
O O14 0.041056 0.686304 0.755931
O O15 0.233879 0.344173 0.009525
O O16 0.412236 0.901785 0.737364
O O17 0.037698 0.416647 0.760738
#
# Coordination Sequence:
#
# PCOD8020181 Si02
#       8
#     2   2   2   2   2   2   2   2
#     4   9  20  40  60  88 125 162 205 256 304 373
#     4  10  22  42  66  93 126 164 211 263 311 376
#     4   9  23  40  62  95 126 163 215 256 313 377
#     4  11  22  39  68  93 122 174 206 249 331 366
#     4  10  23  42  62  95 125 164 217 260 314 370
#     4  11  21  41  64  92 123 172 208 260 319 362
#     4  11  22  41  64  94 131 164 209 261 311 378
#     4  11  22  39  66  91 131 164 210 264 308 380
#
# _framework density 23.298811000000001
#
# number of rings (size 3 to 8) (size 9 to 14) (size 15 to 20)
#    0.000    1.750    2.500    1.125    1.750    7.500 
#    0.000    0.625    0.000    0.000    0.000    0.000 
#    0.000    0.000    0.000    0.000    0.000    0.000 
#
# Total GULP energy -198230.453463 kJ/mol
# GULP energy per Si atom -12389.403341 kJ/mol
# Density = 2.324578 g / cm^3
# Si number density = 23.298811 Si / 1000 Ang^3
#
#
#
# Elastic Constant Matrix: (Units=GPa)
#
#
# Indices 1 2 3 4 5 6 
#
# 1 165.1530 36.4159 14.7485 -25.4625 -24.2709 14.7964
# 2 36.4159 85.5777 9.9317 -16.9517 -10.6378 1.4911
# 3 14.7485 9.9317 32.8110 -10.6098 -6.6339 0.2522
# 4 -25.4625 -16.9517 -10.6098 31.8678 3.1145 -4.3679
# 5 -24.2709 -10.6378 -6.6339 3.1145 34.5064 -9.4681
# 6 14.7964 1.4911 0.2522 -4.3679 -9.4681 43.8500
#
#
#
# Elastic Compliance Matrix: (Units=1/GPa)
#
#
# Indices 1 2 3 4 5 6 
#
# 1 0.007950 -0.001866 -0.000693 0.004551 0.004124 -0.001271
# 2 -0.001866 0.014005 -0.001092 0.005512 0.002649 0.001281
# 3 -0.000693 -0.001092 0.035654 0.010497 0.005727 0.002348
# 4 0.004551 0.005512 0.010497 0.041488 0.004059 0.003226
# 5 0.004124 0.002649 0.005727 0.004059 0.035213 0.006493
# 6 -0.001271 0.001281 0.002348 0.003226 0.006493 0.024900
#
#
# Mechanical properties :
#
#
# Convention : Reuss Voigt Hill
#
# Bulk Modulus (GPa) = 19.87870 45.08154 32.48012
# Shear Modulus (GPa) = 27.28011 36.87454 32.07732
#
# Velocity S-wave (km/s) = 3.42552 3.98261 3.71452
# Velocity P-wave (km/s) = 4.91896 6.36706 5.68927
#
# Compressibility (1/GPa) = 0.05030511
#
# Stress axis : x y z
#
# Youngs Moduli (GPa) = 125.78597 71.40354 28.04710
#
# Poissons Ratio (x) = 0.13326 0.01945
# Poissons Ratio (y) = 0.23475 0.03064
# Poissons Ratio (z) = 0.08722 0.07800
#
# Static dielectric constant tensor:
#      x y z
#    x 5.367770 0.354510 -0.088730 
#    y 0.354510 4.231750 -0.032710 
#    z -0.088730 -0.032710 3.841620 
# 
# 
# High freq. dielectric constant tensor:
#      x y z
#    x 1.949410 0.003130 -0.005790 
#    y 0.003130 1.912170 0.007460 
#    z -0.005790 0.007460 1.892040 
# 
# From -- ./inp_files/271746.got.cif
#   From: 2010.06.25/outbox.cif.g09.slc.cpg/sg2_136_cif.got.tgz:271746.got - 2010.06.27 13:26:56.
