data_PCOD8020317
_publ_section_title
;
Structure prediction by ZEFSAII (Michael W. Deem and Ramdas Pophale) SiO2 
 PCOD8020317
Probable space group: P -1
;
_chemical_formula_sum "Si O2"
_cell_formula_units_Z 16
_cell_length_a 14.242235
_cell_length_b 9.023901
_cell_length_c 9.266061
_cell_angle_alpha 116.828856
_cell_angle_beta 122.389169
_cell_angle_gamma 102.366271
_cell_volume 714.476449
_symmetry_space_group_name_H-M "P -1"
_symmetry_group_IT_number 2
_symmetry_cell_setting 'triclinic'
loop_
_space_group_symop_operation_xyz
x,y,z
-x,-y,-z
loop_
_atom_site_type_symbol
_atom_site_label
_atom_site_fract_x
_atom_site_fract_y
_atom_site_fract_z
Si Si1 0.009740 0.789964 0.724367
Si Si2 0.482310 0.310697 0.478068
Si Si3 0.942501 0.643714 0.293834
Si Si4 0.636034 0.281060 0.844525
Si Si5 0.455343 0.939050 0.770818
Si Si6 0.983839 0.823230 0.123793
Si Si7 0.853646 0.453187 0.655428
Si Si8 0.772149 0.073264 0.806872
O O1 0.026657 0.763941 0.559704
O O2 0.866821 0.578011 0.575406
O O3 0.018117 0.992227 0.857439
O O4 0.136185 0.815562 0.924249
O O5 0.500000 0.500000 0.500000
O O6 0.589081 0.370562 0.723725
O O7 0.486850 0.180871 0.296069
O O8 0.328133 0.174530 0.360216
O O9 0.962188 0.813400 0.273016
O O10 0.011974 0.547835 0.230083
O O11 0.778998 0.474191 0.120094
O O12 0.670478 0.139855 0.726410
O O13 0.519244 0.145786 0.814393
O O14 0.286755 0.781416 0.556490
O O15 0.500000 0.000000 0.000000
O O16 0.132850 0.875084 0.230969
O O17 0.862918 0.594847 0.856831
#
# Coordination Sequence:
#
# PCOD8020317 Si02
#       8
#     2   2   2   2   2   2   2   2
#     4  11  24  41  65 102 139 167 214 285 336 385
#     4  11  27  44  71  93 134 182 228 275 337 399
#     4  12  24  40  71  98 134 175 221 274 338 390
#     4  11  24  47  68  97 138 178 228 272 332 407
#     4  11  25  43  69 104 136 177 224 274 333 402
#     4  11  24  40  66 100 132 173 224 273 327 395
#     4  11  23  41  71  94 131 177 228 264 326 403
#     4  10  22  42  67  94 133 177 222 272 327 397
#
# _framework density 22.394019
#
# number of rings (size 3 to 8) (size 9 to 14) (size 15 to 20)
#    0.000    1.000    2.500    5.625   12.250    0.000 
#    0.000    0.625    0.000    0.000    0.000    0.000 
#    0.000    0.000    0.000    0.000    0.000    0.000 
#
# Total GULP energy -198331.201328 kJ/mol
# GULP energy per Si atom -12395.700083 kJ/mol
# Density = 2.234305 g / cm^3
# Si number density = 22.394019 Si / 1000 Ang^3
#
#
#
# Elastic Constant Matrix: (Units=GPa)
#
#
# Indices 1 2 3 4 5 6 
#
# 1 71.5049 41.1517 48.9269 -3.4785 5.3532 17.4908
# 2 41.1517 140.9820 55.0131 -13.2316 13.9028 14.7806
# 3 48.9269 55.0131 106.1143 -2.5048 7.3132 18.9122
# 4 -3.4785 -13.2316 -2.5048 34.4978 13.7065 0.9143
# 5 5.3532 13.9028 7.3132 13.7065 41.5921 5.3541
# 6 17.4908 14.7806 18.9122 0.9143 5.3541 35.9552
#
#
#
# Elastic Compliance Matrix: (Units=1/GPa)
#
#
# Indices 1 2 3 4 5 6 
#
# 1 0.022382 -0.002798 -0.007842 0.000807 -0.000109 -0.005618
# 2 -0.002798 0.010196 -0.003511 0.004979 -0.004005 -0.000514
# 3 -0.007842 -0.003511 0.015322 -0.001025 0.000187 -0.002803
# 4 0.000807 0.004979 -0.001025 0.036262 -0.013432 -0.000822
# 5 -0.000109 -0.004005 0.000187 -0.013432 0.030117 -0.002542
# 6 -0.005618 -0.000514 -0.002803 -0.000822 -0.002542 0.032630
#
#
# Mechanical properties :
#
#
# Convention : Reuss Voigt Hill
#
# Bulk Modulus (GPa) = 51.02130 67.64274 59.33202
# Shear Modulus (GPa) = 27.51131 33.97631 30.74381
#
# Velocity S-wave (km/s) = 3.50882 3.89936 3.70923
# Velocity P-wave (km/s) = 6.26487 7.10947 6.70049
#
# Compressibility (1/GPa) = 0.01959966
#
# Stress axis : x y z
#
# Youngs Moduli (GPa) = 44.67778 98.07974 65.26551
#
# Poissons Ratio (x) = 0.27441 0.51180
# Poissons Ratio (y) = 0.12500 0.22912
# Poissons Ratio (z) = 0.35035 0.34432
#
# Static dielectric constant tensor:
#      x y z
#    x 3.924140 0.352510 0.143040 
#    y 0.352510 4.318620 0.094920 
#    z 0.143040 0.094920 3.854990 
# 
# 
# High freq. dielectric constant tensor:
#      x y z
#    x 1.864670 0.025100 0.008490 
#    y 0.025100 1.899710 -0.000750 
#    z 0.008490 -0.000750 1.873770 
# 
# From -- ./inp_files/299360.got.cif
#   From: 2010.06.25/outbox.cif.g09.slc.cpg/sg2_150_cif.got.tgz:299360.got - 2010.06.27 13:26:56.
