data_PCOD8020870
_publ_section_title
;
Structure prediction by ZEFSAII (Michael W. Deem and Ramdas Pophale) SiO2 
 PCOD8020870
Probable space group: P -1
;
_chemical_formula_sum "Si O2"
_cell_formula_units_Z 14
_cell_length_a 7.445005
_cell_length_b 11.341414
_cell_length_c 11.283394
_cell_angle_alpha 54.537303
_cell_angle_beta 94.217328
_cell_angle_gamma 115.371295
_cell_volume 681.026855
_symmetry_space_group_name_H-M "P -1"
_symmetry_group_IT_number 2
_symmetry_cell_setting 'triclinic'
loop_
_space_group_symop_operation_xyz
x,y,z
-x,-y,-z
loop_
_atom_site_type_symbol
_atom_site_label
_atom_site_fract_x
_atom_site_fract_y
_atom_site_fract_z
Si Si1 0.831753 0.280981 0.701362
Si Si2 0.533860 0.359278 0.238509
Si Si3 0.975914 0.944725 0.202895
Si Si4 0.439600 0.138469 0.891304
Si Si5 0.091670 0.616765 0.624324
Si Si6 0.639594 0.723688 0.972103
Si Si7 0.122489 0.174354 0.469200
O O1 0.890041 0.133458 0.804822
O O2 0.598022 0.241137 0.736082
O O3 0.860020 0.330591 0.538774
O O4 0.963636 0.419347 0.724718
O O5 0.709613 0.326021 0.319072
O O6 0.463527 0.271618 0.159763
O O7 0.350727 0.279679 0.370190
O O8 0.626562 0.552136 0.107036
O O9 0.793251 0.919403 0.122030
O O10 0.874917 0.858887 0.371810
O O11 0.123239 0.139217 0.108849
O O12 0.486027 0.241211 0.954059
O O13 0.500000 0.000000 0.000000
O O14 0.977917 0.707540 0.627491
O O15 0.000000 0.000000 0.500000
#
# Coordination Sequence:
#
# PCOD8020870 Si02
#       7
#     2   2   2   2   2   2   2
#     4  10  22  43  64  98 123 161 215 259 311 369
#     4  11  24  44  64  91 132 168 203 265 308 373
#     4  11  23  43  65  93 128 165 209 266 304 368
#     4  12  24  37  65  93 125 166 207 253 313 372
#     4  10  23  41  69  93 125 163 210 262 313 369
#     4  11  24  43  61  95 132 166 210 250 320 373
#     4  11  23  43  67  92 124 165 214 255 312 373
#
# _framework density 20.557193000000002
#
# number of rings (size 3 to 8) (size 9 to 14) (size 15 to 20)
#    0.000    1.143    2.857    3.000    2.000    1.714 
#    0.000    7.857    0.000    0.000    0.000    0.000 
#    0.000    0.000    0.000    0.000    0.000    0.000 
#
# Total GULP energy -173550.168453 kJ/mol
# GULP energy per Si atom -12396.440604 kJ/mol
# Density = 2.051040 g / cm^3
# Si number density = 20.557193 Si / 1000 Ang^3
#
#
#
# Elastic Constant Matrix: (Units=GPa)
#
#
# Indices 1 2 3 4 5 6 
#
# 1 101.8677 53.4012 34.3988 5.4431 12.4059 15.7191
# 2 53.4012 125.3827 36.4218 2.1082 7.3873 1.8653
# 3 34.3988 36.4218 68.7537 -0.6384 4.2299 9.3996
# 4 5.4431 2.1082 -0.6384 33.1024 6.2131 -6.1176
# 5 12.4059 7.3873 4.2299 6.2131 34.1823 -1.6033
# 6 15.7191 1.8653 9.3996 -6.1176 -1.6033 33.3378
#
#
#
# Elastic Compliance Matrix: (Units=1/GPa)
#
#
# Indices 1 2 3 4 5 6 
#
# 1 0.015424 -0.005058 -0.003929 -0.002788 -0.003820 -0.006577
# 2 -0.005058 0.011180 -0.003782 0.000605 -0.000085 0.002933
# 3 -0.003929 -0.003782 0.018978 0.000740 -0.000388 -0.003169
# 4 -0.002788 0.000605 0.000740 0.032823 -0.004854 0.006862
# 5 -0.003820 -0.000085 -0.000388 -0.004854 0.031710 0.002550
# 6 -0.006577 0.002933 -0.003169 0.006862 0.002550 0.035209
#
#
# Mechanical properties :
#
#
# Convention : Reuss Voigt Hill
#
# Bulk Modulus (GPa) = 49.89106 60.49419 55.19262
# Shear Modulus (GPa) = 28.16235 31.57664 29.86949
#
# Velocity S-wave (km/s) = 3.70530 3.92348 3.81595
# Velocity P-wave (km/s) = 6.52899 7.07221 6.80602
#
# Compressibility (1/GPa) = 0.02004367
#
# Stress axis : x y z
#
# Youngs Moduli (GPa) = 64.83328 89.44888 52.69266
#
# Poissons Ratio (x) = 0.45244 0.20704
# Poissons Ratio (y) = 0.32793 0.19927
# Poissons Ratio (z) = 0.25474 0.33827
#
# Static dielectric constant tensor:
#      x y z
#    x 4.338930 0.077460 -0.458980 
#    y 0.077460 3.983230 -0.139990 
#    z -0.458980 -0.139990 4.046900 
# 
# 
# High freq. dielectric constant tensor:
#      x y z
#    x 1.804790 -0.002600 -0.010680 
#    y -0.002600 1.812300 -0.001730 
#    z -0.010680 -0.001730 1.820110 
# 
# From -- ./inp_files/72163.got.cif
#   From: 2010.06.25/outbox.cif.g09.slc.cpg/sg2_37_cif.got.tgz:72163.got - 2010.06.27 13:26:56.
