data_PCOD8020199
_publ_section_title
;
Structure prediction by ZEFSAII (Michael W. Deem and Ramdas Pophale) SiO2 
 PCOD8020199
Probable space group: P -1
;
_chemical_formula_sum "Si O2"
_cell_formula_units_Z 16
_cell_length_a 15.896748
_cell_length_b 13.054760
_cell_length_c 8.022126
_cell_angle_alpha 78.070102
_cell_angle_beta 106.834303
_cell_angle_gamma 40.427001
_cell_volume 749.684439
_symmetry_space_group_name_H-M "P -1"
_symmetry_group_IT_number 2
_symmetry_cell_setting 'triclinic'
loop_
_space_group_symop_operation_xyz
x,y,z
-x,-y,-z
loop_
_atom_site_type_symbol
_atom_site_label
_atom_site_fract_x
_atom_site_fract_y
_atom_site_fract_z
Si Si1 0.195613 0.934592 0.646061
Si Si2 0.734714 0.285827 0.542650
Si Si3 0.696646 0.971477 0.946121
Si Si4 0.444551 0.057125 0.635035
Si Si5 0.680502 0.225713 0.853277
Si Si6 0.067592 0.506906 0.395554
Si Si7 0.169036 0.611685 0.590537
Si Si8 0.465396 0.820101 0.880492
O O1 0.353673 0.850018 0.700487
O O2 0.227971 0.861650 0.881276
O O3 0.811033 0.149786 0.465455
O O4 0.998334 0.196542 0.443147
O O5 0.791164 0.173049 0.789502
O O6 0.517055 0.517169 0.327815
O O7 0.824117 0.307779 0.578594
O O8 0.536497 0.061306 0.770168
O O9 0.669694 0.117335 0.813234
O O10 0.683518 0.991531 0.130598
O O11 0.898648 0.715296 0.107402
O O12 0.225543 0.287811 0.450434
O O13 0.500000 0.000000 0.500000
O O14 0.526115 0.861696 0.809247
O O15 0.157541 0.513003 0.529333
O O16 0.000000 0.500000 0.500000
O O17 0.356952 0.422806 0.864270
#
# Coordination Sequence:
#
# PCOD8020199 Si02
#       8
#     2   2   2   2   2   2   2   2
#     4  11  23  43  66  94 132 175 218 269 326 383
#     4  11  23  40  67  96 134 168 222 271 322 387
#     4  11  21  43  68  89 129 171 218 261 323 400
#     4  12  26  41  65 103 132 164 218 277 331 392
#     4  10  22  42  66  94 129 180 209 267 332 387
#     4  12  22  42  72  91 125 177 215 265 329 400
#     4  12  22  41  68  98 122 170 227 259 323 397
#     4  11  22  42  66  93 125 172 216 263 324 397
#
# _framework density 21.342313000000001
#
# number of rings (size 3 to 8) (size 9 to 14) (size 15 to 20)
#    0.000    0.750    7.500    1.875    1.750    1.000 
#    2.250    0.000    0.000    0.000    0.000    0.000 
#    0.000    0.000    0.000    0.000    0.000    0.000 
#
# Total GULP energy -198340.154431 kJ/mol
# GULP energy per Si atom -12396.259652 kJ/mol
# Density = 2.129374 g / cm^3
# Si number density = 21.342313 Si / 1000 Ang^3
#
#
#
# Elastic Constant Matrix: (Units=GPa)
#
#
# Indices 1 2 3 4 5 6 
#
# 1 147.1575 36.1723 18.1980 12.3852 -15.9203 -5.1596
# 2 36.1723 96.7030 39.4187 -8.0870 -11.2474 -12.6478
# 3 18.1980 39.4187 55.4790 -17.2735 -3.5337 -7.6296
# 4 12.3852 -8.0870 -17.2735 34.6235 -4.4543 3.7070
# 5 -15.9203 -11.2474 -3.5337 -4.4543 34.9934 -2.4384
# 6 -5.1596 -12.6478 -7.6296 3.7070 -2.4384 26.0095
#
#
#
# Elastic Compliance Matrix: (Units=1/GPa)
#
#
# Indices 1 2 3 4 5 6 
#
# 1 0.008254 -0.002149 -0.002291 -0.004380 0.002329 0.000763
# 2 -0.002149 0.016282 -0.010138 -0.000563 0.003503 0.004926
# 3 -0.002291 -0.010138 0.030470 0.013552 0.000618 0.001680
# 4 -0.004380 -0.000563 0.013552 0.037809 0.003855 -0.002194
# 5 0.002329 0.003503 0.000618 0.003855 0.031647 0.004764
# 6 0.000763 0.004926 0.001680 -0.002194 0.004764 0.042246
#
#
# Mechanical properties :
#
#
# Convention : Reuss Voigt Hill
#
# Bulk Modulus (GPa) = 38.68608 54.10196 46.39402
# Shear Modulus (GPa) = 24.45192 32.82866 28.64029
#
# Velocity S-wave (km/s) = 3.38849 3.92624 3.66724
# Velocity P-wave (km/s) = 5.78576 6.77927 6.30212
#
# Compressibility (1/GPa) = 0.02584909
#
# Stress axis : x y z
#
# Youngs Moduli (GPa) = 121.14809 61.41633 32.81956
#
# Poissons Ratio (x) = 0.13201 0.07518
# Poissons Ratio (y) = 0.26040 0.33274
# Poissons Ratio (z) = 0.27751 0.62267
#
# Static dielectric constant tensor:
#      x y z
#    x 3.821930 -0.161830 -0.030010 
#    y -0.161830 3.731640 -0.255610 
#    z -0.030010 -0.255610 3.680670 
# 
# 
# High freq. dielectric constant tensor:
#      x y z
#    x 1.856280 0.003310 0.002690 
#    y 0.003310 1.828280 -0.027430 
#    z 0.002690 -0.027430 1.823100 
# 
# From -- ./inp_files/314974.got.cif
#   From: 2010.06.25/outbox.cif.g09.slc.cpg/sg2_158_cif.got.tgz:314974.got - 2010.06.27 13:26:56.
