data_PCOD8020820
_publ_section_title
;
Structure prediction by ZEFSAII (Michael W. Deem and Ramdas Pophale) SiO2 
 PCOD8020820
Probable space group: P -1
;
_chemical_formula_sum "Si O2"
_cell_formula_units_Z 14
_cell_length_a 8.727346
_cell_length_b 6.931142
_cell_length_c 13.814281
_cell_angle_alpha 87.067663
_cell_angle_beta 125.553942
_cell_angle_gamma 88.914623
_cell_volume 677.733894
_symmetry_space_group_name_H-M "P -1"
_symmetry_group_IT_number 2
_symmetry_cell_setting 'triclinic'
loop_
_space_group_symop_operation_xyz
x,y,z
-x,-y,-z
loop_
_atom_site_type_symbol
_atom_site_label
_atom_site_fract_x
_atom_site_fract_y
_atom_site_fract_z
Si Si1 0.105086 0.844017 0.146071
Si Si2 0.941446 0.811791 0.429030
Si Si3 0.311016 0.479814 0.311296
Si Si4 0.205024 0.233684 0.104523
Si Si5 0.259835 0.487073 0.512841
Si Si6 0.513777 0.711307 0.957774
Si Si7 0.782735 0.963753 0.167010
O O1 0.245126 0.701925 0.261359
O O2 0.960694 0.961755 0.161380
O O3 0.228891 0.001499 0.135341
O O4 0.991781 0.723531 0.027426
O O5 0.797133 0.697954 0.443518
O O6 0.837240 0.878558 0.292358
O O7 0.125024 0.675441 0.477056
O O8 0.000000 0.000000 0.500000
O O9 0.202620 0.342117 0.203227
O O10 0.253946 0.424832 0.400119
O O11 0.534716 0.454309 0.380252
O O12 0.381127 0.301016 0.106275
O O13 0.305500 0.815485 0.863195
O O14 0.500000 0.500000 0.000000
O O15 0.626321 0.828309 0.073747
#
# Coordination Sequence:
#
# PCOD8020820 Si02
#       7
#     2   2   2   2   2   2   2
#     4  10  22  43  63  96 130 162 213 255 317 385
#     4  11  25  44  68  90 129 170 215 262 317 364
#     4  11  23  42  66  92 133 165 209 265 311 371
#     4  10  24  39  67  95 124 170 206 256 327 375
#     4  10  26  43  63  99 123 170 220 259 308 375
#     4  10  24  41  66  97 124 161 209 262 325 375
#     4  10  23  42  64  93 128 163 209 266 311 377
#
# _framework density 20.657074999999999
#
# number of rings (size 3 to 8) (size 9 to 14) (size 15 to 20)
#    0.000    1.714    1.429    0.429    8.000    6.857 
#    0.000    2.857    0.000    0.000    0.000    0.000 
#    0.000    0.000    0.000    0.000    0.000    0.000 
#
# Total GULP energy -173654.956446 kJ/mol
# GULP energy per Si atom -12403.925460 kJ/mol
# Density = 2.061006 g / cm^3
# Si number density = 20.657075 Si / 1000 Ang^3
#
#
#
# Elastic Constant Matrix: (Units=GPa)
#
#
# Indices 1 2 3 4 5 6 
#
# 1 115.6344 53.3540 49.0022 -4.6111 -9.5708 10.1314
# 2 53.3540 114.0465 40.5683 -14.5401 -6.4713 7.5398
# 3 49.0022 40.5683 110.3746 -15.6217 -20.2355 1.7051
# 4 -4.6111 -14.5401 -15.6217 39.1946 -5.4549 -4.3572
# 5 -9.5708 -6.4713 -20.2355 -5.4549 26.0799 -6.3068
# 6 10.1314 7.5398 1.7051 -4.3572 -6.3068 26.1554
#
#
#
# Elastic Compliance Matrix: (Units=1/GPa)
#
#
# Indices 1 2 3 4 5 6 
#
# 1 0.012824 -0.004503 -0.004650 -0.002705 -0.001601 -0.004203
# 2 -0.004503 0.012036 -0.001929 0.003084 0.000233 -0.001029
# 3 -0.004650 -0.001929 0.014988 0.007027 0.012245 0.005503
# 4 -0.002705 0.003084 0.007027 0.032016 0.013952 0.008398
# 5 -0.001601 0.000233 0.012245 0.013952 0.053877 0.015070
# 6 -0.004203 -0.001029 0.005503 0.008398 0.015070 0.044832
#
#
# Mechanical properties :
#
#
# Convention : Reuss Voigt Hill
#
# Bulk Modulus (GPa) = 56.55134 69.54497 63.04815
# Shear Modulus (GPa) = 25.17219 31.42804 28.30012
#
# Velocity S-wave (km/s) = 3.49460 3.90477 3.70536
# Velocity P-wave (km/s) = 6.61201 7.35317 6.99242
#
# Compressibility (1/GPa) = 0.01768305
#
# Stress axis : x y z
#
# Youngs Moduli (GPa) = 77.97856 83.08451 66.72059
#
# Poissons Ratio (x) = 0.37416 0.31023
# Poissons Ratio (y) = 0.35116 0.12873
# Poissons Ratio (z) = 0.36258 0.16030
#
# Static dielectric constant tensor:
#      x y z
#    x 3.852610 -0.029420 -0.139110 
#    y -0.029420 3.675500 -0.151980 
#    z -0.139110 -0.151980 3.944630 
# 
# 
# High freq. dielectric constant tensor:
#      x y z
#    x 1.813970 0.000920 -0.008710 
#    y 0.000920 1.807750 -0.010380 
#    z -0.008710 -0.010380 1.819170 
# 
# From -- ./inp_files/52739.got.cif
#   From: 2010.06.25/outbox.cif.g09.slc.cpg/sg2_27_cif.got.tgz:52739.got - 2010.06.27 13:26:56.
