data_PCOD8020852
_publ_section_title
;
Structure prediction by ZEFSAII (Michael W. Deem and Ramdas Pophale) SiO2 
 PCOD8020852
Probable space group: P -1
;
_chemical_formula_sum "Si O2"
_cell_formula_units_Z 14
_cell_length_a 7.913076
_cell_length_b 12.041060
_cell_length_c 9.111069
_cell_angle_alpha 71.484486
_cell_angle_beta 48.845316
_cell_angle_gamma 92.739107
_cell_volume 578.332316
_symmetry_space_group_name_H-M "P -1"
_symmetry_group_IT_number 2
_symmetry_cell_setting 'triclinic'
loop_
_space_group_symop_operation_xyz
x,y,z
-x,-y,-z
loop_
_atom_site_type_symbol
_atom_site_label
_atom_site_fract_x
_atom_site_fract_y
_atom_site_fract_z
Si Si1 0.678033 0.354504 0.638384
Si Si2 0.302721 0.323852 0.661645
Si Si3 0.467464 0.059386 0.839365
Si Si4 0.202453 0.033882 0.488363
Si Si5 0.108593 0.901653 0.892597
Si Si6 0.421634 0.731647 0.738698
Si Si7 0.096692 0.563425 0.220622
O O1 0.482771 0.408512 0.651998
O O2 0.561375 0.206844 0.748093
O O3 0.941903 0.414437 0.382250
O O4 0.716927 0.390965 0.770965
O O5 0.497151 0.305568 0.446056
O O6 0.110810 0.375370 0.677422
O O7 0.157810 0.191140 0.876469
O O8 0.620993 0.036194 0.628692
O O9 0.200990 0.987849 0.951549
O O10 0.500000 0.000000 0.000000
O O11 0.336844 0.185583 0.346519
O O12 0.092590 0.988101 0.729622
O O13 0.000000 0.000000 0.500000
O O14 0.265873 0.820699 0.781223
O O15 0.260687 0.602220 0.966338
#
# Coordination Sequence:
#
# PCOD8020852 Si02
#       7
#     2   2   2   2   2   2   2
#     4  11  23  43  69  92 132 176 216 272 325 380
#     4  11  23  42  73  94 127 176 219 262 336 386
#     4  11  23  41  67  96 130 171 213 267 334 389
#     4  11  24  37  61  98 131 166 212 266 330 396
#     4  10  23  42  61  98 136 163 211 274 327 396
#     4  10  22  43  64  93 132 166 214 273 319 389
#     4  10  25  46  63  95 134 169 225 275 311 385
#
# _framework density 24.207535
#
# number of rings (size 3 to 8) (size 9 to 14) (size 15 to 20)
#    0.000    1.429    0.000    6.429    8.000    1.714 
#    0.000    4.286    0.000    0.000    0.000    0.000 
#    0.000    0.000    0.000    0.000    0.000    0.000 
#
# Total GULP energy -173461.464209 kJ/mol
# GULP energy per Si atom -12390.104586 kJ/mol
# Density = 2.415244 g / cm^3
# Si number density = 24.207535 Si / 1000 Ang^3
#
#
#
# Elastic Constant Matrix: (Units=GPa)
#
#
# Indices 1 2 3 4 5 6 
#
# 1 161.4117 36.6317 54.7331 -4.8001 13.6235 45.1093
# 2 36.6317 53.9351 26.7662 4.2659 -6.9213 15.8505
# 3 54.7331 26.7662 183.4759 -1.5088 1.2906 14.3419
# 4 -4.8001 4.2659 -1.5088 38.9942 3.5773 -9.0803
# 5 13.6235 -6.9213 1.2906 3.5773 34.6885 -7.0821
# 6 45.1093 15.8505 14.3419 -9.0803 -7.0821 36.1876
#
#
#
# Elastic Compliance Matrix: (Units=1/GPa)
#
#
# Indices 1 2 3 4 5 6 
#
# 1 0.012825 -0.004345 -0.001945 -0.000756 -0.008864 -0.015237
# 2 -0.004345 0.025153 -0.002084 -0.005068 0.006344 -0.004805
# 3 -0.001945 -0.002084 0.006256 0.000443 0.000278 0.001023
# 4 -0.000756 -0.005068 0.000443 0.028565 -0.001670 0.009828
# 5 -0.008864 0.006344 0.000278 -0.001670 0.036787 0.014941
# 6 -0.015237 -0.004805 0.001023 0.009828 0.014941 0.053717
#
#
# Mechanical properties :
#
#
# Convention : Reuss Voigt Hill
#
# Bulk Modulus (GPa) = 36.38114 70.56499 53.47306
# Shear Modulus (GPa) = 26.42516 40.68684 33.55600
#
# Velocity S-wave (km/s) = 3.30753 4.10414 3.72718
# Velocity P-wave (km/s) = 5.44498 7.18832 6.37651
#
# Compressibility (1/GPa) = 0.02748677
#
# Stress axis : x y z
#
# Youngs Moduli (GPa) = 77.97329 39.75631 159.84238
#
# Poissons Ratio (x) = 0.17274 0.31085
# Poissons Ratio (y) = 0.33880 0.33310
# Poissons Ratio (z) = 0.15164 0.08285
#
# Static dielectric constant tensor:
#      x y z
#    x 4.550400 0.239840 0.121810 
#    y 0.239840 4.254390 -0.342380 
#    z 0.121810 -0.342380 4.530050 
# 
# 
# High freq. dielectric constant tensor:
#      x y z
#    x 1.975810 0.013360 -0.008490 
#    y 0.013360 1.945350 -0.017980 
#    z -0.008490 -0.017980 1.984640 
# 
# From -- ./inp_files/204557.got.cif
#   From: 2010.06.25/outbox.cif.g09.slc.cpg/sg2_103_cif.got.tgz:204557.got - 2010.06.27 13:26:56.
