data_PCOD8020560
_publ_section_title
;
Structure prediction by ZEFSAII (Michael W. Deem and Ramdas Pophale) SiO2 
 PCOD8020560
Probable space group: P -1
;
_chemical_formula_sum "Si O2"
_cell_formula_units_Z 16
_cell_length_a 20.968171
_cell_length_b 6.774067
_cell_length_c 9.268798
_cell_angle_alpha 128.434128
_cell_angle_beta 63.825897
_cell_angle_gamma 133.651231
_cell_volume 746.016346
_symmetry_space_group_name_H-M "P -1"
_symmetry_group_IT_number 2
_symmetry_cell_setting 'triclinic'
loop_
_space_group_symop_operation_xyz
x,y,z
-x,-y,-z
loop_
_atom_site_type_symbol
_atom_site_label
_atom_site_fract_x
_atom_site_fract_y
_atom_site_fract_z
Si Si1 0.053099 0.892154 0.976733
Si Si2 0.972076 0.728694 0.290517
Si Si3 0.511651 0.736398 0.212632
Si Si4 0.254777 0.260767 0.965228
Si Si5 0.650620 0.354302 0.203583
Si Si6 0.770278 0.363153 0.304045
Si Si7 0.328300 0.579255 0.324640
Si Si8 0.410874 0.248246 0.551548
O O1 0.025544 0.558732 0.787045
O O2 0.035044 0.874309 0.156560
O O3 0.157450 0.156492 0.976418
O O4 0.000000 0.000000 0.000000
O O5 0.873697 0.590495 0.279662
O O6 0.000000 0.000000 0.500000
O O7 0.415542 0.617132 0.313259
O O8 0.571472 0.776450 0.305993
O O9 0.557472 0.053824 0.216820
O O10 0.500000 0.500000 0.000000
O O11 0.274751 0.307950 0.137198
O O12 0.328347 0.595309 0.967085
O O13 0.262570 0.985971 0.780670
O O14 0.730423 0.364192 0.193109
O O15 0.654603 0.658906 0.372593
O O16 0.738570 0.500646 0.515718
O O17 0.363406 0.912790 0.372110
O O18 0.500000 0.500000 0.500000
#
# Coordination Sequence:
#
# PCOD8020560 Si02
#       8
#     2   2   2   2   2   2   2   2
#     4  10  22  44  67  97 136 167 212 271 328 392
#     4  10  22  42  69  97 130 171 214 265 330 398
#     4  12  26  42  64  92 127 173 217 262 316 381
#     4  11  25  42  65  96 127 168 214 264 319 383
#     4  12  22  42  62  88 131 165 214 262 318 368
#     4  11  23  44  65  93 130 165 213 269 316 380
#     4  12  23  43  63  90 130 165 216 264 313 377
#     4  12  24  41  61  89 124 169 214 263 318 368
#
# _framework density 21.44725
#
# number of rings (size 3 to 8) (size 9 to 14) (size 15 to 20)
#    0.000    0.750    3.750    4.125    1.750    1.500 
#    4.500    0.000    0.000    0.000    0.000    0.000 
#    0.000    0.000    0.000    0.000    0.000    0.000 
#
# Total GULP energy -198273.880797 kJ/mol
# GULP energy per Si atom -12392.117550 kJ/mol
# Density = 2.139844 g / cm^3
# Si number density = 21.447250 Si / 1000 Ang^3
#
#
#
# Elastic Constant Matrix: (Units=GPa)
#
#
# Indices 1 2 3 4 5 6 
#
# 1 132.1413 17.5497 16.0596 7.3073 -17.7896 -7.4123
# 2 17.5497 77.6222 19.1655 -4.9432 -3.4870 -7.8380
# 3 16.0596 19.1655 102.4478 6.1385 -6.9027 -3.0286
# 4 7.3073 -4.9432 6.1385 35.9068 2.7544 -3.7131
# 5 -17.7896 -3.4870 -6.9027 2.7544 34.6409 -0.8479
# 6 -7.4123 -7.8380 -3.0286 -3.7131 -0.8479 27.1014
#
#
#
# Elastic Compliance Matrix: (Units=1/GPa)
#
#
# Indices 1 2 3 4 5 6 
#
# 1 0.008644 -0.001569 -0.000595 -0.002032 0.004366 0.001702
# 2 -0.001569 0.014457 -0.002532 0.003146 -0.000010 0.003900
# 3 -0.000595 -0.002532 0.010575 -0.002163 0.001720 0.000044
# 4 -0.002032 0.003146 -0.002163 0.029751 -0.003424 0.004081
# 5 0.004366 -0.000010 0.001720 -0.003424 0.031770 0.001908
# 6 0.001702 0.003900 0.000044 0.004081 0.001908 0.039116
#
#
# Mechanical properties :
#
#
# Convention : Reuss Voigt Hill
#
# Bulk Modulus (GPa) = 41.18208 46.41785 43.79996
# Shear Modulus (GPa) = 32.93820 36.82559 34.88190
#
# Velocity S-wave (km/s) = 3.92315 4.14820 4.03725
# Velocity P-wave (km/s) = 6.30593 6.68081 6.49607
#
# Compressibility (1/GPa) = 0.02428241
#
# Stress axis : x y z
#
# Youngs Moduli (GPa) = 115.68793 69.17260 94.56357
#
# Poissons Ratio (x) = 0.10852 0.05629
# Poissons Ratio (y) = 0.18149 0.23948
# Poissons Ratio (z) = 0.06887 0.17518
#
# Static dielectric constant tensor:
#      x y z
#    x 4.094900 -0.003910 -0.305790 
#    y -0.003910 4.150750 -0.030230 
#    z -0.305790 -0.030230 3.918530 
# 
# 
# High freq. dielectric constant tensor:
#      x y z
#    x 1.848010 0.003830 -0.026220 
#    y 0.003830 1.846830 -0.007040 
#    z -0.026220 -0.007040 1.838340 
# 
# From -- ./inp_files/340662.got.cif
#   From: 2010.06.25/outbox.cif.g09.slc.cpg/sg2_171_cif.got.tgz:340662.got - 2010.06.27 13:26:56.
