data_PCOD8020420
_publ_section_title
;
Structure prediction by ZEFSAII (Michael W. Deem and Ramdas Pophale) SiO2 
 PCOD8020420
Probable space group: P -1
;
_chemical_formula_sum "Si O2"
_cell_formula_units_Z 14
_cell_length_a 6.713880
_cell_length_b 14.229980
_cell_length_c 14.357900
_cell_angle_alpha 28.809676
_cell_angle_beta 98.650562
_cell_angle_gamma 86.467719
_cell_volume 597.248438
_symmetry_space_group_name_H-M "P -1"
_symmetry_group_IT_number 2
_symmetry_cell_setting 'triclinic'
loop_
_space_group_symop_operation_xyz
x,y,z
-x,-y,-z
loop_
_atom_site_type_symbol
_atom_site_label
_atom_site_fract_x
_atom_site_fract_y
_atom_site_fract_z
Si Si1 0.755259 0.998462 0.323167
Si Si2 0.075266 0.180827 0.138162
Si Si3 0.578285 0.778439 0.748532
Si Si4 0.600568 0.897234 0.934463
Si Si5 0.421044 0.492827 0.646702
Si Si6 0.322056 0.401734 0.276127
Si Si7 0.242321 0.819044 0.195561
O O1 0.776752 0.774606 0.561363
O O2 0.600420 0.198704 0.203406
O O3 0.647045 0.031820 0.183550
O O4 0.996109 0.002632 0.328836
O O5 0.182385 0.273391 0.145012
O O6 0.248789 0.074634 0.161348
O O7 0.865219 0.368455 0.916971
O O8 0.595441 0.607288 0.817972
O O9 0.500000 0.000000 0.500000
O O10 0.600798 0.058486 0.875616
O O11 0.693423 0.653064 0.189647
O O12 0.479946 0.628013 0.613200
O O13 0.245993 0.661843 0.417641
O O14 0.648667 0.332836 0.752388
O O15 0.000000 0.000000 0.000000
#
# Coordination Sequence:
#
# PCOD8020420 Si02
#       7
#     2   2   2   2   2   2   2
#     4  10  22  42  68  92 138 177 216 277 328 392
#     4  11  23  41  66 100 130 178 231 259 334 406
#     4   9  22  41  62  96 137 175 221 272 332 388
#     4  11  23  45  66  99 138 173 216 282 334 399
#     4  11  24  45  70 101 137 175 225 282 340 404
#     4  11  21  42  65  98 130 175 228 274 330 396
#     4  11  25  45  73 101 133 175 224 280 349 409
#
# _framework density 23.440829999999998
#
# number of rings (size 3 to 8) (size 9 to 14) (size 15 to 20)
#    0.000    1.429    2.857    1.714    0.000    4.571 
#    2.571    0.000    0.000    0.000    0.000    0.000 
#    0.000    0.000    0.000    0.000    0.000    0.000 
#
# Total GULP energy -173569.484557 kJ/mol
# GULP energy per Si atom -12397.820326 kJ/mol
# Density = 2.338748 g / cm^3
# Si number density = 23.440830 Si / 1000 Ang^3
#
#
#
# Elastic Constant Matrix: (Units=GPa)
#
#
# Indices 1 2 3 4 5 6 
#
# 1 88.5366 39.5480 12.3234 4.2182 -13.3714 -1.0863
# 2 39.5480 104.8586 8.5206 5.7054 -5.2009 25.0192
# 3 12.3234 8.5206 90.9012 0.8745 -3.1357 2.5971
# 4 4.2182 5.7054 0.8745 31.7624 6.0590 2.7672
# 5 -13.3714 -5.2009 -3.1357 6.0590 48.5855 0.0799
# 6 -1.0863 25.0192 2.5971 2.7672 0.0799 16.5757
#
#
#
# Elastic Compliance Matrix: (Units=1/GPa)
#
#
# Indices 1 2 3 4 5 6 
#
# 1 0.016828 -0.009858 -0.001679 -0.002587 0.003763 0.016658
# 2 -0.009858 0.020889 0.000281 0.000451 -0.000462 -0.032293
# 3 -0.001679 0.000281 0.011278 0.000006 0.000299 -0.002303
# 4 -0.002587 0.000451 0.000006 0.033216 -0.004795 -0.006373
# 5 0.003763 -0.000462 0.000299 -0.004795 0.022183 0.001590
# 6 0.016658 -0.032293 -0.002303 -0.006373 0.001590 0.111582
#
#
# Mechanical properties :
#
#
# Convention : Reuss Voigt Hill
#
# Bulk Modulus (GPa) = 37.75794 45.00894 41.38344
# Shear Modulus (GPa) = 20.21712 34.31168 27.26440
#
# Velocity S-wave (km/s) = 2.93998 3.83006 3.41415
# Velocity P-wave (km/s) = 5.25998 6.22912 5.76495
#
# Compressibility (1/GPa) = 0.02648449
#
# Stress axis : x y z
#
# Youngs Moduli (GPa) = 59.42635 47.87114 88.66602
#
# Poissons Ratio (x) = 0.47189 0.14883
# Poissons Ratio (y) = 0.58580 -0.02489
# Poissons Ratio (z) = 0.09975 -0.01344
#
# Static dielectric constant tensor:
#      x y z
#    x 3.971120 -0.289230 -0.072170 
#    y -0.289230 3.813100 0.052570 
#    z -0.072170 0.052570 4.208320 
# 
# 
# High freq. dielectric constant tensor:
#      x y z
#    x 1.901250 0.007540 -0.007650 
#    y 0.007540 1.939260 0.006480 
#    z -0.007650 0.006480 1.934880 
# 
# From -- ./inp_files/484111.got.cif
#   From: 2010.06.25/outbox.cif.g09.slc.cpg/sg2_243_cif.got.tgz:484111.got - 2010.06.27 13:26:56.
