data_PCOD8020292
_publ_section_title
;
Structure prediction by ZEFSAII (Michael W. Deem and Ramdas Pophale) SiO2 
 PCOD8020292
Probable space group: P -1
;
_chemical_formula_sum "Si O2"
_cell_formula_units_Z 16
_cell_length_a 9.715760
_cell_length_b 8.974504
_cell_length_c 12.142845
_cell_angle_alpha 110.283509
_cell_angle_beta 75.041997
_cell_angle_gamma 132.755290
_cell_volume 728.815497
_symmetry_space_group_name_H-M "P -1"
_symmetry_group_IT_number 2
_symmetry_cell_setting 'triclinic'
loop_
_space_group_symop_operation_xyz
x,y,z
-x,-y,-z
loop_
_atom_site_type_symbol
_atom_site_label
_atom_site_fract_x
_atom_site_fract_y
_atom_site_fract_z
Si Si1 0.576844 0.162147 0.924674
Si Si2 0.164066 0.347624 0.982354
Si Si3 0.841335 0.084433 0.829207
Si Si4 0.073897 0.892132 0.418390
Si Si5 0.557826 0.863992 0.463700
Si Si6 0.777864 0.685253 0.798879
Si Si7 0.391274 0.230583 0.803198
Si Si8 0.139470 0.453383 0.460702
O O1 0.702667 0.123266 0.826781
O O2 0.420024 0.111296 0.857933
O O3 0.692658 0.402199 0.000371
O O4 0.500000 0.000000 0.000000
O O5 0.233207 0.236033 0.879659
O O6 0.968203 0.250740 0.941818
O O7 0.110734 0.268209 0.099209
O O8 0.963119 0.139749 0.711247
O O9 0.745795 0.849995 0.827878
O O10 0.929629 0.665782 0.441649
O O11 0.293314 0.037976 0.443108
O O12 0.000000 0.000000 0.500000
O O13 0.658907 0.880250 0.333775
O O14 0.363329 0.634938 0.472594
O O15 0.500000 0.000000 0.500000
O O16 0.577570 0.465857 0.807391
O O17 0.890243 0.681022 0.674963
O O18 0.000000 0.500000 0.500000
#
# Coordination Sequence:
#
# PCOD8020292 Si02
#       8
#     2   2   2   2   2   2   2   2
#     4  11  23  42  63  95 132 165 213 272 328 382
#     4  11  23  42  66  95 126 174 216 261 329 398
#     4  12  24  42  63  97 134 164 211 278 331 382
#     4  12  25  45  65 101 140 168 222 281 335 388
#     4  11  23  44  70  99 129 181 229 266 331 399
#     4  10  22  42  67  92 128 173 219 265 323 405
#     4  10  22  42  68  91 126 171 224 264 320 405
#     4  11  24  44  71  99 131 179 226 273 329 400
#
# _framework density 21.953429
#
# number of rings (size 3 to 8) (size 9 to 14) (size 15 to 20)
#    0.000    1.000    2.500    5.250    3.500    0.500 
#    6.750    0.000    0.000    0.000    0.000    0.000 
#    0.000    0.000    0.000    0.000    0.000    0.000 
#
# Total GULP energy -198240.690594 kJ/mol
# GULP energy per Si atom -12390.043162 kJ/mol
# Density = 2.190346 g / cm^3
# Si number density = 21.953429 Si / 1000 Ang^3
#
#
#
# Elastic Constant Matrix: (Units=GPa)
#
#
# Indices 1 2 3 4 5 6 
#
# 1 90.6764 22.7723 5.9692 2.4540 -4.5333 -15.6151
# 2 22.7723 87.8183 29.5936 -15.9726 6.9145 -19.6394
# 3 5.9692 29.5936 100.7708 -4.0027 6.8738 -5.2067
# 4 2.4540 -15.9726 -4.0027 36.9998 -7.2227 0.6049
# 5 -4.5333 6.9145 6.8738 -7.2227 37.2909 1.7046
# 6 -15.6151 -19.6394 -5.2067 0.6049 1.7046 41.9974
#
#
#
# Elastic Compliance Matrix: (Units=1/GPa)
#
#
# Indices 1 2 3 4 5 6 
#
# 1 0.012457 -0.003021 0.000135 -0.001867 0.001542 0.003200
# 2 -0.003021 0.016069 -0.003871 0.006294 -0.001683 0.005889
# 3 0.000135 -0.003871 0.011105 -0.000756 -0.001445 -0.000314
# 4 -0.001867 0.006294 -0.000756 0.030662 0.004614 0.001526
# 5 0.001542 -0.001683 -0.001445 0.004614 0.028550 -0.001618
# 6 0.003200 0.005889 -0.000314 0.001526 -0.001618 0.027759
#
#
# Mechanical properties :
#
#
# Convention : Reuss Voigt Hill
#
# Bulk Modulus (GPa) = 38.28932 43.99287 41.14109
# Shear Modulus (GPa) = 33.59735 37.98632 35.79183
#
# Velocity S-wave (km/s) = 3.91627 4.16422 4.04214
# Velocity P-wave (km/s) = 6.15862 6.57295 6.36915
#
# Compressibility (1/GPa) = 0.02611695
#
# Stress axis : x y z
#
# Youngs Moduli (GPa) = 80.27821 62.23032 90.05249
#
# Poissons Ratio (x) = 0.18801 -0.01219
# Poissons Ratio (y) = 0.24253 0.34860
# Poissons Ratio (z) = -0.01087 0.24090
#
# Static dielectric constant tensor:
#      x y z
#    x 6.276080 -1.470470 0.182180 
#    y -1.470470 4.568410 -0.148310 
#    z 0.182180 -0.148310 4.210570 
# 
# 
# High freq. dielectric constant tensor:
#      x y z
#    x 1.871160 -0.012730 -0.007200 
#    y -0.012730 1.865160 -0.003350 
#    z -0.007200 -0.003350 1.875230 
# 
# From -- ./inp_files/348836.got.cif
#   From: 2010.06.25/outbox.cif.g09.slc.cpg/sg2_175_cif.got.tgz:348836.got - 2010.06.27 13:26:56.
