data_PCOD8020952
_publ_section_title
;
Structure prediction by ZEFSAII (Michael W. Deem and Ramdas Pophale) SiO2 
 PCOD8020952
Probable space group: P -1
;
_chemical_formula_sum "Si O2"
_cell_formula_units_Z 14
_cell_length_a 21.251022
_cell_length_b 8.357819
_cell_length_c 8.251419
_cell_angle_alpha 71.905448
_cell_angle_beta 136.393332
_cell_angle_gamma 140.005572
_cell_volume 542.237838
_symmetry_space_group_name_H-M "P -1"
_symmetry_group_IT_number 2
_symmetry_cell_setting 'triclinic'
loop_
_space_group_symop_operation_xyz
x,y,z
-x,-y,-z
loop_
_atom_site_type_symbol
_atom_site_label
_atom_site_fract_x
_atom_site_fract_y
_atom_site_fract_z
Si Si1 0.607339 0.196044 0.290932
Si Si2 0.638788 0.796036 0.562432
Si Si3 0.409119 0.477316 0.961541
Si Si4 0.879479 0.872522 0.955539
Si Si5 0.292598 0.673488 0.025319
Si Si6 0.798876 0.119190 0.067993
Si Si7 0.906603 0.616124 0.563151
O O1 0.779465 0.357797 0.548854
O O2 0.661483 0.476495 0.290818
O O3 0.500000 0.000000 0.000000
O O4 0.490566 0.975378 0.295054
O O5 0.500000 0.500000 0.500000
O O6 0.545422 0.754346 0.258476
O O7 0.765571 0.856421 0.700402
O O8 0.728450 0.052444 0.778340
O O9 0.500000 0.500000 0.000000
O O10 0.271687 0.160189 0.896756
O O11 0.761164 0.533462 0.868425
O O12 0.000000 0.000000 0.000000
O O13 0.975405 0.064286 0.239145
O O14 0.230732 0.768167 0.908398
O O15 0.207782 0.479779 0.761341
O O16 0.990984 0.382862 0.318594
#
# Coordination Sequence:
#
# PCOD8020952 Si02
#       7
#     2   2   2   2   2   2   2
#     4  10  24  41  68 103 128 170 229 275 322 386
#     4   9  23  43  65  93 134 177 215 263 338 392
#     4  11  22  41  69  97 134 176 226 266 331 399
#     4  11  26  46  67  99 135 180 216 277 342 389
#     4  11  23  45  68 102 132 174 230 269 327 401
#     4  10  22  43  66 101 133 180 213 280 334 387
#     4  10  24  43  69  97 137 171 222 273 335 389
#
# _framework density 25.818930999999999
#
# number of rings (size 3 to 8) (size 9 to 14) (size 15 to 20)
#    0.000    1.714    1.429    0.857   16.000    0.000 
#   10.286    5.000    0.000    0.000    0.000    0.000 
#    0.000    0.000    0.000    0.000    0.000    0.000 
#
# Total GULP energy -173469.824197 kJ/mol
# GULP energy per Si atom -12390.701728 kJ/mol
# Density = 2.576017 g / cm^3
# Si number density = 25.818931 Si / 1000 Ang^3
#
#
#
# Elastic Constant Matrix: (Units=GPa)
#
#
# Indices 1 2 3 4 5 6 
#
# 1 128.7253 38.0393 17.7670 22.7500 37.8389 29.4667
# 2 38.0393 123.7454 26.1117 15.4869 20.9594 17.0770
# 3 17.7670 26.1117 81.4057 16.7991 28.7983 16.6330
# 4 22.7500 15.4869 16.7991 32.7697 12.1417 3.4258
# 5 37.8389 20.9594 28.7983 12.1417 52.9867 14.5726
# 6 29.4667 17.0770 16.6330 3.4258 14.5726 36.4391
#
#
#
# Elastic Compliance Matrix: (Units=1/GPa)
#
#
# Indices 1 2 3 4 5 6 
#
# 1 0.012557 -0.001548 0.002864 -0.006296 -0.006380 -0.007592
# 2 -0.001548 0.009568 -0.001614 -0.002127 -0.000768 -0.001989
# 3 0.002864 -0.001614 0.017501 -0.006705 -0.007785 -0.005804
# 4 -0.006296 -0.002127 -0.006705 0.039325 -0.001717 0.006139
# 5 -0.006380 -0.000768 -0.007785 -0.001717 0.029008 -0.002366
# 6 -0.007592 -0.001989 -0.005804 0.006139 -0.002366 0.037533
#
#
# Mechanical properties :
#
#
# Convention : Reuss Voigt Hill
#
# Bulk Modulus (GPa) = 25.62210 55.30139 40.46175
# Shear Modulus (GPa) = 31.42706 41.23631 36.33168
#
# Velocity S-wave (km/s) = 3.49264 4.00075 3.75530
# Velocity P-wave (km/s) = 5.11957 6.54269 5.87438
#
# Compressibility (1/GPa) = 0.03902881
#
# Stress axis : x y z
#
# Youngs Moduli (GPa) = 79.63745 104.51219 57.14045
#
# Poissons Ratio (x) = 0.16177 -0.16363
# Poissons Ratio (y) = 0.12326 0.09225
# Poissons Ratio (z) = -0.22806 0.16873
#
# Static dielectric constant tensor:
#      x y z
#    x 5.219790 0.384130 0.311950 
#    y 0.384130 4.124360 0.105590 
#    z 0.311950 0.105590 5.529900 
# 
# 
# High freq. dielectric constant tensor:
#      x y z
#    x 2.053170 0.008820 0.010960 
#    y 0.008820 2.015580 0.019430 
#    z 0.010960 0.019430 2.028060 
# 
# From -- ./inp_files/326268.got.cif
#   From: 2010.06.25/outbox.cif.g09.slc.cpg/sg2_164_cif.got.tgz:326268.got - 2010.06.27 13:26:56.
