data_PCOD8020520
_publ_section_title
;
Structure prediction by ZEFSAII (Michael W. Deem and Ramdas Pophale) SiO2 
 PCOD8020520
Probable space group: P -1
;
_chemical_formula_sum "Si O2"
_cell_formula_units_Z 14
_cell_length_a 9.575498
_cell_length_b 8.806836
_cell_length_c 9.557277
_cell_angle_alpha 105.748147
_cell_angle_beta 56.162805
_cell_angle_gamma 100.590006
_cell_volume 643.785955
_symmetry_space_group_name_H-M "P -1"
_symmetry_group_IT_number 2
_symmetry_cell_setting 'triclinic'
loop_
_space_group_symop_operation_xyz
x,y,z
-x,-y,-z
loop_
_atom_site_type_symbol
_atom_site_label
_atom_site_fract_x
_atom_site_fract_y
_atom_site_fract_z
Si Si1 0.940358 0.019945 0.884620
Si Si2 0.139454 0.782249 0.551073
Si Si3 0.316291 0.565935 0.600414
Si Si4 0.203602 0.377843 0.375117
Si Si5 0.684545 0.341839 0.811653
Si Si6 0.391722 0.144183 0.052736
Si Si7 0.858374 0.372934 0.006436
O O1 0.761819 0.926823 0.968678
O O2 0.931066 0.202200 0.898478
O O3 0.069896 0.946790 0.683531
O O4 0.000000 0.000000 0.000000
O O5 0.283212 0.720649 0.561500
O O6 0.217956 0.801396 0.355181
O O7 0.984452 0.650242 0.589650
O O8 0.500000 0.500000 0.500000
O O9 0.203226 0.423853 0.552558
O O10 0.271710 0.620925 0.793535
O O11 0.308704 0.517488 0.269481
O O12 0.314162 0.224136 0.254032
O O13 0.497047 0.273934 0.934003
O O14 0.768803 0.413887 0.922436
O O15 0.500000 0.000000 0.000000
O O16 0.000000 0.500000 0.000000
#
# Coordination Sequence:
#
# PCOD8020520 Si02
#       7
#     2   2   2   2   2   2   2
#     4  11  24  45  68  88 135 174 212 266 331 389
#     4  10  22  44  68  95 126 177 217 262 323 385
#     4  11  22  39  63  95 132 164 206 268 323 373
#     4  10  22  42  69  90 131 175 217 260 316 393
#     4  11  22  41  68  99 127 168 228 262 316 390
#     4  11  23  42  65  95 131 174 213 270 322 381
#     4  12  24  41  67  99 129 168 220 267 323 387
#
# _framework density 21.746358000000001
#
# number of rings (size 3 to 8) (size 9 to 14) (size 15 to 20)
#    0.000    1.143    2.857    4.714    2.000    1.714 
#    2.571    0.714    0.000    0.000    0.000    0.000 
#    0.000    0.000    0.000    0.000    0.000    0.000 
#
# Total GULP energy -173449.825849 kJ/mol
# GULP energy per Si atom -12389.273275 kJ/mol
# Density = 2.169686 g / cm^3
# Si number density = 21.746358 Si / 1000 Ang^3
#
#
#
# Elastic Constant Matrix: (Units=GPa)
#
#
# Indices 1 2 3 4 5 6 
#
# 1 123.4660 30.9885 45.7987 15.2312 -0.5207 3.8626
# 2 30.9885 78.3498 21.6453 22.1292 -5.0188 12.1042
# 3 45.7987 21.6453 131.4985 32.5784 13.8494 1.6683
# 4 15.2312 22.1292 32.5784 40.9579 4.1816 -3.5881
# 5 -0.5207 -5.0188 13.8494 4.1816 35.5864 5.3355
# 6 3.8626 12.1042 1.6683 -3.5881 5.3355 32.2678
#
#
#
# Elastic Compliance Matrix: (Units=1/GPa)
#
#
# Indices 1 2 3 4 5 6 
#
# 1 0.010016 -0.003155 -0.003164 0.000411 0.000877 0.000049
# 2 -0.003155 0.018480 0.000168 -0.010199 0.004970 -0.008519
# 3 -0.003164 0.000168 0.010825 -0.007231 -0.003311 -0.000501
# 4 0.000411 -0.010199 -0.007231 0.036744 -0.004277 0.008943
# 5 0.000877 0.004970 -0.003311 -0.004277 0.031733 -0.007521
# 6 0.000049 -0.008519 -0.000501 0.008943 -0.007521 0.036444
#
#
# Mechanical properties :
#
#
# Convention : Reuss Voigt Hill
#
# Bulk Modulus (GPa) = 37.00978 58.90880 47.95929
# Shear Modulus (GPa) = 30.20212 37.42121 33.81166
#
# Velocity S-wave (km/s) = 3.73075 4.15276 3.94740
# Velocity P-wave (km/s) = 5.96773 7.08108 6.54811
#
# Compressibility (1/GPa) = 0.02701988
#
# Stress axis : x y z
#
# Youngs Moduli (GPa) = 99.83615 54.11365 92.37516
#
# Poissons Ratio (x) = 0.17073 0.29229
# Poissons Ratio (y) = 0.31498 -0.01555
# Poissons Ratio (z) = 0.31589 -0.00911
#
# Static dielectric constant tensor:
#      x y z
#    x 3.845040 0.162470 0.419120 
#    y 0.162470 3.883360 0.340600 
#    z 0.419120 0.340600 5.213080 
# 
# 
# High freq. dielectric constant tensor:
#      x y z
#    x 1.857010 -0.000290 0.000300 
#    y -0.000290 1.841130 0.034760 
#    z 0.000300 0.034760 1.871690 
# 
# From -- ./inp_files/158438.got.cif
#   From: 2010.06.25/outbox.cif.g09.slc.cpg/sg2_80_cif.got.tgz:158438.got - 2010.06.27 13:26:56.
