data_PCOD8020076
_publ_section_title
;
Structure prediction by ZEFSAII (Michael W. Deem and Ramdas Pophale) SiO2 
 PCOD8020076
Probable space group: P -1
;
_chemical_formula_sum "Si O2"
_cell_formula_units_Z 16
_cell_length_a 12.112022
_cell_length_b 21.399365
_cell_length_c 18.046597
_cell_angle_alpha 160.009792
_cell_angle_beta 29.167201
_cell_angle_gamma 140.108079
_cell_volume 738.298277
_symmetry_space_group_name_H-M "P -1"
_symmetry_group_IT_number 2
_symmetry_cell_setting 'triclinic'
loop_
_space_group_symop_operation_xyz
x,y,z
-x,-y,-z
loop_
_atom_site_type_symbol
_atom_site_label
_atom_site_fract_x
_atom_site_fract_y
_atom_site_fract_z
Si Si1 0.736073 0.047598 0.509202
Si Si2 0.387174 0.113301 0.121025
Si Si3 0.224657 0.530956 0.693434
Si Si4 0.043293 0.308272 0.116514
Si Si5 0.538285 0.543659 0.941866
Si Si6 0.895914 0.044485 0.999694
Si Si7 0.624607 0.128437 0.398056
Si Si8 0.890142 0.089621 0.742720
O O1 0.643673 0.262496 0.769800
O O2 0.547504 0.989115 0.606208
O O3 0.963948 0.039133 0.418059
O O4 0.789825 0.898509 0.243255
O O5 0.207717 0.320506 0.484336
O O6 0.608755 0.111433 0.935173
O O7 0.500000 0.000000 0.000000
O O8 0.207146 0.019768 0.085044
O O9 0.500000 0.500000 0.500000
O O10 0.140496 0.584344 0.718480
O O11 0.085890 0.695199 0.017398
O O12 0.909064 0.258625 0.211854
O O13 0.195886 0.440890 0.203092
O O14 0.500000 0.500000 0.000000
O O15 0.503429 0.359162 0.714565
O O16 0.720715 0.041330 0.165407
O O17 0.159139 0.900046 0.702458
O O18 0.000000 0.000000 0.500000
#
# Coordination Sequence:
#
# PCOD8020076 Si02
#       8
#     2   2   2   2   2   2   2   2
#     4  11  22  43  64  94 131 167 217 268 321 391
#     4  11  22  43  66  91 126 173 225 266 323 389
#     4   9  20  38  63  93 119 168 224 258 316 393
#     4  11  21  40  65  90 127 165 218 269 313 383
#     4  12  23  39  65  95 126 171 217 257 327 391
#     4  11  23  41  64  93 133 167 211 272 327 381
#     4  11  24  42  62  98 135 167 208 269 334 390
#     4  10  22  42  65  92 129 170 212 276 331 377
#
# _framework density 21.671458000000001
#
# number of rings (size 3 to 8) (size 9 to 14) (size 15 to 20)
#    0.000    1.250    2.500    4.875    0.000    1.500 
#    9.000    0.625    0.000    0.000    0.000    0.000 
#    0.000    0.000    0.000    0.000    0.000    0.000 
#
# Total GULP energy -198291.917689 kJ/mol
# GULP energy per Si atom -12393.244856 kJ/mol
# Density = 2.162213 g / cm^3
# Si number density = 21.671458 Si / 1000 Ang^3
#
#
#
# Elastic Constant Matrix: (Units=GPa)
#
#
# Indices 1 2 3 4 5 6 
#
# 1 88.5479 13.1526 27.9645 14.2102 -13.6886 -3.1599
# 2 13.1526 98.8135 25.5887 18.7079 -3.7032 -7.8402
# 3 27.9645 25.5887 103.2366 26.3566 -19.1381 -13.6556
# 4 14.2102 18.7079 26.3566 38.4480 -8.4961 -3.6340
# 5 -13.6886 -3.7032 -19.1381 -8.4961 30.7480 0.7828
# 6 -3.1599 -7.8402 -13.6556 -3.6340 0.7828 34.3446
#
#
#
# Elastic Compliance Matrix: (Units=1/GPa)
#
#
# Indices 1 2 3 4 5 6 
#
# 1 0.012990 -0.000629 -0.002108 -0.002224 0.003784 -0.000108
# 2 -0.000629 0.011522 -0.001570 -0.004403 -0.001125 0.001508
# 3 -0.002108 -0.001570 0.013856 -0.006314 0.005646 0.004160
# 4 -0.002224 -0.004403 -0.006314 0.034167 0.003995 -0.000196
# 5 0.003784 -0.001125 0.005646 0.003995 0.038642 0.001878
# 6 -0.000108 0.001508 0.004160 -0.000196 0.001878 0.031041
#
#
# Mechanical properties :
#
#
# Convention : Reuss Voigt Hill
#
# Bulk Modulus (GPa) = 33.60984 47.11216 40.36100
# Shear Modulus (GPa) = 31.10433 35.63425 33.36929
#
# Velocity S-wave (km/s) = 3.79260 4.05939 3.92826
# Velocity P-wave (km/s) = 5.89245 6.61498 6.26414
#
# Compressibility (1/GPa) = 0.02975319
#
# Stress axis : x y z
#
# Youngs Moduli (GPa) = 76.97960 86.79380 72.17278
#
# Poissons Ratio (x) = 0.05458 0.15214
# Poissons Ratio (y) = 0.04841 0.11334
# Poissons Ratio (z) = 0.16227 0.13630
#
# Static dielectric constant tensor:
#      x y z
#    x 3.834140 -0.022800 -0.293600 
#    y -0.022800 3.696010 -0.263420 
#    z -0.293600 -0.263420 4.237730 
# 
# 
# High freq. dielectric constant tensor:
#      x y z
#    x 1.852260 0.006810 -0.017490 
#    y 0.006810 1.857960 0.006670 
#    z -0.017490 0.006670 1.845500 
# 
# From -- ./inp_files/501253.got.cif
#   From: 2010.06.25/outbox.cif.g09.slc.cpg/sg2_251_cif.got.tgz:501253.got - 2010.06.27 13:26:56.
