data_PCOD8020365
_publ_section_title
;
Structure prediction by ZEFSAII (Michael W. Deem and Ramdas Pophale) SiO2 
 PCOD8020365
Probable space group: P -1
;
_chemical_formula_sum "Si O2"
_cell_formula_units_Z 16
_cell_length_a 9.095221
_cell_length_b 20.909180
_cell_length_c 11.923803
_cell_angle_alpha 20.808362
_cell_angle_beta 69.270573
_cell_angle_gamma 67.886275
_cell_volume 746.275371
_symmetry_space_group_name_H-M "P -1"
_symmetry_group_IT_number 2
_symmetry_cell_setting 'triclinic'
loop_
_space_group_symop_operation_xyz
x,y,z
-x,-y,-z
loop_
_atom_site_type_symbol
_atom_site_label
_atom_site_fract_x
_atom_site_fract_y
_atom_site_fract_z
Si Si1 0.059172 0.433279 0.408068
Si Si2 0.773803 0.305634 0.819498
Si Si3 0.004604 0.680938 0.634306
Si Si4 0.325845 0.827972 0.300912
Si Si5 0.277902 0.022252 0.777194
Si Si6 0.382769 0.950925 0.327969
Si Si7 0.125618 0.824081 0.759409
Si Si8 0.636107 0.660614 0.375993
O O1 0.027490 0.338250 0.456510
O O2 0.235122 0.368389 0.511752
O O3 0.936738 0.378589 0.622377
O O4 0.039323 0.650169 0.038709
O O5 0.644900 0.482631 0.586488
O O6 0.799597 0.187798 0.118264
O O7 0.713570 0.177662 0.952050
O O8 0.870775 0.840891 0.453563
O O9 0.178000 0.727417 0.536508
O O10 0.000000 0.500000 0.000000
O O11 0.393361 0.905316 0.268230
O O12 0.463327 0.689732 0.431714
O O13 0.264645 0.993397 0.962082
O O14 0.442405 0.101684 0.577934
O O15 0.263324 0.839466 0.606683
O O16 0.333540 0.169103 0.989486
O O17 0.000000 0.000000 0.500000
#
# Coordination Sequence:
#
# PCOD8020365 Si02
#       8
#     2   2   2   2   2   2   2   2
#     4  11  22  43  66  94 129 173 221 264 318 390
#     4  11  24  42  67  95 133 177 215 262 326 392
#     4  12  26  41  65 100 129 170 218 276 328 373
#     4  11  23  43  70  96 129 173 218 272 322 386
#     4  11  25  44  67  97 133 172 217 267 325 394
#     4  11  23  42  69  99 130 170 219 273 325 378
#     4  11  24  40  66  97 134 174 212 268 322 387
#     4  10  22  42  67  98 127 171 224 258 326 394
#
# _framework density 21.439807999999999
#
# number of rings (size 3 to 8) (size 9 to 14) (size 15 to 20)
#    0.000    1.000    1.250    7.125    5.250    4.500 
#    2.250    4.375    0.000    0.000    0.000    0.000 
#    0.000    0.000    0.000    0.000    0.000    0.000 
#
# Total GULP energy -198447.287486 kJ/mol
# GULP energy per Si atom -12402.955468 kJ/mol
# Density = 2.139101 g / cm^3
# Si number density = 21.439808 Si / 1000 Ang^3
#
#
#
# Elastic Constant Matrix: (Units=GPa)
#
#
# Indices 1 2 3 4 5 6 
#
# 1 105.7438 36.3584 39.3465 -13.9140 -2.1533 -13.0720
# 2 36.3584 99.3446 46.2687 -4.8308 2.1259 -6.1887
# 3 39.3465 46.2687 109.3820 -3.1886 5.9284 -14.7393
# 4 -13.9140 -4.8308 -3.1886 39.2327 -2.4870 -1.6504
# 5 -2.1533 2.1259 5.9284 -2.4870 34.8075 -5.8468
# 6 -13.0720 -6.1887 -14.7393 -1.6504 -5.8468 35.8485
#
#
#
# Elastic Compliance Matrix: (Units=1/GPa)
#
#
# Indices 1 2 3 4 5 6 
#
# 1 0.012525 -0.002905 -0.002812 0.004149 0.002312 0.003477
# 2 -0.002905 0.013260 -0.004639 0.000176 -0.000308 -0.000720
# 3 -0.002812 -0.004639 0.012600 -0.000514 -0.001557 0.003077
# 4 0.004149 0.000176 -0.000514 0.027245 0.002791 0.003041
# 5 0.002312 -0.000308 -0.001557 0.002791 0.030231 0.005209
# 6 0.003477 -0.000720 0.003077 0.003041 0.005209 0.031294
#
#
# Mechanical properties :
#
#
# Convention : Reuss Voigt Hill
#
# Bulk Modulus (GPa) = 56.58681 62.04641 59.31661
# Shear Modulus (GPa) = 32.51843 34.81084 33.66463
#
# Velocity S-wave (km/s) = 3.89875 4.03383 3.96686
# Velocity P-wave (km/s) = 6.83503 7.12028 6.97911
#
# Compressibility (1/GPa) = 0.01767196
#
# Stress axis : x y z
#
# Youngs Moduli (GPa) = 79.84018 75.41374 79.36331
#
# Poissons Ratio (x) = 0.21910 0.22320
# Poissons Ratio (y) = 0.23196 0.36818
# Poissons Ratio (z) = 0.22454 0.34986
#
# Static dielectric constant tensor:
#      x y z
#    x 3.964420 0.017040 -0.052670 
#    y 0.017040 3.929390 -0.074040 
#    z -0.052670 -0.074040 3.895710 
# 
# 
# High freq. dielectric constant tensor:
#      x y z
#    x 1.850100 -0.000220 -0.002720 
#    y -0.000220 1.844260 -0.004810 
#    z -0.002720 -0.004810 1.842580 
# 
# From -- ./inp_files/216451.got.cif
#   From: 2010.06.25/outbox.cif.g09.slc.cpg/sg2_109_cif.got.tgz:216451.got - 2010.06.27 13:26:56.
