data_PCOD8020821
_publ_section_title
;
Structure prediction by ZEFSAII (Michael W. Deem and Ramdas Pophale) SiO2 
 PCOD8020821
Probable space group: P -1
;
_chemical_formula_sum "Si O2"
_cell_formula_units_Z 16
_cell_length_a 8.417062
_cell_length_b 11.154441
_cell_length_c 17.192100
_cell_angle_alpha 38.706126
_cell_angle_beta 127.959326
_cell_angle_gamma 101.325845
_cell_volume 650.971137
_symmetry_space_group_name_H-M "P -1"
_symmetry_group_IT_number 2
_symmetry_cell_setting 'triclinic'
loop_
_space_group_symop_operation_xyz
x,y,z
-x,-y,-z
loop_
_atom_site_type_symbol
_atom_site_label
_atom_site_fract_x
_atom_site_fract_y
_atom_site_fract_z
Si Si1 0.920694 0.995993 0.891412
Si Si2 0.213786 0.192743 0.303106
Si Si3 0.149581 0.638393 0.025242
Si Si4 0.934985 0.998018 0.375283
Si Si5 0.090267 0.593840 0.363717
Si Si6 0.271483 0.156800 0.732962
Si Si7 0.245485 0.263564 0.949210
Si Si8 0.649685 0.377935 0.211425
O O1 0.152632 0.818781 0.993582
O O2 0.770061 0.877433 0.910962
O O3 0.789579 0.256639 0.682504
O O4 0.000000 0.000000 0.000000
O O5 0.159183 0.443358 0.181301
O O6 0.066250 0.132772 0.344998
O O7 0.500000 0.000000 0.500000
O O8 0.111665 0.213052 0.174599
O O9 0.380048 0.508757 0.101495
O O10 0.698239 0.173071 0.270523
O O11 0.858451 0.955277 0.291035
O O12 0.134340 0.739972 0.599415
O O13 0.860240 0.717340 0.291095
O O14 0.998729 0.587088 0.253194
O O15 0.282003 0.333239 0.586516
O O16 0.549108 0.941307 0.942726
O O17 0.330544 0.425236 0.924530
#
# Coordination Sequence:
#
# PCOD8020821 Si02
#       8
#     2   2   2   2   2   2   2   2
#     4  10  23  44  66  96 136 175 223 273 329 400
#     4  11  23  42  67 101 136 176 218 275 338 401
#     4  11  24  44  69  97 132 179 226 271 334 404
#     4  11  23  42  64 100 132 171 217 277 338 386
#     4  10  22  43  63  96 130 169 224 272 326 394
#     4  11  23  40  70  94 131 170 220 277 328 396
#     4  11  22  41  66  95 129 175 215 273 332 396
#     4  11  23  41  69  95 133 170 223 276 326 401
#
# _framework density 24.578661
#
# number of rings (size 3 to 8) (size 9 to 14) (size 15 to 20)
#    0.000    1.250    2.500    3.375    0.000    5.500 
#    0.000    0.000    0.000    0.000    0.000    0.000 
#    0.000    0.000    0.000    0.000    0.000    0.000 
#
# Total GULP energy -198228.877434 kJ/mol
# GULP energy per Si atom -12389.304840 kJ/mol
# Density = 2.452272 g / cm^3
# Si number density = 24.578661 Si / 1000 Ang^3
#
#
#
# Elastic Constant Matrix: (Units=GPa)
#
#
# Indices 1 2 3 4 5 6 
#
# 1 87.6462 18.1901 20.0487 -9.6509 -13.8140 20.6381
# 2 18.1901 86.7151 27.3924 -14.9020 6.1770 -2.1224
# 3 20.0487 27.3924 117.7596 -7.8793 -3.2656 6.2998
# 4 -9.6509 -14.9020 -7.8793 32.8474 1.9179 -11.9357
# 5 -13.8140 6.1770 -3.2656 1.9179 37.8777 -17.4398
# 6 20.6381 -2.1224 6.2998 -11.9357 -17.4398 45.1500
#
#
#
# Elastic Compliance Matrix: (Units=1/GPa)
#
#
# Indices 1 2 3 4 5 6 
#
# 1 0.014022 -0.002765 -0.001354 0.000540 0.003117 -0.005004
# 2 -0.002765 0.014281 -0.002662 0.006262 -0.002505 0.002995
# 3 -0.001354 -0.002662 0.009412 0.000437 0.000493 -0.000514
# 4 0.000540 0.006262 0.000437 0.037313 0.002262 0.010724
# 5 0.003117 -0.002505 0.000493 0.002262 0.033336 0.011863
# 6 -0.005004 0.002995 -0.000514 0.010724 0.011863 0.032065
#
#
# Mechanical properties :
#
#
# Convention : Reuss Voigt Hill
#
# Bulk Modulus (GPa) = 41.40262 47.04258 44.22260
# Shear Modulus (GPa) = 30.85615 38.27433 34.56524
#
# Velocity S-wave (km/s) = 3.54701 3.95044 3.75415
# Velocity P-wave (km/s) = 5.80143 6.32370 6.06818
#
# Compressibility (1/GPa) = 0.02415306
#
# Stress axis : x y z
#
# Youngs Moduli (GPa) = 71.31595 70.02380 106.24849
#
# Poissons Ratio (x) = 0.19364 0.14383
# Poissons Ratio (y) = 0.19722 0.28281
# Poissons Ratio (z) = 0.09654 0.18639
#
# Static dielectric constant tensor:
#      x y z
#    x 4.711330 0.224350 -0.375180 
#    y 0.224350 4.315600 -0.443260 
#    z -0.375180 -0.443260 4.585630 
# 
# 
# High freq. dielectric constant tensor:
#      x y z
#    x 1.975260 0.004270 -0.024250 
#    y 0.004270 1.971300 -0.025040 
#    z -0.024250 -0.025040 1.978660 
# 
# From -- ./inp_files/559694.got.cif
#   From: 2010.06.25/outbox.cif.g09.slc.cpg/sg2_280_cif.got.tgz:559694.got - 2010.06.27 13:26:56.
