data_PCOD8020631
_publ_section_title
;
Structure prediction by ZEFSAII (Michael W. Deem and Ramdas Pophale) SiO2 
 PCOD8020631
Probable space group: P -1
;
_chemical_formula_sum "Si O2"
_cell_formula_units_Z 16
_cell_length_a 9.568306
_cell_length_b 24.685185
_cell_length_c 5.108987
_cell_angle_alpha 122.662406
_cell_angle_beta 63.321286
_cell_angle_gamma 134.671690
_cell_volume 717.557147
_symmetry_space_group_name_H-M "P -1"
_symmetry_group_IT_number 2
_symmetry_cell_setting 'triclinic'
loop_
_space_group_symop_operation_xyz
x,y,z
-x,-y,-z
loop_
_atom_site_type_symbol
_atom_site_label
_atom_site_fract_x
_atom_site_fract_y
_atom_site_fract_z
Si Si1 0.302254 0.122437 0.590433
Si Si2 0.387501 0.394973 0.578532
Si Si3 0.454952 0.704203 0.911729
Si Si4 0.197757 0.665059 0.514198
Si Si5 0.697849 0.089285 0.529253
Si Si6 0.688933 0.170898 0.236749
Si Si7 0.237858 0.425929 0.272320
Si Si8 0.934529 0.037677 0.344480
O O1 0.469959 0.144783 0.298181
O O2 0.110876 0.103964 0.561904
O O3 0.249675 0.040208 0.550053
O O4 0.394012 0.198501 0.908770
O O5 0.411290 0.324549 0.332936
O O6 0.285434 0.399640 0.425545
O O7 0.605645 0.478102 0.662437
O O8 0.246978 0.376916 0.897085
O O9 0.326185 0.688694 0.727421
O O10 0.306731 0.655320 0.157266
O O11 0.165967 0.731836 0.635185
O O12 0.970848 0.587933 0.561978
O O13 0.697503 0.139476 0.428371
O O14 0.873766 0.082297 0.331185
O O15 0.500000 0.000000 0.500000
O O16 0.751097 0.137334 0.878163
O O17 0.000000 0.000000 0.000000
#
# Coordination Sequence:
#
# PCOD8020631 Si02
#       8
#     2   2   2   2   2   2   2   2
#     4  10  24  42  61  88 129 164 213 269 331 376
#     4  10  22  42  70  98 138 177 215 267 327 391
#     4  11  24  42  67  96 130 178 218 272 330 390
#     4  11  24  42  66  96 135 172 217 276 326 386
#     4  12  24  40  66  88 117 163 216 262 317 386
#     4  11  24  43  62  89 123 165 210 265 322 376
#     4  10  22  43  67 100 138 176 215 269 326 386
#     4  11  25  41  64  88 124 168 212 274 321 389
#
# _framework density 22.297877
#
# number of rings (size 3 to 8) (size 9 to 14) (size 15 to 20)
#    0.000    1.250    1.250    4.125    7.000    2.000 
#    2.250    0.000    0.000    0.000    0.000    0.000 
#    0.000    0.000    0.000    0.000    0.000    0.000 
#
# Total GULP energy -198357.206451 kJ/mol
# GULP energy per Si atom -12397.325403 kJ/mol
# Density = 2.224713 g / cm^3
# Si number density = 22.297877 Si / 1000 Ang^3
#
#
#
# Elastic Constant Matrix: (Units=GPa)
#
#
# Indices 1 2 3 4 5 6 
#
# 1 102.6705 27.2811 32.2332 2.8880 7.7615 -0.3949
# 2 27.2811 53.2771 11.9909 -6.7099 8.6838 7.4269
# 3 32.2332 11.9909 131.2341 -15.7957 3.1990 -6.5753
# 4 2.8880 -6.7099 -15.7957 34.0806 -9.4889 0.7052
# 5 7.7615 8.6838 3.1990 -9.4889 38.7817 -5.7570
# 6 -0.3949 7.4269 -6.5753 0.7052 -5.7570 31.2677
#
#
#
# Elastic Compliance Matrix: (Units=1/GPa)
#
#
# Indices 1 2 3 4 5 6 
#
# 1 0.012537 -0.006090 -0.002940 -0.004142 -0.001805 0.000748
# 2 -0.006090 0.024120 -0.000460 0.004033 -0.004161 -0.006760
# 3 -0.002940 -0.000460 0.009020 0.004688 0.001409 0.002123
# 4 -0.004142 0.004033 0.004688 0.034925 0.008188 0.000695
# 5 -0.001805 -0.004161 0.001409 0.008188 0.029944 0.006590
# 6 0.000748 -0.006760 0.002123 0.000695 0.006590 0.035241
#
#
# Mechanical properties :
#
#
# Convention : Reuss Voigt Hill
#
# Bulk Modulus (GPa) = 37.45567 47.79912 42.62739
# Shear Modulus (GPa) = 28.79097 35.20445 31.99771
#
# Velocity S-wave (km/s) = 3.59722 3.97775 3.79226
# Velocity P-wave (km/s) = 5.83847 6.52532 6.19143
#
# Compressibility (1/GPa) = 0.02669823
#
# Stress axis : x y z
#
# Youngs Moduli (GPa) = 79.76493 41.45941 110.86059
#
# Poissons Ratio (x) = 0.25247 0.32592
# Poissons Ratio (y) = 0.48573 0.05100
# Poissons Ratio (z) = 0.23450 0.01907
#
# Static dielectric constant tensor:
#      x y z
#    x 3.560660 0.111140 -0.042810 
#    y 0.111140 3.723940 -0.072740 
#    z -0.042810 -0.072740 4.122130 
# 
# 
# High freq. dielectric constant tensor:
#      x y z
#    x 1.884950 0.001790 0.001630 
#    y 0.001790 1.873790 -0.007710 
#    z 0.001630 -0.007710 1.884740 
# 
# From -- ./inp_files/55687.got.cif
#   From: 2010.06.25/outbox.cif.g09.slc.cpg/sg2_28_cif.got.tgz:55687.got - 2010.06.27 13:26:56.
