data_PCOD8020839
_publ_section_title
;
Structure prediction by ZEFSAII (Michael W. Deem and Ramdas Pophale) SiO2 
 PCOD8020839
Probable space group: P -1
;
_chemical_formula_sum "Si O2"
_cell_formula_units_Z 14
_cell_length_a 24.050746
_cell_length_b 14.503350
_cell_length_c 6.765496
_cell_angle_alpha 58.603170
_cell_angle_beta 118.572422
_cell_angle_gamma 161.021152
_cell_volume 654.234842
_symmetry_space_group_name_H-M "P -1"
_symmetry_group_IT_number 2
_symmetry_cell_setting 'triclinic'
loop_
_space_group_symop_operation_xyz
x,y,z
-x,-y,-z
loop_
_atom_site_type_symbol
_atom_site_label
_atom_site_fract_x
_atom_site_fract_y
_atom_site_fract_z
Si Si1 0.721869 0.893140 0.539883
Si Si2 0.595589 0.319190 0.229446
Si Si3 0.022618 0.737764 0.777522
Si Si4 0.016101 0.407793 0.719335
Si Si5 0.433036 0.575178 0.296814
Si Si6 0.269265 0.699676 0.543404
Si Si7 0.835431 0.811470 0.396500
O O1 0.604883 0.816217 0.442049
O O2 0.615695 0.614913 0.676375
O O3 0.833424 0.083709 0.317807
O O4 0.841790 0.071896 0.734671
O O5 0.681860 0.345483 0.272847
O O6 0.732841 0.610130 0.253939
O O7 0.434823 0.036141 0.410586
O O8 0.528749 0.276615 0.971594
O O9 0.853040 0.496753 0.635722
O O10 0.096877 0.959804 0.769706
O O11 0.973410 0.573075 0.046744
O O12 0.180088 0.605922 0.690507
O O13 0.000000 0.500000 0.500000
O O14 0.286204 0.389439 0.394787
O O15 0.000000 0.000000 0.500000
#
# Coordination Sequence:
#
# PCOD8020839 Si02
#       7
#     2   2   2   2   2   2   2
#     4   9  22  43  60  98 121 160 212 249 307 364
#     4  11  24  41  65  90 129 164 200 259 306 365
#     4  10  22  43  64  89 129 159 203 264 296 366
#     4  11  25  39  67  90 123 167 207 249 307 367
#     4  10  23  40  68  89 128 161 201 261 307 359
#     4  10  25  42  59  97 126 161 209 246 312 370
#     4  11  23  40  65  95 118 162 211 245 310 372
#
# _framework density 21.399044
#
# number of rings (size 3 to 8) (size 9 to 14) (size 15 to 20)
#    0.000    1.714    1.429    0.857    8.000    1.714 
#    0.000    7.143    0.000    0.000    0.000    0.000 
#    0.000    0.000    0.000    0.000    0.000    0.000 
#
# Total GULP energy -173621.488451 kJ/mol
# GULP energy per Si atom -12401.534889 kJ/mol
# Density = 2.135034 g / cm^3
# Si number density = 21.399044 Si / 1000 Ang^3
#
#
#
# Elastic Constant Matrix: (Units=GPa)
#
#
# Indices 1 2 3 4 5 6 
#
# 1 76.9273 31.4588 24.0483 3.0415 9.6883 20.5670
# 2 31.4588 81.1122 9.5678 2.0172 5.4821 21.7679
# 3 24.0483 9.5678 108.4983 -3.7031 13.0896 12.4152
# 4 3.0415 2.0172 -3.7031 17.1186 -1.0035 7.4255
# 5 9.6883 5.4821 13.0896 -1.0035 27.2451 3.7481
# 6 20.5670 21.7679 12.4152 7.4255 3.7481 38.5439
#
#
#
# Elastic Compliance Matrix: (Units=1/GPa)
#
#
# Indices 1 2 3 4 5 6 
#
# 1 0.017669 -0.004867 -0.002497 -0.000983 -0.003404 -0.005355
# 2 -0.004867 0.016014 0.000628 0.002097 -0.000756 -0.006980
# 3 -0.002497 0.000628 0.010618 0.003645 -0.003824 -0.002773
# 4 -0.000983 0.002097 0.003645 0.065681 0.002624 -0.014743
# 5 -0.003404 -0.000756 -0.003824 0.002624 0.040128 -0.000933
# 6 -0.005355 -0.006980 -0.002773 -0.014743 -0.000933 0.036568
#
#
# Mechanical properties :
#
#
# Convention : Reuss Voigt Hill
#
# Bulk Modulus (GPa) = 32.43667 44.07640 38.25653
# Shear Modulus (GPa) = 23.76119 30.01238 26.88678
#
# Velocity S-wave (km/s) = 3.33586 3.74907 3.54849
# Velocity P-wave (km/s) = 5.47980 6.27557 5.89114
#
# Compressibility (1/GPa) = 0.03082931
#
# Stress axis : x y z
#
# Youngs Moduli (GPa) = 56.59487 62.44461 94.18085
#
# Poissons Ratio (x) = 0.30390 0.23520
# Poissons Ratio (y) = 0.27543 -0.05914
# Poissons Ratio (z) = 0.14134 -0.03921
#
# Static dielectric constant tensor:
#      x y z
#    x 3.949510 -0.063800 0.014600 
#    y -0.063800 4.358910 0.216940 
#    z 0.014600 0.216940 3.698460 
# 
# 
# High freq. dielectric constant tensor:
#      x y z
#    x 1.844330 0.003310 0.008110 
#    y 0.003310 1.855290 0.001980 
#    z 0.008110 0.001980 1.829450 
# 
# From -- ./inp_files/65799.got.cif
#   From: 2010.06.25/outbox.cif.g09.slc.cpg/sg2_33_cif.got.tgz:65799.got - 2010.06.27 13:26:56.
