data_PCOD8020754
_publ_section_title
;
Structure prediction by ZEFSAII (Michael W. Deem and Ramdas Pophale) SiO2 
 PCOD8020754
Probable space group: P -1
;
_chemical_formula_sum "Si O2"
_cell_formula_units_Z 16
_cell_length_a 10.579359
_cell_length_b 10.971681
_cell_length_c 5.291209
_cell_angle_alpha 80.832353
_cell_angle_beta 93.893758
_cell_angle_gamma 85.153869
_cell_volume 602.085427
_symmetry_space_group_name_H-M "P -1"
_symmetry_group_IT_number 2
_symmetry_cell_setting 'triclinic'
loop_
_space_group_symop_operation_xyz
x,y,z
-x,-y,-z
loop_
_atom_site_type_symbol
_atom_site_label
_atom_site_fract_x
_atom_site_fract_y
_atom_site_fract_z
Si Si1 0.463473 0.301915 0.584540
Si Si2 0.073865 0.811883 0.412877
Si Si3 0.114610 0.993812 0.778825
Si Si4 0.336412 0.545339 0.670024
Si Si5 0.728264 0.868168 0.620805
Si Si6 0.947183 0.691219 0.837097
Si Si7 0.686299 0.119671 0.779292
Si Si8 0.176728 0.560881 0.137886
O O1 0.385350 0.398467 0.729072
O O2 0.542972 0.376707 0.372283
O O3 0.370879 0.228505 0.428248
O O4 0.555631 0.203251 0.794376
O O5 0.227496 0.795650 0.412543
O O6 0.999915 0.903890 0.152001
O O7 0.009303 0.693765 0.558686
O O8 0.044691 0.900635 0.626544
O O9 0.197833 0.092758 0.624640
O O10 0.221621 0.908914 0.967978
O O11 0.238686 0.570101 0.415290
O O12 0.275029 0.582195 0.919511
O O13 0.835487 0.799939 0.847731
O O14 0.654219 0.989938 0.696671
O O15 0.882041 0.564917 0.878228
O O16 0.062255 0.677653 0.072723
#
# Coordination Sequence:
#
# PCOD8020754 Si02
#       8
#     2   2   2   2   2   2   2   2
#     4  11  25  46  70 100 142 195 243 295 352 430
#     4   9  19  39  61  95 143 175 231 286 356 419
#     4   9  20  37  60  95 137 183 230 286 350 421
#     4  11  27  52  74 107 144 189 247 305 355 422
#     4  10  22  46  61 105 146 185 234 295 357 431
#     4  10  22  42  74 104 141 186 229 308 363 440
#     4  11  22  40  68 102 140 195 233 291 350 436
#     4  11  25  50  75 110 141 186 245 303 370 421
#
# _framework density 26.574303
#
# number of rings (size 3 to 8) (size 9 to 14) (size 15 to 20)
#    0.000    1.750    1.250    2.250    1.750    5.500 
#   13.500    0.000    0.000    0.000    0.000    0.000 
#    0.000    0.000    0.000    0.000    0.000    0.000 
#
# Total GULP energy -198214.112332 kJ/mol
# GULP energy per Si atom -12388.382021 kJ/mol
# Density = 2.651382 g / cm^3
# Si number density = 26.574303 Si / 1000 Ang^3
#
#
#
# Elastic Constant Matrix: (Units=GPa)
#
#
# Indices 1 2 3 4 5 6 
#
# 1 115.5457 54.7788 29.8830 -6.9394 26.3902 -6.4776
# 2 54.7788 116.5038 -3.3035 -21.5893 19.2897 -30.6714
# 3 29.8830 -3.3035 36.5510 -25.1715 25.1013 -32.2828
# 4 -6.9394 -21.5893 -25.1715 17.9633 2.3591 1.8717
# 5 26.3902 19.2897 25.1013 2.3591 28.4330 -4.4873
# 6 -6.4776 -30.6714 -32.2828 1.8717 -4.4873 63.2411
#
#
#
# Elastic Compliance Matrix: (Units=1/GPa)
#
#
# Indices 1 2 3 4 5 6 
#
# 1 0.012534 -0.002685 0.002083 0.006131 -0.012159 0.000001
# 2 -0.002685 0.006157 -0.010274 -0.008886 0.007852 -0.001713
# 3 0.002083 -0.010274 -0.009119 -0.025356 0.013979 -0.007682
# 4 0.006131 -0.008886 -0.025356 0.010906 0.019361 -0.015575
# 5 -0.012159 0.007852 0.013979 0.019361 0.028947 0.011179
# 6 0.000001 -0.001713 -0.007682 -0.015575 0.011179 0.012314
#
#
# Mechanical properties :
#
#
# Convention : Reuss Voigt Hill
#
# Bulk Modulus (GPa) = -82.10618 47.92413 -17.09102
# Shear Modulus (GPa) = 62.94800 34.41029 48.67914
#
# Velocity S-wave (km/s) = 4.87227 3.60234 4.28461
# Velocity P-wave (km/s) = 0.82949 5.94774 4.24639
#
# Compressibility (1/GPa) = -0.01217935
#
# Stress axis : x y z
#
# Youngs Moduli (GPa) = 79.78186 162.42399 -109.66000
#
# Poissons Ratio (x) = 0.43609 0.22840
# Poissons Ratio (y) = 0.21420 -1.12659
# Poissons Ratio (z) = -0.16617 1.66867
#
# Static dielectric constant tensor:
#      x y z
#    x 5.051950 -0.175650 -0.014530 
#    y -0.175650 5.379420 -0.307900 
#    z -0.014530 -0.307900 4.988650 
# 
# 
# High freq. dielectric constant tensor:
#      x y z
#    x 2.076330 -0.001180 0.010570 
#    y -0.001180 2.101860 -0.020740 
#    z 0.010570 -0.020740 2.044080 
# 
# From -- ./inp_files/70663.got.cif
#   From: 2010.06.25/outbox.cif.g09.slc.cpg/sg2_36_cif.got.tgz:70663.got - 2010.06.27 13:26:56.
