data_PCOD8020301
_publ_section_title
;
Structure prediction by ZEFSAII (Michael W. Deem and Ramdas Pophale) SiO2 
 PCOD8020301
Probable space group: P -1
;
_chemical_formula_sum "Si O2"
_cell_formula_units_Z 16
_cell_length_a 12.014576
_cell_length_b 11.813310
_cell_length_c 23.189378
_cell_angle_alpha 157.291284
_cell_angle_beta 39.886005
_cell_angle_gamma 142.025183
_cell_volume 770.570851
_symmetry_space_group_name_H-M "P -1"
_symmetry_group_IT_number 2
_symmetry_cell_setting 'triclinic'
loop_
_space_group_symop_operation_xyz
x,y,z
-x,-y,-z
loop_
_atom_site_type_symbol
_atom_site_label
_atom_site_fract_x
_atom_site_fract_y
_atom_site_fract_z
Si Si1 0.482567 0.327554 0.179358
Si Si2 0.873835 0.869826 0.600806
Si Si3 0.800133 0.497673 0.564496
Si Si4 0.754887 0.373768 0.835835
Si Si5 0.269373 0.244867 0.622478
Si Si6 0.357876 0.115301 0.823448
Si Si7 0.136886 0.489643 0.678611
Si Si8 0.547722 0.899763 0.346386
O O1 0.272807 0.279911 0.260882
O O2 0.621326 0.483282 0.249370
O O3 0.518628 0.551412 0.214779
O O4 0.500000 0.000000 0.000000
O O5 0.777091 0.590917 0.551321
O O6 0.906451 0.757907 0.471875
O O7 0.748862 0.087804 0.745371
O O8 0.067813 0.071077 0.646416
O O9 0.000000 0.500000 0.500000
O O10 0.667251 0.145170 0.461523
O O11 0.576173 0.270185 0.818056
O O12 0.940502 0.497623 0.782573
O O13 0.750387 0.649012 0.008620
O O14 0.252181 0.396828 0.639340
O O15 0.360169 0.977552 0.449588
O O16 0.331354 0.038067 0.730402
O O17 0.268797 0.816898 0.757715
#
# Coordination Sequence:
#
# PCOD8020301 Si02
#       8
#     2   2   2   2   2   2   2   2
#     4  11  26  44  66  93 129 175 219 275 334 385
#     4  11  21  40  66  95 128 163 221 263 330 384
#     4  11  23  42  66  95 124 169 221 271 320 396
#     4  10  24  38  59  95 139 169 210 269 322 398
#     4  10  22  42  67  93 130 169 214 276 317 399
#     4  11  23  39  63  94 133 177 212 264 330 389
#     4  11  22  41  66  99 130 171 220 263 334 384
#     4  11  22  42  64  88 128 165 223 259 329 387
#
# _framework density 20.763829000000001
#
# number of rings (size 3 to 8) (size 9 to 14) (size 15 to 20)
#    0.000    1.250    1.250    6.375    5.250    2.000 
#    4.500    1.250    0.000    0.000    0.000    0.000 
#    0.000    0.000    0.000    0.000    0.000    0.000 
#
# Total GULP energy -198405.456419 kJ/mol
# GULP energy per Si atom -12400.341026 kJ/mol
# Density = 2.071657 g / cm^3
# Si number density = 20.763829 Si / 1000 Ang^3
#
#
#
# Elastic Constant Matrix: (Units=GPa)
#
#
# Indices 1 2 3 4 5 6 
#
# 1 84.4937 37.7645 58.9275 -7.1837 -11.1468 -4.6723
# 2 37.7645 94.8071 54.4118 -5.0827 -12.3256 -13.0192
# 3 58.9275 54.4118 162.4166 2.7773 -17.6990 -2.0251
# 4 -7.1837 -5.0827 2.7773 26.4225 2.7422 -7.8305
# 5 -11.1468 -12.3256 -17.6990 2.7422 29.1408 2.6400
# 6 -4.6723 -13.0192 -2.0251 -7.8305 2.6400 36.7361
#
#
#
# Elastic Compliance Matrix: (Units=1/GPa)
#
#
# Indices 1 2 3 4 5 6 
#
# 1 0.017685 -0.003354 -0.005187 0.005062 0.001561 0.001742
# 2 -0.003354 0.015191 -0.003643 0.003781 0.002084 0.005413
# 3 -0.005187 -0.003643 0.009620 -0.004174 0.002939 -0.002521
# 4 0.005062 0.003781 -0.004174 0.044228 -0.004202 0.011483
# 5 0.001561 0.002084 0.002939 -0.004202 0.038206 -0.002542
# 6 0.001742 0.005413 -0.002521 0.011483 -0.002542 0.031852
#
#
# Mechanical properties :
#
#
# Convention : Reuss Voigt Hill
#
# Bulk Modulus (GPa) = 55.16308 71.54722 63.35515
# Shear Modulus (GPa) = 26.71068 31.16745 28.93906
#
# Velocity S-wave (km/s) = 3.59054 3.87854 3.73731
# Velocity P-wave (km/s) = 6.61921 7.38849 7.01440
#
# Compressibility (1/GPa) = 0.01812807
#
# Stress axis : x y z
#
# Youngs Moduli (GPa) = 56.54633 65.82849 103.95432
#
# Poissons Ratio (x) = 0.22076 0.53926
# Poissons Ratio (y) = 0.18963 0.37866
# Poissons Ratio (z) = 0.29333 0.23978
#
# Static dielectric constant tensor:
#      x y z
#    x 3.703570 -0.012460 -0.093640 
#    y -0.012460 3.833850 -0.002370 
#    z -0.093640 -0.002370 3.806260 
# 
# 
# High freq. dielectric constant tensor:
#      x y z
#    x 1.813340 -0.003680 -0.008790 
#    y -0.003680 1.824990 -0.000160 
#    z -0.008790 -0.000160 1.812360 
# 
# From -- ./inp_files/269750.got.cif
#   From: 2010.06.25/outbox.cif.g09.slc.cpg/sg2_135_cif.got.tgz:269750.got - 2010.06.27 13:26:56.
