data_PCOD8020975
_publ_section_title
;
Structure prediction by ZEFSAII (Michael W. Deem and Ramdas Pophale) SiO2 
 PCOD8020975
Probable space group: P -1
;
_chemical_formula_sum "Si O2"
_cell_formula_units_Z 16
_cell_length_a 17.607340
_cell_length_b 11.465395
_cell_length_c 8.791559
_cell_angle_alpha 135.524471
_cell_angle_beta 82.207229
_cell_angle_gamma 131.098246
_cell_volume 726.472173
_symmetry_space_group_name_H-M "P -1"
_symmetry_group_IT_number 2
_symmetry_cell_setting 'triclinic'
loop_
_space_group_symop_operation_xyz
x,y,z
-x,-y,-z
loop_
_atom_site_type_symbol
_atom_site_label
_atom_site_fract_x
_atom_site_fract_y
_atom_site_fract_z
Si Si1 0.062697 0.701327 0.985239
Si Si2 0.208192 0.814179 0.300803
Si Si3 0.702239 0.722272 0.123056
Si Si4 0.132120 0.142910 0.560740
Si Si5 0.324420 0.556295 0.639283
Si Si6 0.556718 0.919285 0.395716
Si Si7 0.746189 0.894497 0.939636
Si Si8 0.602826 0.979941 0.093900
O O1 0.145126 0.695966 0.038350
O O2 0.095244 0.896872 0.283553
O O3 0.113815 0.827597 0.919754
O O4 0.907938 0.403231 0.744270
O O5 0.297442 0.129628 0.615147
O O6 0.317256 0.861017 0.322181
O O7 0.784492 0.718129 0.175912
O O8 0.555121 0.408974 0.834728
O O9 0.770977 0.904378 0.119208
O O10 0.209017 0.371684 0.619748
O O11 0.000000 0.000000 0.500000
O O12 0.314554 0.379593 0.367923
O O13 0.317334 0.716174 0.696146
O O14 0.455571 0.755860 0.880977
O O15 0.500000 0.000000 0.500000
O O16 0.612131 0.975551 0.267348
O O17 0.657086 0.901340 0.937015
#
# Coordination Sequence:
#
# PCOD8020975 Si02
#       8
#     2   2   2   2   2   2   2   2
#     4   9  23  42  66  97 125 178 224 261 327 402
#     4  10  22  43  66  91 132 171 222 266 321 400
#     4  11  23  42  66  96 130 171 222 267 341 387
#     4  10  22  43  68  91 135 178 218 272 327 397
#     4  10  23  43  64  99 133 172 228 264 332 405
#     4  12  25  40  66  99 133 169 221 279 330 393
#     4  11  23  42  67  98 135 171 216 278 335 391
#     4  11  23  41  67  96 133 177 216 278 334 388
#
# _framework density 22.024242000000001
#
# number of rings (size 3 to 8) (size 9 to 14) (size 15 to 20)
#    0.000    1.500    2.500    1.500    1.750    6.500 
#    2.250    1.250    0.000    0.000    0.000    0.000 
#    0.000    0.000    0.000    0.000    0.000    0.000 
#
# Total GULP energy -198320.950766 kJ/mol
# GULP energy per Si atom -12395.059423 kJ/mol
# Density = 2.197411 g / cm^3
# Si number density = 22.024242 Si / 1000 Ang^3
#
#
#
# Elastic Constant Matrix: (Units=GPa)
#
#
# Indices 1 2 3 4 5 6 
#
# 1 119.1838 52.1546 39.7299 10.0531 8.5015 8.2450
# 2 52.1546 125.4861 30.9816 11.0558 5.8442 -5.6993
# 3 39.7299 30.9816 72.6138 19.5947 7.8254 3.1059
# 4 10.0531 11.0558 19.5947 33.5949 1.3341 0.9810
# 5 8.5015 5.8442 7.8254 1.3341 42.1543 3.4778
# 6 8.2450 -5.6993 3.1059 0.9810 3.4778 31.7178
#
#
#
# Elastic Compliance Matrix: (Units=1/GPa)
#
#
# Indices 1 2 3 4 5 6 
#
# 1 0.011946 -0.003951 -0.004809 0.000655 -0.000718 -0.003286
# 2 -0.003951 0.010383 -0.002052 -0.001111 -0.000489 0.003182
# 3 -0.004809 -0.002052 0.020097 -0.009507 -0.002129 -0.000559
# 4 0.000655 -0.001111 -0.009507 0.035471 0.000715 -0.000614
# 5 -0.000718 -0.000489 -0.002129 0.000715 0.024506 -0.002402
# 6 -0.003286 0.003182 -0.000559 -0.000614 -0.002402 0.033291
#
#
# Mechanical properties :
#
#
# Convention : Reuss Voigt Hill
#
# Bulk Modulus (GPa) = 48.07244 62.55733 55.31488
# Shear Modulus (GPa) = 30.44131 34.45458 32.44795
#
# Velocity S-wave (km/s) = 3.72179 3.95953 3.84250
# Velocity P-wave (km/s) = 6.35165 7.02633 6.69749
#
# Compressibility (1/GPa) = 0.02080194
#
# Stress axis : x y z
#
# Youngs Moduli (GPa) = 83.71161 96.31216 49.75915
#
# Poissons Ratio (x) = 0.38054 0.23929
# Poissons Ratio (y) = 0.33075 0.10209
# Poissons Ratio (z) = 0.40257 0.19760
#
# Static dielectric constant tensor:
#      x y z
#    x 5.543210 -0.544330 0.158180 
#    y -0.544330 4.008220 0.145580 
#    z 0.158180 0.145580 4.007940 
# 
# 
# High freq. dielectric constant tensor:
#      x y z
#    x 1.871350 -0.006380 -0.001830 
#    y -0.006380 1.868330 0.011100 
#    z -0.001830 0.011100 1.861040 
# 
# From -- ./inp_files/298618.got.cif
#   From: 2010.06.25/outbox.cif.g09.slc.cpg/sg2_150_cif.got.tgz:298618.got - 2010.06.27 13:26:56.
