data_PCOD8020017
_publ_section_title
;
Structure prediction by ZEFSAII (Michael W. Deem and Ramdas Pophale) SiO2 
 PCOD8020017
Probable space group: P -1
;
_chemical_formula_sum "Si O2"
_cell_formula_units_Z 16
_cell_length_a 6.622404
_cell_length_b 12.476621
_cell_length_c 17.753347
_cell_angle_alpha 134.647447
_cell_angle_beta 118.825163
_cell_angle_gamma 46.679215
_cell_volume 759.243535
_symmetry_space_group_name_H-M "P -1"
_symmetry_group_IT_number 2
_symmetry_cell_setting 'triclinic'
loop_
_space_group_symop_operation_xyz
x,y,z
-x,-y,-z
loop_
_atom_site_type_symbol
_atom_site_label
_atom_site_fract_x
_atom_site_fract_y
_atom_site_fract_z
Si Si1 0.000167 0.554554 0.804608
Si Si2 0.697383 0.970384 0.589573
Si Si3 0.560891 0.337932 0.721817
Si Si4 0.499924 0.020491 0.270469
Si Si5 0.560637 0.394297 0.278147
Si Si6 0.010838 0.139197 0.122998
Si Si7 0.988957 0.606863 0.122996
Si Si8 0.302701 0.708769 0.589576
O O1 0.732619 0.566881 0.731618
O O2 0.946115 0.748374 0.875845
O O3 0.267673 0.396253 0.731598
O O4 0.054255 0.503173 0.875836
O O5 0.570151 0.978852 0.653218
O O6 0.000032 0.789337 0.539348
O O7 0.500000 0.000000 0.500000
O O8 0.760080 0.124561 0.665227
O O9 0.500071 0.407922 0.657910
O O10 0.709562 0.425907 0.831419
O O11 0.246534 0.061647 0.191473
O O12 0.570056 0.172437 0.346833
O O13 0.753265 0.821364 0.191430
O O14 0.759867 0.294038 0.334701
O O15 0.709332 0.263061 0.168543
O O16 0.000000 0.000000 0.000000
O O17 0.000000 0.500000 0.000000
O O18 0.500000 0.500000 0.500000
#
# Coordination Sequence:
#
# PCOD8020017 Si02
#       8
#     2   2   2   2   2   2   2   2
#     4  10  22  42  64  96 140 182 224 282 342 408
#     4  12  28  47  72 103 141 189 237 299 356 416
#     4  10  23  44  67  99 140 180 235 285 347 421
#     4  12  26  48  70 106 144 178 240 292 344 428
#     4  10  23  44  67  99 140 180 235 285 347 421
#     4  11  25  42  71 104 141 186 229 285 358 420
#     4  11  25  42  71 104 141 186 229 285 358 420
#     4  12  28  47  72 103 141 189 237 299 356 416
#
# _framework density 21.073606000000002
#
# number of rings (size 3 to 8) (size 9 to 14) (size 15 to 20)
#    0.000    1.000    5.000    0.000    8.750    4.000 
#    0.000    0.000    0.000    0.000    0.000    0.000 
#    0.000    0.000    0.000    0.000    0.000    0.000 
#
# Total GULP energy -198217.844387 kJ/mol
# GULP energy per Si atom -12388.615274 kJ/mol
# Density = 2.102564 g / cm^3
# Si number density = 21.073606 Si / 1000 Ang^3
#
#
#
# Elastic Constant Matrix: (Units=GPa)
#
#
# Indices 1 2 3 4 5 6 
#
# 1 134.6115 72.9848 59.7640 -0.6736 -2.0666 2.0088
# 2 72.9848 163.0832 70.6617 0.4362 0.5690 6.1126
# 3 59.7640 70.6617 114.9556 1.0779 0.8546 9.2393
# 4 -0.6736 0.4362 1.0779 32.9629 -7.9214 -1.2690
# 5 -2.0666 0.5690 0.8546 -7.9214 19.5843 0.9309
# 6 2.0088 6.1126 9.2393 -1.2690 0.9309 55.4565
#
#
#
# Elastic Compliance Matrix: (Units=1/GPa)
#
#
# Indices 1 2 3 4 5 6 
#
# 1 0.010879 -0.003297 -0.003696 0.000820 0.001709 0.000575
# 2 -0.003297 0.009357 -0.004013 -0.000192 -0.000511 -0.000239
# 3 -0.003696 -0.004013 0.013233 -0.000779 -0.001089 -0.001628
# 4 0.000820 -0.000192 -0.000779 0.033707 0.013728 0.000662
# 5 0.001709 -0.000511 -0.001089 0.013728 0.056879 -0.000465
# 6 0.000575 -0.000239 -0.001628 0.000662 -0.000465 0.018332
#
#
# Mechanical properties :
#
#
# Convention : Reuss Voigt Hill
#
# Bulk Modulus (GPa) = 87.27419 91.05237 89.16328
# Shear Modulus (GPa) = 29.72330 35.55006 32.63668
#
# Velocity S-wave (km/s) = 3.75967 4.11170 3.93962
# Velocity P-wave (km/s) = 7.76857 8.11431 7.94332
#
# Compressibility (1/GPa) = 0.01145814
#
# Stress axis : x y z
#
# Youngs Moduli (GPa) = 91.91994 106.86741 75.56651
#
# Poissons Ratio (x) = 0.35235 0.27928
# Poissons Ratio (y) = 0.30307 0.30324
# Poissons Ratio (z) = 0.33972 0.42885
#
# Static dielectric constant tensor:
#      x y z
#    x 5.626450 1.290280 -0.093590 
#    y 1.290280 5.197660 -0.032650 
#    z -0.093590 -0.032650 3.531050 
# 
# 
# High freq. dielectric constant tensor:
#      x y z
#    x 1.841760 0.003920 -0.002340 
#    y 0.003920 1.861790 0.001440 
#    z -0.002340 0.001440 1.802480 
# 
# From -- ./inp_files/283307.got.cif
#   From: 2010.06.25/outbox.cif.g09.slc.cpg/sg2_142_cif.got.tgz:283307.got - 2010.06.27 13:26:56.
