data_PCOD8020473
_publ_section_title
;
Structure prediction by ZEFSAII (Michael W. Deem and Ramdas Pophale) SiO2 
 PCOD8020473
Probable space group: P -1
;
_chemical_formula_sum "Si O2"
_cell_formula_units_Z 16
_cell_length_a 10.659807
_cell_length_b 16.851310
_cell_length_c 8.885747
_cell_angle_alpha 77.500498
_cell_angle_beta 112.506746
_cell_angle_gamma 146.857381
_cell_volume 788.890665
_symmetry_space_group_name_H-M "P -1"
_symmetry_group_IT_number 2
_symmetry_cell_setting 'triclinic'
loop_
_space_group_symop_operation_xyz
x,y,z
-x,-y,-z
loop_
_atom_site_type_symbol
_atom_site_label
_atom_site_fract_x
_atom_site_fract_y
_atom_site_fract_z
Si Si1 0.789591 0.341908 0.890936
Si Si2 0.477868 0.838617 0.864121
Si Si3 0.597720 0.773028 0.452542
Si Si4 0.057543 0.354581 0.795292
Si Si5 0.510065 0.687125 0.779472
Si Si6 0.026121 0.151791 0.919577
Si Si7 0.980948 0.101355 0.577910
Si Si8 0.746024 0.152109 0.465799
O O1 0.640848 0.324998 0.715608
O O2 0.909602 0.325831 0.869521
O O3 0.602160 0.212702 0.980504
O O4 0.000000 0.500000 0.000000
O O5 0.433411 0.735564 0.789757
O O6 0.313805 0.826429 0.717684
O O7 0.759909 0.008257 0.931247
O O8 0.497966 0.682411 0.595917
O O9 0.765873 0.791618 0.435769
O O10 0.754493 0.932002 0.492341
O O11 0.326076 0.527585 0.824645
O O12 0.097907 0.281968 0.891700
O O13 0.903098 0.285228 0.598831
O O14 0.786105 0.803444 0.909146
O O15 0.025525 0.110938 0.771494
O O16 0.907387 0.156557 0.483657
O O17 0.500000 0.000000 0.500000
#
# Coordination Sequence:
#
# PCOD8020473 Si02
#       8
#     2   2   2   2   2   2   2   2
#     4  12  27  44  63 100 140 173 220 281 333 392
#     4  12  24  41  73  94 132 181 223 273 331 400
#     4  11  25  41  68  98 131 178 224 273 330 393
#     4  11  25  44  69  96 138 176 218 280 338 396
#     4  12  24  43  69 100 134 180 224 269 338 404
#     4  11  24  44  68 102 131 176 220 278 335 395
#     4  10  22  42  68  97 138 166 221 285 320 389
#     4  11  21  45  68 100 131 174 223 275 332 392
#
# _framework density 20.281642000000002
#
# number of rings (size 3 to 8) (size 9 to 14) (size 15 to 20)
#    0.000    0.750    5.000    3.000    5.250    2.500 
#    0.000    2.500    0.000    0.000    0.000    0.000 
#    0.000    0.000    0.000    0.000    0.000    0.000 
#
# Total GULP energy -198524.660356 kJ/mol
# GULP energy per Si atom -12407.791272 kJ/mol
# Density = 2.023548 g / cm^3
# Si number density = 20.281642 Si / 1000 Ang^3
#
#
#
# Elastic Constant Matrix: (Units=GPa)
#
#
# Indices 1 2 3 4 5 6 
#
# 1 119.2730 28.7929 65.3153 -2.5740 -12.0712 1.8546
# 2 28.7929 93.4949 40.5279 -5.1129 -3.8428 1.1966
# 3 65.3153 40.5279 155.1827 -4.9869 10.4259 8.5300
# 4 -2.5740 -5.1129 -4.9869 36.2310 6.2145 -6.2726
# 5 -12.0712 -3.8428 10.4259 6.2145 27.2093 -6.3208
# 6 1.8546 1.1966 8.5300 -6.2726 -6.3208 27.4874
#
#
#
# Elastic Compliance Matrix: (Units=1/GPa)
#
#
# Indices 1 2 3 4 5 6 
#
# 1 0.012612 -0.001125 -0.005769 -0.001049 0.008515 0.002707
# 2 -0.001125 0.012480 -0.002986 0.001068 0.002458 0.001268
# 3 -0.005769 -0.002986 0.010491 0.001284 -0.008305 -0.004353
# 4 -0.001049 0.001068 0.001284 0.029819 -0.006468 0.004943
# 5 0.008515 0.002458 -0.008305 -0.006468 0.048210 0.011506
# 6 0.002707 0.001268 -0.004353 0.004943 0.011506 0.041267
#
#
# Mechanical properties :
#
#
# Convention : Reuss Voigt Hill
#
# Bulk Modulus (GPa) = 63.20516 70.80254 67.00385
# Shear Modulus (GPa) = 27.79120 33.73985 30.76552
#
# Velocity S-wave (km/s) = 3.70572 4.08311 3.89898
# Velocity P-wave (km/s) = 7.03855 7.56403 7.30602
#
# Compressibility (1/GPa) = 0.01582149
#
# Stress axis : x y z
#
# Youngs Moduli (GPa) = 79.28936 80.12820 95.32379
#
# Poissons Ratio (x) = 0.09017 0.54993
# Poissons Ratio (y) = 0.08922 0.28466
# Poissons Ratio (z) = 0.45742 0.23928
#
# Static dielectric constant tensor:
#      x y z
#    x 3.924700 0.046180 -0.093070 
#    y 0.046180 3.698720 0.009350 
#    z -0.093070 0.009350 3.910830 
# 
# 
# High freq. dielectric constant tensor:
#      x y z
#    x 1.804380 0.001200 0.003010 
#    y 0.001200 1.795020 0.004020 
#    z 0.003010 0.004020 1.800630 
# 
# From -- ./inp_files/207082.got.cif
#   From: 2010.06.25/outbox.cif.g09.slc.cpg/sg2_104_cif.got.tgz:207082.got - 2010.06.27 13:26:56.
