data_PCOD8020146
_publ_section_title
;
Structure prediction by ZEFSAII (Michael W. Deem and Ramdas Pophale) SiO2 
 PCOD8020146
Probable space group: P -1
;
_chemical_formula_sum "Si O2"
_cell_formula_units_Z 14
_cell_length_a 14.838948
_cell_length_b 15.211002
_cell_length_c 9.160371
_cell_angle_alpha 31.369816
_cell_angle_beta 37.748742
_cell_angle_gamma 37.478588
_cell_volume 611.715420
_symmetry_space_group_name_H-M "P -1"
_symmetry_group_IT_number 2
_symmetry_cell_setting 'triclinic'
loop_
_space_group_symop_operation_xyz
x,y,z
-x,-y,-z
loop_
_atom_site_type_symbol
_atom_site_label
_atom_site_fract_x
_atom_site_fract_y
_atom_site_fract_z
Si Si1 0.857597 0.443243 0.810253
Si Si2 0.524716 0.670276 0.797727
Si Si3 0.812276 0.451487 0.193967
Si Si4 0.149875 0.228098 0.180868
Si Si5 0.690398 0.180127 0.862849
Si Si6 0.592029 0.935495 0.125538
Si Si7 0.966863 0.040908 0.151616
O O1 0.697025 0.605556 0.741516
O O2 0.000000 0.500000 0.500000
O O3 0.855879 0.410255 0.029954
O O4 0.876913 0.256120 0.973008
O O5 0.512608 0.814349 0.482845
O O6 0.500000 0.500000 0.000000
O O7 0.392047 0.769157 0.946878
O O8 0.684208 0.366948 0.528567
O O9 0.966376 0.352566 0.234385
O O10 0.755913 0.667137 0.995838
O O11 0.226517 0.182542 0.986178
O O12 0.159893 0.044667 0.510611
O O13 0.869583 0.034029 0.859272
O O14 0.591505 0.098013 0.001254
O O15 0.500000 0.000000 0.000000
O O16 0.000000 0.000000 0.000000
#
# Coordination Sequence:
#
# PCOD8020146 Si02
#       7
#     2   2   2   2   2   2   2
#     4  12  25  42  71 100 141 184 240 285 357 415
#     4  12  28  47  71 105 147 184 234 297 357 425
#     4  10  22  42  72 100 137 182 228 295 349 423
#     4  10  22  42  66 102 137 177 236 283 347 419
#     4  11  25  46  72 103 143 184 238 289 356 422
#     4  12  28  44  71  99 144 189 237 287 350 421
#     4  11  23  41  73 101 138 182 234 290 351 425
#
# _framework density 22.886457
#
# number of rings (size 3 to 8) (size 9 to 14) (size 15 to 20)
#    0.000    0.857    0.000    6.429    8.000    5.143 
#    0.000    0.000    0.000    0.000    0.000    0.000 
#    0.000    0.000    0.000    0.000    0.000    0.000 
#
# Total GULP energy -173647.588838 kJ/mol
# GULP energy per Si atom -12403.399203 kJ/mol
# Density = 2.283437 g / cm^3
# Si number density = 22.886457 Si / 1000 Ang^3
#
#
#
# Elastic Constant Matrix: (Units=GPa)
#
#
# Indices 1 2 3 4 5 6 
#
# 1 86.8581 17.9950 47.6424 -9.8196 -1.1086 21.3775
# 2 17.9950 99.8414 52.0613 5.5932 -3.7510 28.6020
# 3 47.6424 52.0613 219.1333 6.0684 -4.5421 31.1644
# 4 -9.8196 5.5932 6.0684 43.5667 11.8856 1.8717
# 5 -1.1086 -3.7510 -4.5421 11.8856 36.1184 -1.3760
# 6 21.3775 28.6020 31.1644 1.8717 -1.3760 57.2043
#
#
#
# Elastic Compliance Matrix: (Units=1/GPa)
#
#
# Indices 1 2 3 4 5 6 
#
# 1 0.014477 -0.000395 -0.002641 0.004255 -0.001479 -0.003949
# 2 -0.000395 0.012786 -0.002171 -0.001590 0.001376 -0.004977
# 3 -0.002641 -0.002171 0.005857 -0.001311 0.000821 -0.001056
# 4 0.004255 -0.001590 -0.001311 0.026824 -0.009071 -0.001177
# 5 -0.001479 0.001376 0.000821 -0.009071 0.030890 0.000457
# 6 -0.003949 -0.004977 -0.001056 -0.001177 0.000457 0.022070
#
#
# Mechanical properties :
#
#
# Convention : Reuss Voigt Hill
#
# Bulk Modulus (GPa) = 44.04118 71.24781 57.64449
# Shear Modulus (GPa) = 38.20077 46.58682 42.39380
#
# Velocity S-wave (km/s) = 4.08995 4.51662 4.30857
# Velocity P-wave (km/s) = 6.44893 7.64188 7.07061
#
# Compressibility (1/GPa) = 0.02270602
#
# Stress axis : x y z
#
# Youngs Moduli (GPa) = 69.07358 78.21086 170.74024
#
# Poissons Ratio (x) = 0.03090 0.45085
# Poissons Ratio (y) = 0.02729 0.37074
# Poissons Ratio (z) = 0.18239 0.16982
#
# Static dielectric constant tensor:
#      x y z
#    x 4.074470 0.002130 -0.113960 
#    y 0.002130 4.337550 -0.050570 
#    z -0.113960 -0.050570 4.485600 
# 
# 
# High freq. dielectric constant tensor:
#      x y z
#    x 1.903920 0.007980 -0.004900 
#    y 0.007980 1.911540 0.001870 
#    z -0.004900 0.001870 1.923390 
# 
# From -- ./inp_files/157136.got.cif
#   From: 2010.06.25/outbox.cif.g09.slc.cpg/sg2_79_cif.got.tgz:157136.got - 2010.06.27 13:26:56.
