data_PCOD8020298
_publ_section_title
;
Structure prediction by ZEFSAII (Michael W. Deem and Ramdas Pophale) SiO2 
 PCOD8020298
Probable space group: P -1
;
_chemical_formula_sum "Si O2"
_cell_formula_units_Z 14
_cell_length_a 6.821032
_cell_length_b 15.156010
_cell_length_c 15.419508
_cell_angle_alpha 152.673660
_cell_angle_beta 110.127373
_cell_angle_gamma 68.904140
_cell_volume 681.620209
_symmetry_space_group_name_H-M "P -1"
_symmetry_group_IT_number 2
_symmetry_cell_setting 'triclinic'
loop_
_space_group_symop_operation_xyz
x,y,z
-x,-y,-z
loop_
_atom_site_type_symbol
_atom_site_label
_atom_site_fract_x
_atom_site_fract_y
_atom_site_fract_z
Si Si1 0.346150 0.964830 0.022636
Si Si2 0.513887 0.155593 0.878873
Si Si3 0.826350 0.074199 0.606941
Si Si4 0.849291 0.432513 0.174895
Si Si5 0.937377 0.629093 0.019512
Si Si6 0.007747 0.685757 0.723470
Si Si7 0.424787 0.180376 0.542481
O O1 0.194234 0.160317 0.191735
O O2 0.492235 0.911860 0.081764
O O3 0.500000 0.000000 0.000000
O O4 0.216352 0.787077 0.823506
O O5 0.516256 0.970007 0.656565
O O6 0.721373 0.254819 0.977805
O O7 0.310726 0.307556 0.960920
O O8 0.639534 0.215504 0.654925
O O9 0.733433 0.892579 0.475539
O O10 0.000000 0.000000 0.500000
O O11 0.933984 0.187034 0.796522
O O12 0.997431 0.379442 0.233943
O O13 0.684911 0.618687 0.337234
O O14 0.993631 0.476495 0.153120
O O15 0.000000 0.500000 0.000000
O O16 0.000000 0.500000 0.500000
#
# Coordination Sequence:
#
# PCOD8020298 Si02
#       7
#     2   2   2   2   2   2   2
#     4  10  22  42  67  93 125 164 208 263 322 379
#     4  11  23  42  63  90 123 165 208 254 311 372
#     4  11  22  39  58  87 124 163 208 250 297 356
#     4  11  24  41  62  94 123 162 209 257 311 371
#     4  12  24  39  62  90 131 166 207 256 304 362
#     4  10  22  43  67  94 127 161 209 265 325 379
#     4  11  23  39  63  86 122 165 209 249 302 362
#
# _framework density 20.539297000000001
#
# number of rings (size 3 to 8) (size 9 to 14) (size 15 to 20)
#    0.000    1.143    2.857    3.429    2.000    1.714 
#    2.571    0.000    0.000    0.000    0.000    0.000 
#    0.000    0.000    0.000    0.000    0.000    0.000 
#
# Total GULP energy -173650.800376 kJ/mol
# GULP energy per Si atom -12403.628598 kJ/mol
# Density = 2.049255 g / cm^3
# Si number density = 20.539297 Si / 1000 Ang^3
#
#
#
# Elastic Constant Matrix: (Units=GPa)
#
#
# Indices 1 2 3 4 5 6 
#
# 1 94.6321 41.7168 25.8529 -13.7857 -13.1788 14.6120
# 2 41.7168 134.0140 28.5843 -4.8256 -9.4534 2.4840
# 3 25.8529 28.5843 97.6464 -7.5561 -10.0512 -0.7674
# 4 -13.7857 -4.8256 -7.5561 32.0168 -3.4086 -4.1486
# 5 -13.1788 -9.4534 -10.0512 -3.4086 26.0759 -5.0197
# 6 14.6120 2.4840 -0.7674 -4.1486 -5.0197 39.0245
#
#
#
# Elastic Compliance Matrix: (Units=1/GPa)
#
#
# Indices 1 2 3 4 5 6 
#
# 1 0.014840 -0.003553 -0.001946 0.005437 0.005384 -0.004098
# 2 -0.003553 0.008948 -0.001603 -0.000354 0.000941 0.000813
# 3 -0.001946 -0.001603 0.011792 0.002319 0.003626 0.001776
# 4 0.005437 -0.000354 0.002319 0.035372 0.008698 0.002911
# 5 0.005384 0.000941 0.003626 0.008698 0.044849 0.004689
# 6 -0.004098 0.000813 0.001776 0.002911 0.004689 0.028055
#
#
# Mechanical properties :
#
#
# Convention : Reuss Voigt Hill
#
# Bulk Modulus (GPa) = 46.78116 57.62228 52.20172
# Shear Modulus (GPa) = 30.26899 34.76601 32.51750
#
# Velocity S-wave (km/s) = 3.84306 4.11866 3.98324
# Velocity P-wave (km/s) = 6.52058 7.12273 6.82830
#
# Compressibility (1/GPa) = 0.02137613
#
# Stress axis : x y z
#
# Youngs Moduli (GPa) = 67.38687 111.75309 84.80171
#
# Poissons Ratio (x) = 0.39703 0.16505
# Poissons Ratio (y) = 0.23941 0.13594
# Poissons Ratio (z) = 0.13115 0.17914
#
# Static dielectric constant tensor:
#      x y z
#    x 3.811150 -0.429380 -0.324440 
#    y -0.429380 4.908820 1.644570 
#    z -0.324440 1.644570 6.979870 
# 
# 
# High freq. dielectric constant tensor:
#      x y z
#    x 1.806570 -0.003400 -0.002000 
#    y -0.003400 1.813280 -0.001340 
#    z -0.002000 -0.001340 1.803620 
# 
# From -- ./inp_files/37149.got.cif
#   From: 2010.06.25/outbox.cif.g09.slc.cpg/sg2_19_cif.got.tgz:37149.got - 2010.06.27 13:26:56.
