data_PCOD8020337
_publ_section_title
;
Structure prediction by ZEFSAII (Michael W. Deem and Ramdas Pophale) SiO2 
 PCOD8020337
Probable space group: P -1
;
_chemical_formula_sum "Si O2"
_cell_formula_units_Z 14
_cell_length_a 11.001004
_cell_length_b 21.133944
_cell_length_c 8.052221
_cell_angle_alpha 44.803637
_cell_angle_beta 140.321179
_cell_angle_gamma 147.793852
_cell_volume 627.635143
_symmetry_space_group_name_H-M "P -1"
_symmetry_group_IT_number 2
_symmetry_cell_setting 'triclinic'
loop_
_space_group_symop_operation_xyz
x,y,z
-x,-y,-z
loop_
_atom_site_type_symbol
_atom_site_label
_atom_site_fract_x
_atom_site_fract_y
_atom_site_fract_z
Si Si1 0.604569 0.033853 0.731021
Si Si2 0.627389 0.504363 0.363112
Si Si3 0.297022 0.667223 0.329674
Si Si4 0.072494 0.836310 0.672068
Si Si5 0.051575 0.721721 0.198518
Si Si6 0.799388 0.921102 0.290226
Si Si7 0.871192 0.600139 0.787391
O O1 0.759016 0.174021 0.662817
O O2 0.500000 0.000000 0.500000
O O3 0.368413 0.956224 0.754654
O O4 0.787420 0.005429 0.005707
O O5 0.592049 0.398470 0.426238
O O6 0.777693 0.533149 0.638994
O O7 0.356304 0.463805 0.196203
O O8 0.778389 0.619728 0.187654
O O9 0.163594 0.659714 0.373927
O O10 0.517330 0.809968 0.266223
O O11 0.087867 0.603062 0.081643
O O12 0.899975 0.868298 0.388660
O O13 0.995134 0.738206 0.635598
O O14 0.013001 0.777531 0.901017
O O15 0.000000 0.000000 0.500000
#
# Coordination Sequence:
#
# PCOD8020337 Si02
#       7
#     2   2   2   2   2   2   2
#     4  12  25  45  69  99 138 177 229 284 342 401
#     4  11  23  42  65 101 135 175 230 275 339 405
#     4  11  23  42  67  97 133 181 224 280 337 403
#     4  11  22  43  67  95 134 179 226 278 342 398
#     4  11  23  41  67  99 135 177 222 281 336 402
#     4  12  23  42  72  97 133 178 228 279 337 402
#     4  10  22  42  67  95 136 181 221 281 341 397
#
# _framework density 22.305952999999999
#
# number of rings (size 3 to 8) (size 9 to 14) (size 15 to 20)
#    0.000    0.857    5.714    3.000    0.000    2.857 
#    2.571    0.000    0.000    0.000    0.000    0.000 
#    0.000    0.000    0.000    0.000    0.000    0.000 
#
# Total GULP energy -173616.084168 kJ/mol
# GULP energy per Si atom -12401.148869 kJ/mol
# Density = 2.225518 g / cm^3
# Si number density = 22.305953 Si / 1000 Ang^3
#
#
#
# Elastic Constant Matrix: (Units=GPa)
#
#
# Indices 1 2 3 4 5 6 
#
# 1 77.7652 18.3161 38.0370 -10.5791 9.4006 -4.0880
# 2 18.3161 110.3063 24.2761 -1.0101 -1.7182 1.7995
# 3 38.0370 24.2761 98.9366 7.0284 0.5865 1.6400
# 4 -10.5791 -1.0101 7.0284 35.3265 -1.9565 -0.7510
# 5 9.4006 -1.7182 0.5865 -1.9565 30.8192 1.8427
# 6 -4.0880 1.7995 1.6400 -0.7510 1.8427 40.2336
#
#
#
# Elastic Compliance Matrix: (Units=1/GPa)
#
#
# Indices 1 2 3 4 5 6 
#
# 1 0.018423 -0.001541 -0.007190 0.006665 -0.005301 0.002601
# 2 -0.001541 0.009749 -0.001813 0.000227 0.001096 -0.000565
# 3 -0.007190 -0.001813 0.013676 -0.004866 0.001605 -0.001371
# 4 0.006665 0.000227 -0.004866 0.031307 -0.000027 0.001451
# 5 -0.005301 0.001096 0.001605 -0.000027 0.034226 -0.002221
# 6 0.002601 -0.000565 -0.001371 0.001451 -0.002221 0.025329
#
#
# Mechanical properties :
#
#
# Convention : Reuss Voigt Hill
#
# Bulk Modulus (GPa) = 48.16955 49.80742 48.98848
# Shear Modulus (GPa) = 31.11042 35.03445 33.07244
#
# Velocity S-wave (km/s) = 3.73864 3.96742 3.85473
# Velocity P-wave (km/s) = 6.34652 6.58520 6.46696
#
# Compressibility (1/GPa) = 0.02076000
#
# Stress axis : x y z
#
# Youngs Moduli (GPa) = 54.27908 102.57612 73.12314
#
# Poissons Ratio (x) = 0.15804 0.52577
# Poissons Ratio (y) = 0.08363 0.13257
# Poissons Ratio (z) = 0.39027 0.18597
#
# Static dielectric constant tensor:
#      x y z
#    x 4.080150 -0.069130 0.252410 
#    y -0.069130 4.428950 0.049150 
#    z 0.252410 0.049150 3.760410 
# 
# 
# High freq. dielectric constant tensor:
#      x y z
#    x 1.874500 -0.003430 0.015310 
#    y -0.003430 1.901880 0.008020 
#    z 0.015310 0.008020 1.858170 
# 
# From -- ./inp_files/284067.got.cif
#   From: 2010.06.25/outbox.cif.g09.slc.cpg/sg2_143_cif.got.tgz:284067.got - 2010.06.27 13:26:56.
