data_PCOD8020747
_publ_section_title
;
Structure prediction by ZEFSAII (Michael W. Deem and Ramdas Pophale) SiO2 
 PCOD8020747
Probable space group: P -1
;
_chemical_formula_sum "Si O2"
_cell_formula_units_Z 16
_cell_length_a 9.431741
_cell_length_b 9.123007
_cell_length_c 15.387435
_cell_angle_alpha 83.932376
_cell_angle_beta 36.730945
_cell_angle_gamma 75.935187
_cell_volume 758.998906
_symmetry_space_group_name_H-M "P -1"
_symmetry_group_IT_number 2
_symmetry_cell_setting 'triclinic'
loop_
_space_group_symop_operation_xyz
x,y,z
-x,-y,-z
loop_
_atom_site_type_symbol
_atom_site_label
_atom_site_fract_x
_atom_site_fract_y
_atom_site_fract_z
Si Si1 0.991501 0.890251 0.091299
Si Si2 0.293957 0.515685 0.272845
Si Si3 0.311166 0.899614 0.098656
Si Si4 0.992934 0.875322 0.645628
Si Si5 0.841096 0.460742 0.004625
Si Si6 0.238490 0.362151 0.134034
Si Si7 0.145742 0.246410 0.454393
Si Si8 0.541333 0.025694 0.577896
O O1 0.141963 0.935806 0.094072
O O2 0.121555 0.719040 0.010263
O O3 0.713808 0.898998 0.253810
O O4 0.000000 0.000000 0.000000
O O5 0.262709 0.476834 0.190682
O O6 0.261100 0.379386 0.357984
O O7 0.104839 0.677197 0.376659
O O8 0.559071 0.538177 0.161364
O O9 0.480433 0.725109 0.028173
O O10 0.138329 0.952468 0.265129
O O11 0.500000 0.000000 0.000000
O O12 0.925932 0.750062 0.749120
O O13 0.902863 0.858298 0.593964
O O14 0.284793 0.858996 0.503428
O O15 0.907784 0.535211 0.878336
O O16 0.000000 0.500000 0.000000
O O17 0.339087 0.139910 0.429882
O O18 0.500000 0.000000 0.500000
#
# Coordination Sequence:
#
# PCOD8020747 Si02
#       8
#     2   2   2   2   2   2   2   2
#     4  12  28  47  69 102 146 185 229 286 355 412
#     4  10  22  45  70  93 130 175 231 284 337 410
#     4  10  22  42  73  97 133 181 234 280 341 402
#     4  10  23  43  65 100 130 178 231 282 342 405
#     4  12  28  41  68 103 139 179 226 285 354 410
#     4  10  23  43  70  94 133 177 235 283 336 410
#     4  10  24  43  69  96 129 178 229 283 341 408
#     4  12  26  41  67  99 140 176 222 279 346 414
#
# _framework density 21.080400000000001
#
# number of rings (size 3 to 8) (size 9 to 14) (size 15 to 20)
#    0.000    1.250    2.500    1.500   12.250    1.000 
#    0.000    0.625    0.000    0.000    0.000    0.000 
#    0.000    0.000    0.000    0.000    0.000    0.000 
#
# Total GULP energy -198435.330739 kJ/mol
# GULP energy per Si atom -12402.208171 kJ/mol
# Density = 2.103242 g / cm^3
# Si number density = 21.080400 Si / 1000 Ang^3
#
#
#
# Elastic Constant Matrix: (Units=GPa)
#
#
# Indices 1 2 3 4 5 6 
#
# 1 157.0907 52.1864 52.4794 0.5926 5.2440 -4.7910
# 2 52.1864 86.7853 27.8850 2.6093 11.1701 -12.1650
# 3 52.4794 27.8850 117.8147 12.6020 -3.9438 4.7610
# 4 0.5926 2.6093 12.6020 26.1464 15.4025 -3.6700
# 5 5.2440 11.1701 -3.9438 15.4025 39.4567 -1.3531
# 6 -4.7910 -12.1650 4.7610 -3.6700 -1.3531 35.6483
#
#
#
# Elastic Compliance Matrix: (Units=1/GPa)
#
#
# Indices 1 2 3 4 5 6 
#
# 1 0.008901 -0.004114 -0.003346 0.002708 -0.001394 0.000465
# 2 -0.004114 0.016324 -0.002879 0.004019 -0.005739 0.005598
# 3 -0.003346 -0.002879 0.012036 -0.009538 0.006056 -0.003792
# 4 0.002708 0.004019 -0.009538 0.058169 -0.024882 0.008053
# 5 -0.001394 -0.005739 0.006056 -0.024882 0.037332 -0.004099
# 6 0.000465 0.005598 -0.003792 0.008053 -0.004099 0.031205
#
#
# Mechanical properties :
#
#
# Convention : Reuss Voigt Hill
#
# Bulk Modulus (GPa) = 60.30590 69.64360 64.97475
# Shear Modulus (GPa) = 26.29185 35.52627 30.90906
#
# Velocity S-wave (km/s) = 3.53543 4.10966 3.83331
# Velocity P-wave (km/s) = 6.73315 7.45842 7.10504
#
# Compressibility (1/GPa) = 0.01658213
#
# Stress axis : x y z
#
# Youngs Moduli (GPa) = 112.34955 61.25851 83.08338
#
# Poissons Ratio (x) = 0.25201 0.27801
# Poissons Ratio (y) = 0.46220 0.23923
# Poissons Ratio (z) = 0.37594 0.17639
#
# Static dielectric constant tensor:
#      x y z
#    x 3.971630 0.037890 -0.139680 
#    y 0.037890 3.902920 0.127970 
#    z -0.139680 0.127970 4.281870 
# 
# 
# High freq. dielectric constant tensor:
#      x y z
#    x 1.828150 0.003180 0.002960 
#    y 0.003180 1.832760 -0.004340 
#    z 0.002960 -0.004340 1.842560 
# 
# From -- ./inp_files/209274.got.cif
#   From: 2010.06.25/outbox.cif.g09.slc.cpg/sg2_105_cif.got.tgz:209274.got - 2010.06.27 13:26:56.
