data_PCOD8020315
_publ_section_title
;
Structure prediction by ZEFSAII (Michael W. Deem and Ramdas Pophale) SiO2 
 PCOD8020315
Probable space group: P -1
;
_chemical_formula_sum "Si O2"
_cell_formula_units_Z 16
_cell_length_a 13.856417
_cell_length_b 11.271849
_cell_length_c 7.810412
_cell_angle_alpha 97.061176
_cell_angle_beta 111.766195
_cell_angle_gamma 40.869535
_cell_volume 715.984522
_symmetry_space_group_name_H-M "P -1"
_symmetry_group_IT_number 2
_symmetry_cell_setting 'triclinic'
loop_
_space_group_symop_operation_xyz
x,y,z
-x,-y,-z
loop_
_atom_site_type_symbol
_atom_site_label
_atom_site_fract_x
_atom_site_fract_y
_atom_site_fract_z
Si Si1 0.458402 0.651731 0.881918
Si Si2 0.153096 0.218932 0.126304
Si Si3 0.957917 0.580211 0.255010
Si Si4 0.451042 0.791568 0.229662
Si Si5 0.292702 0.685964 0.214429
Si Si6 0.161364 0.886516 0.486039
Si Si7 0.192039 0.481497 0.630617
Si Si8 0.949266 0.212029 0.158788
O O1 0.593841 0.529106 0.797792
O O2 0.284770 0.810596 0.702749
O O3 0.500000 0.500000 0.000000
O O4 0.458168 0.768125 0.022952
O O5 0.110190 0.361511 0.257509
O O6 0.012159 0.244309 0.057961
O O7 0.332320 0.005976 0.239535
O O8 0.147041 0.273943 0.941155
O O9 0.042361 0.613882 0.420253
O O10 0.828060 0.622278 0.291269
O O11 0.392254 0.721852 0.269873
O O12 0.634969 0.665404 0.380657
O O13 0.237213 0.716022 0.381517
O O14 0.141747 0.817535 0.002130
O O15 0.000000 0.000000 0.500000
O O16 0.111768 0.030231 0.337955
O O17 0.177603 0.611916 0.763792
#
# Coordination Sequence:
#
# PCOD8020315 Si02
#       8
#     2   2   2   2   2   2   2   2
#     4  10  23  42  58  89 137 173 208 261 307 377
#     4  10  22  42  67  94 130 166 218 271 330 377
#     4   9  22  45  67  94 124 166 220 283 319 385
#     4  11  22  40  66  96 132 175 205 264 321 395
#     4  11  23  44  59  94 143 171 211 263 310 395
#     4  12  25  37  63  91 126 183 221 256 311 375
#     4  10  22  42  69  93 127 170 215 269 334 379
#     4  11  23  42  64  96 130 176 215 265 319 389
#
# _framework density 22.346854
#
# number of rings (size 3 to 8) (size 9 to 14) (size 15 to 20)
#    0.000    1.500    2.500    2.250    5.250    1.000 
#    2.250    0.000    0.000    0.000    0.000    0.000 
#    0.000    0.000    0.000    0.000    0.000    0.000 
#
# Total GULP energy -198281.638299 kJ/mol
# GULP energy per Si atom -12392.602394 kJ/mol
# Density = 2.229599 g / cm^3
# Si number density = 22.346854 Si / 1000 Ang^3
#
#
#
# Elastic Constant Matrix: (Units=GPa)
#
#
# Indices 1 2 3 4 5 6 
#
# 1 75.0490 14.3105 28.7484 3.3718 8.1741 -16.6903
# 2 14.3105 63.1662 -14.9936 0.4442 3.2590 -25.6790
# 3 28.7484 -14.9936 79.4321 -4.3114 8.6514 -1.9833
# 4 3.3718 0.4442 -4.3114 37.4076 -7.0565 -3.3945
# 5 8.1741 3.2590 8.6514 -7.0565 29.4775 1.6393
# 6 -16.6903 -25.6790 -1.9833 -3.3945 1.6393 35.4742
#
#
#
# Elastic Compliance Matrix: (Units=1/GPa)
#
#
# Indices 1 2 3 4 5 6 
#
# 1 0.018379 -0.003192 -0.006846 -0.002568 -0.003676 0.005878
# 2 -0.003192 0.025723 0.007047 0.001539 -0.004653 0.017875
# 3 -0.006846 0.007047 0.016977 0.002113 -0.003535 0.003195
# 4 -0.002568 0.001539 0.002113 0.028666 0.006647 0.002460
# 5 -0.003676 -0.004653 -0.003535 0.006647 0.038445 -0.006436
# 6 0.005878 0.017875 0.003195 0.002460 -0.006436 0.044606
#
#
# Mechanical properties :
#
#
# Convention : Reuss Voigt Hill
#
# Bulk Modulus (GPa) = 18.14969 30.41978 24.28474
# Shear Modulus (GPa) = 25.36230 33.11066 29.23648
#
# Velocity S-wave (km/s) = 3.37254 3.85342 3.62097
# Velocity P-wave (km/s) = 4.82750 5.78278 5.32660
#
# Compressibility (1/GPa) = 0.05509734
#
# Stress axis : x y z
#
# Youngs Moduli (GPa) = 54.41057 38.87556 58.90329
#
# Poissons Ratio (x) = 0.12407 0.40328
# Poissons Ratio (y) = 0.17365 -0.41510
# Poissons Ratio (z) = 0.37252 -0.27396
#
# Static dielectric constant tensor:
#      x y z
#    x 3.931950 -0.315770 -0.258210 
#    y -0.315770 4.424110 0.150430 
#    z -0.258210 0.150430 4.517740 
# 
# 
# High freq. dielectric constant tensor:
#      x y z
#    x 1.859620 -0.028630 -0.004810 
#    y -0.028630 1.884280 0.007970 
#    z -0.004810 0.007970 1.876670 
# 
# From -- ./inp_files/305400.got.cif
#   From: 2010.06.25/outbox.cif.g09.slc.cpg/sg2_153_cif.got.tgz:305400.got - 2010.06.27 13:26:56.
