data_PCOD8020403
_publ_section_title
;
Structure prediction by ZEFSAII (Michael W. Deem and Ramdas Pophale) SiO2 
 PCOD8020403
Probable space group: P -1
;
_chemical_formula_sum "Si O2"
_cell_formula_units_Z 14
_cell_length_a 9.432393
_cell_length_b 21.544321
_cell_length_c 22.409515
_cell_angle_alpha 17.877176
_cell_angle_beta 28.354900
_cell_angle_gamma 26.808950
_cell_volume 614.909261
_symmetry_space_group_name_H-M "P -1"
_symmetry_group_IT_number 2
_symmetry_cell_setting 'triclinic'
loop_
_space_group_symop_operation_xyz
x,y,z
-x,-y,-z
loop_
_atom_site_type_symbol
_atom_site_label
_atom_site_fract_x
_atom_site_fract_y
_atom_site_fract_z
Si Si1 0.369256 0.474225 0.891096
Si Si2 0.314752 0.537830 0.094585
Si Si3 0.128682 0.701523 0.559223
Si Si4 0.186035 0.025325 0.153902
Si Si5 0.215830 0.006565 0.857249
Si Si6 0.640489 0.253967 0.766140
Si Si7 0.246772 0.826260 0.523055
O O1 0.438154 0.545642 0.865817
O O2 0.445913 0.620362 0.678619
O O3 0.624244 0.233815 0.007525
O O4 0.000000 0.500000 0.000000
O O5 0.103403 0.390374 0.305700
O O6 0.500000 0.500000 0.000000
O O7 0.100368 0.796226 0.940903
O O8 0.075916 0.934125 0.336621
O O9 0.489688 0.516479 0.588193
O O10 0.050967 0.752023 0.612370
O O11 0.357102 0.816065 0.239718
O O12 0.424731 0.140146 0.984420
O O13 0.508528 0.091471 0.679892
O O14 0.992749 0.167838 0.742691
O O15 0.000000 0.000000 0.000000
O O16 0.000000 0.000000 0.500000
#
# Coordination Sequence:
#
# PCOD8020403 Si02
#       7
#     2   2   2   2   2   2   2
#     4  12  26  49  75 103 152 195 242 305 364 436
#     4  11  26  43  72 105 138 190 243 294 362 433
#     4  11  25  44  70 104 142 183 242 302 359 434
#     4  10  22  43  69 102 143 181 230 301 368 421
#     4  12  26  46  76 106 146 192 248 300 364 436
#     4  10  22  42  68 104 141 180 235 295 363 428
#     4  12  28  47  73 106 147 198 243 294 372 436
#
# _framework density 22.767586999999999
#
# number of rings (size 3 to 8) (size 9 to 14) (size 15 to 20)
#    0.000    0.857    2.857    3.000    4.000    6.286 
#    0.000    0.000    0.000    0.000    0.000    0.000 
#    0.000    0.000    0.000    0.000    0.000    0.000 
#
# Total GULP energy -173582.836252 kJ/mol
# GULP energy per Si atom -12398.774018 kJ/mol
# Density = 2.271577 g / cm^3
# Si number density = 22.767587 Si / 1000 Ang^3
#
#
#
# Elastic Constant Matrix: (Units=GPa)
#
#
# Indices 1 2 3 4 5 6 
#
# 1 157.2491 39.6752 47.5718 -2.6897 4.7985 -1.6085
# 2 39.6752 83.5959 23.3246 13.0746 -11.3299 -1.7616
# 3 47.5718 23.3246 120.1854 5.7856 14.3902 -2.0405
# 4 -2.6897 13.0746 5.7856 31.9792 4.6969 1.2453
# 5 4.7985 -11.3299 14.3902 4.6969 28.2468 0.0614
# 6 -1.6085 -1.7616 -2.0405 1.2453 0.0614 38.6770
#
#
#
# Elastic Compliance Matrix: (Units=1/GPa)
#
#
# Indices 1 2 3 4 5 6 
#
# 1 0.008213 -0.004054 -0.002334 0.003118 -0.002351 -0.000063
# 2 -0.004054 0.017365 -0.002586 -0.008528 0.010388 0.000744
# 3 -0.002334 -0.002586 0.010473 -0.000174 -0.005948 0.000353
# 4 0.003118 -0.008528 -0.000174 0.036566 -0.009939 -0.001429
# 5 -0.002351 0.010388 -0.005948 -0.009939 0.044650 0.000311
# 6 -0.000063 0.000744 0.000353 -0.001429 0.000311 0.025951
#
#
# Mechanical properties :
#
#
# Convention : Reuss Voigt Hill
#
# Bulk Modulus (GPa) = 55.24020 64.68594 59.96307
# Shear Modulus (GPa) = 29.90443 36.47785 33.19114
#
# Velocity S-wave (km/s) = 3.62811 4.00707 3.82229
# Velocity P-wave (km/s) = 6.47041 7.06271 6.77304
#
# Compressibility (1/GPa) = 0.01810276
#
# Stress axis : x y z
#
# Youngs Moduli (GPa) = 121.76289 57.58601 95.48783
#
# Poissons Ratio (x) = 0.23347 0.22283
# Poissons Ratio (y) = 0.49367 0.24693
# Poissons Ratio (z) = 0.28415 0.14891
#
# Static dielectric constant tensor:
#      x y z
#    x 3.692630 0.173710 -0.242230 
#    y 0.173710 4.022720 0.176490 
#    z -0.242230 0.176490 4.219660 
# 
# 
# High freq. dielectric constant tensor:
#      x y z
#    x 1.902970 0.001870 0.003360 
#    y 0.001870 1.900630 -0.008830 
#    z 0.003360 -0.008830 1.901040 
# 
# From -- ./inp_files/591758.got.cif
#   From: 2010.06.25/outbox.cif.g09.slc.cpg/sg2_296_cif.got.tgz:591758.got - 2010.06.27 13:26:56.
