data_PCOD8020530
_publ_section_title
;
Structure prediction by ZEFSAII (Michael W. Deem and Ramdas Pophale) SiO2 
 PCOD8020530
Probable space group: P -1
;
_chemical_formula_sum "Si O2"
_cell_formula_units_Z 16
_cell_length_a 19.216431
_cell_length_b 12.278519
_cell_length_c 8.612535
_cell_angle_alpha 147.940761
_cell_angle_beta 51.422352
_cell_angle_gamma 138.142066
_cell_volume 719.594715
_symmetry_space_group_name_H-M "P -1"
_symmetry_group_IT_number 2
_symmetry_cell_setting 'triclinic'
loop_
_space_group_symop_operation_xyz
x,y,z
-x,-y,-z
loop_
_atom_site_type_symbol
_atom_site_label
_atom_site_fract_x
_atom_site_fract_y
_atom_site_fract_z
Si Si1 0.255755 0.328176 0.539992
Si Si2 0.000822 0.922985 0.146307
Si Si3 0.469323 0.129979 0.576910
Si Si4 0.388833 0.842875 0.044138
Si Si5 0.838650 0.896584 0.128036
Si Si6 0.196147 0.870720 0.270989
Si Si7 0.053650 0.343302 0.795660
Si Si8 0.652474 0.626925 0.856746
O O1 0.166587 0.388834 0.732067
O O2 0.278776 0.269699 0.267422
O O3 0.213729 0.095309 0.421102
O O4 0.357464 0.563697 0.755785
O O5 0.893294 0.792435 0.038322
O O6 0.009008 0.771128 0.093711
O O7 0.007421 0.165567 0.497459
O O8 0.093443 0.976943 0.966561
O O9 0.574014 0.341625 0.605332
O O10 0.500000 0.000000 0.500000
O O11 0.393738 0.936670 0.323477
O O12 0.410475 0.239168 0.879454
O O13 0.300075 0.859738 0.092950
O O14 0.500000 0.000000 0.000000
O O15 0.822191 0.091313 0.477794
O O16 0.726602 0.677319 0.963753
O O17 0.087656 0.627050 0.061411
#
# Coordination Sequence:
#
# PCOD8020530 Si02
#       8
#     2   2   2   2   2   2   2   2
#     4  11  23  42  66  91 132 169 210 264 316 380
#     4  10  22  42  69  93 131 171 211 275 316 376
#     4  11  26  42  67  97 128 169 213 267 321 383
#     4  11  24  43  64  97 128 166 217 262 317 384
#     4  11  22  42  65  96 130 171 211 264 330 372
#     4  11  25  41  67  94 127 173 213 263 322 382
#     4  10  22  43  65  95 129 166 217 262 314 383
#     4  11  24  44  64  94 134 168 212 265 323 385
#
# _framework density 22.234739000000001
#
# number of rings (size 3 to 8) (size 9 to 14) (size 15 to 20)
#    0.000    1.250    5.000    0.000    3.500    1.500 
#    0.000    1.250    0.000    0.000    0.000    0.000 
#    0.000    0.000    0.000    0.000    0.000    0.000 
#
# Total GULP energy -198400.023679 kJ/mol
# GULP energy per Si atom -12400.001480 kJ/mol
# Density = 2.218413 g / cm^3
# Si number density = 22.234739 Si / 1000 Ang^3
#
#
#
# Elastic Constant Matrix: (Units=GPa)
#
#
# Indices 1 2 3 4 5 6 
#
# 1 51.5253 13.9031 20.7174 15.7909 28.7261 8.6415
# 2 13.9031 110.1320 51.2796 3.4162 9.3781 -12.7091
# 3 20.7174 51.2796 106.6535 21.8343 20.6122 -10.5160
# 4 15.7909 3.4162 21.8343 42.3735 3.5106 4.7300
# 5 28.7261 9.3781 20.6122 3.5106 36.4954 4.3536
# 6 8.6415 -12.7091 -10.5160 4.7300 4.3536 29.7503
#
#
#
# Elastic Compliance Matrix: (Units=1/GPa)
#
#
# Indices 1 2 3 4 5 6 
#
# 1 0.042232 -0.003814 0.001639 -0.012947 -0.031142 -0.006702
# 2 -0.003814 0.012443 -0.005971 0.002900 0.002482 0.003489
# 3 0.001639 -0.005971 0.015718 -0.008092 -0.008457 0.005053
# 4 -0.012947 0.002900 -0.008092 0.031923 0.011496 -0.004618
# 5 -0.031142 0.002482 -0.008457 0.011496 0.055280 -0.002801
# 6 -0.006702 0.003489 0.005053 -0.004618 -0.002801 0.039980
#
#
# Mechanical properties :
#
#
# Convention : Reuss Voigt Hill
#
# Bulk Modulus (GPa) = 18.48437 48.90123 33.69280
# Shear Modulus (GPa) = 21.56063 33.88456 27.72259
#
# Velocity S-wave (km/s) = 3.11735 3.90801 3.53486
# Velocity P-wave (km/s) = 4.61395 6.51186 5.64326
#
# Compressibility (1/GPa) = 0.05409977
#
# Stress axis : x y z
#
# Youngs Moduli (GPa) = 23.67866 80.36575 63.62040
#
# Poissons Ratio (x) = 0.30654 -0.10426
# Poissons Ratio (y) = 0.09032 0.37989
# Poissons Ratio (z) = -0.03880 0.47989
#
# Static dielectric constant tensor:
#      x y z
#    x 3.738910 0.301330 0.459930 
#    y 0.301330 4.186910 0.007440 
#    z 0.459930 0.007440 4.165440 
# 
# 
# High freq. dielectric constant tensor:
#      x y z
#    x 1.889420 0.021290 0.010930 
#    y 0.021290 1.877940 -0.008040 
#    z 0.010930 -0.008040 1.879840 
# 
# From -- ./inp_files/37769.got.cif
#   From: 2010.06.25/outbox.cif.g09.slc.cpg/sg2_19_cif.got.tgz:37769.got - 2010.06.27 13:26:56.
