data_PCOD8020096
_publ_section_title
;
Structure prediction by ZEFSAII (Michael W. Deem and Ramdas Pophale) SiO2 
 PCOD8020096
Probable space group: P -1
;
_chemical_formula_sum "Si O2"
_cell_formula_units_Z 14
_cell_length_a 11.946746
_cell_length_b 14.568350
_cell_length_c 6.940390
_cell_angle_alpha 80.060765
_cell_angle_beta 114.587841
_cell_angle_gamma 142.017077
_cell_volume 649.418351
_symmetry_space_group_name_H-M "P -1"
_symmetry_group_IT_number 2
_symmetry_cell_setting 'triclinic'
loop_
_space_group_symop_operation_xyz
x,y,z
-x,-y,-z
loop_
_atom_site_type_symbol
_atom_site_label
_atom_site_fract_x
_atom_site_fract_y
_atom_site_fract_z
Si Si1 0.799790 0.231147 0.217223
Si Si2 0.611992 0.930862 0.034302
Si Si3 0.713571 0.641144 0.494455
Si Si4 0.597966 0.767997 0.393249
Si Si5 0.856012 0.578599 0.869021
Si Si6 0.939035 0.701499 0.298035
Si Si7 0.150833 0.009305 0.170425
O O1 0.630766 0.209163 0.141458
O O2 0.962121 0.369545 0.123587
O O3 0.901089 0.265157 0.481330
O O4 0.689234 0.077555 0.097365
O O5 0.740818 0.974987 0.932358
O O6 0.651261 0.884349 0.251589
O O7 0.500000 0.500000 0.500000
O O8 0.742204 0.768204 0.432372
O O9 0.876723 0.694581 0.741238
O O10 0.737460 0.600765 0.322351
O O11 0.357859 0.598346 0.275635
O O12 0.663362 0.834670 0.630453
O O13 0.875430 0.602163 0.103326
O O14 0.031374 0.857964 0.258426
O O15 0.000000 0.000000 0.000000
#
# Coordination Sequence:
#
# PCOD8020096 Si02
#       7
#     2   2   2   2   2   2   2
#     4  10  23  43  66  91 127 170 222 261 311 381
#     4  11  24  42  65  95 127 169 218 268 311 374
#     4   9  21  38  61  90 131 165 208 253 317 381
#     4  11  24  40  62  96 132 163 208 270 322 368
#     4  10  22  42  65  94 129 168 211 261 322 382
#     4  11  21  39  67  90 124 176 212 255 318 380
#     4  12  25  39  66  99 129 165 214 263 320 382
#
# _framework density 21.557752000000001
#
# number of rings (size 3 to 8) (size 9 to 14) (size 15 to 20)
#    0.000    1.429    2.857    1.714    2.000    9.143 
#    0.000    1.429    0.000    0.000    0.000    0.000 
#    0.000    0.000    0.000    0.000    0.000    0.000 
#
# Total GULP energy -173525.939844 kJ/mol
# GULP energy per Si atom -12394.709989 kJ/mol
# Density = 2.150869 g / cm^3
# Si number density = 21.557752 Si / 1000 Ang^3
#
#
#
# Elastic Constant Matrix: (Units=GPa)
#
#
# Indices 1 2 3 4 5 6 
#
# 1 89.0825 28.7849 48.1462 -17.5474 -4.0253 20.4421
# 2 28.7849 53.2739 42.7128 15.0528 -19.8598 19.5759
# 3 48.1462 42.7128 148.9097 4.1232 -10.3825 10.2937
# 4 -17.5474 15.0528 4.1232 29.5469 6.1998 -7.5314
# 5 -4.0253 -19.8598 -10.3825 6.1998 19.0199 -1.4674
# 6 20.4421 19.5759 10.2937 -7.5314 -1.4674 29.7675
#
#
#
# Elastic Compliance Matrix: (Units=1/GPa)
#
#
# Indices 1 2 3 4 5 6 
#
# 1 0.009020 0.027004 -0.006129 -0.020662 0.031527 -0.025507
# 2 0.027004 -0.080814 0.001004 0.092298 -0.104157 0.052472
# 3 -0.006129 0.001004 0.009173 -0.007183 0.007016 -0.001095
# 4 -0.020662 0.092298 -0.007183 -0.059939 0.103445 -0.054090
# 5 0.031527 -0.104157 0.007016 0.103445 -0.074234 0.066933
# 6 -0.025507 0.052472 -0.001095 -0.054090 0.066933 0.006596
#
#
# Mechanical properties :
#
#
# Convention : Reuss Voigt Hill
#
# Bulk Modulus (GPa) = -53.01664 58.95044 2.96690
# Shear Modulus (GPa) = -20.81213 27.10833 3.14810
#
# Velocity S-wave (km/s) = -3.11048 3.54994 1.20974
# Velocity P-wave (km/s) = 6.12751 6.64887 1.82498
#
# Compressibility (1/GPa) = -0.01886200
#
# Stress axis : x y z
#
# Youngs Moduli (GPa) = 110.86622 -12.37412 109.01998
#
# Poissons Ratio (x) = 0.33415 0.66813
# Poissons Ratio (y) = -2.99381 -0.10950
# Poissons Ratio (z) = 0.67945 0.01243
#
# Static dielectric constant tensor:
#      x y z
#    x 4.520360 0.131570 0.359960 
#    y 0.131570 3.882570 -0.112360 
#    z 0.359960 -0.112360 4.092000 
# 
# 
# High freq. dielectric constant tensor:
#      x y z
#    x 1.854310 0.012340 0.006230 
#    y 0.012340 1.841140 -0.008100 
#    z 0.006230 -0.008100 1.853790 
# 
# From -- ./inp_files/27253.got.cif
#   From: 2010.06.25/outbox.cif.g09.slc.cpg/sg2_14_cif.got.tgz:27253.got - 2010.06.27 13:26:56.
