data_PCOD8020343
_publ_section_title
;
Structure prediction by ZEFSAII (Michael W. Deem and Ramdas Pophale) SiO2 
 PCOD8020343
Probable space group: P -1
;
_chemical_formula_sum "Si O2"
_cell_formula_units_Z 12
_cell_length_a 10.072881
_cell_length_b 10.895697
_cell_length_c 8.983645
_cell_angle_alpha 98.116647
_cell_angle_beta 58.163210
_cell_angle_gamma 50.898015
_cell_volume 451.907446
_symmetry_space_group_name_H-M "P -1"
_symmetry_group_IT_number 2
_symmetry_cell_setting 'triclinic'
loop_
_space_group_symop_operation_xyz
x,y,z
-x,-y,-z
loop_
_atom_site_type_symbol
_atom_site_label
_atom_site_fract_x
_atom_site_fract_y
_atom_site_fract_z
Si Si1 0.343233 0.318723 0.087587
Si Si2 0.061185 0.823509 0.081746
Si Si3 0.597162 0.054013 0.606117
Si Si4 0.652891 0.503423 0.644768
Si Si5 0.301329 0.287853 0.520310
Si Si6 0.141170 0.058791 0.092619
O O1 0.526015 0.196019 0.806405
O O2 0.539604 0.121206 0.064091
O O3 0.287049 0.493927 0.219054
O O4 0.035036 0.459705 0.270648
O O5 0.043209 0.981845 0.146230
O O6 0.399347 0.568738 0.811514
O O7 0.919325 0.856342 0.316244
O O8 0.890376 0.878567 0.050743
O O9 0.359437 0.245709 0.654916
O O10 0.586539 0.918978 0.646273
O O11 0.536282 0.701876 0.650439
O O12 0.932442 0.267662 0.363163
#
# Coordination Sequence:
#
# PCOD8020343 Si02
#       6
#     2   2   2   2   2   2
#     4  11  24  41  65  98 132 168 211 264 325 379
#     4  10  23  44  69  94 126 173 216 261 320 377
#     4  11  25  45  65  94 135 169 211 266 322 384
#     4  11  24  42  70  98 125 169 219 265 315 378
#     4  11  25  43  65  95 129 173 216 260 320 380
#     4  10  22  42  67  96 129 165 217 268 311 378
#
# _framework density 26.554110000000001
#
# number of rings (size 3 to 8) (size 9 to 14) (size 15 to 20)
#    0.000    1.333    0.000    5.500    0.000   12.000 
#    0.000    5.000    0.000    0.000    0.000    0.000 
#    0.000    0.000    0.000    0.000    0.000    0.000 
#
# Total GULP energy -148667.383027 kJ/mol
# GULP energy per Si atom -12388.948586 kJ/mol
# Density = 2.649367 g / cm^3
# Si number density = 26.554110 Si / 1000 Ang^3
#
#
#
# Elastic Constant Matrix: (Units=GPa)
#
#
# Indices 1 2 3 4 5 6 
#
# 1 98.4532 50.5039 60.5153 -5.2239 -5.3948 -24.4977
# 2 50.5039 89.5147 48.2137 5.4981 -8.2748 -27.2548
# 3 60.5153 48.2137 163.2538 1.2949 16.3899 -18.3934
# 4 -5.2239 5.4981 1.2949 37.2353 -11.6232 -1.4876
# 5 -5.3948 -8.2748 16.3899 -11.6232 66.0452 0.3803
# 6 -24.4977 -27.2548 -18.3934 -1.4876 0.3803 37.6008
#
#
#
# Elastic Compliance Matrix: (Units=1/GPa)
#
#
# Indices 1 2 3 4 5 6 
#
# 1 0.017657 -0.006040 -0.004482 0.004529 0.002565 0.005086
# 2 -0.006040 0.018848 -0.002567 -0.002583 0.002002 0.008348
# 3 -0.004482 -0.002567 0.008817 -0.001559 -0.003147 -0.000497
# 4 0.004529 -0.002583 -0.001559 0.029752 0.005661 0.001436
# 5 0.002565 0.002002 -0.003147 0.005661 0.017369 0.001632
# 6 0.005086 0.008348 -0.000497 0.001436 0.001632 0.035757
#
#
# Mechanical properties :
#
#
# Convention : Reuss Voigt Hill
#
# Bulk Modulus (GPa) = 52.23824 74.40975 63.32399
# Shear Modulus (GPa) = 31.10246 40.97550 36.03898
#
# Velocity S-wave (km/s) = 3.42612 3.93249 3.68800
# Velocity P-wave (km/s) = 5.94694 6.97868 6.48337
#
# Compressibility (1/GPa) = 0.01914307
#
# Stress axis : x y z
#
# Youngs Moduli (GPa) = 56.63526 53.05743 113.41581
#
# Poissons Ratio (x) = 0.32049 0.50828
# Poissons Ratio (y) = 0.34211 0.29115
# Poissons Ratio (z) = 0.25381 0.13621
#
# Static dielectric constant tensor:
#      x y z
#    x 4.800620 -0.334770 0.122920 
#    y -0.334770 4.647300 0.139450 
#    z 0.122920 0.139450 5.042920 
# 
# 
# High freq. dielectric constant tensor:
#      x y z
#    x 2.059690 -0.023240 0.000720 
#    y -0.023240 2.050570 0.005980 
#    z 0.000720 0.005980 2.094080 
# 
# From -- ./inp_files/268034.got.cif
#   From: 2010.06.25/outbox.cif.g09.slc.cpg/sg2_135_cif.got.tgz:268034.got - 2010.06.27 13:26:56.
