data_PCOD8020155
_publ_section_title
;
Structure prediction by ZEFSAII (Michael W. Deem and Ramdas Pophale) SiO2 
 PCOD8020155
Probable space group: P -1
;
_chemical_formula_sum "Si O2"
_cell_formula_units_Z 16
_cell_length_a 11.627090
_cell_length_b 15.553528
_cell_length_c 5.260672
_cell_angle_alpha 109.783953
_cell_angle_beta 80.619360
_cell_angle_gamma 55.932896
_cell_volume 661.362865
_symmetry_space_group_name_H-M "P -1"
_symmetry_group_IT_number 2
_symmetry_cell_setting 'triclinic'
loop_
_space_group_symop_operation_xyz
x,y,z
-x,-y,-z
loop_
_atom_site_type_symbol
_atom_site_label
_atom_site_fract_x
_atom_site_fract_y
_atom_site_fract_z
Si Si1 0.221811 0.466818 0.079108
Si Si2 0.224055 0.257588 0.937459
Si Si3 0.330099 0.537594 0.473768
Si Si4 0.101897 0.037015 0.462439
Si Si5 0.291950 0.906337 0.755866
Si Si6 0.413881 0.134524 0.252952
Si Si7 0.056555 0.701327 0.063625
Si Si8 0.546666 0.357365 0.616820
O O1 0.225509 0.504102 0.399997
O O2 0.092629 0.592931 0.109599
O O3 0.176922 0.384698 0.998484
O O4 0.401698 0.394480 0.862945
O O5 0.314464 0.165782 0.573200
O O6 0.078622 0.265740 0.044303
O O7 0.315015 0.219462 0.131760
O O8 0.488663 0.414482 0.411377
O O9 0.374648 0.585155 0.272951
O O10 0.214477 0.651614 0.819709
O O11 0.999171 0.182238 0.638003
O O12 0.225424 0.982373 0.594045
O O13 0.000000 0.000000 0.500000
O O14 0.181359 0.988916 0.111602
O O15 0.464225 0.852055 0.697897
O O16 0.311724 0.787668 0.593530
O O17 0.500000 0.000000 0.000000
#
# Coordination Sequence:
#
# PCOD8020155 Si02
#       8
#     2   2   2   2   2   2   2   2
#     4  11  24  42  71  99 143 186 238 295 357 422
#     4  12  26  45  72 105 146 183 246 289 356 425
#     4  10  23  41  70  96 142 183 238 296 355 422
#     4  12  28  46  72 104 142 189 235 289 359 427
#     4  12  25  45  74  99 141 179 236 294 353 418
#     4  12  25  46  73 104 141 189 236 296 353 414
#     4  11  27  45  66 104 142 191 240 290 361 428
#     4  10  22  42  66 106 132 183 241 296 358 416
#
# _framework density 24.192467000000001
#
# number of rings (size 3 to 8) (size 9 to 14) (size 15 to 20)
#    0.000    0.750    1.250    5.250    8.750    0.500 
#    0.000    0.000    0.000    0.000    0.000    0.000 
#    0.000    0.000    0.000    0.000    0.000    0.000 
#
# Total GULP energy -198279.686774 kJ/mol
# GULP energy per Si atom -12392.480423 kJ/mol
# Density = 2.413740 g / cm^3
# Si number density = 24.192467 Si / 1000 Ang^3
#
#
#
# Elastic Constant Matrix: (Units=GPa)
#
#
# Indices 1 2 3 4 5 6 
#
# 1 92.0135 10.3080 3.9769 10.6351 3.7668 4.8382
# 2 10.3080 95.9987 26.9315 11.1570 2.6485 -2.0348
# 3 3.9769 26.9315 94.4783 10.7152 -3.6800 -6.4171
# 4 10.6351 11.1570 10.7152 44.0938 2.4392 8.1896
# 5 3.7668 2.6485 -3.6800 2.4392 35.2654 -0.1832
# 6 4.8382 -2.0348 -6.4171 8.1896 -0.1832 35.6681
#
#
#
# Elastic Compliance Matrix: (Units=1/GPa)
#
#
# Indices 1 2 3 4 5 6 
#
# 1 0.011331 -0.000934 -0.000073 -0.002220 -0.001000 -0.001099
# 2 -0.000934 0.011650 -0.003036 -0.002065 -0.000945 0.000715
# 3 -0.000073 -0.003036 0.012005 -0.002713 0.001690 0.002628
# 4 -0.002220 -0.002065 -0.002713 0.025642 -0.001697 -0.006201
# 5 -0.001000 -0.000945 0.001690 -0.001697 0.028833 0.000923
# 6 -0.001099 0.000715 0.002628 -0.006201 0.000923 0.030127
#
#
# Mechanical properties :
#
#
# Convention : Reuss Voigt Hill
#
# Bulk Modulus (GPa) = 37.17287 40.54702 38.85995
# Shear Modulus (GPa) = 36.59266 39.09039 37.84153
#
# Velocity S-wave (km/s) = 3.89339 4.02407 3.95927
# Velocity P-wave (km/s) = 5.96742 6.19576 6.08266
#
# Compressibility (1/GPa) = 0.02690134
#
# Stress axis : x y z
#
# Youngs Moduli (GPa) = 88.25341 85.83714 83.29956
#
# Poissons Ratio (x) = 0.08018 0.00604
# Poissons Ratio (y) = 0.08244 0.25287
# Poissons Ratio (z) = 0.00640 0.26057
#
# Static dielectric constant tensor:
#      x y z
#    x 5.331620 -0.461560 0.990450 
#    y -0.461560 4.575040 -0.502460 
#    z 0.990450 -0.502460 5.695250 
# 
# 
# High freq. dielectric constant tensor:
#      x y z
#    x 1.974260 -0.000660 0.007030 
#    y -0.000660 1.959990 0.011060 
#    z 0.007030 0.011060 1.966600 
# 
# From -- ./inp_files/71667.got.cif
#   From: 2010.06.25/outbox.cif.g09.slc.cpg/sg2_36_cif.got.tgz:71667.got - 2010.06.27 13:26:56.
