data_PCOD8020699
_publ_section_title
;
Structure prediction by ZEFSAII (Michael W. Deem and Ramdas Pophale) SiO2 
 PCOD8020699
Probable space group: P -1
;
_chemical_formula_sum "Si O2"
_cell_formula_units_Z 12
_cell_length_a 9.741276
_cell_length_b 10.849243
_cell_length_c 9.370698
_cell_angle_alpha 55.014459
_cell_angle_beta 64.856103
_cell_angle_gamma 38.726741
_cell_volume 507.124131
_symmetry_space_group_name_H-M "P -1"
_symmetry_group_IT_number 2
_symmetry_cell_setting 'triclinic'
loop_
_space_group_symop_operation_xyz
x,y,z
-x,-y,-z
loop_
_atom_site_type_symbol
_atom_site_label
_atom_site_fract_x
_atom_site_fract_y
_atom_site_fract_z
Si Si1 0.627026 0.055464 0.723088
Si Si2 0.009034 0.644844 0.988816
Si Si3 0.804225 0.740843 0.304441
Si Si4 0.683413 0.500777 0.532542
Si Si5 0.863220 0.925004 0.413203
Si Si6 0.618514 0.400323 0.161531
O O1 0.429799 0.074136 0.800366
O O2 0.510880 0.307010 0.619724
O O3 0.806346 0.900469 0.867622
O O4 0.731897 0.961432 0.582580
O O5 0.241523 0.549752 0.906498
O O6 0.995349 0.623812 0.178654
O O7 0.000000 0.500000 0.000000
O O8 0.805287 0.570135 0.486565
O O9 0.818328 0.854478 0.343551
O O10 0.575239 0.483515 0.717280
O O11 0.876315 0.261691 0.536601
O O12 0.794795 0.140337 0.256503
O O13 0.500000 0.500000 0.000000
#
# Coordination Sequence:
#
# PCOD8020699 Si02
#       6
#     2   2   2   2   2   2
#     4   9  23  41  67 102 133 177 226 275 332 405
#     4  12  26  46  68 100 143 182 224 282 340 405
#     4  10  22  42  72 102 135 180 229 270 341 405
#     4   9  22  40  66 100 130 176 221 271 335 400
#     4  11  21  44  73 100 139 176 227 285 334 405
#     4  11  27  44  67 102 138 178 229 282 342 398
#
# _framework density 23.662848
#
# number of rings (size 3 to 8) (size 9 to 14) (size 15 to 20)
#    1.000    0.667    0.000    3.500    2.333    5.333 
#    3.000    2.500    0.000    0.000    0.000    0.000 
#    0.000    0.000    0.000    0.000    0.000    0.000 
#
# Total GULP energy -148711.844567 kJ/mol
# GULP energy per Si atom -12392.653714 kJ/mol
# Density = 2.360899 g / cm^3
# Si number density = 23.662848 Si / 1000 Ang^3
#
#
#
# Elastic Constant Matrix: (Units=GPa)
#
#
# Indices 1 2 3 4 5 6 
#
# 1 93.8918 10.5869 25.9714 12.3814 -24.1063 -12.1890
# 2 10.5869 115.1318 25.1144 -6.8825 -11.2130 -16.3256
# 3 25.9714 25.1144 88.4876 8.4266 -18.9552 -1.9252
# 4 12.3814 -6.8825 8.4266 43.7708 -11.7133 0.8519
# 5 -24.1063 -11.2130 -18.9552 -11.7133 35.0911 7.8460
# 6 -12.1890 -16.3256 -1.9252 0.8519 7.8460 27.6783
#
#
#
# Elastic Compliance Matrix: (Units=1/GPa)
#
#
# Indices 1 2 3 4 5 6 
#
# 1 0.013798 0.000443 -0.002475 -0.001626 0.006781 0.004293
# 2 0.000443 0.010351 -0.002823 0.002375 0.001635 0.005568
# 3 -0.002475 -0.002823 0.013999 -0.000935 0.005380 -0.003277
# 4 -0.001626 0.002375 -0.000935 0.026171 0.008450 -0.002581
# 5 0.006781 0.001635 0.005380 0.008450 0.041101 -0.007586
# 6 0.004293 0.005568 -0.003277 -0.002581 -0.007586 0.043306
#
#
# Mechanical properties :
#
#
# Convention : Reuss Voigt Hill
#
# Bulk Modulus (GPa) = 35.16260 46.76182 40.96221
# Shear Modulus (GPa) = 29.77704 37.03060 33.40382
#
# Velocity S-wave (km/s) = 3.55122 3.96021 3.76128
# Velocity P-wave (km/s) = 5.63090 6.38088 6.01758
#
# Compressibility (1/GPa) = 0.02843931
#
# Stress axis : x y z
#
# Youngs Moduli (GPa) = 72.47528 96.60504 71.43473
#
# Poissons Ratio (x) = -0.04280 0.17678
# Poissons Ratio (y) = -0.03211 0.20164
# Poissons Ratio (z) = 0.17935 0.27269
#
# Static dielectric constant tensor:
#      x y z
#    x 4.193580 -0.471960 -0.241160 
#    y -0.471960 4.692990 -0.223520 
#    z -0.241160 -0.223520 4.481370 
# 
# 
# High freq. dielectric constant tensor:
#      x y z
#    x 1.933880 -0.023040 -0.009530 
#    y -0.023040 1.945130 -0.005540 
#    z -0.009530 -0.005540 1.934930 
# 
# From -- ./inp_files/184999.got.cif
#   From: 2010.06.25/outbox.cif.g09.slc.cpg/sg2_93_cif.got.tgz:184999.got - 2010.06.27 13:26:56.
