data_PCOD8020641
_publ_section_title
;
Structure prediction by ZEFSAII (Michael W. Deem and Ramdas Pophale) SiO2 
 PCOD8020641
Probable space group: P -1
;
_chemical_formula_sum "Si O2"
_cell_formula_units_Z 16
_cell_length_a 8.099365
_cell_length_b 8.265990
_cell_length_c 13.507135
_cell_angle_alpha 74.178265
_cell_angle_beta 100.424939
_cell_angle_gamma 125.542006
_cell_volume 707.645694
_symmetry_space_group_name_H-M "P -1"
_symmetry_group_IT_number 2
_symmetry_cell_setting 'triclinic'
loop_
_space_group_symop_operation_xyz
x,y,z
-x,-y,-z
loop_
_atom_site_type_symbol
_atom_site_label
_atom_site_fract_x
_atom_site_fract_y
_atom_site_fract_z
Si Si1 0.326888 0.666016 0.854277
Si Si2 0.255470 0.010885 0.793211
Si Si3 0.926195 0.274011 0.829146
Si Si4 0.367244 0.082018 0.003927
Si Si5 0.532555 0.700871 0.669935
Si Si6 0.646516 0.394894 0.707898
Si Si7 0.047446 0.915376 0.335159
Si Si8 0.183422 0.475292 0.512898
O O1 0.484364 0.710200 0.952780
O O2 0.445056 0.734043 0.753136
O O3 0.146815 0.429327 0.874808
O O4 0.234192 0.799660 0.836689
O O5 0.444996 0.166567 0.718106
O O6 0.048290 0.963951 0.732665
O O7 0.282794 0.115207 0.887665
O O8 0.807978 0.385605 0.794275
O O9 0.943954 0.217123 0.729078
O O10 0.816635 0.076997 0.918918
O O11 0.500000 0.000000 0.000000
O O12 0.588595 0.539512 0.726760
O O13 0.369675 0.629564 0.577546
O O14 0.731143 0.919974 0.624848
O O15 0.733643 0.482434 0.595188
O O16 0.903985 0.758196 0.431371
O O17 0.000000 0.500000 0.500000
#
# Coordination Sequence:
#
# PCOD8020641 Si02
#       8
#     2   2   2   2   2   2   2   2
#     4  11  22  44  70 101 135 183 222 276 341 395
#     4  11  24  45  71  98 141 175 226 281 333 398
#     4  12  22  45  70  96 144 175 223 284 330 397
#     4  10  22  42  70  99 135 179 228 272 340 393
#     4  12  25  45  71 100 137 178 225 273 340 400
#     4  12  23  46  69  98 139 178 220 284 329 397
#     4  12  25  46  68 102 136 176 225 279 332 404
#     4  12  26  46  71 100 135 177 223 276 341 398
#
# _framework density 22.610185999999999
#
# number of rings (size 3 to 8) (size 9 to 14) (size 15 to 20)
#    0.000    0.500    7.500    1.125    0.000    3.500 
#    4.500    1.250    0.000    0.000    0.000    0.000 
#    0.000    0.000    0.000    0.000    0.000    0.000 
#
# Total GULP energy -198441.725966 kJ/mol
# GULP energy per Si atom -12402.607873 kJ/mol
# Density = 2.255872 g / cm^3
# Si number density = 22.610186 Si / 1000 Ang^3
#
#
#
# Elastic Constant Matrix: (Units=GPa)
#
#
# Indices 1 2 3 4 5 6 
#
# 1 78.5848 28.4980 33.0268 3.9407 8.8569 15.3499
# 2 28.4980 110.3295 15.1982 11.7098 -1.6710 34.8684
# 3 33.0268 15.1982 76.1689 -3.1196 -1.5998 17.4197
# 4 3.9407 11.7098 -3.1196 30.2343 6.0133 2.4198
# 5 8.8569 -1.6710 -1.5998 6.0133 29.1044 -0.9926
# 6 15.3499 34.8684 17.4197 2.4198 -0.9926 48.7135
#
#
#
# Elastic Compliance Matrix: (Units=1/GPa)
#
#
# Indices 1 2 3 4 5 6 
#
# 1 0.017734 -0.003426 -0.006981 -0.000472 -0.005905 -0.000737
# 2 -0.003426 0.012929 0.000641 -0.004328 0.002437 -0.008139
# 3 -0.006981 0.000641 0.017197 0.002301 0.002479 -0.004472
# 4 -0.000472 -0.004328 0.002301 0.036506 -0.007506 0.000457
# 5 -0.005905 0.002437 0.002479 -0.007506 0.037996 0.000377
# 6 -0.000737 -0.008139 -0.004472 0.000457 0.000377 0.028171
#
#
# Mechanical properties :
#
#
# Convention : Reuss Voigt Hill
#
# Bulk Modulus (GPa) = 35.29949 46.50323 40.90136
# Shear Modulus (GPa) = 27.85404 34.16777 31.01090
#
# Velocity S-wave (km/s) = 3.51369 3.89159 3.70746
# Velocity P-wave (km/s) = 5.66634 6.38785 6.03788
#
# Compressibility (1/GPa) = 0.02832902
#
# Stress axis : x y z
#
# Youngs Moduli (GPa) = 56.38783 77.34585 58.15006
#
# Poissons Ratio (x) = 0.26496 0.40594
# Poissons Ratio (y) = 0.19317 -0.03728
# Poissons Ratio (z) = 0.39364 -0.04958
#
# Static dielectric constant tensor:
#      x y z
#    x 4.284450 0.178540 0.004410 
#    y 0.178540 4.167170 0.058180 
#    z 0.004410 0.058180 4.623160 
# 
# 
# High freq. dielectric constant tensor:
#      x y z
#    x 1.901560 0.014020 -0.003940 
#    y 0.014020 1.891580 -0.000030 
#    z -0.003940 -0.000030 1.887260 
# 
# From -- ./inp_files/217158.got.cif
#   From: 2010.06.25/outbox.cif.g09.slc.cpg/sg2_109_cif.got.tgz:217158.got - 2010.06.27 13:26:56.
