data_PCOD8020486
_publ_section_title
;
Structure prediction by ZEFSAII (Michael W. Deem and Ramdas Pophale) SiO2 
 PCOD8020486
Probable space group: P -1
;
_chemical_formula_sum "Si O2"
_cell_formula_units_Z 16
_cell_length_a 9.087322
_cell_length_b 6.562982
_cell_length_c 21.992196
_cell_angle_alpha 135.260511
_cell_angle_beta 57.458825
_cell_angle_gamma 128.982634
_cell_volume 707.648144
_symmetry_space_group_name_H-M "P -1"
_symmetry_group_IT_number 2
_symmetry_cell_setting 'triclinic'
loop_
_space_group_symop_operation_xyz
x,y,z
-x,-y,-z
loop_
_atom_site_type_symbol
_atom_site_label
_atom_site_fract_x
_atom_site_fract_y
_atom_site_fract_z
Si Si1 0.369692 0.917050 0.452300
Si Si2 0.002650 0.847720 0.568088
Si Si3 0.555499 0.635418 0.713608
Si Si4 0.884445 0.767344 0.253778
Si Si5 0.330161 0.995344 0.348605
Si Si6 0.725543 0.148704 0.973741
Si Si7 0.819543 0.744652 0.782894
Si Si8 0.998529 0.338059 0.061012
O O1 0.198057 0.025487 0.523877
O O2 0.310262 0.537374 0.377869
O O3 0.458452 0.067578 0.397745
O O4 0.500000 0.000000 0.500000
O O5 0.000000 0.500000 0.500000
O O6 0.016040 0.045648 0.668197
O O7 0.821404 0.850618 0.573254
O O8 0.344993 0.372929 0.721090
O O9 0.667342 0.813255 0.786824
O O10 0.541978 0.861828 0.710091
O O11 0.955288 0.487274 0.164395
O O12 0.962120 0.032396 0.239050
O O13 0.214094 0.618841 0.284720
O O14 0.799874 0.423526 0.963461
O O15 0.786916 0.863198 0.881412
O O16 0.822642 0.299642 0.047653
O O17 0.500000 0.000000 0.000000
O O18 0.000000 0.000000 0.000000
#
# Coordination Sequence:
#
# PCOD8020486 Si02
#       8
#     2   2   2   2   2   2   2   2
#     4  11  23  42  60  92 133 171 219 281 329 392
#     4  12  22  43  68  91 133 178 227 273 338 396
#     4  11  22  43  63  99 134 169 231 277 328 401
#     4  11  23  43  68  93 137 182 211 286 339 387
#     4  11  24  42  68  97 129 179 228 274 335 405
#     4  10  22  42  68  99 134 177 218 278 336 396
#     4  10  23  43  67  96 139 174 223 274 338 405
#     4  10  24  42  66 100 137 171 227 273 334 411
#
# _framework density 22.610105000000001
#
# number of rings (size 3 to 8) (size 9 to 14) (size 15 to 20)
#    0.000    1.250    3.750    1.875    1.750    2.000 
#    4.500    0.000    0.000    0.000    0.000    0.000 
#    0.000    0.000    0.000    0.000    0.000    0.000 
#
# Total GULP energy -198234.660294 kJ/mol
# GULP energy per Si atom -12389.666268 kJ/mol
# Density = 2.255864 g / cm^3
# Si number density = 22.610105 Si / 1000 Ang^3
#
#
#
# Elastic Constant Matrix: (Units=GPa)
#
#
# Indices 1 2 3 4 5 6 
#
# 1 82.7978 48.9313 26.2826 -4.7677 2.7923 6.9467
# 2 48.9313 129.0641 52.9266 2.2338 -10.2742 6.2150
# 3 26.2826 52.9266 138.1921 10.8450 1.8170 -2.9509
# 4 -4.7677 2.2338 10.8450 35.7873 0.6426 -5.2270
# 5 2.7923 -10.2742 1.8170 0.6426 35.0774 -2.8340
# 6 6.9467 6.2150 -2.9509 -5.2270 -2.8340 37.4517
#
#
#
# Elastic Compliance Matrix: (Units=1/GPa)
#
#
# Indices 1 2 3 4 5 6 
#
# 1 0.016372 -0.005991 -0.001026 0.002632 -0.003215 -0.001999
# 2 -0.005991 0.011789 -0.003392 -0.000711 0.004045 -0.000905
# 3 -0.001026 -0.003392 0.008963 -0.002470 -0.001248 0.001020
# 4 0.002632 -0.000711 -0.002470 0.029611 -0.000547 0.003527
# 5 -0.003215 0.004045 -0.001248 -0.000547 0.030188 0.002035
# 6 -0.001999 -0.000905 0.001020 0.003527 0.002035 0.027949
#
#
# Mechanical properties :
#
#
# Convention : Reuss Voigt Hill
#
# Bulk Modulus (GPa) = 61.33537 67.37055 64.35296
# Shear Modulus (GPa) = 33.08524 36.45749 34.77137
#
# Velocity S-wave (km/s) = 3.82945 4.01988 3.92582
# Velocity P-wave (km/s) = 6.83661 7.16988 7.00523
#
# Compressibility (1/GPa) = 0.01630381
#
# Stress axis : x y z
#
# Youngs Moduli (GPa) = 61.08089 84.82804 111.57441
#
# Poissons Ratio (x) = 0.50823 0.11448
# Poissons Ratio (y) = 0.36596 0.37848
# Poissons Ratio (z) = 0.06267 0.28775
#
# Static dielectric constant tensor:
#      x y z
#    x 3.890750 0.041970 0.136280 
#    y 0.041970 4.114360 -0.120920 
#    z 0.136280 -0.120920 4.568720 
# 
# 
# High freq. dielectric constant tensor:
#      x y z
#    x 1.870330 0.007540 0.013360 
#    y 0.007540 1.891040 -0.003840 
#    z 0.013360 -0.003840 1.907100 
# 
# From -- ./inp_files/585926.got.cif
#   From: 2010.06.25/outbox.cif.g09.slc.cpg/sg2_293_cif.got.tgz:585926.got - 2010.06.27 13:26:56.
