data_PCOD8020262
_publ_section_title
;
Structure prediction by ZEFSAII (Michael W. Deem and Ramdas Pophale) SiO2 
 PCOD8020262
Probable space group: P -1
;
_chemical_formula_sum "Si O2"
_cell_formula_units_Z 14
_cell_length_a 5.475576
_cell_length_b 8.257584
_cell_length_c 16.038602
_cell_angle_alpha 99.694783
_cell_angle_beta 51.573529
_cell_angle_gamma 101.696809
_cell_volume 555.467472
_symmetry_space_group_name_H-M "P -1"
_symmetry_group_IT_number 2
_symmetry_cell_setting 'triclinic'
loop_
_space_group_symop_operation_xyz
x,y,z
-x,-y,-z
loop_
_atom_site_type_symbol
_atom_site_label
_atom_site_fract_x
_atom_site_fract_y
_atom_site_fract_z
Si Si1 0.543970 0.336757 0.713586
Si Si2 0.926140 0.801090 0.496258
Si Si3 0.186168 0.753447 0.613896
Si Si4 0.005689 0.057870 0.764808
Si Si5 0.146698 0.587558 0.774191
Si Si6 0.073127 0.128346 0.070607
Si Si7 0.600135 0.322680 0.878988
O O1 0.332825 0.169680 0.717947
O O2 0.463797 0.499703 0.694144
O O3 0.449918 0.384540 0.832197
O O4 0.897940 0.294157 0.620632
O O5 0.560504 0.756663 0.547381
O O6 0.049146 0.715371 0.547278
O O7 0.000000 0.000000 0.500000
O O8 0.037123 0.624057 0.705398
O O9 0.073421 0.930468 0.669263
O O10 0.740253 0.162377 0.798054
O O11 0.852680 0.977350 0.875165
O O12 0.199705 0.759655 0.832117
O O13 0.874790 0.460478 0.865730
O O14 0.362984 0.267991 0.999292
O O15 0.000000 0.000000 0.000000
#
# Coordination Sequence:
#
# PCOD8020262 Si02
#       7
#     2   2   2   2   2   2   2
#     4  11  24  42  68  99 142 184 230 290 354 421
#     4  12  25  43  75 107 142 189 243 294 354 420
#     4  11  26  45  72 106 145 186 244 294 351 425
#     4  10  22  42  67 102 134 181 237 294 347 420
#     4  10  27  45  66 103 142 184 231 291 365 423
#     4  11  22  45  71 100 132 184 238 294 355 430
#     4  11  23  44  68  98 142 184 230 294 359 426
#
# _framework density 25.203994999999999
#
# number of rings (size 3 to 8) (size 9 to 14) (size 15 to 20)
#    0.000    1.143    2.857    2.143    6.000    1.714 
#    5.143    0.000    0.000    0.000    0.000    0.000 
#    0.000    0.000    0.000    0.000    0.000    0.000 
#
# Total GULP energy -173455.986786 kJ/mol
# GULP energy per Si atom -12389.713342 kJ/mol
# Density = 2.514663 g / cm^3
# Si number density = 25.203995 Si / 1000 Ang^3
#
#
#
# Elastic Constant Matrix: (Units=GPa)
#
#
# Indices 1 2 3 4 5 6 
#
# 1 80.5417 15.6200 23.5791 -5.2022 3.0685 -18.9842
# 2 15.6200 113.4026 34.4669 8.1633 -1.5413 -15.3893
# 3 23.5791 34.4669 100.7389 -1.8573 5.7377 -7.8817
# 4 -5.2022 8.1633 -1.8573 40.6665 2.4048 -3.1046
# 5 3.0685 -1.5413 5.7377 2.4048 40.2252 -1.9426
# 6 -18.9842 -15.3893 -7.8817 -3.1046 -1.9426 23.4860
#
#
#
# Elastic Compliance Matrix: (Units=1/GPa)
#
#
# Indices 1 2 3 4 5 6 
#
# 1 0.016432 0.000103 -0.002805 0.002952 -0.000409 0.012765
# 2 0.000103 0.010779 -0.003362 -0.001932 0.001284 0.005869
# 3 -0.002805 -0.003362 0.011805 0.000914 -0.001679 -0.000527
# 4 0.002952 -0.001932 0.000914 0.025860 -0.001749 0.004701
# 5 -0.000409 0.001284 -0.001679 -0.001749 0.025372 0.001814
# 6 0.012765 0.005869 -0.000527 0.004701 0.001814 0.057337
#
#
# Mechanical properties :
#
#
# Convention : Reuss Voigt Hill
#
# Bulk Modulus (GPa) = 37.18992 49.11282 43.15137
# Shear Modulus (GPa) = 29.64305 35.61002 32.62654
#
# Velocity S-wave (km/s) = 3.43319 3.76290 3.60182
# Velocity P-wave (km/s) = 5.52298 6.19739 5.86988
#
# Compressibility (1/GPa) = 0.02688901
#
# Stress axis : x y z
#
# Youngs Moduli (GPa) = 60.85622 92.77700 84.71278
#
# Poissons Ratio (x) = -0.00960 0.23762
# Poissons Ratio (y) = -0.00629 0.28476
# Poissons Ratio (z) = 0.17071 0.31187
#
# Static dielectric constant tensor:
#      x y z
#    x 4.146950 -0.255240 -0.074980 
#    y -0.255240 4.805820 -0.121080 
#    z -0.074980 -0.121080 4.673000 
# 
# 
# High freq. dielectric constant tensor:
#      x y z
#    x 1.983160 -0.013630 0.001510 
#    y -0.013630 2.026370 -0.003400 
#    z 0.001510 -0.003400 2.011130 
# 
# From -- ./inp_files/43241.got.cif
#   From: 2010.06.25/outbox.cif.g09.slc.cpg/sg2_22_cif.got.tgz:43241.got - 2010.06.27 13:26:56.
