data_PCOD8020239
_publ_section_title
;
Structure prediction by ZEFSAII (Michael W. Deem and Ramdas Pophale) SiO2 
 PCOD8020239
Probable space group: P -1
;
_chemical_formula_sum "Si O2"
_cell_formula_units_Z 16
_cell_length_a 13.590389
_cell_length_b 9.669020
_cell_length_c 14.532312
_cell_angle_alpha 136.112006
_cell_angle_beta 45.856801
_cell_angle_gamma 98.953397
_cell_volume 682.034017
_symmetry_space_group_name_H-M "P -1"
_symmetry_group_IT_number 2
_symmetry_cell_setting 'triclinic'
loop_
_space_group_symop_operation_xyz
x,y,z
-x,-y,-z
loop_
_atom_site_type_symbol
_atom_site_label
_atom_site_fract_x
_atom_site_fract_y
_atom_site_fract_z
Si Si1 0.456266 0.769054 0.249670
Si Si2 0.218312 0.855778 0.290048
Si Si3 0.034784 0.643988 0.744850
Si Si4 0.090007 0.794943 0.955395
Si Si5 0.629317 0.981514 0.190255
Si Si6 0.665426 0.152065 0.437595
Si Si7 0.702416 0.889882 0.786721
Si Si8 0.620268 0.269186 0.168622
O O1 0.285804 0.821367 0.335250
O O2 0.500253 0.917670 0.230684
O O3 0.397209 0.891182 0.448998
O O4 0.647948 0.447542 0.985715
O O5 0.264798 0.013553 0.280671
O O6 0.000000 0.000000 0.500000
O O7 0.162878 0.439034 0.477705
O O8 0.147317 0.568977 0.732521
O O9 0.926244 0.964707 0.957918
O O10 0.850893 0.685254 0.891969
O O11 0.260334 0.647204 0.847842
O O12 0.891644 0.940385 0.200915
O O13 0.602504 0.086792 0.361032
O O14 0.555045 0.220232 0.279748
O O15 0.569110 0.470301 0.639201
O O16 0.500000 0.000000 0.000000
O O17 0.752955 0.983794 0.884417
#
# Coordination Sequence:
#
# PCOD8020239 Si02
#       8
#     2   2   2   2   2   2   2   2
#     4  11  24  43  67  96 131 179 224 272 334 403
#     4  11  26  46  67  93 139 183 219 275 345 407
#     4   9  20  40  62  93 136 174 218 275 332 398
#     4   9  21  39  63  93 131 176 214 270 340 387
#     4  10  22  42  66  98 134 178 220 276 337 399
#     4  11  22  41  68  97 135 171 225 276 330 403
#     4  12  24  40  68 102 133 171 230 287 330 399
#     4  11  23  40  67  99 133 175 223 276 339 393
#
# _framework density 23.459240000000001
#
# number of rings (size 3 to 8) (size 9 to 14) (size 15 to 20)
#    0.000    1.500    1.250    3.750    1.750    4.000 
#    0.000    0.000    0.000    5.250    0.000    0.000 
#    0.000    0.000    0.000    0.000    0.000    0.000 
#
# Total GULP energy -198232.747217 kJ/mol
# GULP energy per Si atom -12389.546701 kJ/mol
# Density = 2.340585 g / cm^3
# Si number density = 23.459240 Si / 1000 Ang^3
#
#
#
# Elastic Constant Matrix: (Units=GPa)
#
#
# Indices 1 2 3 4 5 6 
#
# 1 87.1695 7.0026 45.2992 -21.4688 -6.2298 5.2899
# 2 7.0026 72.9159 19.9910 -19.8480 -16.6229 5.3222
# 3 45.2992 19.9910 124.1449 -20.9583 -3.7416 4.0918
# 4 -21.4688 -19.8480 -20.9583 28.0941 -4.0678 3.3146
# 5 -6.2298 -16.6229 -3.7416 -4.0678 35.4383 -6.2974
# 6 5.2899 5.3222 4.0918 3.3146 -6.2974 30.7910
#
#
#
# Elastic Compliance Matrix: (Units=1/GPa)
#
#
# Indices 1 2 3 4 5 6 
#
# 1 0.017862 0.005462 -0.004456 0.015551 0.006342 -0.003798
# 2 0.005462 0.022802 -0.001478 0.021602 0.013214 -0.004306
# 3 -0.004456 -0.001478 0.010529 0.003482 -0.000103 -0.000774
# 4 0.015551 0.021602 0.003482 0.069365 0.019352 -0.010378
# 5 0.006342 0.013214 -0.000103 0.019352 0.038162 0.002362
# 6 -0.003798 -0.004306 -0.000774 -0.010378 0.002362 0.035577
#
#
# Mechanical properties :
#
#
# Convention : Reuss Voigt Hill
#
# Bulk Modulus (GPa) = 19.89990 47.64622 33.77306
# Shear Modulus (GPa) = 23.58605 32.99385 28.28995
#
# Velocity S-wave (km/s) = 3.17425 3.75431 3.47640
# Velocity P-wave (km/s) = 4.68355 6.25679 5.52644
#
# Compressibility (1/GPa) = 0.05025151
#
# Stress axis : x y z
#
# Youngs Moduli (GPa) = 55.98334 43.85552 94.97374
#
# Poissons Ratio (x) = -0.23956 0.42317
# Poissons Ratio (y) = -0.30580 0.14036
# Poissons Ratio (z) = 0.24944 0.06481
#
# Static dielectric constant tensor:
#      x y z
#    x 4.743840 0.125720 -0.043270 
#    y 0.125720 3.939960 -0.013100 
#    z -0.043270 -0.013100 4.287950 
# 
# 
# High freq. dielectric constant tensor:
#      x y z
#    x 1.938940 0.008950 0.002580 
#    y 0.008950 1.899730 -0.007130 
#    z 0.002580 -0.007130 1.934590 
# 
# From -- ./inp_files/530130.got.cif
#   From: 2010.06.25/outbox.cif.g09.slc.cpg/sg2_266_cif.got.tgz:530130.got - 2010.06.27 13:26:56.
