data_PCOD8020844
_publ_section_title
;
Structure prediction by ZEFSAII (Michael W. Deem and Ramdas Pophale) SiO2 
 PCOD8020844
Probable space group: P -1
;
_chemical_formula_sum "Si O2"
_cell_formula_units_Z 16
_cell_length_a 16.287403
_cell_length_b 14.518652
_cell_length_c 12.631108
_cell_angle_alpha 32.206686
_cell_angle_beta 59.452414
_cell_angle_gamma 35.811295
_cell_volume 765.009737
_symmetry_space_group_name_H-M "P -1"
_symmetry_group_IT_number 2
_symmetry_cell_setting 'triclinic'
loop_
_space_group_symop_operation_xyz
x,y,z
-x,-y,-z
loop_
_atom_site_type_symbol
_atom_site_label
_atom_site_fract_x
_atom_site_fract_y
_atom_site_fract_z
Si Si1 0.999830 0.380214 0.217630
Si Si2 0.364922 0.234195 0.951675
Si Si3 0.202545 0.719742 0.122216
Si Si4 0.539617 0.951563 0.322175
Si Si5 0.235649 0.512209 0.093790
Si Si6 0.945363 0.540594 0.667586
Si Si7 0.173142 0.787905 0.647456
Si Si8 0.251112 0.035714 0.807402
O O1 0.814065 0.573674 0.155849
O O2 0.033273 0.421814 0.265302
O O3 0.163517 0.006634 0.460405
O O4 0.000000 0.500000 0.000000
O O5 0.329173 0.490346 0.758223
O O6 0.500000 0.000000 0.000000
O O7 0.443919 0.027681 0.205575
O O8 0.296564 0.416807 0.411609
O O9 0.253970 0.639430 0.042497
O O10 0.276185 0.792076 0.046482
O O11 0.000000 0.000000 0.000000
O O12 0.586043 0.087986 0.153099
O O13 0.407441 0.140140 0.323823
O O14 0.097035 0.597119 0.157677
O O15 0.173993 0.681580 0.859339
O O16 0.801392 0.855401 0.386831
O O17 0.116326 0.307983 0.715684
O O18 0.000000 0.000000 0.500000
#
# Coordination Sequence:
#
# PCOD8020844 Si02
#       8
#     2   2   2   2   2   2   2   2
#     4  11  22  42  67  94 125 173 224 267 318 390
#     4  10  22  43  64  91 130 172 208 274 333 373
#     4  12  23  41  65  96 127 171 218 259 330 390
#     4  11  24  44  62  94 138 165 215 271 330 390
#     4  11  22  42  64  92 134 170 209 276 326 379
#     4  11  21  40  66  94 131 164 219 272 321 387
#     4   9  20  38  62  91 120 168 221 253 319 389
#     4  11  23  40  64  99 128 169 216 268 329 395
#
# _framework density 20.914767999999999
#
# number of rings (size 3 to 8) (size 9 to 14) (size 15 to 20)
#    0.000    1.250    2.500    4.875    0.000    2.500 
#   11.250    0.625    0.000    0.000    0.000    0.000 
#    0.000    0.000    0.000    0.000    0.000    0.000 
#
# Total GULP energy -198235.510186 kJ/mol
# GULP energy per Si atom -12389.719387 kJ/mol
# Density = 2.086716 g / cm^3
# Si number density = 20.914768 Si / 1000 Ang^3
#
#
#
# Elastic Constant Matrix: (Units=GPa)
#
#
# Indices 1 2 3 4 5 6 
#
# 1 69.1243 10.0630 18.0818 1.9411 -7.1501 16.5692
# 2 10.0630 101.5971 34.9657 -2.0217 1.4979 24.4659
# 3 18.0818 34.9657 109.4643 -9.9698 -10.1381 12.5973
# 4 1.9411 -2.0217 -9.9698 32.3153 -1.9840 -1.4121
# 5 -7.1501 1.4979 -10.1381 -1.9840 33.9317 4.0039
# 6 16.5692 24.4659 12.5973 -1.4121 4.0039 38.0996
#
#
#
# Elastic Compliance Matrix: (Units=1/GPa)
#
#
# Indices 1 2 3 4 5 6 
#
# 1 0.017180 0.000764 -0.001990 -0.001704 0.003809 -0.007767
# 2 0.000764 0.012716 -0.003465 -0.000676 -0.000612 -0.007313
# 3 -0.001990 -0.003465 0.011314 0.003565 0.003426 -0.000878
# 4 -0.001704 -0.000676 0.003565 0.032300 0.002515 0.000929
# 5 0.003809 -0.000612 0.003426 0.002515 0.032141 -0.005681
# 6 -0.007767 -0.007313 -0.000878 0.000929 -0.005681 0.035243
#
#
# Mechanical properties :
#
#
# Convention : Reuss Voigt Hill
#
# Bulk Modulus (GPa) = 31.41968 45.15630 38.28799
# Shear Modulus (GPa) = 31.07786 35.34100 33.20943
#
# Velocity S-wave (km/s) = 3.85896 4.11513 3.98910
# Velocity P-wave (km/s) = 5.90853 6.64956 6.28997
#
# Compressibility (1/GPa) = 0.03182718
#
# Stress axis : x y z
#
# Youngs Moduli (GPa) = 58.20817 78.63959 88.38607
#
# Poissons Ratio (x) = -0.06006 0.17592
# Poissons Ratio (y) = -0.04446 0.30624
# Poissons Ratio (z) = 0.11586 0.27247
#
# Static dielectric constant tensor:
#      x y z
#    x 3.523840 0.259910 0.106510 
#    y 0.259910 3.815420 -0.165820 
#    z 0.106510 -0.165820 3.758040 
# 
# 
# High freq. dielectric constant tensor:
#      x y z
#    x 1.825300 0.017430 0.007340 
#    y 0.017430 1.821750 -0.007090 
#    z 0.007340 -0.007090 1.815890 
# 
# From -- ./inp_files/282756.got.cif
#   From: 2010.06.25/outbox.cif.g09.slc.cpg/sg2_142_cif.got.tgz:282756.got - 2010.06.27 13:26:56.
