data_PCOD8020828
_publ_section_title
;
Structure prediction by ZEFSAII (Michael W. Deem and Ramdas Pophale) SiO2 
 PCOD8020828
Probable space group: P -1
;
_chemical_formula_sum "Si O2"
_cell_formula_units_Z 16
_cell_length_a 16.664692
_cell_length_b 13.221594
_cell_length_c 15.683139
_cell_angle_alpha 126.493372
_cell_angle_beta 152.716338
_cell_angle_gamma 34.399494
_cell_volume 755.965420
_symmetry_space_group_name_H-M "P -1"
_symmetry_group_IT_number 2
_symmetry_cell_setting 'triclinic'
loop_
_space_group_symop_operation_xyz
x,y,z
-x,-y,-z
loop_
_atom_site_type_symbol
_atom_site_label
_atom_site_fract_x
_atom_site_fract_y
_atom_site_fract_z
Si Si1 0.207646 0.760438 0.595587
Si Si2 0.106500 0.089052 0.457295
Si Si3 0.292148 0.304474 0.228001
Si Si4 0.057842 0.596900 0.642606
Si Si5 0.474278 0.454619 0.545917
Si Si6 0.120760 0.139949 0.063523
Si Si7 0.691283 0.228567 0.997763
Si Si8 0.828099 0.366038 0.064567
O O1 0.235544 0.663234 0.486443
O O2 0.038254 0.789572 0.528204
O O3 0.540465 0.593148 0.860267
O O4 0.000000 0.000000 0.500000
O O5 0.163933 0.178011 0.497870
O O6 0.916671 0.100739 0.226923
O O7 0.438066 0.844951 0.660436
O O8 0.360294 0.375803 0.396517
O O9 0.249375 0.192217 0.171396
O O10 0.000000 0.500000 0.000000
O O11 0.036708 0.607625 0.730488
O O12 0.000000 0.500000 0.500000
O O13 0.383052 0.457615 0.856386
O O14 0.500000 0.500000 0.500000
O O15 0.797565 0.279357 0.801401
O O16 0.093391 0.181992 0.158908
O O17 0.339874 0.897638 0.127915
O O18 0.773671 0.269130 0.016703
#
# Coordination Sequence:
#
# PCOD8020828 Si02
#       8
#     2   2   2   2   2   2   2   2
#     4  11  23  39  71  98 129 178 226 272 333 407
#     4  11  22  43  65  98 129 177 227 275 341 401
#     4  12  25  43  67  96 137 178 231 275 333 407
#     4  11  22  40  67  98 138 173 220 287 339 406
#     4  11  23  44  67  95 136 182 220 274 337 395
#     4  11  24  40  69  97 133 178 224 281 331 402
#     4  11  20  43  70  93 134 179 224 278 345 403
#     4  10  22  43  64 100 132 174 229 276 342 404
#
# _framework density 21.16499
#
# number of rings (size 3 to 8) (size 9 to 14) (size 15 to 20)
#    0.000    1.000    5.000    2.625    1.750    1.000 
#    2.250    3.750    0.000    0.000    0.000    0.000 
#    0.000    0.000    0.000    0.000    0.000    0.000 
#
# Total GULP energy -198259.023950 kJ/mol
# GULP energy per Si atom -12391.188997 kJ/mol
# Density = 2.111682 g / cm^3
# Si number density = 21.164990 Si / 1000 Ang^3
#
#
#
# Elastic Constant Matrix: (Units=GPa)
#
#
# Indices 1 2 3 4 5 6 
#
# 1 104.7131 30.0327 24.3900 7.6279 -14.9012 -22.5686
# 2 30.0327 109.8372 31.4913 21.3476 -9.8265 -11.2860
# 3 24.3900 31.4913 79.3448 10.1689 -2.3748 -4.6165
# 4 7.6279 21.3476 10.1689 50.0238 -1.5056 3.8630
# 5 -14.9012 -9.8265 -2.3748 -1.5056 28.2173 0.9752
# 6 -22.5686 -11.2860 -4.6165 3.8630 0.9752 43.9627
#
#
#
# Elastic Compliance Matrix: (Units=1/GPa)
#
#
# Indices 1 2 3 4 5 6 
#
# 1 0.012741 -0.001376 -0.002718 -0.001083 0.005760 0.005870
# 2 -0.001376 0.011780 -0.003500 -0.004197 0.002779 0.002258
# 3 -0.002718 -0.003500 0.014893 -0.001116 -0.001440 -0.000600
# 4 -0.001083 -0.004197 -0.001116 0.022435 -0.000802 -0.003704
# 5 0.005760 0.002779 -0.001440 -0.000802 0.039191 0.002720
# 6 0.005870 0.002258 -0.000600 -0.003704 0.002720 0.026541
#
#
# Mechanical properties :
#
#
# Convention : Reuss Voigt Hill
#
# Bulk Modulus (GPa) = 41.27624 51.74699 46.51162
# Shear Modulus (GPa) = 33.14652 38.30618 35.72635
#
# Velocity S-wave (km/s) = 3.96169 4.25889 4.11298
# Velocity P-wave (km/s) = 6.36169 6.97758 6.67674
#
# Compressibility (1/GPa) = 0.02422701
#
# Stress axis : x y z
#
# Youngs Moduli (GPa) = 78.48594 84.88710 67.14572
#
# Poissons Ratio (x) = 0.11677 0.18249
# Poissons Ratio (y) = 0.10797 0.23503
# Poissons Ratio (z) = 0.21331 0.29713
#
# Static dielectric constant tensor:
#      x y z
#    x 4.194980 -0.404950 0.033640 
#    y -0.404950 3.740040 0.029310 
#    z 0.033640 0.029310 3.861660 
# 
# 
# High freq. dielectric constant tensor:
#      x y z
#    x 1.827320 -0.014080 -0.001200 
#    y -0.014080 1.844530 -0.008380 
#    z -0.001200 -0.008380 1.825170 
# 
# From -- ./inp_files/256045.got.cif
#   From: 2010.06.25/outbox.cif.g09.slc.cpg/sg2_129_cif.got.tgz:256045.got - 2010.06.27 13:26:56.
