data_PCOD8020400
_publ_section_title
;
Structure prediction by ZEFSAII (Michael W. Deem and Ramdas Pophale) SiO2 
 PCOD8020400
Probable space group: P -1
;
_chemical_formula_sum "Si O2"
_cell_formula_units_Z 12
_cell_length_a 7.012087
_cell_length_b 7.646493
_cell_length_c 13.175177
_cell_angle_alpha 113.421565
_cell_angle_beta 113.886088
_cell_angle_gamma 39.019012
_cell_volume 402.419499
_symmetry_space_group_name_H-M "P -1"
_symmetry_group_IT_number 2
_symmetry_cell_setting 'triclinic'
loop_
_space_group_symop_operation_xyz
x,y,z
-x,-y,-z
loop_
_atom_site_type_symbol
_atom_site_label
_atom_site_fract_x
_atom_site_fract_y
_atom_site_fract_z
Si Si1 0.666106 0.640245 0.973644
Si Si2 0.103764 0.230888 0.515769
Si Si3 0.616256 0.156393 0.245118
Si Si4 0.744771 0.293278 0.619882
Si Si5 0.310817 0.115810 0.325081
Si Si6 0.741861 0.158593 0.897140
O O1 0.432489 0.876121 0.890644
O O2 0.652036 0.424838 0.900292
O O3 0.542610 0.760757 0.089246
O O4 0.000000 0.500000 0.000000
O O5 0.087702 0.344483 0.423350
O O6 0.789393 0.374791 0.537718
O O7 0.287100 0.910807 0.450262
O O8 0.349356 0.167722 0.627280
O O9 0.550845 0.425252 0.317947
O O10 0.337227 0.251405 0.272877
O O11 0.950259 0.867297 0.284533
O O12 0.157031 0.028222 0.223590
O O13 0.000000 0.000000 0.000000
#
# Coordination Sequence:
#
# PCOD8020400 Si02
#       6
#     2   2   2   2   2   2
#     4  11  27  46  75 108 145 198 245 309 374 442
#     4   9  21  41  70 100 144 187 238 299 360 437
#     4  11  25  43  73 104 145 190 240 306 365 440
#     4  10  23  44  69 104 141 189 243 292 371 435
#     4  10  22  42  68 103 142 189 240 302 365 435
#     4  11  26  48  75 108 147 190 253 306 372 441
#
# _framework density 29.819626
#
# number of rings (size 3 to 8) (size 9 to 14) (size 15 to 20)
#    0.000    1.667    0.000    2.000    9.333    8.000 
#    0.000    3.333    0.000    0.000    0.000    0.000 
#    0.000    0.000    0.000    0.000    0.000    0.000 
#
# Total GULP energy -148808.240852 kJ/mol
# GULP energy per Si atom -12400.686738 kJ/mol
# Density = 2.975175 g / cm^3
# Si number density = 29.819626 Si / 1000 Ang^3
#
#
#
# Elastic Constant Matrix: (Units=GPa)
#
#
# Indices 1 2 3 4 5 6 
#
# 1 126.8328 -1.2301 20.8175 -7.4297 -20.2417 0.7873
# 2 -1.2301 57.7704 6.2157 -5.4427 -15.8855 -9.5838
# 3 20.8175 6.2157 161.4247 3.8282 -19.9440 -4.5799
# 4 -7.4297 -5.4427 3.8282 43.1048 -6.7197 -22.1471
# 5 -20.2417 -15.8855 -19.9440 -6.7197 44.5968 0.5598
# 6 0.7873 -9.5838 -4.5799 -22.1471 0.5598 36.0825
#
#
#
# Elastic Compliance Matrix: (Units=1/GPa)
#
#
# Indices 1 2 3 4 5 6 
#
# 1 0.009116 0.002666 -0.000625 0.004363 0.005427 0.003024
# 2 0.002666 0.023943 0.000256 0.012299 0.011535 0.013704
# 3 -0.000625 0.000256 0.006636 0.000330 0.002811 0.001083
# 4 0.004363 0.012299 0.000330 0.042327 0.012522 0.028999
# 5 0.005427 0.011535 0.002811 0.012522 0.032007 0.010492
# 6 0.003024 0.013704 0.001083 0.028999 0.010492 0.049062
#
#
# Mechanical properties :
#
#
# Convention : Reuss Voigt Hill
#
# Bulk Modulus (GPa) = 22.57869 44.18156 33.38013
# Shear Modulus (GPa) = 28.85848 46.10513 37.48181
#
# Velocity S-wave (km/s) = 3.11427 3.93636 3.54920
# Velocity P-wave (km/s) = 4.52988 5.95888 5.29283
#
# Compressibility (1/GPa) = 0.04428954
#
# Stress axis : x y z
#
# Youngs Moduli (GPa) = 109.69906 41.76587 150.69674
#
# Poissons Ratio (x) = -0.11136 0.09425
# Poissons Ratio (y) = -0.29250 -0.03865
# Poissons Ratio (z) = 0.06861 -0.01071
#
# Static dielectric constant tensor:
#      x y z
#    x 6.052400 0.419570 -0.611870 
#    y 0.419570 4.763740 -2.141110 
#    z -0.611870 -2.141110 -1.043750 
# 
# 
# High freq. dielectric constant tensor:
#      x y z
#    x 2.235710 0.016780 -0.012210 
#    y 0.016780 2.219050 0.010070 
#    z -0.012210 0.010070 2.226400 
# 
# From -- ./inp_files/493700.got.cif
#   From: 2010.06.25/outbox.cif.g09.slc.cpg/sg2_247_cif.got.tgz:493700.got - 2010.06.27 13:26:56.
