data_PCOD8020886
_publ_section_title
;
Structure prediction by ZEFSAII (Michael W. Deem and Ramdas Pophale) SiO2 
 PCOD8020886
Probable space group: P -1
;
_chemical_formula_sum "Si O2"
_cell_formula_units_Z 16
_cell_length_a 17.804595
_cell_length_b 12.755288
_cell_length_c 14.793352
_cell_angle_alpha 19.251504
_cell_angle_beta 132.171863
_cell_angle_gamma 130.320556
_cell_volume 819.758529
_symmetry_space_group_name_H-M "P -1"
_symmetry_group_IT_number 2
_symmetry_cell_setting 'triclinic'
loop_
_space_group_symop_operation_xyz
x,y,z
-x,-y,-z
loop_
_atom_site_type_symbol
_atom_site_label
_atom_site_fract_x
_atom_site_fract_y
_atom_site_fract_z
Si Si1 0.494990 0.241647 0.882529
Si Si2 0.384695 0.193870 0.557672
Si Si3 0.104139 0.469174 0.058631
Si Si4 0.253299 0.552268 0.277266
Si Si5 0.876570 0.352438 0.597887
Si Si6 0.898184 0.629277 0.194219
Si Si7 0.732968 0.713337 0.313089
Si Si8 0.174252 0.828263 0.642967
O O1 0.575745 0.544707 0.695992
O O2 0.385751 0.384998 0.692315
O O3 0.500000 0.000000 0.000000
O O4 0.525960 0.039530 0.159141
O O5 0.359553 0.401863 0.458137
O O6 0.289243 0.970285 0.628733
O O7 0.188802 0.514795 0.165737
O O8 0.105449 0.104212 0.323884
O O9 0.127793 0.705919 0.801426
O O10 0.000000 0.500000 0.000000
O O11 0.211273 0.347029 0.496285
O O12 0.258341 0.921201 0.008819
O O13 0.874695 0.532353 0.355783
O O14 0.782824 0.484118 0.468980
O O15 0.981398 0.410570 0.692091
O O16 0.862080 0.982466 0.865741
O O17 0.831853 0.441037 0.218614
#
# Coordination Sequence:
#
# PCOD8020886 Si02
#       8
#     2   2   2   2   2   2   2   2
#     4  12  21  36  60  86 124 166 194 243 296 358
#     4  11  21  38  56  87 123 157 207 230 284 374
#     4  11  24  36  55  89 125 160 195 240 286 374
#     4  11  21  35  53  85 126 159 191 235 289 359
#     4  10  23  40  62  91 113 147 210 258 294 363
#     4  10  22  43  65  83 114 157 202 255 307 346
#     4  12  23  35  61  87 122 160 192 253 305 342
#     4  11  23  40  63  84 117 166 201 242 301 358
#
# _framework density 19.517942000000001
#
# number of rings (size 3 to 8) (size 9 to 14) (size 15 to 20)
#    0.000    1.000    2.500    6.000    3.500    0.000 
#    0.000    0.000    0.000    4.500    0.000    0.000 
#    0.000    0.000    0.000    0.000    0.000    0.000 
#
# Total GULP energy -198311.996352 kJ/mol
# GULP energy per Si atom -12394.499772 kJ/mol
# Density = 1.947352 g / cm^3
# Si number density = 19.517942 Si / 1000 Ang^3
#
#
#
# Elastic Constant Matrix: (Units=GPa)
#
#
# Indices 1 2 3 4 5 6 
#
# 1 119.6254 58.4819 102.3779 -14.6919 27.5681 -6.4566
# 2 58.4819 114.3164 123.4438 -23.3246 20.3030 -18.5387
# 3 102.3779 123.4438 311.4121 -20.7539 24.0714 -43.3455
# 4 -14.6919 -23.3246 -20.7539 27.9117 -1.8188 0.9893
# 5 27.5681 20.3030 24.0714 -1.8188 39.4688 -9.9933
# 6 -6.4566 -18.5387 -43.3455 0.9893 -9.9933 28.5956
#
#
#
# Elastic Compliance Matrix: (Units=1/GPa)
#
#
# Indices 1 2 3 4 5 6 
#
# 1 0.014969 -0.002271 -0.004252 0.002535 -0.008501 -0.007596
# 2 -0.002271 0.018943 -0.005555 0.010193 -0.003886 0.001637
# 3 -0.004252 -0.005555 0.007610 -0.001302 0.003185 0.008132
# 4 0.002535 0.010193 -0.001302 0.044393 -0.003560 0.002427
# 5 -0.008501 -0.003886 0.003185 -0.003560 0.034334 0.012512
# 6 -0.007596 0.001637 0.008132 0.002427 0.012512 0.050932
#
#
# Mechanical properties :
#
#
# Convention : Reuss Voigt Hill
#
# Bulk Modulus (GPa) = 57.58360 123.77345 90.67853
# Shear Modulus (GPa) = 24.85988 36.59857 30.72923
#
# Velocity S-wave (km/s) = 3.57276 4.33497 3.97219
# Velocity P-wave (km/s) = 6.82542 9.41323 8.22178
#
# Compressibility (1/GPa) = 0.01736606
#
# Stress axis : x y z
#
# Youngs Moduli (GPa) = 66.80378 52.78868 131.40612
#
# Poissons Ratio (x) = 0.11989 0.55877
# Poissons Ratio (y) = 0.15172 0.72995
# Poissons Ratio (z) = 0.28407 0.29324
#
# Static dielectric constant tensor:
#      x y z
#    x 3.035800 -0.209010 -0.778620 
#    y -0.209010 3.056990 -0.480950 
#    z -0.778620 -0.480950 2.779440 
# 
# 
# High freq. dielectric constant tensor:
#      x y z
#    x 1.745610 0.009820 -0.009520 
#    y 0.009820 1.738510 0.009470 
#    z -0.009520 0.009470 1.790140 
# 
# From -- ./inp_files/535065.got.cif
#   From: 2010.06.25/outbox.cif.g09.slc.cpg/sg2_268_cif.got.tgz:535065.got - 2010.06.27 13:26:56.
