data_PCOD8020423
_publ_section_title
;
Structure prediction by ZEFSAII (Michael W. Deem and Ramdas Pophale) SiO2 
 PCOD8020423
Probable space group: P -1
;
_chemical_formula_sum "Si O2"
_cell_formula_units_Z 16
_cell_length_a 9.034646
_cell_length_b 8.692345
_cell_length_c 19.838278
_cell_angle_alpha 60.574332
_cell_angle_beta 146.414730
_cell_angle_gamma 121.980978
_cell_volume 726.841983
_symmetry_space_group_name_H-M "P -1"
_symmetry_group_IT_number 2
_symmetry_cell_setting 'triclinic'
loop_
_space_group_symop_operation_xyz
x,y,z
-x,-y,-z
loop_
_atom_site_type_symbol
_atom_site_label
_atom_site_fract_x
_atom_site_fract_y
_atom_site_fract_z
Si Si1 0.294573 0.247522 0.048775
Si Si2 0.245817 0.914367 0.191867
Si Si3 0.706417 0.415412 0.941191
Si Si4 0.750269 0.183929 0.129478
Si Si5 0.182860 0.200886 0.726462
Si Si6 0.723777 0.275421 0.624459
Si Si7 0.836949 0.669860 0.645285
Si Si8 0.852646 0.987158 0.376376
O O1 0.392532 0.448377 0.073912
O O2 0.507383 0.204958 0.084125
O O3 0.229456 0.114353 0.118121
O O4 0.008071 0.235970 0.903219
O O5 0.259071 0.890127 0.283122
O O6 0.532171 0.885888 0.279399
O O7 0.475744 0.352787 0.808803
O O8 0.707378 0.238602 0.024953
O O9 0.000000 0.500000 0.000000
O O10 0.048579 0.312734 0.238748
O O11 0.770782 0.976394 0.179600
O O12 0.056509 0.143384 0.616340
O O13 0.955544 0.289507 0.653798
O O14 0.777320 0.462696 0.645505
O O15 0.426426 0.244044 0.482382
O O16 0.091161 0.802845 0.671850
O O17 0.000000 0.000000 0.500000
#
# Coordination Sequence:
#
# PCOD8020423 Si02
#       8
#     2   2   2   2   2   2   2   2
#     4  11  23  40  68  95 132 178 221 257 329 395
#     4  11  22  39  70  94 129 177 223 262 318 396
#     4  12  26  41  65 101 135 164 217 277 326 377
#     4  11  23  44  66  90 136 178 215 259 329 396
#     4  11  25  42  66  96 134 168 219 271 328 384
#     4  11  23  41  67  96 132 169 223 272 323 382
#     4  10  22  42  68  93 129 177 218 260 328 393
#     4  11  22  45  68  91 129 175 223 270 325 389
#
# _framework density 22.013038999999999
#
# number of rings (size 3 to 8) (size 9 to 14) (size 15 to 20)
#    0.000    1.000    3.750    3.750    3.500    2.000 
#    0.000    0.625    0.000    0.000    0.000    0.000 
#    0.000    0.000    0.000    0.000    0.000    0.000 
#
# Total GULP energy -198287.607756 kJ/mol
# GULP energy per Si atom -12392.975485 kJ/mol
# Density = 2.196294 g / cm^3
# Si number density = 22.013039 Si / 1000 Ang^3
#
#
#
# Elastic Constant Matrix: (Units=GPa)
#
#
# Indices 1 2 3 4 5 6 
#
# 1 82.0140 13.6490 48.9427 5.1378 5.0759 11.3098
# 2 13.6490 61.7225 33.9570 16.9741 6.8289 -1.0215
# 3 48.9427 33.9570 137.9322 20.4541 -1.7439 -0.3964
# 4 5.1378 16.9741 20.4541 36.3108 0.9821 2.1911
# 5 5.0759 6.8289 -1.7439 0.9821 34.8831 -0.6728
# 6 11.3098 -1.0215 -0.3964 2.1911 -0.6728 26.2217
#
#
#
# Elastic Compliance Matrix: (Units=1/GPa)
#
#
# Indices 1 2 3 4 5 6 
#
# 1 0.017181 -0.000700 -0.006276 0.001979 -0.002882 -0.007772
# 2 -0.000700 0.021015 -0.003852 -0.007544 -0.003962 0.001591
# 3 -0.006276 -0.003852 0.011024 -0.003773 0.002384 0.003100
# 4 0.001979 -0.007544 -0.003773 0.033152 -0.000010 -0.003975
# 5 -0.002882 -0.003962 0.002384 -0.000010 0.030018 0.001896
# 6 -0.007772 0.001591 0.003100 -0.003975 0.001896 0.041978
#
#
# Mechanical properties :
#
#
# Convention : Reuss Voigt Hill
#
# Bulk Modulus (GPa) = 36.28088 52.75180 44.51634
# Shear Modulus (GPa) = 26.99609 31.82447 29.41028
#
# Velocity S-wave (km/s) = 3.50575 3.80637 3.65915
# Velocity P-wave (km/s) = 5.73624 6.58285 6.17407
#
# Compressibility (1/GPa) = 0.02756273
#
# Stress axis : x y z
#
# Youngs Moduli (GPa) = 58.20328 47.58559 90.71347
#
# Poissons Ratio (x) = 0.03333 0.56934
# Poissons Ratio (y) = 0.04076 0.34942
# Poissons Ratio (z) = 0.36530 0.18329
#
# Static dielectric constant tensor:
#      x y z
#    x 3.828540 0.118090 -0.097290 
#    y 0.118090 3.874440 0.151800 
#    z -0.097290 0.151800 4.394200 
# 
# 
# High freq. dielectric constant tensor:
#      x y z
#    x 1.850610 0.006610 -0.001090 
#    y 0.006610 1.863630 0.016310 
#    z -0.001090 0.016310 1.882190 
# 
# From -- ./inp_files/206053.got.cif
#   From: 2010.06.25/outbox.cif.g09.slc.cpg/sg2_104_cif.got.tgz:206053.got - 2010.06.27 13:26:56.
