data_PCOD8020605
_publ_section_title
;
Structure prediction by ZEFSAII (Michael W. Deem and Ramdas Pophale) SiO2 
 PCOD8020605
Probable space group: P -1
;
_chemical_formula_sum "Si O2"
_cell_formula_units_Z 16
_cell_length_a 11.420859
_cell_length_b 19.132653
_cell_length_c 9.444251
_cell_angle_alpha 151.612891
_cell_angle_beta 60.169397
_cell_angle_gamma 132.488808
_cell_volume 695.371927
_symmetry_space_group_name_H-M "P -1"
_symmetry_group_IT_number 2
_symmetry_cell_setting 'triclinic'
loop_
_space_group_symop_operation_xyz
x,y,z
-x,-y,-z
loop_
_atom_site_type_symbol
_atom_site_label
_atom_site_fract_x
_atom_site_fract_y
_atom_site_fract_z
Si Si1 0.665273 0.179147 0.769144
Si Si2 0.707780 0.373629 0.826430
Si Si3 0.165758 0.647478 0.577561
Si Si4 0.677134 0.905404 0.424849
Si Si5 0.311103 0.316318 0.490606
Si Si6 0.350765 0.594303 0.590839
Si Si7 0.825321 0.786119 0.915151
Si Si8 0.826170 0.000708 0.797598
O O1 0.767899 0.302448 0.790951
O O2 0.500000 0.000000 0.500000
O O3 0.752378 0.110769 0.692536
O O4 0.616302 0.290255 0.085143
O O5 0.827716 0.417968 0.700190
O O6 0.515447 0.214336 0.624666
O O7 0.735206 0.560945 0.185557
O O8 0.323643 0.679693 0.622872
O O9 0.000000 0.500000 0.500000
O O10 0.194702 0.838631 0.885673
O O11 0.794272 0.933428 0.534715
O O12 0.689517 0.799731 0.100153
O O13 0.504996 0.436999 0.554169
O O14 0.195678 0.215442 0.243852
O O15 0.304401 0.169666 0.333942
O O16 0.186870 0.392703 0.351512
O O17 0.000983 0.951473 0.161336
#
# Coordination Sequence:
#
# PCOD8020605 Si02
#       8
#     2   2   2   2   2   2   2   2
#     4  10  22  42  70 110 140 177 235 295 352 415
#     4  11  25  45  73 107 141 186 240 298 355 420
#     4  12  28  48  69 101 145 191 234 293 360 424
#     4  11  24  44  74 108 142 187 240 294 353 422
#     4  12  26  45  73 110 139 186 244 296 351 426
#     4  12  23  46  77  99 148 188 238 294 354 421
#     4  12  25  47  72 104 151 187 233 292 365 422
#     4  12  28  45  69 102 148 194 236 289 358 427
#
# _framework density 23.009270000000001
#
# number of rings (size 3 to 8) (size 9 to 14) (size 15 to 20)
#    0.000    0.500    5.000    3.375    7.000    3.000 
#    0.000    1.250    0.000    0.000    0.000    0.000 
#    0.000    0.000    0.000    0.000    0.000    0.000 
#
# Total GULP energy -198346.832067 kJ/mol
# GULP energy per Si atom -12396.677004 kJ/mol
# Density = 2.295690 g / cm^3
# Si number density = 23.009270 Si / 1000 Ang^3
#
#
#
# Elastic Constant Matrix: (Units=GPa)
#
#
# Indices 1 2 3 4 5 6 
#
# 1 96.4033 46.8945 18.9670 -1.4911 6.6637 -26.7263
# 2 46.8945 135.9714 69.3881 -15.6244 -6.4199 -31.6296
# 3 18.9670 69.3881 139.3790 -10.7576 -9.4881 -11.0492
# 4 -1.4911 -15.6244 -10.7576 42.8995 -7.2658 -1.3095
# 5 6.6637 -6.4199 -9.4881 -7.2658 36.2223 2.0828
# 6 -26.7263 -31.6296 -11.0492 -1.3095 2.0828 37.6481
#
#
#
# Elastic Compliance Matrix: (Units=1/GPa)
#
#
# Indices 1 2 3 4 5 6 
#
# 1 0.014424 -0.003613 0.000057 -0.001244 -0.003954 0.007396
# 2 -0.003613 0.013519 -0.005204 0.004071 0.002095 0.007291
# 3 0.000057 -0.005204 0.009832 0.000848 0.001900 -0.001522
# 4 -0.001244 0.004071 0.000848 0.026118 0.006219 0.003350
# 5 -0.003954 0.002095 0.001900 0.006219 0.030564 -0.001964
# 6 0.007396 0.007291 -0.001522 0.003350 -0.001964 0.037717
#
#
# Mechanical properties :
#
#
# Convention : Reuss Voigt Hill
#
# Bulk Modulus (GPa) = 49.36980 71.36143 60.36562
# Shear Modulus (GPa) = 31.96041 39.12092 35.54066
#
# Velocity S-wave (km/s) = 3.73100 4.12785 3.93443
# Velocity P-wave (km/s) = 6.32958 7.33488 6.85069
#
# Compressibility (1/GPa) = 0.02025530
#
# Stress axis : x y z
#
# Youngs Moduli (GPa) = 69.32961 73.97128 101.71192
#
# Poissons Ratio (x) = 0.26723 -0.00578
# Poissons Ratio (y) = 0.25046 0.52928
# Poissons Ratio (z) = -0.00394 0.38493
#
# Static dielectric constant tensor:
#      x y z
#    x 4.614840 -0.871540 -0.306220 
#    y -0.871540 4.652620 0.378660 
#    z -0.306220 0.378660 4.285090 
# 
# 
# High freq. dielectric constant tensor:
#      x y z
#    x 1.909960 -0.023770 0.000470 
#    y -0.023770 1.904490 0.006660 
#    z 0.000470 0.006660 1.921510 
# 
# From -- ./inp_files/209491.got.cif
#   From: 2010.06.25/outbox.cif.g09.slc.cpg/sg2_105_cif.got.tgz:209491.got - 2010.06.27 13:26:56.
