data_PCOD8020840
_publ_section_title
;
Structure prediction by ZEFSAII (Michael W. Deem and Ramdas Pophale) SiO2 
 PCOD8020840
Probable space group: P -1
;
_chemical_formula_sum "Si O2"
_cell_formula_units_Z 16
_cell_length_a 11.961756
_cell_length_b 18.631236
_cell_length_c 9.002414
_cell_angle_alpha 128.524021
_cell_angle_beta 99.521802
_cell_angle_gamma 38.854832
_cell_volume 747.302498
_symmetry_space_group_name_H-M "P -1"
_symmetry_group_IT_number 2
_symmetry_cell_setting 'triclinic'
loop_
_space_group_symop_operation_xyz
x,y,z
-x,-y,-z
loop_
_atom_site_type_symbol
_atom_site_label
_atom_site_fract_x
_atom_site_fract_y
_atom_site_fract_z
Si Si1 0.825286 0.936508 0.567966
Si Si2 0.630798 0.738269 0.266415
Si Si3 0.073553 0.938564 0.706963
Si Si4 0.471905 0.790906 0.602873
Si Si5 0.157383 0.128605 0.179106
Si Si6 0.980993 0.413102 0.318024
Si Si7 0.914657 0.689215 0.124059
Si Si8 0.245067 0.722024 0.750149
O O1 0.802214 0.900737 0.673681
O O2 0.901321 0.807980 0.296375
O O3 0.012710 0.887806 0.541154
O O4 0.572201 0.155787 0.749873
O O5 0.542370 0.808712 0.507330
O O6 0.705757 0.786392 0.291278
O O7 0.841312 0.516748 0.016082
O O8 0.280415 0.854457 0.572042
O O9 0.195029 0.829441 0.748626
O O10 0.827892 0.169226 0.975874
O O11 0.708307 0.575609 0.442963
O O12 0.367760 0.924761 0.885400
O O13 0.125540 0.251530 0.261586
O O14 0.913269 0.254264 0.255352
O O15 0.000000 0.500000 0.500000
O O16 0.109913 0.315680 0.061818
O O17 0.500000 0.500000 0.500000
#
# Coordination Sequence:
#
# PCOD8020840 Si02
#       8
#     2   2   2   2   2   2   2   2
#     4  11  23  38  65  93 128 165 203 256 318 379
#     4  10  23  42  63  84 125 173 203 258 313 365
#     4   9  20  36  58  96 123 162 209 253 310 372
#     4  10  22  43  64  89 131 162 209 262 305 368
#     4  10  23  36  62  96 121 161 209 255 310 369
#     4  11  25  42  65  92 121 166 212 265 309 371
#     4  10  24  44  61  88 127 162 213 259 314 375
#     4   9  17  35  58  85 130 166 200 253 307 362
#
# _framework density 21.410339
#
# number of rings (size 3 to 8) (size 9 to 14) (size 15 to 20)
#    0.000    2.000    0.000    2.625    7.000    3.000 
#    0.000    2.500    0.000    0.000    0.000    0.000 
#    0.000    0.000    0.000    0.000    0.000    0.000 
#
# Total GULP energy -198293.876936 kJ/mol
# GULP energy per Si atom -12393.367309 kJ/mol
# Density = 2.136161 g / cm^3
# Si number density = 21.410339 Si / 1000 Ang^3
#
#
#
# Elastic Constant Matrix: (Units=GPa)
#
#
# Indices 1 2 3 4 5 6 
#
# 1 84.3028 18.3146 46.2994 -8.5762 -1.6554 -4.4281
# 2 18.3146 83.5568 32.9296 0.8319 9.0532 -1.3177
# 3 46.2994 32.9296 92.5638 -9.4676 -7.9371 -1.7117
# 4 -8.5762 0.8319 -9.4676 36.2713 -6.3295 1.1003
# 5 -1.6554 9.0532 -7.9371 -6.3295 26.1110 2.4763
# 6 -4.4281 -1.3177 -1.7117 1.1003 2.4763 29.8744
#
#
#
# Elastic Compliance Matrix: (Units=1/GPa)
#
#
# Indices 1 2 3 4 5 6 
#
# 1 0.016623 -0.000315 -0.008100 0.001568 -0.001111 0.002020
# 2 -0.000315 0.015526 -0.006428 -0.003596 -0.008332 0.001093
# 3 -0.008100 -0.006428 0.018311 0.004535 0.008505 -0.001307
# 4 0.001568 -0.003596 0.004535 0.031076 0.010417 -0.001674
# 5 -0.001111 -0.008332 0.008505 0.010417 0.046634 -0.004294
# 6 0.002020 0.001093 -0.001307 -0.001674 -0.004294 0.034164
#
#
# Mechanical properties :
#
#
# Convention : Reuss Voigt Hill
#
# Bulk Modulus (GPa) = 48.13730 50.61229 49.37480
# Shear Modulus (GPa) = 25.13283 29.31000 27.22141
#
# Velocity S-wave (km/s) = 3.42989 3.70397 3.56956
# Velocity P-wave (km/s) = 6.18203 6.47943 6.33248
#
# Compressibility (1/GPa) = 0.02077391
#
# Stress axis : x y z
#
# Youngs Moduli (GPa) = 60.15836 64.40825 54.61311
#
# Poissons Ratio (x) = 0.02027 0.44237
# Poissons Ratio (y) = 0.01893 0.35105
# Poissons Ratio (z) = 0.48729 0.41401
#
# Static dielectric constant tensor:
#      x y z
#    x 4.165160 0.137440 -0.240350 
#    y 0.137440 3.905190 0.083000 
#    z -0.240350 0.083000 4.001330 
# 
# 
# High freq. dielectric constant tensor:
#      x y z
#    x 1.842290 0.004540 -0.006820 
#    y 0.004540 1.835270 0.011320 
#    z -0.006820 0.011320 1.837490 
# 
# From -- ./inp_files/279902.got.cif
#   From: 2010.06.25/outbox.cif.g09.slc.cpg/sg2_140_cif.got.tgz:279902.got - 2010.06.27 13:26:56.
