data_PCOD8020350
_publ_section_title
;
Structure prediction by ZEFSAII (Michael W. Deem and Ramdas Pophale) SiO2 
 PCOD8020350
Probable space group: P -1
;
_chemical_formula_sum "Si O2"
_cell_formula_units_Z 16
_cell_length_a 13.645893
_cell_length_b 12.390934
_cell_length_c 5.291489
_cell_angle_alpha 91.905467
_cell_angle_beta 56.077232
_cell_angle_gamma 77.834829
_cell_volume 713.091944
_symmetry_space_group_name_H-M "P -1"
_symmetry_group_IT_number 2
_symmetry_cell_setting 'triclinic'
loop_
_space_group_symop_operation_xyz
x,y,z
-x,-y,-z
loop_
_atom_site_type_symbol
_atom_site_label
_atom_site_fract_x
_atom_site_fract_y
_atom_site_fract_z
Si Si1 0.279157 0.430277 0.021982
Si Si2 0.267810 0.227204 0.770527
Si Si3 0.536050 0.386026 0.783813
Si Si4 0.986591 0.768361 0.948323
Si Si5 0.778586 0.433734 0.368935
Si Si6 0.515218 0.819956 0.883259
Si Si7 0.663981 0.959820 0.985793
Si Si8 0.941636 0.902303 0.505653
O O1 0.247262 0.482370 0.348644
O O2 0.249163 0.309614 0.049575
O O3 0.425121 0.405423 0.743947
O O4 0.203737 0.505044 0.910699
O O5 0.141276 0.258618 0.797298
O O6 0.376887 0.252448 0.454485
O O7 0.305557 0.094652 0.783054
O O8 0.670685 0.372627 0.472888
O O9 0.500000 0.500000 0.000000
O O10 0.544303 0.270245 0.911752
O O11 0.011227 0.846845 0.145250
O O12 0.969515 0.819100 0.696223
O O13 0.095366 0.656763 0.764260
O O14 0.576242 0.891181 0.987198
O O15 0.407221 0.908114 0.888152
O O16 0.795266 0.945612 0.658186
O O17 0.000000 0.000000 0.500000
#
# Coordination Sequence:
#
# PCOD8020350 Si02
#       8
#     2   2   2   2   2   2   2   2
#     4  11  23  42  68  96 137 178 220 287 335 397
#     4  11  22  41  67  95 138 175 228 274 350 391
#     4  10  22  42  67  96 135 175 220 279 341 396
#     4  11  25  44  69  95 136 176 222 283 330 415
#     4  11  25  43  65 102 135 175 235 269 337 406
#     4  11  21  42  67  96 136 174 230 278 335 402
#     4  10  23  40  66  99 132 176 228 280 333 405
#     4  11  24  46  68  96 137 179 223 276 347 396
#
# _framework density 22.437498000000001
#
# number of rings (size 3 to 8) (size 9 to 14) (size 15 to 20)
#    0.000    1.250    2.500    3.375    1.750    2.000 
#    2.250    0.000    0.000    0.000    0.000    0.000 
#    0.000    0.000    0.000    0.000    0.000    0.000 
#
# Total GULP energy -198276.119882 kJ/mol
# GULP energy per Si atom -12392.257493 kJ/mol
# Density = 2.238643 g / cm^3
# Si number density = 22.437498 Si / 1000 Ang^3
#
#
#
# Elastic Constant Matrix: (Units=GPa)
#
#
# Indices 1 2 3 4 5 6 
#
# 1 91.4862 48.6659 22.3755 14.7193 1.1228 -14.3330
# 2 48.6659 124.2402 22.8875 10.2965 -14.4243 -8.5880
# 3 22.3755 22.8875 64.5872 10.3029 0.4209 -9.2689
# 4 14.7193 10.2965 10.3029 27.0233 -2.6355 -1.3490
# 5 1.1228 -14.4243 0.4209 -2.6355 37.8000 9.9106
# 6 -14.3330 -8.5880 -9.2689 -1.3490 9.9106 43.2415
#
#
#
# Elastic Compliance Matrix: (Units=1/GPa)
#
#
# Indices 1 2 3 4 5 6 
#
# 1 0.016160 -0.005642 -0.001938 -0.006098 -0.004243 0.004603
# 2 -0.005642 0.011128 -0.002208 0.000079 0.004765 -0.001223
# 3 -0.001938 -0.002208 0.018219 -0.005103 -0.002173 0.003163
# 4 -0.006098 0.000079 -0.005103 0.042492 0.003932 -0.002675
# 5 -0.004243 0.004765 -0.002173 0.003932 0.030756 -0.007852
# 6 0.004603 -0.001223 0.003163 -0.002675 -0.007852 0.026803
#
#
# Mechanical properties :
#
#
# Convention : Reuss Voigt Hill
#
# Bulk Modulus (GPa) = 38.56436 52.01903 45.29170
# Shear Modulus (GPa) = 28.77229 34.03861 31.40545
#
# Velocity S-wave (km/s) = 3.58485 3.89915 3.74530
# Velocity P-wave (km/s) = 5.86171 6.59586 6.23959
#
# Compressibility (1/GPa) = 0.02593067
#
# Stress axis : x y z
#
# Youngs Moduli (GPa) = 61.88017 89.86465 54.88799
#
# Poissons Ratio (x) = 0.50703 0.10639
# Poissons Ratio (y) = 0.34914 0.12118
# Poissons Ratio (z) = 0.11994 0.19840
#
# Static dielectric constant tensor:
#      x y z
#    x 4.579620 0.147960 -0.284050 
#    y 0.147960 4.241830 -0.019740 
#    z -0.284050 -0.019740 4.035270 
# 
# 
# High freq. dielectric constant tensor:
#      x y z
#    x 1.896050 -0.003450 -0.005570 
#    y -0.003450 1.890710 0.003210 
#    z -0.005570 0.003210 1.866770 
# 
# From -- ./inp_files/71918.got.cif
#   From: 2010.06.25/outbox.cif.g09.slc.cpg/sg2_36_cif.got.tgz:71918.got - 2010.06.27 13:26:56.
