data_PCOD8020107
_publ_section_title
;
Structure prediction by ZEFSAII (Michael W. Deem and Ramdas Pophale) SiO2 
 PCOD8020107
Probable space group: P -1
;
_chemical_formula_sum "Si O2"
_cell_formula_units_Z 16
_cell_length_a 17.853194
_cell_length_b 17.603328
_cell_length_c 9.301091
_cell_angle_alpha 47.714432
_cell_angle_beta 132.595205
_cell_angle_gamma 159.217824
_cell_volume 754.485314
_symmetry_space_group_name_H-M "P -1"
_symmetry_group_IT_number 2
_symmetry_cell_setting 'triclinic'
loop_
_space_group_symop_operation_xyz
x,y,z
-x,-y,-z
loop_
_atom_site_type_symbol
_atom_site_label
_atom_site_fract_x
_atom_site_fract_y
_atom_site_fract_z
Si Si1 0.338121 0.280799 0.651167
Si Si2 0.430695 0.565901 0.972126
Si Si3 0.957489 0.082993 0.496586
Si Si4 0.046738 0.383280 0.304138
Si Si5 0.719230 0.187907 0.629995
Si Si6 0.065959 0.402420 0.629826
Si Si7 0.224280 0.167967 0.145359
Si Si8 0.295961 0.795555 0.085912
O O1 0.500000 0.500000 0.500000
O O2 0.160171 0.187587 0.624959
O O3 0.212381 0.089528 0.630357
O O4 0.471084 0.330323 0.873879
O O5 0.235809 0.469690 0.817724
O O6 0.618669 0.751219 0.863779
O O7 0.344940 0.374076 0.100743
O O8 0.057244 0.285748 0.355808
O O9 0.824323 0.953548 0.634939
O O10 0.982471 0.301881 0.489318
O O11 0.268013 0.646308 0.254963
O O12 0.887374 0.316823 0.102817
O O13 0.831865 0.395875 0.491440
O O14 0.685675 0.135011 0.822286
O O15 0.863444 0.224480 0.702237
O O16 0.500000 0.000000 0.500000
O O17 0.000000 0.000000 0.000000
O O18 0.500000 0.000000 0.000000
#
# Coordination Sequence:
#
# PCOD8020107 Si02
#       8
#     2   2   2   2   2   2   2   2
#     4  11  24  43  61  93 136 173 224 277 331 396
#     4  11  24  40  66  95 131 175 220 281 332 394
#     4  11  24  42  66  90 131 178 221 279 331 397
#     4  10  23  42  65  93 126 170 217 271 330 392
#     4  10  22  42  65  95 131 167 216 271 330 397
#     4  10  23  41  64  95 130 167 218 276 328 390
#     4  11  22  40  64  94 129 168 228 274 326 394
#     4  10  22  42  68  96 129 169 216 269 330 404
#
# _framework density 21.206512
#
# number of rings (size 3 to 8) (size 9 to 14) (size 15 to 20)
#    0.000    1.500    2.500    1.500    1.750    8.000 
#    0.000    0.000    0.000    0.000    0.000    0.000 
#    0.000    0.000    0.000    0.000    0.000    0.000 
#
# Total GULP energy -198370.604832 kJ/mol
# GULP energy per Si atom -12398.162802 kJ/mol
# Density = 2.115824 g / cm^3
# Si number density = 21.206512 Si / 1000 Ang^3
#
#
#
# Elastic Constant Matrix: (Units=GPa)
#
#
# Indices 1 2 3 4 5 6 
#
# 1 125.8321 64.4186 69.4068 2.2019 -10.4389 6.3556
# 2 64.4186 99.0598 44.6610 10.3444 -19.0174 7.8576
# 3 69.4068 44.6610 135.3100 19.9026 -19.6349 7.3416
# 4 2.2019 10.3444 19.9026 43.5802 1.1389 -3.4216
# 5 -10.4389 -19.0174 -19.6349 1.1389 34.3571 -2.4041
# 6 6.3556 7.8576 7.3416 -3.4216 -2.4041 42.2971
#
#
#
# Elastic Compliance Matrix: (Units=1/GPa)
#
#
# Indices 1 2 3 4 5 6 
#
# 1 0.015219 -0.008247 -0.006248 0.004173 -0.003618 0.000462
# 2 -0.008247 0.017308 0.000286 -0.004165 0.007240 -0.001951
# 3 -0.006248 0.000286 0.012161 -0.005552 0.005298 -0.001373
# 4 0.004173 -0.004165 -0.005552 0.026622 -0.004884 0.002986
# 5 -0.003618 0.007240 0.005298 -0.004884 0.035196 -0.000116
# 6 0.000462 -0.001951 -0.001373 0.002986 -0.000116 0.024409
#
#
# Mechanical properties :
#
#
# Convention : Reuss Voigt Hill
#
# Bulk Modulus (GPa) = 61.45977 79.68609 70.57293
# Shear Modulus (GPa) = 30.34798 36.16125 33.25461
#
# Velocity S-wave (km/s) = 3.78705 4.13388 3.96426
# Velocity P-wave (km/s) = 6.94023 7.77452 7.36919
#
# Compressibility (1/GPa) = 0.01627081
#
# Stress axis : x y z
#
# Youngs Moduli (GPa) = 65.70758 57.77580 82.23040
#
# Poissons Ratio (x) = 0.47646 0.51380
# Poissons Ratio (y) = 0.54187 -0.02355
# Poissons Ratio (z) = 0.41056 -0.01654
#
# Static dielectric constant tensor:
#      x y z
#    x 3.982340 -0.013230 -0.263870 
#    y -0.013230 3.945440 -0.050880 
#    z -0.263870 -0.050880 3.869810 
# 
# 
# High freq. dielectric constant tensor:
#      x y z
#    x 1.827310 -0.005060 -0.013440 
#    y -0.005060 1.845430 0.004730 
#    z -0.013440 0.004730 1.834380 
# 
# From -- ./inp_files/336716.got.cif
#   From: 2010.06.25/outbox.cif.g09.slc.cpg/sg2_169_cif.got.tgz:336716.got - 2010.06.27 13:26:56.
