data_PCOD8020691
_publ_section_title
;
Structure prediction by ZEFSAII (Michael W. Deem and Ramdas Pophale) SiO2 
 PCOD8020691
Probable space group: P -1
;
_chemical_formula_sum "Si O2"
_cell_formula_units_Z 14
_cell_length_a 8.591453
_cell_length_b 11.881671
_cell_length_c 11.306730
_cell_angle_alpha 42.813546
_cell_angle_beta 59.208561
_cell_angle_gamma 47.385038
_cell_volume 576.996371
_symmetry_space_group_name_H-M "P -1"
_symmetry_group_IT_number 2
_symmetry_cell_setting 'triclinic'
loop_
_space_group_symop_operation_xyz
x,y,z
-x,-y,-z
loop_
_atom_site_type_symbol
_atom_site_label
_atom_site_fract_x
_atom_site_fract_y
_atom_site_fract_z
Si Si1 0.463112 0.670229 0.498166
Si Si2 0.923387 0.359084 0.933239
Si Si3 0.130459 0.975440 0.778175
Si Si4 0.883268 0.386994 0.662859
Si Si5 0.586143 0.713090 0.917563
Si Si6 0.333210 0.015985 0.456942
Si Si7 0.659739 0.620360 0.223365
O O1 0.677565 0.467845 0.600444
O O2 0.422737 0.821987 0.497029
O O3 0.499396 0.740124 0.302224
O O4 0.291539 0.601897 0.618079
O O5 0.816617 0.426411 0.794659
O O6 0.737331 0.487467 0.000021
O O7 0.120579 0.388172 0.843441
O O8 0.001672 0.132740 0.096849
O O9 0.361598 0.815853 0.860485
O O10 0.133873 0.050043 0.586139
O O11 0.029304 0.156683 0.765416
O O12 0.000000 0.500000 0.500000
O O13 0.719266 0.812396 0.746490
O O14 0.549230 0.728757 0.060505
O O15 0.500000 0.000000 0.500000
#
# Coordination Sequence:
#
# PCOD8020691 Si02
#       7
#     2   2   2   2   2   2   2
#     4  11  24  48  68  98 137 184 222 276 339 403
#     4  12  24  43  68 101 136 176 229 278 334 402
#     4  11  24  43  70 104 130 175 231 284 334 389
#     4  12  22  43  71 100 133 174 233 281 326 394
#     4  11  23  44  69  99 135 177 219 280 343 397
#     4  10  22  42  71  99 128 173 231 275 333 391
#     4  11  26  44  69  95 142 183 222 268 347 408
#
# _framework density 24.263582
#
# number of rings (size 3 to 8) (size 9 to 14) (size 15 to 20)
#    0.000    0.857    1.429    7.286    0.000    0.571 
#    5.143    1.429    0.000    0.000    0.000    0.000 
#    0.000    0.000    0.000    0.000    0.000    0.000 
#
# Total GULP energy -173576.615478 kJ/mol
# GULP energy per Si atom -12398.329677 kJ/mol
# Density = 2.420836 g / cm^3
# Si number density = 24.263582 Si / 1000 Ang^3
#
#
#
# Elastic Constant Matrix: (Units=GPa)
#
#
# Indices 1 2 3 4 5 6 
#
# 1 82.2699 49.2174 49.3818 0.6852 -22.8003 20.8455
# 2 49.2174 102.2330 27.5390 -2.8632 -6.5304 28.8727
# 3 49.3818 27.5390 135.9237 17.8058 -8.1512 13.4265
# 4 0.6852 -2.8632 17.8058 50.2406 16.6034 1.9575
# 5 -22.8003 -6.5304 -8.1512 16.6034 41.6330 2.6893
# 6 20.8455 28.8727 13.4265 1.9575 2.6893 35.2800
#
#
#
# Elastic Compliance Matrix: (Units=1/GPa)
#
#
# Indices 1 2 3 4 5 6 
#
# 1 0.026306 -0.008160 -0.005969 -0.002912 0.013602 -0.007469
# 2 -0.008160 0.015895 0.000156 0.002014 -0.002219 -0.008189
# 3 -0.005969 0.000156 0.009976 -0.003473 0.000108 -0.000213
# 4 -0.002912 0.002014 -0.003473 0.025248 -0.012087 0.000914
# 5 0.013602 -0.002219 0.000108 -0.012087 0.036503 -0.008373
# 6 -0.007469 -0.008189 -0.000213 0.000914 -0.008373 0.040128
#
#
# Mechanical properties :
#
#
# Convention : Reuss Voigt Hill
#
# Bulk Modulus (GPa) = 41.26734 63.63367 52.45051
# Shear Modulus (GPa) = 26.30485 38.38328 32.34406
#
# Velocity S-wave (km/s) = 3.29618 3.98166 3.65503
# Velocity P-wave (km/s) = 5.61527 6.88630 6.28301
#
# Compressibility (1/GPa) = 0.02423224
#
# Stress axis : x y z
#
# Youngs Moduli (GPa) = 38.01475 62.91164 100.23670
#
# Poissons Ratio (x) = 0.51334 0.59829
# Poissons Ratio (y) = 0.31019 -0.01563
# Poissons Ratio (z) = 0.22690 -0.00981
#
# Static dielectric constant tensor:
#      x y z
#    x 4.415830 0.183360 -0.307900 
#    y 0.183360 4.220950 0.344710 
#    z -0.307900 0.344710 5.376530 
# 
# 
# High freq. dielectric constant tensor:
#      x y z
#    x 1.955210 0.022430 -0.015770 
#    y 0.022430 1.956030 0.016090 
#    z -0.015770 0.016090 1.986170 
# 
# From -- ./inp_files/391828.got.cif
#   From: 2010.06.25/outbox.cif.g09.slc.cpg/sg2_196_cif.got.tgz:391828.got - 2010.06.27 13:26:56.
