data_PCOD8020917
_publ_section_title
;
Structure prediction by ZEFSAII (Michael W. Deem and Ramdas Pophale) SiO2 
 PCOD8020917
Probable space group: P -1
;
_chemical_formula_sum "Si O2"
_cell_formula_units_Z 14
_cell_length_a 9.773724
_cell_length_b 13.626307
_cell_length_c 7.493538
_cell_angle_alpha 97.706883
_cell_angle_beta 96.876846
_cell_angle_gamma 35.634214
_cell_volume 576.084198
_symmetry_space_group_name_H-M "P -1"
_symmetry_group_IT_number 2
_symmetry_cell_setting 'triclinic'
loop_
_space_group_symop_operation_xyz
x,y,z
-x,-y,-z
loop_
_atom_site_type_symbol
_atom_site_label
_atom_site_fract_x
_atom_site_fract_y
_atom_site_fract_z
Si Si1 0.250865 0.595876 0.304768
Si Si2 0.747552 0.240359 0.367945
Si Si3 0.169390 0.164084 0.939179
Si Si4 0.223959 0.020593 0.256045
Si Si5 0.148899 0.446732 0.282744
Si Si6 0.600268 0.104231 0.375981
Si Si7 0.309334 0.303837 0.899985
O O1 0.528628 0.416912 0.270615
O O2 0.199725 0.723776 0.441257
O O3 0.149399 0.558422 0.388147
O O4 0.103891 0.690476 0.121324
O O5 0.702899 0.155533 0.406023
O O6 0.977385 0.105885 0.245035
O O7 0.271939 0.211000 0.922044
O O8 0.327149 0.992415 0.816923
O O9 0.196529 0.130034 0.146732
O O10 0.305211 0.009524 0.463383
O O11 0.430971 0.827420 0.168445
O O12 0.314469 0.277672 0.382720
O O13 0.887736 0.552925 0.246552
O O14 0.268014 0.393097 0.090975
#
# Coordination Sequence:
#
# PCOD8020917 Si02
#       7
#     2   2   2   2   2   2   2
#     4   9  20  43  66  87 131 170 200 265 315 358
#     4  10  22  43  65  94 129 161 215 260 305 383
#     4  11  23  42  65  94 131 164 205 265 314 365
#     4  12  24  38  68 100 120 168 214 252 320 376
#     4   9  20  43  66  87 131 170 200 265 315 358
#     4  11  23  42  65  94 131 164 205 265 314 365
#     4  10  22  43  65  94 129 161 215 260 305 383
#
# _framework density 24.302002999999999
#
# number of rings (size 3 to 8) (size 9 to 14) (size 15 to 20)
#    0.000    1.714    2.857    0.857    0.000    2.286 
#    0.000   12.857    0.000    0.000    0.000    0.000 
#    0.000    0.000    0.000    0.000    0.000    0.000 
#
# Total GULP energy -173520.124199 kJ/mol
# GULP energy per Si atom -12394.294586 kJ/mol
# Density = 2.424669 g / cm^3
# Si number density = 24.302003 Si / 1000 Ang^3
#
#
#
# Elastic Constant Matrix: (Units=GPa)
#
#
# Indices 1 2 3 4 5 6 
#
# 1 60.7446 43.6049 52.4614 1.6055 5.9491 -2.8541
# 2 43.6049 162.6966 45.9328 -19.7416 -16.7316 -22.5724
# 3 52.4614 45.9328 82.3851 -10.0659 -4.2395 0.9745
# 4 1.6055 -19.7416 -10.0659 49.1665 2.2039 -1.4290
# 5 5.9491 -16.7316 -4.2395 2.2039 34.1253 11.9954
# 6 -2.8541 -22.5724 0.9745 -1.4290 11.9954 45.9329
#
#
#
# Elastic Compliance Matrix: (Units=1/GPa)
#
#
# Indices 1 2 3 4 5 6 
#
# 1 0.048881 -0.007133 -0.029218 -0.009582 -0.016492 0.004161
# 2 -0.007133 0.009447 -0.000053 0.003904 0.004512 0.003144
# 3 -0.029218 -0.000053 0.032212 0.006916 0.010388 -0.005023
# 4 -0.009582 0.003904 0.006916 0.023561 0.002479 0.001262
# 5 -0.016492 0.004512 0.010388 0.002479 0.038706 -0.009059
# 6 0.004161 0.003144 -0.005023 0.001262 -0.009059 0.026086
#
#
# Mechanical properties :
#
#
# Convention : Reuss Voigt Hill
#
# Bulk Modulus (GPa) = 56.39571 65.53605 60.96588
# Shear Modulus (GPa) = 19.40912 36.76677 28.08794
#
# Velocity S-wave (km/s) = 2.82913 3.89384 3.40338
# Velocity P-wave (km/s) = 5.82482 6.87327 6.37065
#
# Compressibility (1/GPa) = 0.01773185
#
# Stress axis : x y z
#
# Youngs Moduli (GPa) = 20.45798 105.85389 31.04440
#
# Poissons Ratio (x) = 0.75509 0.90705
# Poissons Ratio (y) = 0.14593 0.00163
# Poissons Ratio (z) = 0.59774 0.00557
#
# Static dielectric constant tensor:
#      x y z
#    x 4.013170 -0.299760 0.279860 
#    y -0.299760 5.068220 -0.096470 
#    z 0.279860 -0.096470 4.221610 
# 
# 
# High freq. dielectric constant tensor:
#      x y z
#    x 1.931130 -0.015230 0.025510 
#    y -0.015230 2.004090 -0.007820 
#    z 0.025510 -0.007820 1.942290 
# 
# From -- ./inp_files/203187.got.cif
#   From: 2010.06.25/outbox.cif.g09.slc.cpg/sg2_102_cif.got.tgz:203187.got - 2010.06.27 13:26:56.
