data_PCOD8020355
_publ_section_title
;
Structure prediction by ZEFSAII (Michael W. Deem and Ramdas Pophale) SiO2 
 PCOD8020355
Probable space group: P -1
;
_chemical_formula_sum "Si O2"
_cell_formula_units_Z 14
_cell_length_a 9.454346
_cell_length_b 4.980410
_cell_length_c 13.164695
_cell_angle_alpha 77.528904
_cell_angle_beta 86.230764
_cell_angle_gamma 71.302101
_cell_volume 573.305511
_symmetry_space_group_name_H-M "P -1"
_symmetry_group_IT_number 2
_symmetry_cell_setting 'triclinic'
loop_
_space_group_symop_operation_xyz
x,y,z
-x,-y,-z
loop_
_atom_site_type_symbol
_atom_site_label
_atom_site_fract_x
_atom_site_fract_y
_atom_site_fract_z
Si Si1 0.484754 0.542792 0.661435
Si Si2 0.709496 0.396502 0.163493
Si Si3 0.349733 0.283756 0.522397
Si Si4 0.720942 0.017548 0.764286
Si Si5 0.015794 0.196514 0.074871
Si Si6 0.544789 0.046125 0.106512
Si Si7 0.831465 0.054499 0.539153
O O1 0.349773 0.728517 0.723564
O O2 0.432147 0.297875 0.623245
O O3 0.521136 0.782328 0.567206
O O4 0.631147 0.362107 0.733863
O O5 0.668543 0.739859 0.152869
O O6 0.884880 0.244726 0.159443
O O7 0.623923 0.297234 0.082194
O O8 0.250049 0.070989 0.535654
O O9 0.243094 0.605461 0.475374
O O10 0.594964 0.868413 0.814312
O O11 0.833560 0.953797 0.858996
O O12 0.808999 0.910766 0.661644
O O13 0.000000 0.500000 0.000000
O O14 0.000000 0.000000 0.000000
O O15 0.500000 0.000000 0.000000
O O16 0.000000 0.000000 0.500000
#
# Coordination Sequence:
#
# PCOD8020355 Si02
#       7
#     2   2   2   2   2   2   2
#     4   9  22  42  70 102 130 185 223 288 332 402
#     4  11  23  40  65  95 125 169 223 267 337 397
#     4  10  22  42  67  96 142 172 231 275 336 398
#     4  10  24  44  68 100 136 178 227 280 339 401
#     4  12  27  47  66  97 138 179 221 282 345 403
#     4  11  22  41  67  93 125 167 227 281 330 393
#     4  11  24  42  65 102 140 183 220 277 340 413
#
# _framework density 24.419789999999999
#
# number of rings (size 3 to 8) (size 9 to 14) (size 15 to 20)
#    0.000    1.429    0.000    4.286    2.000   13.143 
#    2.571    0.000    0.000    0.000    0.000    0.000 
#    0.000    0.000    0.000    0.000    0.000    0.000 
#
# Total GULP energy -173513.539376 kJ/mol
# GULP energy per Si atom -12393.824241 kJ/mol
# Density = 2.436421 g / cm^3
# Si number density = 24.419790 Si / 1000 Ang^3
#
#
#
# Elastic Constant Matrix: (Units=GPa)
#
#
# Indices 1 2 3 4 5 6 
#
# 1 161.0932 43.2717 38.2690 0.1471 -10.1442 -11.5818
# 2 43.2717 77.3218 26.3767 13.0039 1.2197 4.2701
# 3 38.2690 26.3767 95.1265 -9.3482 -2.1761 -16.9731
# 4 0.1471 13.0039 -9.3482 33.0144 -5.6193 3.6812
# 5 -10.1442 1.2197 -2.1761 -5.6193 48.7609 3.1401
# 6 -11.5818 4.2701 -16.9731 3.6812 3.1401 35.4971
#
#
#
# Elastic Compliance Matrix: (Units=1/GPa)
#
#
# Indices 1 2 3 4 5 6 
#
# 1 0.007979 -0.004334 -0.001458 0.001312 0.001717 0.002139
# 2 -0.004334 0.018984 -0.005355 -0.008792 -0.002297 -0.005143
# 3 -0.001458 -0.005355 0.014281 0.005570 0.000700 0.006357
# 4 0.001312 -0.008792 0.005570 0.036164 0.004911 -0.000036
# 5 0.001717 -0.002297 0.000700 0.004911 0.021601 -0.001249
# 6 0.002139 -0.005143 0.006357 -0.000036 -0.001249 0.032642
#
#
# Mechanical properties :
#
#
# Convention : Reuss Voigt Hill
#
# Bulk Modulus (GPa) = 52.76784 61.04180 56.90482
# Shear Modulus (GPa) = 31.19924 38.49608 34.84766
#
# Velocity S-wave (km/s) = 3.57826 3.97474 3.78170
# Velocity P-wave (km/s) = 6.22314 6.79086 6.51319
#
# Compressibility (1/GPa) = 0.01895094
#
# Stress axis : x y z
#
# Youngs Moduli (GPa) = 125.33228 52.67688 70.02120
#
# Poissons Ratio (x) = 0.22828 0.10211
# Poissons Ratio (y) = 0.54314 0.37493
# Poissons Ratio (z) = 0.18277 0.28206
#
# Static dielectric constant tensor:
#      x y z
#    x 4.651960 -0.012550 -0.285820 
#    y -0.012550 4.404040 -0.011740 
#    z -0.285820 -0.011740 4.645750 
# 
# 
# High freq. dielectric constant tensor:
#      x y z
#    x 1.973010 -0.003560 -0.008120 
#    y -0.003560 1.972940 0.003530 
#    z -0.008120 0.003530 1.979400 
# 
# From -- ./inp_files/106454.got.cif
#   From: 2010.06.25/outbox.cif.g09.slc.cpg/sg2_54_cif.got.tgz:106454.got - 2010.06.27 13:26:56.
