data_PCOD8020030
_publ_section_title
;
Structure prediction by ZEFSAII (Michael W. Deem and Ramdas Pophale) SiO2 
 PCOD8020030
Probable space group: P -1
;
_chemical_formula_sum "Si O2"
_cell_formula_units_Z 14
_cell_length_a 5.749052
_cell_length_b 13.197688
_cell_length_c 23.339338
_cell_angle_alpha 22.409515
_cell_angle_beta 59.672445
_cell_angle_gamma 59.792868
_cell_volume 579.147493
_symmetry_space_group_name_H-M "P -1"
_symmetry_group_IT_number 2
_symmetry_cell_setting 'triclinic'
loop_
_space_group_symop_operation_xyz
x,y,z
-x,-y,-z
loop_
_atom_site_type_symbol
_atom_site_label
_atom_site_fract_x
_atom_site_fract_y
_atom_site_fract_z
Si Si1 0.214903 0.111727 0.654710
Si Si2 0.817802 0.051904 0.937776
Si Si3 0.622373 0.354449 0.616118
Si Si4 0.646341 0.620302 0.678548
Si Si5 0.707398 0.088033 0.122982
Si Si6 0.410437 0.344403 0.199804
Si Si7 0.095073 0.883323 0.609233
O O1 0.330223 0.398589 0.476178
O O2 0.893867 0.167838 0.662420
O O3 0.306537 0.991474 0.767911
O O4 0.326137 0.876467 0.719714
O O5 0.807247 0.366556 0.761311
O O6 0.985142 0.901478 0.943391
O O7 0.500000 0.000000 0.000000
O O8 0.000000 0.000000 0.000000
O O9 0.500000 0.500000 0.500000
O O10 0.427062 0.143184 0.775829
O O11 0.679649 0.588419 0.759462
O O12 0.324198 0.635623 0.698575
O O13 0.767023 0.878251 0.500789
O O14 0.541530 0.381217 0.981892
O O15 0.153508 0.211788 0.273452
O O16 0.000000 0.000000 0.500000
#
# Coordination Sequence:
#
# PCOD8020030 Si02
#       7
#     2   2   2   2   2   2   2
#     4  10  23  43  67  96 131 180 229 291 347 424
#     4  12  27  46  73 105 145 187 232 291 352 425
#     4   9  22  45  62  93 133 176 233 278 351 415
#     4  10  22  42  64  98 133 184 229 287 347 417
#     4  11  24  42  68  98 137 179 227 291 350 420
#     4  11  22  40  68  98 134 172 231 291 348 418
#     4   9  21  41  62  93 133 174 232 284 345 407
#
# _framework density 24.173462000000001
#
# number of rings (size 3 to 8) (size 9 to 14) (size 15 to 20)
#    0.000    1.714    1.429    1.286    6.000    4.000 
#   20.571    0.000    0.000    0.000    0.000    0.000 
#    0.000    0.000    0.000    0.000    0.000    0.000 
#
# Total GULP energy -173438.257065 kJ/mol
# GULP energy per Si atom -12388.446933 kJ/mol
# Density = 2.411844 g / cm^3
# Si number density = 24.173462 Si / 1000 Ang^3
#
#
#
# Elastic Constant Matrix: (Units=GPa)
#
#
# Indices 1 2 3 4 5 6 
#
# 1 92.7282 2.8689 39.2993 -2.9323 -0.0844 -29.8319
# 2 2.8689 70.6291 36.0783 -27.2461 -1.1368 -21.6026
# 3 39.2993 36.0783 151.9217 -16.3584 -1.1885 -22.2693
# 4 -2.9323 -27.2461 -16.3584 42.5406 -11.9326 9.1401
# 5 -0.0844 -1.1368 -1.1885 -11.9326 33.4568 -1.7316
# 6 -29.8319 -21.6026 -22.2693 9.1401 -1.7316 34.2236
#
#
#
# Elastic Compliance Matrix: (Units=1/GPa)
#
#
# Indices 1 2 3 4 5 6 
#
# 1 0.017600 0.006651 -0.003529 0.000814 0.001320 0.017093
# 2 0.006651 0.026618 -0.004031 0.014300 0.006732 0.016498
# 3 -0.003529 -0.004031 0.008483 0.000588 0.000353 -0.000239
# 4 0.000814 0.014300 0.000588 0.036536 0.013594 0.001048
# 5 0.001320 0.006732 0.000353 0.013594 0.035178 0.003779
# 6 0.017093 0.016498 -0.000239 0.001048 0.003779 0.054288
#
#
# Mechanical properties :
#
#
# Convention : Reuss Voigt Hill
#
# Bulk Modulus (GPa) = 19.65265 52.41909 36.03587
# Shear Modulus (GPa) = 25.31869 37.84637 31.58253
#
# Velocity S-wave (km/s) = 3.23983 3.96108 3.61847
# Velocity P-wave (km/s) = 4.70562 6.53084 5.69187
#
# Compressibility (1/GPa) = 0.05088372
#
# Stress axis : x y z
#
# Youngs Moduli (GPa) = 56.81858 37.56815 117.87772
#
# Poissons Ratio (x) = -0.24985 0.41596
# Poissons Ratio (y) = -0.37788 0.47516
# Poissons Ratio (z) = 0.20050 0.15143
#
# Static dielectric constant tensor:
#      x y z
#    x 4.989370 -0.362550 -0.524370 
#    y -0.362550 4.062170 -0.245090 
#    z -0.524370 -0.245090 5.028090 
# 
# 
# High freq. dielectric constant tensor:
#      x y z
#    x 1.962440 -0.023040 0.003620 
#    y -0.023040 1.930990 -0.016820 
#    z 0.003620 -0.016820 1.975450 
# 
# From -- ./inp_files/84304.got.cif
#   From: 2010.06.25/outbox.cif.g09.slc.cpg/sg2_43_cif.got.tgz:84304.got - 2010.06.27 13:26:56.
