data_PCOD8020137
_publ_section_title
;
Structure prediction by ZEFSAII (Michael W. Deem and Ramdas Pophale) SiO2 
 PCOD8020137
Probable space group: P -1
;
_chemical_formula_sum "Si O2"
_cell_formula_units_Z 16
_cell_length_a 9.107040
_cell_length_b 8.260399
_cell_length_c 11.503685
_cell_angle_alpha 66.539468
_cell_angle_beta 63.943001
_cell_angle_gamma 88.664060
_cell_volume 701.003241
_symmetry_space_group_name_H-M "P -1"
_symmetry_group_IT_number 2
_symmetry_cell_setting 'triclinic'
loop_
_space_group_symop_operation_xyz
x,y,z
-x,-y,-z
loop_
_atom_site_type_symbol
_atom_site_label
_atom_site_fract_x
_atom_site_fract_y
_atom_site_fract_z
Si Si1 0.240853 0.543621 0.696348
Si Si2 0.381960 0.236902 0.119476
Si Si3 0.511412 0.489105 0.800869
Si Si4 0.297299 0.690944 0.390943
Si Si5 0.128358 0.861988 0.767898
Si Si6 0.116482 0.182761 0.946721
Si Si7 0.398578 0.015317 0.816934
Si Si8 0.935579 0.049721 0.630796
O O1 0.402668 0.552696 0.717995
O O2 0.282646 0.552216 0.542680
O O3 0.158259 0.714668 0.705998
O O4 0.117611 0.352469 0.812539
O O5 0.393287 0.345626 0.205192
O O6 0.541702 0.138112 0.083088
O O7 0.212007 0.097638 0.223321
O O8 0.387038 0.360633 0.968214
O O9 0.654384 0.398071 0.719096
O O10 0.440067 0.858901 0.330098
O O11 0.122920 0.758363 0.408230
O O12 0.285543 0.922683 0.778115
O O13 0.089693 0.042357 0.666891
O O14 0.961502 0.765401 0.920922
O O15 0.303215 0.136668 0.899353
O O16 0.000000 0.000000 0.000000
O O17 0.000000 0.000000 0.500000
#
# Coordination Sequence:
#
# PCOD8020137 Si02
#       8
#     2   2   2   2   2   2   2   2
#     4  12  22  43  67  99 134 175 221 272 337 391
#     4  10  24  43  69  95 131 175 230 269 331 387
#     4  11  23  43  70  99 127 174 228 283 316 388
#     4  11  25  42  71  96 136 177 220 275 329 396
#     4  11  23  42  69  95 137 177 219 272 331 396
#     4  10  23  40  63  99 128 168 219 276 324 388
#     4  10  22  42  66 100 128 175 225 272 325 390
#     4  11  24  45  62  99 137 176 215 269 338 393
#
# _framework density 22.824431000000001
#
# number of rings (size 3 to 8) (size 9 to 14) (size 15 to 20)
#    0.000    1.250    3.750    1.500    1.750    2.500 
#    4.500    0.625    0.000    0.000    0.000    0.000 
#    0.000    0.000    0.000    0.000    0.000    0.000 
#
# Total GULP energy -198353.027586 kJ/mol
# GULP energy per Si atom -12397.064224 kJ/mol
# Density = 2.277248 g / cm^3
# Si number density = 22.824431 Si / 1000 Ang^3
#
#
#
# Elastic Constant Matrix: (Units=GPa)
#
#
# Indices 1 2 3 4 5 6 
#
# 1 72.4626 21.0741 7.6570 -5.7860 9.9156 -25.2887
# 2 21.0741 102.4554 19.4045 8.5981 1.7765 -18.4213
# 3 7.6570 19.4045 76.5904 4.7534 10.1472 -15.5393
# 4 -5.7860 8.5981 4.7534 35.5823 -9.9192 -3.2294
# 5 9.9156 1.7765 10.1472 -9.9192 26.3378 -0.3966
# 6 -25.2887 -18.4213 -15.5393 -3.2294 -0.3966 39.5891
#
#
#
# Elastic Compliance Matrix: (Units=1/GPa)
#
#
# Indices 1 2 3 4 5 6 
#
# 1 0.019760 -0.002293 0.001856 0.002761 -0.006772 0.012441
# 2 -0.002293 0.011324 -0.001882 -0.002634 -0.000125 0.002850
# 3 0.001856 -0.001882 0.015803 -0.002931 -0.007671 0.006197
# 4 0.002761 -0.002634 -0.002931 0.033371 0.012869 0.002239
# 5 -0.006772 -0.000125 -0.007671 0.012869 0.048240 -0.005862
# 6 0.012441 0.002850 0.006197 0.002239 -0.005862 0.037089
#
#
# Mechanical properties :
#
#
# Convention : Reuss Voigt Hill
#
# Bulk Modulus (GPa) = 23.66950 38.64219 31.15585
# Shear Modulus (GPa) = 27.12843 33.86003 30.49423
#
# Velocity S-wave (km/s) = 3.45130 3.85580 3.65915
# Velocity P-wave (km/s) = 5.12589 6.06547 5.61536
#
# Compressibility (1/GPa) = 0.04224846
#
# Stress axis : x y z
#
# Youngs Moduli (GPa) = 50.60733 88.30821 63.27893
#
# Poissons Ratio (x) = 0.20252 -0.11742
# Poissons Ratio (y) = 0.11606 0.11906
# Poissons Ratio (z) = -0.09391 0.16616
#
# Static dielectric constant tensor:
#      x y z
#    x 4.235870 -0.349840 -0.108330 
#    y -0.349840 4.295230 0.063760 
#    z -0.108330 0.063760 4.248360 
# 
# 
# High freq. dielectric constant tensor:
#      x y z
#    x 1.897230 -0.015090 0.004150 
#    y -0.015090 1.906060 0.007030 
#    z 0.004150 0.007030 1.903230 
# 
# From -- ./inp_files/258854.got.cif
#   From: 2010.06.25/outbox.cif.g09.slc.cpg/sg2_130_cif.got.tgz:258854.got - 2010.06.27 13:26:56.
