data_PCOD8020268
_publ_section_title
;
Structure prediction by ZEFSAII (Michael W. Deem and Ramdas Pophale) SiO2 
 PCOD8020268
Probable space group: P -1
;
_chemical_formula_sum "Si O2"
_cell_formula_units_Z 16
_cell_length_a 5.465107
_cell_length_b 27.300174
_cell_length_c 11.246324
_cell_angle_alpha 156.670207
_cell_angle_beta 75.584342
_cell_angle_gamma 104.386078
_cell_volume 642.715700
_symmetry_space_group_name_H-M "P -1"
_symmetry_group_IT_number 2
_symmetry_cell_setting 'triclinic'
loop_
_space_group_symop_operation_xyz
x,y,z
-x,-y,-z
loop_
_atom_site_type_symbol
_atom_site_label
_atom_site_fract_x
_atom_site_fract_y
_atom_site_fract_z
Si Si1 0.464404 0.972623 0.254262
Si Si2 0.261454 0.794947 0.372044
Si Si3 0.572270 0.362540 0.205783
Si Si4 0.817094 0.610094 0.293336
Si Si5 0.856591 0.226155 0.239509
Si Si6 0.347149 0.559479 0.383903
Si Si7 0.765923 0.855071 0.164570
Si Si8 0.291878 0.297655 0.733909
O O1 0.581555 0.891024 0.160463
O O2 0.673683 0.070359 0.392208
O O3 0.234188 0.045225 0.505464
O O4 0.372118 0.878332 0.947049
O O5 0.463779 0.772574 0.404315
O O6 0.967343 0.789607 0.437073
O O7 0.262646 0.688080 0.033840
O O8 0.500000 0.500000 0.500000
O O9 0.718000 0.368203 0.326518
O O10 0.323162 0.273935 0.051707
O O11 0.646521 0.566543 0.329741
O O12 0.648847 0.642411 0.269941
O O13 0.956374 0.746434 0.611415
O O14 0.000000 0.500000 0.000000
O O15 0.784307 0.367150 0.541010
O O16 0.965085 0.165491 0.971042
O O17 0.250663 0.416087 0.087753
#
# Coordination Sequence:
#
# PCOD8020268 Si02
#       8
#     2   2   2   2   2   2   2   2
#     4  10  23  45  69 102 144 193 247 292 355 443
#     4  11  28  46  72 106 151 197 234 303 371 438
#     4  11  22  41  68 109 150 180 230 302 379 446
#     4  12  26  45  74 105 144 192 251 301 358 433
#     4  12  23  41  76 102 138 186 250 305 352 425
#     4  12  25  44  71 110 143 187 244 301 376 435
#     4  10  22  42  67 104 143 188 241 294 363 433
#     4  12  27  48  71 106 150 194 244 298 371 430
#
# _framework density 24.894365000000001
#
# number of rings (size 3 to 8) (size 9 to 14) (size 15 to 20)
#    0.000    0.750    5.000    1.500    5.250    2.500 
#    0.000    1.250    0.000    0.000    0.000    0.000 
#    0.000    0.000    0.000    0.000    0.000    0.000 
#
# Total GULP energy -198239.771094 kJ/mol
# GULP energy per Si atom -12389.985693 kJ/mol
# Density = 2.483770 g / cm^3
# Si number density = 24.894365 Si / 1000 Ang^3
#
#
#
# Elastic Constant Matrix: (Units=GPa)
#
#
# Indices 1 2 3 4 5 6 
#
# 1 100.3248 23.6253 25.1518 2.0162 10.1432 0.0570
# 2 23.6253 85.5396 16.1484 5.9298 3.0345 -5.5219
# 3 25.1518 16.1484 100.2015 22.9841 25.6168 -3.4662
# 4 2.0162 5.9298 22.9841 37.3626 -4.6403 6.7480
# 5 10.1432 3.0345 25.6168 -4.6403 36.7906 -2.4164
# 6 0.0570 -5.5219 -3.4662 6.7480 -2.4164 30.1499
#
#
#
# Elastic Compliance Matrix: (Units=1/GPa)
#
#
# Indices 1 2 3 4 5 6 
#
# 1 0.011332 -0.002801 -0.002505 0.001467 -0.001045 -0.001235
# 2 -0.002801 0.012930 -0.000976 -0.001742 0.000341 0.002679
# 3 -0.002505 -0.000976 0.016821 -0.012213 -0.012251 0.003512
# 4 0.001467 -0.001742 -0.012213 0.037669 0.012392 -0.009164
# 5 -0.001045 0.000341 -0.012251 0.012392 0.037461 -0.001115
# 6 -0.001235 0.002679 0.003512 -0.009164 -0.001115 0.036026
#
#
# Mechanical properties :
#
#
# Convention : Reuss Voigt Hill
#
# Bulk Modulus (GPa) = 35.06474 46.21299 40.63887
# Shear Modulus (GPa) = 28.68463 35.60331 32.14397
#
# Velocity S-wave (km/s) = 3.39817 3.78587 3.59725
# Velocity P-wave (km/s) = 5.43256 6.14120 5.79772
#
# Compressibility (1/GPa) = 0.02851868
#
# Stress axis : x y z
#
# Youngs Moduli (GPa) = 88.24398 77.33999 59.44996
#
# Poissons Ratio (x) = 0.21665 0.14894
# Poissons Ratio (y) = 0.24720 0.05800
# Poissons Ratio (z) = 0.22107 0.07545
#
# Static dielectric constant tensor:
#      x y z
#    x 4.269900 -0.133860 0.143930 
#    y -0.133860 4.800210 -0.215290 
#    z 0.143930 -0.215290 4.781620 
# 
# 
# High freq. dielectric constant tensor:
#      x y z
#    x 1.977400 -0.000150 0.014990 
#    y -0.000150 1.979200 0.003540 
#    z 0.014990 0.003540 2.003400 
# 
# From -- ./inp_files/371616.got.cif
#   From: 2010.06.25/outbox.cif.g09.slc.cpg/sg2_186_cif.got.tgz:371616.got - 2010.06.27 13:26:56.
