data_PCOD8020431
_publ_section_title
;
Structure prediction by ZEFSAII (Michael W. Deem and Ramdas Pophale) SiO2 
 PCOD8020431
Probable space group: P -1
;
_chemical_formula_sum "Si O2"
_cell_formula_units_Z 16
_cell_length_a 14.041366
_cell_length_b 6.553354
_cell_length_c 18.053763
_cell_angle_alpha 47.725734
_cell_angle_beta 39.513523
_cell_angle_gamma 69.673277
_cell_volume 728.317291
_symmetry_space_group_name_H-M "P -1"
_symmetry_group_IT_number 2
_symmetry_cell_setting 'triclinic'
loop_
_space_group_symop_operation_xyz
x,y,z
-x,-y,-z
loop_
_atom_site_type_symbol
_atom_site_label
_atom_site_fract_x
_atom_site_fract_y
_atom_site_fract_z
Si Si1 0.106550 0.206107 0.301238
Si Si2 0.586335 0.379125 0.040171
Si Si3 0.649954 0.792656 0.314360
Si Si4 0.295542 0.152057 0.899801
Si Si5 0.943681 0.395159 0.476938
Si Si6 0.042711 0.843194 0.867311
Si Si7 0.500516 0.276244 0.277442
Si Si8 0.845091 0.918259 0.410420
O O1 0.084402 0.428047 0.323621
O O2 0.161468 0.957210 0.370176
O O3 0.235997 0.370095 0.121310
O O4 0.941370 0.038148 0.398649
O O5 0.482103 0.340041 0.186351
O O6 0.623700 0.086671 0.071756
O O7 0.500000 0.500000 0.000000
O O8 0.500000 0.500000 0.500000
O O9 0.695789 0.743991 0.215577
O O10 0.811056 0.897678 0.242237
O O11 0.602518 0.075266 0.276287
O O12 0.403790 0.417992 0.818177
O O13 0.109348 0.054404 0.058493
O O14 0.844552 0.597276 0.461886
O O15 0.000000 0.500000 0.500000
O O16 0.088496 0.847909 0.752383
O O17 0.000000 0.500000 0.000000
O O18 0.333820 0.111750 0.457585
#
# Coordination Sequence:
#
# PCOD8020431 Si02
#       8
#     2   2   2   2   2   2   2   2
#     4  10  22  42  68  93 138 178 236 286 339 415
#     4  11  27  43  69 102 140 185 230 289 351 415
#     4  11  26  46  73 105 141 184 234 291 353 414
#     4  11  25  47  71  99 144 182 236 286 348 421
#     4   9  21  40  66  97 130 176 230 281 342 409
#     4  12  25  46  75 104 139 187 236 290 352 417
#     4  11  26  46  67 105 142 182 232 288 353 423
#     4  11  25  41  70  98 137 180 229 286 350 414
#
# _framework density 21.968449
#
# number of rings (size 3 to 8) (size 9 to 14) (size 15 to 20)
#    0.000    1.250    1.250    2.625   10.500    5.500 
#    0.000    0.000    0.000    0.000    0.000    0.000 
#    0.000    0.000    0.000    0.000    0.000    0.000 
#
# Total GULP energy -198281.976697 kJ/mol
# GULP energy per Si atom -12392.623544 kJ/mol
# Density = 2.191845 g / cm^3
# Si number density = 21.968449 Si / 1000 Ang^3
#
#
#
# Elastic Constant Matrix: (Units=GPa)
#
#
# Indices 1 2 3 4 5 6 
#
# 1 101.4280 38.1639 41.8243 7.4891 1.5182 14.8125
# 2 38.1639 89.8012 36.6538 16.4398 5.3218 27.1724
# 3 41.8243 36.6538 142.7845 19.3511 5.4580 13.7774
# 4 7.4891 16.4398 19.3511 42.6333 3.3153 -6.4268
# 5 1.5182 5.3218 5.4580 3.3153 41.3907 -3.1143
# 6 14.8125 27.1724 13.7774 -6.4268 -3.1143 6.8110
#
#
#
# Elastic Compliance Matrix: (Units=1/GPa)
#
#
# Indices 1 2 3 4 5 6 
#
# 1 0.012444 -0.005877 -0.002867 0.001985 0.000852 0.004443
# 2 -0.005877 -0.005657 -0.004789 0.014145 0.005007 0.060675
# 3 -0.002867 -0.004789 0.008229 -0.000089 0.000301 0.008749
# 4 0.001985 0.014145 -0.000089 0.010053 -0.006761 -0.054172
# 5 0.000852 0.005007 0.000301 -0.006761 0.022596 -0.018485
# 6 0.004443 0.060675 0.008749 -0.054172 -0.018485 -0.182168
#
#
# Mechanical properties :
#
#
# Convention : Reuss Voigt Hill
#
# Bulk Modulus (GPa) = -82.99181 63.03305 -9.97938
# Shear Modulus (GPa) = -44.86183 32.65846 -6.10168
#
# Velocity S-wave (km/s) = -4.52387 3.85984 -1.66838
# Velocity P-wave (km/s) = 8.07136 6.97275 2.87468
#
# Compressibility (1/GPa) = -0.01204938
#
# Stress axis : x y z
#
# Youngs Moduli (GPa) = 80.35710 -176.76302 121.51899
#
# Poissons Ratio (x) = -1.03878 0.34838
# Poissons Ratio (y) = 0.47223 0.58199
# Poissons Ratio (z) = 0.23038 -0.84657
#
# Static dielectric constant tensor:
#      x y z
#    x 3.798290 -0.163230 0.031760 
#    y -0.163230 4.304280 0.050410 
#    z 0.031760 0.050410 4.159120 
# 
# 
# High freq. dielectric constant tensor:
#      x y z
#    x 1.860290 -0.002000 0.011110 
#    y -0.002000 1.876850 0.002390 
#    z 0.011110 0.002390 1.877530 
# 
# From -- ./inp_files/571589.got.cif
#   From: 2010.06.25/outbox.cif.g09.slc.cpg/sg2_286_cif.got.tgz:571589.got - 2010.06.27 13:26:56.
