data_PCOD8020070
_publ_section_title
;
Structure prediction by ZEFSAII (Michael W. Deem and Ramdas Pophale) SiO2 
 PCOD8020070
Probable space group: P -1
;
_chemical_formula_sum "Si O2"
_cell_formula_units_Z 12
_cell_length_a 8.625418
_cell_length_b 8.984380
_cell_length_c 9.079250
_cell_angle_alpha 113.516430
_cell_angle_beta 107.355997
_cell_angle_gamma 61.658175
_cell_volume 562.626225
_symmetry_space_group_name_H-M "P -1"
_symmetry_group_IT_number 2
_symmetry_cell_setting 'triclinic'
loop_
_space_group_symop_operation_xyz
x,y,z
-x,-y,-z
loop_
_atom_site_type_symbol
_atom_site_label
_atom_site_fract_x
_atom_site_fract_y
_atom_site_fract_z
Si Si1 0.808074 0.644889 0.958466
Si Si2 0.498518 0.691758 0.090991
Si Si3 0.685019 0.520906 0.585702
Si Si4 0.836555 0.138490 0.423912
Si Si5 0.169923 0.988088 0.954305
Si Si6 0.494940 0.816323 0.459826
O O1 0.715946 0.567351 0.779548
O O2 0.685255 0.690273 0.087282
O O3 0.822126 0.820519 0.969249
O O4 0.000000 0.500000 0.000000
O O5 0.464124 0.732258 0.268691
O O6 0.500000 0.500000 0.000000
O O7 0.345317 0.842898 0.017422
O O8 0.500000 0.500000 0.500000
O O9 0.660676 0.145236 0.453176
O O10 0.677230 0.679051 0.535626
O O11 0.842310 0.333322 0.510200
O O12 0.845862 0.075680 0.236799
O O13 0.000000 0.000000 0.500000
O O14 0.000000 0.000000 0.000000
O O15 0.500000 0.000000 0.500000
#
# Coordination Sequence:
#
# PCOD8020070 Si02
#       6
#     2   2   2   2   2   2
#     4  12  25  44  68 100 135 176 223 275 332 397
#     4  12  23  41  66  96 131 173 218 271 330 395
#     4  10  22  42  65  91 128 173 215 264 327 392
#     4  11  22  41  63  90 127 169 212 267 324 385
#     4  12  25  43  66  98 134 177 224 276 332 396
#     4  11  22  39  62  91 122 164 211 261 320 385
#
# _framework density 21.328547
#
# number of rings (size 3 to 8) (size 9 to 14) (size 15 to 20)
#    0.000    0.667    0.000   10.500    0.000    0.000 
#    0.000    2.500    0.000    0.000    0.000    0.000 
#    0.000    0.000    0.000    0.000    0.000    0.000 
#
# Total GULP energy -148796.239619 kJ/mol
# GULP energy per Si atom -12399.686635 kJ/mol
# Density = 2.128000 g / cm^3
# Si number density = 21.328547 Si / 1000 Ang^3
#
#
#
# Elastic Constant Matrix: (Units=GPa)
#
#
# Indices 1 2 3 4 5 6 
#
# 1 123.2611 55.3310 32.2007 5.6008 -23.6007 2.6028
# 2 55.3310 223.0534 41.6931 -6.5359 -4.1317 3.7111
# 3 32.2007 41.6931 151.3273 7.2905 -28.6159 -1.7929
# 4 5.6008 -6.5359 7.2905 45.5371 3.1141 8.3536
# 5 -23.6007 -4.1317 -28.6159 3.1141 24.9313 4.1102
# 6 2.6028 3.7111 -1.7929 8.3536 4.1102 42.3442
#
#
#
# Elastic Compliance Matrix: (Units=1/GPa)
#
#
# Indices 1 2 3 4 5 6 
#
# 1 0.011607 -0.002839 0.000644 -0.002545 0.011752 -0.001076
# 2 -0.002839 0.005497 -0.001744 0.001750 -0.003940 -0.000344
# 3 0.000644 -0.001744 0.009192 -0.002552 0.011204 -0.000082
# 4 -0.002545 0.001750 -0.002552 0.024202 -0.007385 -0.004163
# 5 0.011752 -0.003940 0.011204 -0.007385 0.065151 -0.004770
# 6 -0.001076 -0.000344 -0.000082 -0.004163 -0.004770 0.024993
#
#
# Mechanical properties :
#
#
# Convention : Reuss Voigt Hill
#
# Bulk Modulus (GPa) = 54.28769 84.01017 69.14893
# Shear Modulus (GPa) = 32.32909 47.12364 39.72636
#
# Velocity S-wave (km/s) = 3.89751 4.70554 4.32046
# Velocity P-wave (km/s) = 6.76479 8.30644 7.57494
#
# Compressibility (1/GPa) = 0.01842038
#
# Stress axis : x y z
#
# Youngs Moduli (GPa) = 86.15213 181.90337 108.78749
#
# Poissons Ratio (x) = 0.51638 -0.07010
# Poissons Ratio (y) = 0.24457 0.18972
# Poissons Ratio (z) = -0.05552 0.31723
#
# Static dielectric constant tensor:
#      x y z
#    x 3.613030 1.060360 2.025000 
#    y 1.060360 -3.145790 -14.310490 
#    z 2.025000 -14.310490 -23.814060 
# 
# 
# High freq. dielectric constant tensor:
#      x y z
#    x 1.821660 0.004510 -0.006640 
#    y 0.004510 1.877240 -0.000410 
#    z -0.006640 -0.000410 1.853480 
# 
# From -- ./inp_files/152283.got.cif
#   From: 2010.06.25/outbox.cif.g09.slc.cpg/sg2_77_cif.got.tgz:152283.got - 2010.06.27 13:26:56.
