data_PCOD8020798
_publ_section_title
;
Structure prediction by ZEFSAII (Michael W. Deem and Ramdas Pophale) SiO2 
 PCOD8020798
Probable space group: P -1
;
_chemical_formula_sum "Si O2"
_cell_formula_units_Z 14
_cell_length_a 12.030940
_cell_length_b 16.811212
_cell_length_c 5.318395
_cell_angle_alpha 76.153656
_cell_angle_beta 83.851796
_cell_angle_gamma 33.123415
_cell_volume 561.814353
_symmetry_space_group_name_H-M "P -1"
_symmetry_group_IT_number 2
_symmetry_cell_setting 'triclinic'
loop_
_space_group_symop_operation_xyz
x,y,z
-x,-y,-z
loop_
_atom_site_type_symbol
_atom_site_label
_atom_site_fract_x
_atom_site_fract_y
_atom_site_fract_z
Si Si1 0.948428 0.655996 0.818384
Si Si2 0.901495 0.148121 0.701717
Si Si3 0.200227 0.485565 0.374301
Si Si4 0.705674 0.117892 0.912329
Si Si5 0.373659 0.558537 0.234874
Si Si6 0.151215 0.095032 0.338041
Si Si7 0.444494 0.206488 0.284706
O O1 0.924330 0.766827 0.790593
O O2 0.722241 0.757690 0.777044
O O3 0.071852 0.561418 0.604117
O O4 0.060072 0.548620 0.116504
O O5 0.722763 0.187811 0.672747
O O6 0.826807 0.259058 0.848490
O O7 0.948180 0.169139 0.418594
O O8 0.117214 0.972363 0.855010
O O9 0.305098 0.507425 0.288825
O O10 0.374351 0.305684 0.467319
O O11 0.757849 0.998899 0.865571
O O12 0.486016 0.244210 0.012356
O O13 0.500000 0.500000 0.500000
O O14 0.500000 0.500000 0.000000
O O15 0.340555 0.973984 0.583417
#
# Coordination Sequence:
#
# PCOD8020798 Si02
#       7
#     2   2   2   2   2   2   2
#     4  12  27  48  75 103 147 194 239 296 357 425
#     4  10  22  43  63 104 134 189 229 291 364 420
#     4  12  27  49  73 105 148 189 239 295 365 422
#     4  10  23  41  71  96 144 179 240 293 355 424
#     4  12  26  42  72 101 141 180 232 286 352 426
#     4  11  24  43  73 100 144 184 242 296 358 424
#     4  11  27  44  71 108 137 192 247 295 350 422
#
# _framework density 24.919262
#
# number of rings (size 3 to 8) (size 9 to 14) (size 15 to 20)
#    0.000    0.857    1.429    4.286   10.000    0.571 
#    0.000    0.000    0.000    0.000    0.000    0.000 
#    0.000    0.000    0.000    0.000    0.000    0.000 
#
# Total GULP energy -173578.066547 kJ/mol
# GULP energy per Si atom -12398.433325 kJ/mol
# Density = 2.486255 g / cm^3
# Si number density = 24.919262 Si / 1000 Ang^3
#
#
#
# Elastic Constant Matrix: (Units=GPa)
#
#
# Indices 1 2 3 4 5 6 
#
# 1 85.5836 0.4376 18.6769 19.0833 -22.5362 -5.1111
# 2 0.4376 95.4381 25.9708 21.3261 -12.2440 11.1269
# 3 18.6769 25.9708 97.0565 28.1531 0.6722 -11.2584
# 4 19.0833 21.3261 28.1531 39.4249 0.2806 0.2125
# 5 -22.5362 -12.2440 0.6722 0.2806 38.0063 9.1514
# 6 -5.1111 11.1269 -11.2584 0.2125 9.1514 43.4003
#
#
#
# Elastic Compliance Matrix: (Units=1/GPa)
#
#
# Indices 1 2 3 4 5 6 
#
# 1 0.017329 0.004432 -0.002160 -0.009319 0.012343 -0.002213
# 2 0.004432 0.014998 -0.003338 -0.007906 0.009035 -0.006055
# 3 -0.002160 -0.003338 0.014393 -0.007428 -0.003801 0.005173
# 4 -0.009319 -0.007906 -0.007428 0.039513 -0.008372 0.000574
# 5 0.012343 0.009035 -0.003801 -0.008372 0.039090 -0.010051
# 6 -0.002213 -0.006055 0.005173 0.000574 -0.010051 0.027792
#
#
# Mechanical properties :
#
#
# Convention : Reuss Voigt Hill
#
# Bulk Modulus (GPa) = 22.42666 40.91655 31.67161
# Shear Modulus (GPa) = 29.39298 39.69915 34.54607
#
# Velocity S-wave (km/s) = 3.43815 3.99571 3.72737
# Velocity P-wave (km/s) = 4.97800 6.14352 5.59121
#
# Compressibility (1/GPa) = 0.04458979
#
# Stress axis : x y z
#
# Youngs Moduli (GPa) = 57.70592 66.67644 69.47828
#
# Poissons Ratio (x) = -0.29552 0.15005
# Poissons Ratio (y) = -0.25576 0.23190
# Poissons Ratio (z) = 0.12462 0.22255
#
# Static dielectric constant tensor:
#      x y z
#    x 4.597750 -0.069850 -0.122050 
#    y -0.069850 4.705560 0.039570 
#    z -0.122050 0.039570 4.466520 
# 
# 
# High freq. dielectric constant tensor:
#      x y z
#    x 2.002240 -0.004390 -0.004720 
#    y -0.004390 2.005080 0.007210 
#    z -0.004720 0.007210 1.990840 
# 
# From -- ./inp_files/27898.got.cif
#   From: 2010.06.25/outbox.cif.g09.slc.cpg/sg2_14_cif.got.tgz:27898.got - 2010.06.27 13:26:56.
