data_PCOD8020586
_publ_section_title
;
Structure prediction by ZEFSAII (Michael W. Deem and Ramdas Pophale) SiO2 
 PCOD8020586
Probable space group: P -1
;
_chemical_formula_sum "Si O2"
_cell_formula_units_Z 16
_cell_length_a 8.442106
_cell_length_b 8.628609
_cell_length_c 16.352783
_cell_angle_alpha 51.148264
_cell_angle_beta 119.671083
_cell_angle_gamma 89.764611
_cell_volume 713.597262
_symmetry_space_group_name_H-M "P -1"
_symmetry_group_IT_number 2
_symmetry_cell_setting 'triclinic'
loop_
_space_group_symop_operation_xyz
x,y,z
-x,-y,-z
loop_
_atom_site_type_symbol
_atom_site_label
_atom_site_fract_x
_atom_site_fract_y
_atom_site_fract_z
Si Si1 0.674646 0.169454 0.330714
Si Si2 0.305133 0.598791 0.139452
Si Si3 0.493149 0.929588 0.832600
Si Si4 0.524862 0.353126 0.670706
Si Si5 0.833473 0.378773 0.615436
Si Si6 0.220018 0.011962 0.883224
Si Si7 0.096477 0.342269 0.897974
Si Si8 0.029137 0.299327 0.378176
O O1 0.437647 0.334359 0.240486
O O2 0.660987 0.120863 0.246928
O O3 0.819344 0.285665 0.345766
O O4 0.768276 0.942229 0.484024
O O5 0.438363 0.646142 0.224863
O O6 0.075373 0.676011 0.085353
O O7 0.287127 0.752733 0.005773
O O8 0.392120 0.021200 0.865512
O O9 0.538129 0.111777 0.734731
O O10 0.711021 0.707590 0.977094
O O11 0.689695 0.402927 0.648305
O O12 0.297931 0.550499 0.524548
O O13 0.944923 0.535666 0.604560
O O14 0.007974 0.120636 0.740208
O O15 0.178521 0.158532 0.906707
O O16 0.994757 0.595283 0.753284
#
# Coordination Sequence:
#
# PCOD8020586 Si02
#       8
#     2   2   2   2   2   2   2   2
#     4  11  27  44  65  98 139 178 214 261 339 403
#     4  12  24  43  70  98 133 180 215 273 333 391
#     4  12  25  42  68 101 136 173 218 276 326 395
#     4  11  22  41  70 101 127 170 221 277 323 382
#     4  10  22  42  70 102 129 166 225 277 326 380
#     4  11  23  40  67 103 130 171 220 276 335 376
#     4  11  23  43  69  98 130 170 228 276 326 383
#     4  10  22  46  65  94 137 175 215 265 331 401
#
# _framework density 22.421613000000001
#
# number of rings (size 3 to 8) (size 9 to 14) (size 15 to 20)
#    0.000    1.000    5.000    2.250    3.500    5.500 
#    0.000    1.250    0.000    0.000    0.000    0.000 
#    0.000    0.000    0.000    0.000    0.000    0.000 
#
# Total GULP energy -198338.477646 kJ/mol
# GULP energy per Si atom -12396.154853 kJ/mol
# Density = 2.237058 g / cm^3
# Si number density = 22.421613 Si / 1000 Ang^3
#
#
#
# Elastic Constant Matrix: (Units=GPa)
#
#
# Indices 1 2 3 4 5 6 
#
# 1 92.4176 40.3466 53.0889 5.6497 5.9864 3.5280
# 2 40.3466 54.2610 33.5756 -3.3538 7.4013 0.9930
# 3 53.0889 33.5756 209.4890 -8.4176 15.6063 10.0066
# 4 5.6497 -3.3538 -8.4176 27.8339 4.2125 5.4069
# 5 5.9864 7.4013 15.6063 4.2125 34.1898 -3.9529
# 6 3.5280 0.9930 10.0066 5.4069 -3.9529 21.8999
#
#
#
# Elastic Compliance Matrix: (Units=1/GPa)
#
#
# Indices 1 2 3 4 5 6 
#
# 1 0.018214 -0.012303 -0.003090 -0.006580 0.001809 0.000987
# 2 -0.012303 0.029210 -0.000865 0.006766 -0.004779 -0.001480
# 3 -0.003090 -0.000865 0.006242 0.003591 -0.002996 -0.003742
# 4 -0.006580 0.006766 0.003591 0.043035 -0.008768 -0.013095
# 5 0.001809 -0.004779 -0.002996 -0.008768 0.033513 0.009508
# 6 0.000987 -0.001480 -0.003742 -0.013095 0.009508 0.052230
#
#
# Mechanical properties :
#
#
# Convention : Reuss Voigt Hill
#
# Bulk Modulus (GPa) = 47.28361 67.79887 57.54124
# Shear Modulus (GPa) = 22.52163 32.06182 27.29173
#
# Velocity S-wave (km/s) = 3.17276 3.78557 3.49263
# Velocity P-wave (km/s) = 5.87844 7.02931 6.47948
#
# Compressibility (1/GPa) = 0.02114898
#
# Stress axis : x y z
#
# Youngs Moduli (GPa) = 54.90305 34.23520 160.21642
#
# Poissons Ratio (x) = 0.42118 0.49512
# Poissons Ratio (y) = 0.67545 0.13862
# Poissons Ratio (z) = 0.16967 0.02962
#
# Static dielectric constant tensor:
#      x y z
#    x 3.838620 0.155970 0.103280 
#    y 0.155970 3.698170 0.033720 
#    z 0.103280 0.033720 4.668120 
# 
# 
# High freq. dielectric constant tensor:
#      x y z
#    x 1.874360 0.015630 0.007520 
#    y 0.015630 1.844160 0.005330 
#    z 0.007520 0.005330 1.920900 
# 
# From -- ./inp_files/556913.got.cif
#   From: 2010.06.25/outbox.cif.g09.slc.cpg/sg2_279_cif.got.tgz:556913.got - 2010.06.27 13:26:56.
