data_PCOD8020962
_publ_section_title
;
Structure prediction by ZEFSAII (Michael W. Deem and Ramdas Pophale) SiO2 
 PCOD8020962
Probable space group: P -1
;
_chemical_formula_sum "Si O2"
_cell_formula_units_Z 16
_cell_length_a 21.132100
_cell_length_b 9.905997
_cell_length_c 14.043992
_cell_angle_alpha 46.776053
_cell_angle_beta 158.216984
_cell_angle_gamma 135.730984
_cell_volume 759.276101
_symmetry_space_group_name_H-M "P -1"
_symmetry_group_IT_number 2
_symmetry_cell_setting 'triclinic'
loop_
_space_group_symop_operation_xyz
x,y,z
-x,-y,-z
loop_
_atom_site_type_symbol
_atom_site_label
_atom_site_fract_x
_atom_site_fract_y
_atom_site_fract_z
Si Si1 0.164747 0.934131 0.795803
Si Si2 0.417898 0.854400 0.039883
Si Si3 0.210441 0.584813 0.738251
Si Si4 0.040729 0.946943 0.891058
Si Si5 0.708822 0.256931 0.559720
Si Si6 0.317359 0.231179 0.019755
Si Si7 0.261322 0.941318 0.501374
Si Si8 0.041977 0.370125 0.206095
O O1 0.115674 0.737967 0.887597
O O2 0.257556 0.908787 0.840467
O O3 0.000000 0.000000 0.500000
O O4 0.296565 0.110889 0.952119
O O5 0.571336 0.871210 0.327007
O O6 0.325063 0.638669 0.971403
O O7 0.500000 0.000000 0.000000
O O8 0.240827 0.783709 0.629849
O O9 0.000000 0.500000 0.500000
O O10 0.299106 0.444543 0.870904
O O11 0.185162 0.841445 0.174095
O O12 0.158214 0.147343 0.913070
O O13 0.911610 0.808799 0.697270
O O14 0.917800 0.988637 0.783744
O O15 0.509024 0.231957 0.329454
O O16 0.710884 0.155476 0.510892
O O17 0.803200 0.490470 0.579293
O O18 0.000000 0.500000 0.000000
#
# Coordination Sequence:
#
# PCOD8020962 Si02
#       8
#     2   2   2   2   2   2   2   2
#     4  11  23  40  68  95 127 169 215 267 328 381
#     4  10  24  41  59  94 132 168 207 262 326 387
#     4  11  23  40  63  92 128 163 206 258 327 384
#     4  10  22  43  66  86 126 173 206 259 323 380
#     4  11  23  41  65  94 122 162 220 263 308 385
#     4  11  23  40  64  96 124 160 212 267 318 383
#     4  11  23  41  62  91 130 166 209 258 323 382
#     4   9  23  41  65  93 129 168 212 262 325 380
#
# _framework density 21.072702
#
# number of rings (size 3 to 8) (size 9 to 14) (size 15 to 20)
#    0.000    1.500    2.500    1.500   10.500    1.500 
#    0.000    0.000    0.000    2.250    0.000    0.000 
#    0.000    0.000    0.000    0.000    0.000    0.000 
#
# Total GULP energy -198208.885971 kJ/mol
# GULP energy per Si atom -12388.055373 kJ/mol
# Density = 2.102474 g / cm^3
# Si number density = 21.072702 Si / 1000 Ang^3
#
#
#
# Elastic Constant Matrix: (Units=GPa)
#
#
# Indices 1 2 3 4 5 6 
#
# 1 97.7007 34.4358 21.4155 6.8351 14.4738 -6.7812
# 2 34.4358 121.3727 41.8995 20.7492 3.0007 -18.6920
# 3 21.4155 41.8995 93.3700 -1.0179 12.8936 -3.9873
# 4 6.8351 20.7492 -1.0179 34.5422 -7.7992 -9.5704
# 5 14.4738 3.0007 12.8936 -7.7992 32.8841 0.1290
# 6 -6.7812 -18.6920 -3.9873 -9.5704 0.1290 30.7913
#
#
#
# Elastic Compliance Matrix: (Units=1/GPa)
#
#
# Indices 1 2 3 4 5 6 
#
# 1 0.012318 -0.002656 -0.000908 -0.001953 -0.005288 0.000398
# 2 -0.002656 0.012316 -0.004869 -0.005631 0.000601 0.004508
# 3 -0.000908 -0.004869 0.013646 0.002452 -0.003923 -0.000610
# 4 -0.001953 -0.005631 0.002452 0.037065 0.009171 0.007951
# 5 -0.005288 0.000601 -0.003923 0.009171 0.036390 0.001390
# 6 0.000398 0.004508 -0.000610 0.007951 0.001390 0.037687
#
#
# Mechanical properties :
#
#
# Convention : Reuss Voigt Hill
#
# Bulk Modulus (GPa) = 46.69823 56.43834 51.56828
# Shear Modulus (GPa) = 28.83088 33.95638 31.39363
#
# Velocity S-wave (km/s) = 3.70288 4.01857 3.86395
# Velocity P-wave (km/s) = 6.36321 6.95505 6.66570
#
# Compressibility (1/GPa) = 0.02141409
#
# Stress axis : x y z
#
# Youngs Moduli (GPa) = 81.18238 81.19795 73.28318
#
# Poissons Ratio (x) = 0.21563 0.06651
# Poissons Ratio (y) = 0.21559 0.35684
# Poissons Ratio (z) = 0.07368 0.39538
#
# Static dielectric constant tensor:
#      x y z
#    x 3.711440 -0.255630 -0.008490 
#    y -0.255630 4.387270 0.500840 
#    z -0.008490 0.500840 3.905710 
# 
# 
# High freq. dielectric constant tensor:
#      x y z
#    x 1.817540 -0.018700 0.005250 
#    y -0.018700 1.838370 0.018930 
#    z 0.005250 0.018930 1.820080 
# 
# From -- ./inp_files/181812.got.cif
#   From: 2010.06.25/outbox.cif.g09.slc.cpg/sg2_91_cif.got.tgz:181812.got - 2010.06.27 13:26:56.
