data_PCOD8020553
_publ_section_title
;
Structure prediction by ZEFSAII (Michael W. Deem and Ramdas Pophale) SiO2 
 PCOD8020553
Probable space group: P -1
;
_chemical_formula_sum "Si O2"
_cell_formula_units_Z 16
_cell_length_a 27.478654
_cell_length_b 21.921734
_cell_length_c 16.072697
_cell_angle_alpha 20.389656
_cell_angle_beta 21.425890
_cell_angle_gamma 11.940732
_cell_volume 684.950467
_symmetry_space_group_name_H-M "P -1"
_symmetry_group_IT_number 2
_symmetry_cell_setting 'triclinic'
loop_
_space_group_symop_operation_xyz
x,y,z
-x,-y,-z
loop_
_atom_site_type_symbol
_atom_site_label
_atom_site_fract_x
_atom_site_fract_y
_atom_site_fract_z
Si Si1 0.370241 0.627054 0.631862
Si Si2 0.001024 0.705002 0.570362
Si Si3 0.263658 0.211902 0.555811
Si Si4 0.230234 0.730849 0.421419
Si Si5 0.752611 0.635425 0.072219
Si Si6 0.964673 0.255496 0.060920
Si Si7 0.479150 0.714450 0.717049
Si Si8 0.062280 0.134872 0.724701
O O1 0.500000 0.500000 0.500000
O O2 0.545729 0.420330 0.695841
O O3 0.195440 0.648320 0.882186
O O4 0.201841 0.979168 0.457339
O O5 0.262327 0.488996 0.454401
O O6 0.951313 0.783946 0.451253
O O7 0.973017 0.531045 0.862853
O O8 0.123918 0.546750 0.329278
O O9 0.500000 0.000000 0.500000
O O10 0.329522 0.017507 0.622228
O O11 0.080813 0.309619 0.781030
O O12 0.264927 0.482558 0.671675
O O13 0.178770 0.884358 0.219588
O O14 0.000000 0.000000 0.500000
O O15 0.788177 0.478859 0.133688
O O16 0.500000 0.000000 0.000000
O O17 0.334403 0.856293 0.680071
O O18 0.500000 0.500000 0.000000
O O19 0.000000 0.000000 0.000000
#
# Coordination Sequence:
#
# PCOD8020553 Si02
#       8
#     2   2   2   2   2   2   2   2
#     4  12  23  43  71 101 139 184 239 295 354 434
#     4  12  25  46  71 102 146 189 234 302 368 420
#     4  12  24  49  76 105 151 191 243 305 362 442
#     4  10  22  42  69  96 137 180 232 287 352 423
#     4  11  20  44  68  96 142 179 230 293 349 428
#     4  11  24  44  69 101 135 182 238 285 361 427
#     4  12  25  49  72 110 150 187 248 303 361 443
#     4  12  26  48  74 107 146 197 241 302 369 428
#
# _framework density 23.359352999999999
#
# number of rings (size 3 to 8) (size 9 to 14) (size 15 to 20)
#    0.000    0.500    7.500    1.125    0.000    3.000 
#    6.750    1.875    0.000    0.000    0.000    0.000 
#    0.000    0.000    0.000    0.000    0.000    0.000 
#
# Total GULP energy -198349.552576 kJ/mol
# GULP energy per Si atom -12396.847036 kJ/mol
# Density = 2.330619 g / cm^3
# Si number density = 23.359353 Si / 1000 Ang^3
#
#
#
# Elastic Constant Matrix: (Units=GPa)
#
#
# Indices 1 2 3 4 5 6 
#
# 1 90.6174 49.3575 43.5093 8.9609 -23.1702 -24.1329
# 2 49.3575 144.5627 56.5962 -7.7658 -15.4340 -22.9694
# 3 43.5093 56.5962 151.9199 -5.6834 -33.3429 -20.8289
# 4 8.9609 -7.7658 -5.6834 42.6946 -1.9795 -18.4655
# 5 -23.1702 -15.4340 -33.3429 -1.9795 33.0160 6.5289
# 6 -24.1329 -22.9694 -20.8289 -18.4655 6.5289 58.2236
#
#
#
# Elastic Compliance Matrix: (Units=1/GPa)
#
#
# Indices 1 2 3 4 5 6 
#
# 1 0.017047 -0.004108 -0.001262 -0.002724 0.007965 0.003237
# 2 -0.004108 0.009645 -0.002125 0.003379 -0.000813 0.002505
# 3 -0.001262 -0.002125 0.009813 0.002431 0.007772 0.002049
# 4 -0.002724 0.003379 0.002431 0.029429 0.001871 0.010197
# 5 0.007965 -0.000813 0.007772 0.001871 0.043160 0.001515
# 6 0.003237 0.002505 0.002049 0.010197 0.001515 0.023302
#
#
# Mechanical properties :
#
#
# Convention : Reuss Voigt Hill
#
# Bulk Modulus (GPa) = 46.47944 76.22509 61.35226
# Shear Modulus (GPa) = 32.35065 42.62931 37.48998
#
# Velocity S-wave (km/s) = 3.72548 4.27656 4.01050
# Velocity P-wave (km/s) = 6.20051 7.55564 6.91137
#
# Compressibility (1/GPa) = 0.02151489
#
# Stress axis : x y z
#
# Youngs Moduli (GPa) = 58.66248 103.68449 101.90506
#
# Poissons Ratio (x) = 0.42592 0.12857
# Poissons Ratio (y) = 0.24098 0.21657
# Poissons Ratio (z) = 0.07401 0.22035
#
# Static dielectric constant tensor:
#      x y z
#    x 4.458030 -0.089970 -0.127280 
#    y -0.089970 4.661210 -0.368750 
#    z -0.127280 -0.368750 4.849030 
# 
# 
# High freq. dielectric constant tensor:
#      x y z
#    x 1.912020 -0.000270 -0.025430 
#    y -0.000270 1.941240 -0.001090 
#    z -0.025430 -0.001090 1.931540 
# 
# From -- ./inp_files/580205.got.cif
#   From: 2010.06.25/outbox.cif.g09.slc.cpg/sg2_291_cif.got.tgz:580205.got - 2010.06.27 13:26:56.
