data_PCOD8020574
_publ_section_title
;
Structure prediction by ZEFSAII (Michael W. Deem and Ramdas Pophale) SiO2 
 PCOD8020574
Probable space group: P -1
;
_chemical_formula_sum "Si O2"
_cell_formula_units_Z 16
_cell_length_a 8.516103
_cell_length_b 8.684786
_cell_length_c 11.860598
_cell_angle_alpha 58.697028
_cell_angle_beta 112.581665
_cell_angle_gamma 99.775507
_cell_volume 691.566613
_symmetry_space_group_name_H-M "P -1"
_symmetry_group_IT_number 2
_symmetry_cell_setting 'triclinic'
loop_
_space_group_symop_operation_xyz
x,y,z
-x,-y,-z
loop_
_atom_site_type_symbol
_atom_site_label
_atom_site_fract_x
_atom_site_fract_y
_atom_site_fract_z
Si Si1 0.638338 0.099874 0.426970
Si Si2 0.062260 0.877144 0.324825
Si Si3 0.302738 0.176357 0.645820
Si Si4 0.935592 0.221459 0.060318
Si Si5 0.916773 0.471613 0.163100
Si Si6 0.433189 0.517774 0.848672
Si Si7 0.575966 0.170514 0.897832
Si Si8 0.114187 0.505964 0.415726
O O1 0.809828 0.136830 0.529048
O O2 0.553407 0.284419 0.280357
O O3 0.500000 0.000000 0.500000
O O4 0.704282 0.966234 0.400197
O O5 0.132244 0.718892 0.319193
O O6 0.862656 0.861079 0.308361
O O7 0.072584 0.060507 0.186904
O O8 0.491697 0.158723 0.756559
O O9 0.287511 0.387987 0.526903
O O10 0.874246 0.305154 0.132617
O O11 0.779912 0.150911 0.969542
O O12 0.036931 0.362955 0.964295
O O13 0.761581 0.532557 0.177460
O O14 0.054213 0.414880 0.317010
O O15 0.530281 0.367903 0.858888
O O16 0.500000 0.500000 0.000000
O O17 0.500000 0.000000 0.000000
O O18 0.000000 0.500000 0.500000
#
# Coordination Sequence:
#
# PCOD8020574 Si02
#       8
#     2   2   2   2   2   2   2   2
#     4  12  28  45  73 108 141 186 240 303 359 423
#     4  11  22  44  69  99 143 181 242 281 358 422
#     4  11  22  44  73  98 141 184 235 287 359 425
#     4  11  25  43  69 104 142 190 230 299 345 430
#     4  11  24  44  69 101 139 186 241 284 364 418
#     4  12  24  45  71 100 141 185 236 290 354 424
#     4  12  24  45  68 106 143 185 240 287 360 420
#     4  10  22  42  70 100 129 183 232 293 347 424
#
# _framework density 23.135878999999999
#
# number of rings (size 3 to 8) (size 9 to 14) (size 15 to 20)
#    0.000    0.750    2.500    6.375    1.750    2.500 
#    0.000    1.875    0.000    0.000    0.000    0.000 
#    0.000    0.000    0.000    0.000    0.000    0.000 
#
# Total GULP energy -198229.359697 kJ/mol
# GULP energy per Si atom -12389.334981 kJ/mol
# Density = 2.308322 g / cm^3
# Si number density = 23.135879 Si / 1000 Ang^3
#
#
#
# Elastic Constant Matrix: (Units=GPa)
#
#
# Indices 1 2 3 4 5 6 
#
# 1 38.0115 22.8527 26.3824 -11.9539 -5.8158 11.6189
# 2 22.8527 109.7891 49.6139 -12.6829 11.3079 4.2031
# 3 26.3824 49.6139 159.9415 -10.1315 16.8655 9.5637
# 4 -11.9539 -12.6829 -10.1315 59.5357 4.0995 6.3983
# 5 -5.8158 11.3079 16.8655 4.0995 31.0044 0.0880
# 6 11.6189 4.2031 9.5637 6.3983 0.0880 27.4246
#
#
#
# Elastic Compliance Matrix: (Units=1/GPa)
#
#
# Indices 1 2 3 4 5 6 
#
# 1 0.043107 -0.006499 -0.004867 0.007470 0.012165 -0.017352
# 2 -0.006499 0.011981 -0.002187 0.001031 -0.004539 0.001454
# 3 -0.004867 -0.002187 0.008281 0.000347 -0.004664 -0.000557
# 4 0.007470 0.001031 0.000347 0.019554 -0.001726 -0.008000
# 5 0.012165 -0.004539 -0.004664 -0.001726 0.038964 -0.002554
# 6 -0.017352 0.001454 -0.000557 -0.008000 -0.002554 0.045661
#
#
# Mechanical properties :
#
#
# Convention : Reuss Voigt Hill
#
# Bulk Modulus (GPa) = 27.57698 56.16002 41.86850
# Shear Modulus (GPa) = 24.18482 37.51914 30.85198
#
# Velocity S-wave (km/s) = 3.23668 4.03139 3.65569
# Velocity P-wave (km/s) = 5.09054 6.78204 5.99624
#
# Compressibility (1/GPa) = 0.03626212
#
# Stress axis : x y z
#
# Youngs Moduli (GPa) = 23.19783 83.46756 120.76461
#
# Poissons Ratio (x) = 0.54250 0.58771
# Poissons Ratio (y) = 0.15077 0.26415
# Poissons Ratio (z) = 0.11289 0.18257
#
# Static dielectric constant tensor:
#      x y z
#    x 3.851920 0.065870 0.177770 
#    y 0.065870 4.753470 -0.143390 
#    z 0.177770 -0.143390 4.719380 
# 
# 
# High freq. dielectric constant tensor:
#      x y z
#    x 1.884950 0.000100 0.010160 
#    y 0.000100 1.930680 -0.004990 
#    z 0.010160 -0.004990 1.941690 
# 
# From -- ./inp_files/381460.got.cif
#   From: 2010.06.25/outbox.cif.g09.slc.cpg/sg2_191_cif.got.tgz:381460.got - 2010.06.27 13:26:56.
