data_PCOD8020180
_publ_section_title
;
Structure prediction by ZEFSAII (Michael W. Deem and Ramdas Pophale) SiO2 
 PCOD8020180
Probable space group: P -1
;
_chemical_formula_sum "Si O2"
_cell_formula_units_Z 14
_cell_length_a 9.142964
_cell_length_b 15.862594
_cell_length_c 6.925624
_cell_angle_alpha 105.302775
_cell_angle_beta 134.379858
_cell_angle_gamma 61.516164
_cell_volume 627.097914
_symmetry_space_group_name_H-M "P -1"
_symmetry_group_IT_number 2
_symmetry_cell_setting 'triclinic'
loop_
_space_group_symop_operation_xyz
x,y,z
-x,-y,-z
loop_
_atom_site_type_symbol
_atom_site_label
_atom_site_fract_x
_atom_site_fract_y
_atom_site_fract_z
Si Si1 0.830875 0.646650 0.412012
Si Si2 0.586334 0.967313 0.769539
Si Si3 0.244649 0.508058 0.513599
Si Si4 0.298395 0.603290 0.272344
Si Si5 0.741210 0.068780 0.271869
Si Si6 0.519668 0.711950 0.798161
Si Si7 0.836400 0.755054 0.822632
O O1 0.837224 0.571982 0.541606
O O2 0.766088 0.746083 0.530126
O O3 0.088417 0.606512 0.543126
O O4 0.646731 0.663046 0.085451
O O5 0.384785 0.958073 0.690512
O O6 0.800163 0.863394 0.896632
O O7 0.500000 0.000000 0.500000
O O8 0.662123 0.044471 0.979225
O O9 0.206956 0.535033 0.265201
O O10 0.519696 0.461355 0.762005
O O11 0.416125 0.644804 0.565860
O O12 0.102684 0.689944 0.037950
O O13 0.683607 0.182283 0.286042
O O14 0.000000 0.000000 0.500000
O O15 0.702921 0.721336 0.832676
#
# Coordination Sequence:
#
# PCOD8020180 Si02
#       7
#     2   2   2   2   2   2   2
#     4  11  23  42  65  91 127 167 207 256 309 360
#     4  10  22  42  66  93 125 163 203 253 312 371
#     4  10  24  40  64  94 122 168 212 254 306 368
#     4  11  23  42  65  91 127 167 207 256 309 360
#     4  10  22  42  66  93 125 163 203 253 312 371
#     4  11  23  42  64  93 129 161 204 259 312 362
#     4  11  23  42  64  93 129 161 204 259 312 362
#
# _framework density 22.325061999999999
#
# number of rings (size 3 to 8) (size 9 to 14) (size 15 to 20)
#    0.000    1.429    2.857    1.714    0.000    8.571 
#    5.143    0.000    0.000    0.000    0.000    0.000 
#    0.000    0.000    0.000    0.000    0.000    0.000 
#
# Total GULP energy -173489.967446 kJ/mol
# GULP energy per Si atom -12392.140532 kJ/mol
# Density = 2.227425 g / cm^3
# Si number density = 22.325062 Si / 1000 Ang^3
#
#
#
# Elastic Constant Matrix: (Units=GPa)
#
#
# Indices 1 2 3 4 5 6 
#
# 1 94.2633 35.8736 25.9325 -10.9173 -6.0315 -19.9503
# 2 35.8736 90.4906 34.1731 -10.4916 2.2916 -21.9073
# 3 25.9325 34.1731 117.2868 -9.7275 -9.3117 -3.8976
# 4 -10.9173 -10.4916 -9.7275 40.3570 -12.0630 8.5265
# 5 -6.0315 2.2916 -9.3117 -12.0630 28.9589 -4.6653
# 6 -19.9503 -21.9073 -3.8976 8.5265 -4.6653 32.7849
#
#
#
# Elastic Compliance Matrix: (Units=1/GPa)
#
#
# Indices 1 2 3 4 5 6 
#
# 1 0.014236 -0.003455 -0.001305 0.002825 0.004990 0.006174
# 2 -0.003455 0.015739 -0.003710 0.000074 -0.001889 0.007685
# 3 -0.001305 -0.003710 0.010400 0.002916 0.004227 -0.002194
# 4 0.002825 0.000074 0.002916 0.031273 0.013896 -0.004040
# 5 0.004990 -0.001889 0.004227 0.013896 0.043654 0.004875
# 6 0.006174 0.007685 -0.002194 -0.004040 0.004875 0.040878
#
#
# Mechanical properties :
#
#
# Convention : Reuss Voigt Hill
#
# Bulk Modulus (GPa) = 42.67240 54.88881 48.78061
# Shear Modulus (GPa) = 27.63485 34.15759 30.89622
#
# Velocity S-wave (km/s) = 3.52211 3.91578 3.72415
# Velocity P-wave (km/s) = 5.97461 6.71446 6.35531
#
# Compressibility (1/GPa) = 0.02343435
#
# Stress axis : x y z
#
# Youngs Moduli (GPa) = 70.24587 63.53827 96.15085
#
# Poissons Ratio (x) = 0.21950 0.12551
# Poissons Ratio (y) = 0.24267 0.35674
# Poissons Ratio (z) = 0.09169 0.23574
#
# Static dielectric constant tensor:
#      x y z
#    x 4.149790 -0.417680 -0.120060 
#    y -0.417680 3.958890 0.041140 
#    z -0.120060 0.041140 3.764300 
# 
# 
# High freq. dielectric constant tensor:
#      x y z
#    x 1.881240 -0.021210 -0.008970 
#    y -0.021210 1.892230 -0.009370 
#    z -0.008970 -0.009370 1.866140 
# 
# From -- ./inp_files/48442.got.cif
#   From: 2010.06.25/outbox.cif.g09.slc.cpg/sg2_25_cif.got.tgz:48442.got - 2010.06.27 13:26:56.
