data_PCOD8020940
_publ_section_title
;
Structure prediction by ZEFSAII (Michael W. Deem and Ramdas Pophale) SiO2 
 PCOD8020940
Probable space group: P -1
;
_chemical_formula_sum "Si O2"
_cell_formula_units_Z 16
_cell_length_a 8.098096
_cell_length_b 13.794532
_cell_length_c 8.407385
_cell_angle_alpha 77.827391
_cell_angle_beta 83.369863
_cell_angle_gamma 125.884778
_cell_volume 709.122956
_symmetry_space_group_name_H-M "P -1"
_symmetry_group_IT_number 2
_symmetry_cell_setting 'triclinic'
loop_
_space_group_symop_operation_xyz
x,y,z
-x,-y,-z
loop_
_atom_site_type_symbol
_atom_site_label
_atom_site_fract_x
_atom_site_fract_y
_atom_site_fract_z
Si Si1 0.141693 0.702419 0.298580
Si Si2 0.743859 0.617942 0.226777
Si Si3 0.976594 0.073727 0.340238
Si Si4 0.162115 0.538546 0.109678
Si Si5 0.465063 0.362481 0.465970
Si Si6 0.400986 0.153470 0.732203
Si Si7 0.643119 0.743164 0.985306
Si Si8 0.932249 0.691400 0.633932
O O1 0.124433 0.588198 0.257248
O O2 0.389620 0.830542 0.239021
O O3 0.995065 0.725329 0.206757
O O4 0.040366 0.663522 0.498307
O O5 0.679801 0.477270 0.305620
O O6 0.565879 0.600312 0.368985
O O7 0.708786 0.652574 0.045745
O O8 0.913621 0.161791 0.374032
O O9 0.791275 0.984415 0.263473
O O10 0.000000 0.000000 0.500000
O O11 0.207366 0.157149 0.201474
O O12 0.399968 0.655234 0.981613
O O13 0.142823 0.414061 0.187654
O O14 0.000000 0.500000 0.000000
O O15 0.480080 0.251492 0.540795
O O16 0.265291 0.315608 0.396987
O O17 0.312530 0.181364 0.882153
#
# Coordination Sequence:
#
# PCOD8020940 Si02
#       8
#     2   2   2   2   2   2   2   2
#     4  10  24  40  68  98 138 172 208 267 339 404
#     4   9  18  34  66  98 124 166 214 269 330 393
#     4  12  26  44  68  94 129 180 238 274 308 380
#     4  11  25  43  67 107 136 162 208 280 351 390
#     4   9  17  34  64  96 128 163 219 265 319 397
#     4  10  22  43  65  98 130 180 223 267 323 387
#     4  10  23  44  70  93 131 174 224 275 327 390
#     4  11  23  42  66  99 134 174 217 263 331 404
#
# _framework density 22.563079999999999
#
# number of rings (size 3 to 8) (size 9 to 14) (size 15 to 20)
#    0.000    1.750    2.500    0.750    8.750    3.000 
#    0.000    0.625    0.000    0.000    0.000    0.000 
#    0.000    0.000    0.000    0.000    0.000    0.000 
#
# Total GULP energy -198229.355270 kJ/mol
# GULP energy per Si atom -12389.334704 kJ/mol
# Density = 2.251173 g / cm^3
# Si number density = 22.563080 Si / 1000 Ang^3
#
#
#
# Elastic Constant Matrix: (Units=GPa)
#
#
# Indices 1 2 3 4 5 6 
#
# 1 101.7937 50.7013 54.8550 -4.2135 -9.6139 20.0694
# 2 50.7013 145.2426 61.5881 2.4839 -1.0170 12.8181
# 3 54.8550 61.5881 108.3895 -16.6199 6.7933 10.5882
# 4 -4.2135 2.4839 -16.6199 33.8727 1.7070 1.5965
# 5 -9.6139 -1.0170 6.7933 1.7070 23.5593 -5.3889
# 6 20.0694 12.8181 10.5882 1.5965 -5.3889 29.6334
#
#
#
# Elastic Compliance Matrix: (Units=1/GPa)
#
#
# Indices 1 2 3 4 5 6 
#
# 1 0.016726 -0.002082 -0.007355 -0.001454 0.007508 -0.006356
# 2 -0.002082 0.009913 -0.005131 -0.003532 0.001167 -0.000642
# 3 -0.007355 -0.005131 0.017933 0.008796 -0.009347 -0.001381
# 4 -0.001454 -0.003532 0.008796 0.034424 -0.006620 -0.003689
# 5 0.007508 0.001167 -0.009347 -0.006620 0.050398 0.007272
# 6 -0.006356 -0.000642 -0.001381 -0.003689 0.007272 0.040343
#
#
# Mechanical properties :
#
#
# Convention : Reuss Voigt Hill
#
# Bulk Modulus (GPa) = 64.77900 76.63496 70.70698
# Shear Modulus (GPa) = 24.50780 29.96517 27.23648
#
# Velocity S-wave (km/s) = 3.29932 3.64821 3.47814
# Velocity P-wave (km/s) = 6.57925 7.19614 6.89460
#
# Compressibility (1/GPa) = 0.01543710
#
# Stress axis : x y z
#
# Youngs Moduli (GPa) = 59.78755 100.88117 55.76290
#
# Poissons Ratio (x) = 0.21000 0.41012
# Poissons Ratio (y) = 0.12446 0.28612
# Poissons Ratio (z) = 0.43972 0.51761
#
# Static dielectric constant tensor:
#      x y z
#    x 4.062680 0.085350 0.007930 
#    y 0.085350 4.219220 0.047290 
#    z 0.007930 0.047290 4.053950 
# 
# 
# High freq. dielectric constant tensor:
#      x y z
#    x 1.884440 0.014180 0.000720 
#    y 0.014180 1.881520 0.011700 
#    z 0.000720 0.011700 1.881480 
# 
# From -- ./inp_files/206888.got.cif
#   From: 2010.06.25/outbox.cif.g09.slc.cpg/sg2_104_cif.got.tgz:206888.got - 2010.06.27 13:26:56.
