data_PCOD8020367
_publ_section_title
;
Structure prediction by ZEFSAII (Michael W. Deem and Ramdas Pophale) SiO2 
 PCOD8020367
Probable space group: P -1
;
_chemical_formula_sum "Si O2"
_cell_formula_units_Z 16
_cell_length_a 9.211000
_cell_length_b 9.387396
_cell_length_c 23.526198
_cell_angle_alpha 51.816283
_cell_angle_beta 29.199265
_cell_angle_gamma 64.632961
_cell_volume 746.533391
_symmetry_space_group_name_H-M "P -1"
_symmetry_group_IT_number 2
_symmetry_cell_setting 'triclinic'
loop_
_space_group_symop_operation_xyz
x,y,z
-x,-y,-z
loop_
_atom_site_type_symbol
_atom_site_label
_atom_site_fract_x
_atom_site_fract_y
_atom_site_fract_z
Si Si1 0.018606 0.004421 0.560079
Si Si2 0.662360 0.227243 0.263610
Si Si3 0.239032 0.514119 0.041056
Si Si4 0.904714 0.807065 0.113863
Si Si5 0.212597 0.705326 0.360891
Si Si6 0.055471 0.006043 0.123861
Si Si7 0.368790 0.397847 0.222660
Si Si8 0.283341 0.768330 0.194455
O O1 0.864951 0.785111 0.683744
O O2 0.384002 0.088086 0.430654
O O3 0.000000 0.000000 0.500000
O O4 0.826367 0.135598 0.621171
O O5 0.513859 0.360802 0.242593
O O6 0.921821 0.338928 0.192808
O O7 0.798712 0.108057 0.201934
O O8 0.159542 0.704670 0.035911
O O9 0.500000 0.500000 0.000000
O O10 0.354537 0.515337 0.937054
O O11 0.558427 0.684302 0.247615
O O12 0.907502 0.837631 0.172736
O O13 0.000000 0.000000 0.000000
O O14 0.150620 0.768856 0.303125
O O15 0.000000 0.500000 0.500000
O O16 0.144127 0.912533 0.172838
O O17 0.343008 0.154954 0.957365
O O18 0.182572 0.552642 0.258678
#
# Coordination Sequence:
#
# PCOD8020367 Si02
#       8
#     2   2   2   2   2   2   2   2
#     4  10  22  42  67  98 132 168 220 280 328 389
#     4  11  23  43  69  95 128 177 223 267 330 400
#     4  12  25  39  61  97 135 168 215 274 328 387
#     4  12  23  40  67  99 128 172 230 273 321 396
#     4  12  24  43  70 101 135 175 226 279 332 399
#     4  11  24  42  66  98 138 175 219 275 339 397
#     4  11  22  42  67  95 128 175 223 270 327 392
#     4  11  24  42  66  97 139 177 215 276 343 391
#
# _framework density 21.432397000000002
#
# number of rings (size 3 to 8) (size 9 to 14) (size 15 to 20)
#    0.000    0.750    2.500    7.125    1.750    0.000 
#    0.000    6.250    0.000    0.000    0.000    0.000 
#    0.000    0.000    0.000    0.000    0.000    0.000 
#
# Total GULP energy -198411.783372 kJ/mol
# GULP energy per Si atom -12400.736461 kJ/mol
# Density = 2.138362 g / cm^3
# Si number density = 21.432397 Si / 1000 Ang^3
#
#
#
# Elastic Constant Matrix: (Units=GPa)
#
#
# Indices 1 2 3 4 5 6 
#
# 1 90.7426 25.2819 43.4501 -4.3172 -3.4727 8.6107
# 2 25.2819 124.4205 27.1237 1.2215 5.7297 12.2098
# 3 43.4501 27.1237 114.1656 -9.7544 -10.8407 -9.0742
# 4 -4.3172 1.2215 -9.7544 35.0115 9.7797 -1.5647
# 5 -3.4727 5.7297 -10.8407 9.7797 39.2392 2.6089
# 6 8.6107 12.2098 -9.0742 -1.5647 2.6089 27.8174
#
#
#
# Elastic Compliance Matrix: (Units=1/GPa)
#
#
# Indices 1 2 3 4 5 6 
#
# 1 0.014672 -0.001154 -0.005764 -0.000105 0.000296 -0.005949
# 2 -0.001154 0.009295 -0.002344 -0.000869 -0.001599 -0.004386
# 3 -0.005764 -0.002344 0.012477 0.002540 0.002193 0.006820
# 4 -0.000105 -0.000869 0.002540 0.031484 -0.007273 0.003695
# 5 0.000296 -0.001599 0.002193 -0.007273 0.028278 -0.001736
# 6 -0.005949 -0.004386 0.006820 0.003695 -0.001736 0.042311
#
#
# Mechanical properties :
#
#
# Convention : Reuss Voigt Hill
#
# Bulk Modulus (GPa) = 55.79808 57.89336 56.84572
# Shear Modulus (GPa) = 30.67210 35.97847 33.32529
#
# Velocity S-wave (km/s) = 3.78710 4.10163 3.94750
# Velocity P-wave (km/s) = 6.72412 7.03576 6.88171
#
# Compressibility (1/GPa) = 0.01792176
#
# Stress axis : x y z
#
# Youngs Moduli (GPa) = 68.15559 107.58135 80.14742
#
# Poissons Ratio (x) = 0.12411 0.46195
# Poissons Ratio (y) = 0.07863 0.18787
# Poissons Ratio (z) = 0.39283 0.25217
#
# Static dielectric constant tensor:
#      x y z
#    x 3.807010 0.110150 -0.293120 
#    y 0.110150 3.866400 -0.122310 
#    z -0.293120 -0.122310 4.619660 
# 
# 
# High freq. dielectric constant tensor:
#      x y z
#    x 1.826160 0.016400 -0.002000 
#    y 0.016400 1.853350 -0.000020 
#    z -0.002000 -0.000020 1.846450 
# 
# From -- ./inp_files/357463.got.cif
#   From: 2010.06.25/outbox.cif.g09.slc.cpg/sg2_179_cif.got.tgz:357463.got - 2010.06.27 13:26:56.
