data_PCOD8020394
_publ_section_title
;
Structure prediction by ZEFSAII (Michael W. Deem and Ramdas Pophale) SiO2 
 PCOD8020394
Probable space group: P -1
;
_chemical_formula_sum "Si O2"
_cell_formula_units_Z 16
_cell_length_a 12.037470
_cell_length_b 25.639893
_cell_length_c 9.090176
_cell_angle_alpha 142.289840
_cell_angle_beta 114.901093
_cell_angle_gamma 36.715793
_cell_volume 833.720720
_symmetry_space_group_name_H-M "P -1"
_symmetry_group_IT_number 2
_symmetry_cell_setting 'triclinic'
loop_
_space_group_symop_operation_xyz
x,y,z
-x,-y,-z
loop_
_atom_site_type_symbol
_atom_site_label
_atom_site_fract_x
_atom_site_fract_y
_atom_site_fract_z
Si Si1 0.189204 0.319966 0.863631
Si Si2 0.392011 0.044126 0.193215
Si Si3 0.580662 0.391324 0.606457
Si Si4 0.077231 0.731732 0.674649
Si Si5 0.305118 0.157720 0.837882
Si Si6 0.738001 0.553401 0.964001
Si Si7 0.099520 0.716825 0.992110
Si Si8 0.388998 0.672161 0.210750
O O1 0.343034 0.162610 0.508961
O O2 0.205117 0.295035 0.993248
O O3 0.926000 0.466696 0.997344
O O4 0.284716 0.357939 0.969632
O O5 0.161573 0.125185 0.226993
O O6 0.576900 0.881907 0.031400
O O7 0.500000 0.000000 0.000000
O O8 0.767740 0.282554 0.337139
O O9 0.327554 0.522691 0.691921
O O10 0.645321 0.287608 0.543793
O O11 0.588366 0.482073 0.885531
O O12 0.199053 0.568475 0.363311
O O13 0.032425 0.776284 0.920036
O O14 0.500000 0.000000 0.500000
O O15 0.105078 0.207852 0.868892
O O16 0.494027 0.689835 0.218101
O O17 0.155275 0.774226 0.233335
#
# Coordination Sequence:
#
# PCOD8020394 Si02
#       8
#     2   2   2   2   2   2   2   2
#     4   9  19  32  53  70 100 133 170 199 246 300
#     4  10  19  33  50  72  97 132 169 212 240 281
#     4   8  16  26  45  74  99 123 158 206 251 286
#     4  10  18  29  50  76 104 126 159 206 262 290
#     4  10  20  31  51  73  97 131 174 206 238 288
#     4   9  17  32  50  74 104 132 157 202 258 307
#     4  10  17  28  47  76 102 121 163 212 249 288
#     4   8  16  26  47  69 100 123 158 198 247 293
#
# _framework density 19.191078000000001
#
# number of rings (size 3 to 8) (size 9 to 14) (size 15 to 20)
#    0.750    2.000    1.250    1.125    5.250    0.000 
#    0.000    0.625    2.750    3.000    0.000    1.750 
#    0.000    0.000    0.000    0.000    0.000    0.000 
#
# Total GULP energy -198242.984181 kJ/mol
# GULP energy per Si atom -12390.186511 kJ/mol
# Density = 1.914740 g / cm^3
# Si number density = 19.191078 Si / 1000 Ang^3
#
#
#
# Elastic Constant Matrix: (Units=GPa)
#
#
# Indices 1 2 3 4 5 6 
#
# 1 131.9936 65.2982 33.9420 2.9930 -43.9832 8.1390
# 2 65.2982 140.4471 23.4011 -5.2925 -19.0285 12.3595
# 3 33.9420 23.4011 32.2126 -1.1172 -24.6894 1.9570
# 4 2.9930 -5.2925 -1.1172 20.4547 -0.2584 -12.2844
# 5 -43.9832 -19.0285 -24.6894 -0.2584 33.0708 -0.7060
# 6 8.1390 12.3595 1.9570 -12.2844 -0.7060 31.6114
#
#
#
# Elastic Compliance Matrix: (Units=1/GPa)
#
#
# Indices 1 2 3 4 5 6 
#
# 1 0.017095 -0.005276 0.002021 -0.006114 0.021067 -0.004369
# 2 -0.005276 0.009996 -0.005894 0.002056 -0.005682 -0.001513
# 3 0.002021 -0.005894 0.076660 0.002687 0.056535 -0.000655
# 4 -0.006114 0.002056 0.002687 0.066166 -0.003865 0.026230
# 5 0.021067 -0.005682 0.056535 -0.003865 0.097035 -0.006038
# 6 -0.004369 -0.001513 -0.000655 0.026230 -0.006038 0.043449
#
#
# Mechanical properties :
#
#
# Convention : Reuss Voigt Hill
#
# Bulk Modulus (GPa) = 11.70241 61.10397 36.40319
# Shear Modulus (GPa) = 13.99836 29.16153 21.57995
#
# Velocity S-wave (km/s) = 2.70371 3.90235 3.35696
# Velocity P-wave (km/s) = 3.98218 7.22588 5.83400
#
# Compressibility (1/GPa) = 0.08545249
#
# Stress axis : x y z
#
# Youngs Moduli (GPa) = 58.49741 100.03994 13.04453
#
# Poissons Ratio (x) = 0.52783 -0.02636
# Poissons Ratio (y) = 0.30864 0.07689
# Poissons Ratio (z) = -0.11821 0.58964
#
# Static dielectric constant tensor:
#      x y z
#    x 3.528600 0.072070 -0.403080 
#    y 0.072070 4.445260 0.104950 
#    z -0.403080 0.104950 3.077070 
# 
# 
# High freq. dielectric constant tensor:
#      x y z
#    x 1.735390 0.002750 -0.048520 
#    y 0.002750 1.755670 -0.009140 
#    z -0.048520 -0.009140 1.691020 
# 
# From -- ./inp_files/284938.got.cif
#   From: 2010.06.25/outbox.cif.g09.slc.cpg/sg2_143_cif.got.tgz:284938.got - 2010.06.27 13:26:56.
