data_PCOD8020362
_publ_section_title
;
Structure prediction by ZEFSAII (Michael W. Deem and Ramdas Pophale) SiO2 
 PCOD8020362
Probable space group: P -1
;
_chemical_formula_sum "Si O2"
_cell_formula_units_Z 16
_cell_length_a 12.539729
_cell_length_b 8.885349
_cell_length_c 9.641470
_cell_angle_alpha 116.533371
_cell_angle_beta 56.081030
_cell_angle_gamma 123.534752
_cell_volume 728.027616
_symmetry_space_group_name_H-M "P -1"
_symmetry_group_IT_number 2
_symmetry_cell_setting 'triclinic'
loop_
_space_group_symop_operation_xyz
x,y,z
-x,-y,-z
loop_
_atom_site_type_symbol
_atom_site_label
_atom_site_fract_x
_atom_site_fract_y
_atom_site_fract_z
Si Si1 0.524220 0.167224 0.445116
Si Si2 0.102170 0.020773 0.059295
Si Si3 0.812725 0.277717 0.155957
Si Si4 0.894861 0.429975 0.858453
Si Si5 0.575974 0.890858 0.810313
Si Si6 0.496161 0.525824 0.235648
Si Si7 0.280538 0.424402 0.127281
Si Si8 0.909491 0.077106 0.684187
O O1 0.688715 0.290605 0.342116
O O2 0.441423 0.076342 0.326478
O O3 0.471161 0.319705 0.604865
O O4 0.500000 0.000000 0.500000
O O5 0.161169 0.224826 0.159580
O O6 0.024388 0.899053 0.199072
O O7 0.218306 0.940185 0.904302
O O8 0.000000 0.000000 0.000000
O O9 0.968056 0.381267 0.150747
O O10 0.812884 0.356244 0.033342
O O11 0.783401 0.442624 0.836617
O O12 0.944458 0.282766 0.692384
O O13 0.506503 0.669973 0.794037
O O14 0.740427 0.960678 0.757366
O O15 0.500000 0.000000 0.000000
O O16 0.351996 0.504430 0.255051
O O17 0.617442 0.611868 0.070251
O O18 0.000000 0.000000 0.500000
#
# Coordination Sequence:
#
# PCOD8020362 Si02
#       8
#     2   2   2   2   2   2   2   2
#     4  12  28  45  70 107 141 181 235 295 354 411
#     4  11  21  42  66  99 134 180 224 285 342 418
#     4  10  22  42  67  97 137 177 233 278 345 424
#     4  10  22  42  69  97 132 185 226 282 344 424
#     4  12  26  50  76  98 143 193 236 285 355 430
#     4  11  26  43  71 101 142 182 233 294 343 422
#     4  11  22  42  71 101 135 181 238 276 352 418
#     4  11  26  43  67 100 138 178 229 286 352 406
#
# _framework density 21.977188000000002
#
# number of rings (size 3 to 8) (size 9 to 14) (size 15 to 20)
#    0.000    1.000    2.500    4.125    7.000    2.000 
#    0.000    1.250    0.000    0.000    0.000    0.000 
#    0.000    0.000    0.000    0.000    0.000    0.000 
#
# Total GULP energy -198285.476411 kJ/mol
# GULP energy per Si atom -12392.842276 kJ/mol
# Density = 2.192717 g / cm^3
# Si number density = 21.977188 Si / 1000 Ang^3
#
#
#
# Elastic Constant Matrix: (Units=GPa)
#
#
# Indices 1 2 3 4 5 6 
#
# 1 134.0598 30.4966 43.5242 2.3820 15.3098 -15.9119
# 2 30.4966 102.1699 33.4866 15.2457 -0.7676 -21.9058
# 3 43.5242 33.4866 114.4158 24.8993 -5.4792 -7.1896
# 4 2.3820 15.2457 24.8993 36.6330 0.0937 -3.9527
# 5 15.3098 -0.7676 -5.4792 0.0937 38.7605 -0.9077
# 6 -15.9119 -21.9058 -7.1896 -3.9527 -0.9077 35.0618
#
#
#
# Elastic Compliance Matrix: (Units=1/GPa)
#
#
# Indices 1 2 3 4 5 6 
#
# 1 0.009911 -0.001491 -0.004022 0.003042 -0.004451 0.002969
# 2 -0.001491 0.012781 -0.002047 -0.003125 0.000714 0.006555
# 3 -0.004022 -0.002047 0.012601 -0.007599 0.003318 -0.001292
# 4 0.003042 -0.003125 -0.007599 0.033746 -0.002381 0.001612
# 5 -0.004451 0.000714 0.003318 -0.002381 0.028036 -0.000436
# 6 0.002969 0.006555 -0.001292 0.001612 -0.000436 0.033870
#
#
# Mechanical properties :
#
#
# Convention : Reuss Voigt Hill
#
# Bulk Modulus (GPa) = 49.57451 62.85114 56.21283
# Shear Modulus (GPa) = 32.72492 38.30027 35.51260
#
# Velocity S-wave (km/s) = 3.86300 4.17913 4.02417
# Velocity P-wave (km/s) = 6.51945 7.20744 6.87206
#
# Compressibility (1/GPa) = 0.02017166
#
# Stress axis : x y z
#
# Youngs Moduli (GPa) = 100.89741 78.24299 79.35980
#
# Poissons Ratio (x) = 0.11663 0.31922
# Poissons Ratio (y) = 0.15040 0.16248
# Poissons Ratio (z) = 0.40585 0.16020
#
# Static dielectric constant tensor:
#      x y z
#    x 3.908890 -0.029160 0.257660 
#    y -0.029160 4.179990 0.100500 
#    z 0.257660 0.100500 3.802190 
# 
# 
# High freq. dielectric constant tensor:
#      x y z
#    x 1.873420 -0.013200 0.006010 
#    y -0.013200 1.875910 0.009080 
#    z 0.006010 0.009080 1.851730 
# 
# From -- ./inp_files/244907.got.cif
#   From: 2010.06.25/outbox.cif.g09.slc.cpg/sg2_123_cif.got.tgz:244907.got - 2010.06.27 13:26:56.
