data_PCOD8020635
_publ_section_title
;
Structure prediction by ZEFSAII (Michael W. Deem and Ramdas Pophale) SiO2 
 PCOD8020635
Probable space group: P -1
;
_chemical_formula_sum "Si O2"
_cell_formula_units_Z 14
_cell_length_a 20.973548
_cell_length_b 5.251304
_cell_length_c 9.627778
_cell_angle_alpha 78.855516
_cell_angle_beta 139.280958
_cell_angle_gamma 77.887091
_cell_volume 563.793948
_symmetry_space_group_name_H-M "P -1"
_symmetry_group_IT_number 2
_symmetry_cell_setting 'triclinic'
loop_
_space_group_symop_operation_xyz
x,y,z
-x,-y,-z
loop_
_atom_site_type_symbol
_atom_site_label
_atom_site_fract_x
_atom_site_fract_y
_atom_site_fract_z
Si Si1 0.378941 0.704877 0.361392
Si Si2 0.951042 0.632953 0.103867
Si Si3 0.671797 0.854863 0.239045
Si Si4 0.843717 0.952106 0.636251
Si Si5 0.866924 0.397545 0.427835
Si Si6 0.561795 0.559198 0.218781
Si Si7 0.770746 0.562319 0.957559
O O1 0.500000 0.500000 0.500000
O O2 0.402177 0.671700 0.568293
O O3 0.297145 0.583139 0.199572
O O4 0.315986 0.070961 0.185661
O O5 0.067495 0.402034 0.232199
O O6 0.000945 0.679866 0.326440
O O7 0.873599 0.951380 0.849631
O O8 0.869031 0.507959 0.015471
O O9 0.711490 0.023512 0.396741
O O10 0.761443 0.740951 0.269877
O O11 0.673169 0.568574 0.348184
O O12 0.541386 0.090301 0.937213
O O13 0.863350 0.162030 0.548673
O O14 0.841986 0.361503 0.232295
O O15 0.500000 0.500000 0.000000
#
# Coordination Sequence:
#
# PCOD8020635 Si02
#       7
#     2   2   2   2   2   2   2
#     4  12  30  50  73 105 149 192 240 299 363 428
#     4  10  24  43  68 106 138 187 237 297 353 431
#     4  10  23  40  68 104 138 181 242 295 365 414
#     4  10  22  42  70  98 146 177 240 296 363 414
#     4  11  24  42  72 102 141 192 232 299 355 437
#     4  11  25  42  73 101 140 186 248 300 356 426
#     4  12  29  47  76 103 150 191 241 288 368 433
#
# _framework density 24.831765999999998
#
# number of rings (size 3 to 8) (size 9 to 14) (size 15 to 20)
#    0.000    1.143    0.000    3.857   18.000    0.571 
#    0.000    0.000    0.000    0.000    0.000    0.000 
#    0.000    0.000    0.000    0.000    0.000    0.000 
#
# Total GULP energy -173551.834014 kJ/mol
# GULP energy per Si atom -12396.559572 kJ/mol
# Density = 2.477525 g / cm^3
# Si number density = 24.831766 Si / 1000 Ang^3
#
#
#
# Elastic Constant Matrix: (Units=GPa)
#
#
# Indices 1 2 3 4 5 6 
#
# 1 85.9556 -5.2019 52.2473 11.1388 -0.2440 9.3478
# 2 -5.2019 65.1015 27.7252 21.0452 -3.0721 19.5598
# 3 52.2473 27.7252 156.6909 23.3751 -17.8714 8.4402
# 4 11.1388 21.0452 23.3751 42.4759 3.7150 7.0251
# 5 -0.2440 -3.0721 -17.8714 3.7150 54.3662 4.5764
# 6 9.3478 19.5598 8.4402 7.0251 4.5764 27.3021
#
#
#
# Elastic Compliance Matrix: (Units=1/GPa)
#
#
# Indices 1 2 3 4 5 6 
#
# 1 0.017228 0.007649 -0.006193 -0.003447 -0.000577 -0.008481
# 2 0.007649 0.026675 -0.004558 -0.009909 0.002248 -0.018147
# 3 -0.006193 -0.004558 0.009770 -0.002148 0.002868 0.002438
# 4 -0.003447 -0.009909 -0.002148 0.030570 -0.003511 0.001666
# 5 -0.000577 0.002248 0.002868 -0.003511 0.020102 -0.004766
# 6 -0.008481 -0.018147 0.002438 0.001666 -0.004766 0.052149
#
#
# Mechanical properties :
#
#
# Convention : Reuss Voigt Hill
#
# Bulk Modulus (GPa) = 21.06664 50.80991 35.93827
# Shear Modulus (GPa) = 28.00805 40.36067 34.18436
#
# Velocity S-wave (km/s) = 3.36208 4.03595 3.71433
# Velocity P-wave (km/s) = 4.85527 6.49805 5.73578
#
# Compressibility (1/GPa) = 0.04746842
#
# Stress axis : x y z
#
# Youngs Moduli (GPa) = 58.04367 37.48874 102.35709
#
# Poissons Ratio (x) = -0.28675 0.63389
# Poissons Ratio (y) = -0.44398 0.46657
# Poissons Ratio (z) = 0.35946 0.17088
#
# Static dielectric constant tensor:
#      x y z
#    x 4.622810 -0.332510 0.360960 
#    y -0.332510 4.593970 -0.337550 
#    z 0.360960 -0.337550 5.208940 
# 
# 
# High freq. dielectric constant tensor:
#      x y z
#    x 1.989930 -0.000990 0.014530 
#    y -0.000990 1.981360 -0.009690 
#    z 0.014530 -0.009690 2.013090 
# 
# From -- ./inp_files/26822.got.cif
#   From: 2010.06.25/outbox.cif.g09.slc.cpg/sg2_14_cif.got.tgz:26822.got - 2010.06.27 13:26:56.
