data_PCOD8020597
_publ_section_title
;
Structure prediction by ZEFSAII (Michael W. Deem and Ramdas Pophale) SiO2 
 PCOD8020597
Probable space group: P -1
;
_chemical_formula_sum "Si O2"
_cell_formula_units_Z 14
_cell_length_a 18.306372
_cell_length_b 9.345573
_cell_length_c 11.303578
_cell_angle_alpha 49.473653
_cell_angle_beta 30.746828
_cell_angle_gamma 40.782583
_cell_volume 645.790560
_symmetry_space_group_name_H-M "P -1"
_symmetry_group_IT_number 2
_symmetry_cell_setting 'triclinic'
loop_
_space_group_symop_operation_xyz
x,y,z
-x,-y,-z
loop_
_atom_site_type_symbol
_atom_site_label
_atom_site_fract_x
_atom_site_fract_y
_atom_site_fract_z
Si Si1 0.034373 0.762782 0.614069
Si Si2 0.332463 0.731592 0.599504
Si Si3 0.862547 0.474958 0.637318
Si Si4 0.445353 0.050577 0.184994
Si Si5 0.701662 0.894712 0.122999
Si Si6 0.316493 0.739945 0.879327
Si Si7 0.314311 0.508378 0.540353
O O1 0.045453 0.626036 0.558186
O O2 0.209482 0.620183 0.510762
O O3 0.000000 0.000000 0.500000
O O4 0.894307 0.771081 0.888284
O O5 0.500000 0.500000 0.500000
O O6 0.247639 0.816922 0.799814
O O7 0.226309 0.680127 0.680284
O O8 0.358999 0.915310 0.408602
O O9 0.689798 0.697857 0.742772
O O10 0.000000 0.500000 0.500000
O O11 0.817419 0.307762 0.850810
O O12 0.596776 0.990840 0.096346
O O13 0.500000 0.000000 0.000000
O O14 0.662093 0.725842 0.333377
O O15 0.665835 0.080976 0.167372
O O16 0.502941 0.529402 0.723580
#
# Coordination Sequence:
#
# PCOD8020597 Si02
#       7
#     2   2   2   2   2   2   2
#     4  12  28  47  67 105 148 189 233 291 355 413
#     4  10  22  42  70 105 136 177 233 292 348 416
#     4  12  29  47  70 105 145 186 237 298 357 419
#     4  12  25  43  78 106 138 187 239 294 352 417
#     4  12  25  46  74 102 142 186 236 292 352 425
#     4  11  24  46  74 103 139 184 241 291 354 424
#     4  11  25  45  75 101 143 183 237 291 354 421
#
# _framework density 21.678854999999999
#
# number of rings (size 3 to 8) (size 9 to 14) (size 15 to 20)
#    0.000    0.571    4.286    4.286   10.000    1.143 
#    0.000    1.429    0.000    0.000    0.000    0.000 
#    0.000    0.000    0.000    0.000    0.000    0.000 
#
# Total GULP energy -173578.533883 kJ/mol
# GULP energy per Si atom -12398.466706 kJ/mol
# Density = 2.162951 g / cm^3
# Si number density = 21.678855 Si / 1000 Ang^3
#
#
#
# Elastic Constant Matrix: (Units=GPa)
#
#
# Indices 1 2 3 4 5 6 
#
# 1 168.1971 43.6401 25.3471 -1.1843 8.2001 23.9906
# 2 43.6401 80.5804 11.5080 -5.6797 10.4059 15.6823
# 3 25.3471 11.5080 79.7642 -2.3777 1.6269 1.0751
# 4 -1.1843 -5.6797 -2.3777 38.4313 4.4283 1.3264
# 5 8.2001 10.4059 1.6269 4.4283 39.2096 2.4212
# 6 23.9906 15.6823 1.0751 1.3264 2.4212 44.1105
#
#
#
# Elastic Compliance Matrix: (Units=1/GPa)
#
#
# Indices 1 2 3 4 5 6 
#
# 1 0.007483 -0.003185 -0.001877 -0.000207 -0.000442 -0.002861
# 2 -0.003185 0.015646 -0.001044 0.002682 -0.003518 -0.003692
# 3 -0.001877 -0.001044 0.013287 0.000575 -0.000012 0.001051
# 4 -0.000207 0.002682 0.000575 0.026916 -0.003642 -0.001465
# 5 -0.000442 -0.003518 -0.000012 -0.003642 0.026934 0.000122
# 6 -0.002861 -0.003692 0.001051 -0.001465 0.000122 0.025551
#
#
# Mechanical properties :
#
#
# Convention : Reuss Voigt Hill
#
# Bulk Modulus (GPa) = 41.31467 54.39246 47.85357
# Shear Modulus (GPa) = 36.73854 40.88672 38.81263
#
# Velocity S-wave (km/s) = 4.12110 4.34754 4.23584
# Velocity P-wave (km/s) = 6.46093 7.09550 6.78564
#
# Compressibility (1/GPa) = 0.02420448
#
# Stress axis : x y z
#
# Youngs Moduli (GPa) = 133.63904 63.91436 75.26051
#
# Poissons Ratio (x) = 0.20358 0.14126
# Poissons Ratio (y) = 0.42566 0.07855
# Poissons Ratio (z) = 0.25083 0.06671
#
# Static dielectric constant tensor:
#      x y z
#    x 4.626980 0.262360 0.212140 
#    y 0.262360 3.952900 0.079600 
#    z 0.212140 0.079600 3.931390 
# 
# 
# High freq. dielectric constant tensor:
#      x y z
#    x 1.875660 0.014410 0.009470 
#    y 0.014410 1.855610 -0.007090 
#    z 0.009470 -0.007090 1.850440 
# 
# From -- ./inp_files/154313.got.cif
#   From: 2010.06.25/outbox.cif.g09.slc.cpg/sg2_78_cif.got.tgz:154313.got - 2010.06.27 13:26:56.
