data_PCOD8020643
_publ_section_title
;
Structure prediction by ZEFSAII (Michael W. Deem and Ramdas Pophale) SiO2 
 PCOD8020643
Probable space group: P -1
;
_chemical_formula_sum "Si O2"
_cell_formula_units_Z 16
_cell_length_a 8.837556
_cell_length_b 8.384218
_cell_length_c 18.111267
_cell_angle_alpha 30.545405
_cell_angle_beta 93.680006
_cell_angle_gamma 92.355565
_cell_volume 680.346362
_symmetry_space_group_name_H-M "P -1"
_symmetry_group_IT_number 2
_symmetry_cell_setting 'triclinic'
loop_
_space_group_symop_operation_xyz
x,y,z
-x,-y,-z
loop_
_atom_site_type_symbol
_atom_site_label
_atom_site_fract_x
_atom_site_fract_y
_atom_site_fract_z
Si Si1 0.433419 0.372156 0.176045
Si Si2 0.335954 0.086984 0.435126
Si Si3 0.079906 0.928872 0.159222
Si Si4 0.608320 0.801462 0.330001
Si Si5 0.101062 0.687164 0.636895
Si Si6 0.687759 0.486982 0.600539
Si Si7 0.758295 0.577722 0.108850
Si Si8 0.798300 0.259564 0.080763
O O1 0.341658 0.272823 0.285095
O O2 0.575408 0.599239 0.107164
O O3 0.501901 0.073654 0.254296
O O4 0.303888 0.544993 0.056879
O O5 0.262200 0.304355 0.411248
O O6 0.500000 0.000000 0.500000
O O7 0.240934 0.765180 0.554857
O O8 0.208063 0.831241 0.263116
O O9 0.982507 0.629041 0.257379
O O10 0.968920 0.200716 0.080693
O O11 0.167937 0.074180 0.032334
O O12 0.716160 0.647387 0.458307
O O13 0.493727 0.565015 0.381854
O O14 0.719109 0.924630 0.221550
O O15 0.166118 0.644873 0.738356
O O16 0.000000 0.000000 0.500000
O O17 0.800270 0.429333 0.090960
#
# Coordination Sequence:
#
# PCOD8020643 Si02
#       8
#     2   2   2   2   2   2   2   2
#     4  11  23  44  75 100 136 179 233 290 340 408
#     4  12  23  45  71 101 131 182 236 282 340 402
#     4  12  27  44  67 105 146 183 228 276 358 415
#     4  10  22  42  70  99 137 176 237 285 339 401
#     4  12  27  47  70 101 144 187 229 287 348 412
#     4  11  23  43  67 101 137 181 226 291 341 410
#     4  11  24  49  70 100 144 182 231 286 347 409
#     4  11  25  43  70 104 137 184 230 281 352 414
#
# _framework density 23.517431999999999
#
# number of rings (size 3 to 8) (size 9 to 14) (size 15 to 20)
#    0.000    0.750    3.750    4.500    3.500    1.500 
#    0.000    1.875    0.000    0.000    0.000    0.000 
#    0.000    0.000    0.000    0.000    0.000    0.000 
#
# Total GULP energy -198310.608611 kJ/mol
# GULP energy per Si atom -12394.413038 kJ/mol
# Density = 2.346391 g / cm^3
# Si number density = 23.517432 Si / 1000 Ang^3
#
#
#
# Elastic Constant Matrix: (Units=GPa)
#
#
# Indices 1 2 3 4 5 6 
#
# 1 118.5881 19.1275 79.2526 14.6912 -0.7987 2.4463
# 2 19.1275 47.7858 32.8471 13.4836 -8.8338 13.3525
# 3 79.2526 32.8471 191.7374 30.0253 -4.4344 3.9393
# 4 14.6912 13.4836 30.0253 41.6742 11.0283 -1.6247
# 5 -0.7987 -8.8338 -4.4344 11.0283 69.3486 -9.9318
# 6 2.4463 13.3525 3.9393 -1.6247 -9.9318 22.7805
#
#
#
# Elastic Compliance Matrix: (Units=1/GPa)
#
#
# Indices 1 2 3 4 5 6 
#
# 1 0.011765 -0.001663 -0.004554 -0.000241 -0.000278 0.000361
# 2 -0.001663 0.031382 -0.002881 -0.008888 0.002751 -0.017152
# 3 -0.004554 -0.002881 0.008140 -0.003500 0.000781 0.000861
# 4 -0.000241 -0.008888 -0.003500 0.031155 -0.005502 0.005664
# 5 -0.000278 0.002751 0.000781 -0.005502 0.016415 0.005046
# 6 0.000361 -0.017152 0.000861 0.005664 0.005046 0.056367
#
#
# Mechanical properties :
#
#
# Convention : Reuss Voigt Hill
#
# Bulk Modulus (GPa) = 30.21996 68.95173 49.58585
# Shear Modulus (GPa) = 27.10776 41.88627 34.49701
#
# Velocity S-wave (km/s) = 3.39878 4.22485 3.83413
# Velocity P-wave (km/s) = 5.31791 7.29262 6.38210
#
# Compressibility (1/GPa) = 0.03309071
#
# Stress axis : x y z
#
# Youngs Moduli (GPa) = 84.99935 31.86561 122.85208
#
# Poissons Ratio (x) = 0.05299 0.55948
# Poissons Ratio (y) = 0.14135 0.35392
# Poissons Ratio (z) = 0.38710 0.09180
#
# Static dielectric constant tensor:
#      x y z
#    x 4.463300 0.207800 -0.136280 
#    y 0.207800 3.067130 0.208170 
#    z -0.136280 0.208170 4.588080 
# 
# 
# High freq. dielectric constant tensor:
#      x y z
#    x 1.948380 0.017650 -0.008240 
#    y 0.017650 1.903130 -0.001700 
#    z -0.008240 -0.001700 1.955820 
# 
# From -- ./inp_files/556734.got.cif
#   From: 2010.06.25/outbox.cif.g09.slc.cpg/sg2_279_cif.got.tgz:556734.got - 2010.06.27 13:26:56.
