data_PCOD8020154
_publ_section_title
;
Structure prediction by ZEFSAII (Michael W. Deem and Ramdas Pophale) SiO2 
 PCOD8020154
Probable space group: P -1
;
_chemical_formula_sum "Si O2"
_cell_formula_units_Z 14
_cell_length_a 5.148014
_cell_length_b 13.453760
_cell_length_c 9.014958
_cell_angle_alpha 96.952035
_cell_angle_beta 89.316129
_cell_angle_gamma 83.365258
_cell_volume 615.423225
_symmetry_space_group_name_H-M "P -1"
_symmetry_group_IT_number 2
_symmetry_cell_setting 'triclinic'
loop_
_space_group_symop_operation_xyz
x,y,z
-x,-y,-z
loop_
_atom_site_type_symbol
_atom_site_label
_atom_site_fract_x
_atom_site_fract_y
_atom_site_fract_z
Si Si1 0.918291 0.740183 0.582216
Si Si2 0.907137 0.584088 0.133546
Si Si3 0.432819 0.217334 0.923001
Si Si4 0.234785 0.726097 0.309863
Si Si5 0.349488 0.420375 0.570636
Si Si6 0.755027 0.981257 0.094250
Si Si7 0.386733 0.817229 0.751731
O O1 0.872790 0.621022 0.541925
O O2 0.655308 0.802983 0.655234
O O3 0.994595 0.778404 0.422672
O O4 0.163347 0.749140 0.690650
O O5 0.158289 0.631833 0.198843
O O6 0.709655 0.670376 0.073068
O O7 0.770826 0.534418 0.265428
O O8 0.000000 0.500000 0.000000
O O9 0.659495 0.195827 0.791955
O O10 0.228570 0.135687 0.876329
O O11 0.559573 0.209702 0.082256
O O12 0.458994 0.681871 0.415650
O O13 0.500000 0.500000 0.500000
O O14 0.725445 0.063918 0.242112
O O15 0.500000 0.000000 0.000000
O O16 0.000000 0.000000 0.000000
#
# Coordination Sequence:
#
# PCOD8020154 Si02
#       7
#     2   2   2   2   2   2   2
#     4  11  23  44  66 101 138 173 226 282 339 403
#     4  10  24  42  68  99 135 175 233 278 339 407
#     4  10  24  42  71  99 140 181 221 289 344 396
#     4  10  23  45  64  94 140 179 219 278 354 395
#     4  10  23  44  67  93 134 183 225 283 342 400
#     4  10  22  42  66 105 140 174 225 279 344 399
#     4  11  23  41  72 105 132 178 233 280 329 414
#
# _framework density 22.748570999999998
#
# number of rings (size 3 to 8) (size 9 to 14) (size 15 to 20)
#    0.000    1.714    1.429    1.714    6.000    8.000 
#    0.000    1.429    0.000    0.000    0.000    0.000 
#    0.000    0.000    0.000    0.000    0.000    0.000 
#
# Total GULP energy -173501.547094 kJ/mol
# GULP energy per Si atom -12392.967650 kJ/mol
# Density = 2.269679 g / cm^3
# Si number density = 22.748571 Si / 1000 Ang^3
#
#
#
# Elastic Constant Matrix: (Units=GPa)
#
#
# Indices 1 2 3 4 5 6 
#
# 1 144.8052 49.7030 79.5111 1.3464 -23.6289 31.9357
# 2 49.7030 115.2475 92.1742 2.0477 -21.0078 29.5427
# 3 79.5111 92.1742 171.9768 8.6235 -32.1054 22.3163
# 4 1.3464 2.0477 8.6235 17.1201 6.2824 -6.1189
# 5 -23.6289 -21.0078 -32.1054 6.2824 59.0045 -0.0343
# 6 31.9357 29.5427 22.3163 -6.1189 -0.0343 39.3017
#
#
#
# Elastic Compliance Matrix: (Units=1/GPa)
#
#
# Indices 1 2 3 4 5 6 
#
# 1 0.010935 0.000982 -0.003865 -0.002924 0.002932 -0.007882
# 2 0.000982 0.017801 -0.008073 -0.002678 0.002618 -0.010010
# 3 -0.003865 -0.008073 0.012652 -0.005834 0.003084 0.001120
# 4 -0.002924 -0.002678 -0.005834 0.073556 -0.013120 0.019142
# 5 0.002932 0.002618 0.003084 -0.013120 0.022124 -0.008125
# 6 -0.007882 -0.010010 0.001120 0.019142 -0.008125 0.041710
#
#
# Mechanical properties :
#
#
# Convention : Reuss Voigt Hill
#
# Bulk Modulus (GPa) = 51.34669 97.20067 74.27368
# Shear Modulus (GPa) = 24.13347 37.12801 30.63074
#
# Velocity S-wave (km/s) = 3.26065 4.04431 3.67344
# Velocity P-wave (km/s) = 6.06598 8.03926 7.12130
#
# Compressibility (1/GPa) = 0.01947545
#
# Stress axis : x y z
#
# Youngs Moduli (GPa) = 91.44924 56.17804 79.04123
#
# Poissons Ratio (x) = -0.05519 0.30553
# Poissons Ratio (y) = -0.08985 0.63809
# Poissons Ratio (z) = 0.35349 0.45352
#
# Static dielectric constant tensor:
#      x y z
#    x 4.434650 0.278860 -0.127000 
#    y 0.278860 4.396400 0.123330 
#    z -0.127000 0.123330 4.306990 
# 
# 
# High freq. dielectric constant tensor:
#      x y z
#    x 1.920060 0.018460 -0.010240 
#    y 0.018460 1.869860 0.008630 
#    z -0.010240 0.008630 1.903560 
# 
# From -- ./inp_files/47842.got.cif
#   From: 2010.06.25/outbox.cif.g09.slc.cpg/sg2_24_cif.got.tgz:47842.got - 2010.06.27 13:26:56.
