data_PCOD8020584
_publ_section_title
;
Structure prediction by ZEFSAII (Michael W. Deem and Ramdas Pophale) SiO2 
 PCOD8020584
Probable space group: P -1
;
_chemical_formula_sum "Si O2"
_cell_formula_units_Z 10
_cell_length_a 11.665768
_cell_length_b 11.836843
_cell_length_c 5.336086
_cell_angle_alpha 103.900738
_cell_angle_beta 83.637536
_cell_angle_gamma 37.698081
_cell_volume 377.018004
_symmetry_space_group_name_H-M "P -1"
_symmetry_group_IT_number 2
_symmetry_cell_setting 'triclinic'
loop_
_space_group_symop_operation_xyz
x,y,z
-x,-y,-z
loop_
_atom_site_type_symbol
_atom_site_label
_atom_site_fract_x
_atom_site_fract_y
_atom_site_fract_z
Si Si1 0.721381 0.624461 0.575881
Si Si2 0.920210 0.662134 0.299332
Si Si3 0.248507 0.753645 0.349538
Si Si4 0.722085 0.049681 0.295276
Si Si5 0.808058 0.323716 0.171137
O O1 0.768975 0.719695 0.561248
O O2 0.463674 0.826090 0.795218
O O3 0.786424 0.483337 0.251023
O O4 0.869413 0.459204 0.686277
O O5 0.774603 0.889320 0.350541
O O6 0.000000 0.500000 0.000000
O O7 0.372446 0.768638 0.398011
O O8 0.281450 0.640052 0.518599
O O9 0.325375 0.625959 0.999491
O O10 0.000000 0.000000 0.500000
O O11 0.932296 0.924706 0.039996
#
# Coordination Sequence:
#
# PCOD8020584 Si02
#       5
#     2   2   2   2   2
#     4  11  25  44  72  98 137 183 231 284 348 410
#     4  11  24  48  65  98 141 176 231 299 336 403
#     4  10  22  42  70 101 143 181 222 286 347 409
#     4  11  23  45  71 102 132 187 230 277 350 417
#     4  11  23  46  68 103 146 177 225 291 343 410
#
# _framework density 26.523931999999999
#
# number of rings (size 3 to 8) (size 9 to 14) (size 15 to 20)
#    0.000    1.200    2.000    5.400    0.000    2.400 
#   14.400    0.000    0.000    1.200    0.000    0.000 
#    0.000    0.000    0.000    0.000    0.000    0.000 
#
# Total GULP energy -123973.728333 kJ/mol
# GULP energy per Si atom -12397.372833 kJ/mol
# Density = 2.646356 g / cm^3
# Si number density = 26.523932 Si / 1000 Ang^3
#
#
#
# Elastic Constant Matrix: (Units=GPa)
#
#
# Indices 1 2 3 4 5 6 
#
# 1 158.9351 68.0819 42.2899 -5.9525 34.0778 -24.8133
# 2 68.0819 103.5006 29.0869 -11.4331 18.3092 -7.9127
# 3 42.2899 29.0869 108.7214 -19.2129 22.9192 11.4565
# 4 -5.9525 -11.4331 -19.2129 32.0746 0.1228 12.0540
# 5 34.0778 18.3092 22.9192 0.1228 35.8226 5.0640
# 6 -24.8133 -7.9127 11.4565 12.0540 5.0640 65.8664
#
#
#
# Elastic Compliance Matrix: (Units=1/GPa)
#
#
# Indices 1 2 3 4 5 6 
#
# 1 0.011680 -0.005610 -0.002682 -0.003433 -0.007277 0.005381
# 2 -0.005610 0.014117 -0.000463 0.004085 -0.001459 -0.000972
# 3 -0.002682 -0.000463 0.013621 0.009294 -0.005290 -0.004729
# 4 -0.003433 0.004085 0.009294 0.041218 -0.003540 -0.009690
# 5 -0.007277 -0.001459 -0.005290 -0.003540 0.039601 -0.004393
# 6 0.005381 -0.000972 -0.004729 -0.009690 -0.004393 0.020026
#
#
# Mechanical properties :
#
#
# Convention : Reuss Voigt Hill
#
# Bulk Modulus (GPa) = 45.64467 72.23050 58.93758
# Shear Modulus (GPa) = 30.28894 42.19926 36.24410
#
# Velocity S-wave (km/s) = 3.38294 3.99305 3.70059
# Velocity P-wave (km/s) = 5.70134 6.96782 6.36615
#
# Compressibility (1/GPa) = 0.02190836
#
# Stress axis : x y z
#
# Youngs Moduli (GPa) = 85.61323 70.83610 73.41754
#
# Poissons Ratio (x) = 0.39740 0.19691
# Poissons Ratio (y) = 0.48030 0.03398
# Poissons Ratio (z) = 0.22962 0.03278
#
# Static dielectric constant tensor:
#      x y z
#    x 5.483600 -0.075270 0.476900 
#    y -0.075270 4.640300 0.082000 
#    z 0.476900 0.082000 4.702900 
# 
# 
# High freq. dielectric constant tensor:
#      x y z
#    x 2.090170 -0.009750 0.020730 
#    y -0.009750 2.075040 0.014610 
#    z 0.020730 0.014610 2.042590 
# 
# From -- ./inp_files/30962.got.cif
#   From: 2010.06.25/outbox.cif.g09.slc.cpg/sg2_16_cif.got.tgz:30962.got - 2010.06.27 13:26:56.
