data_PCOD8020782
_publ_section_title
;
Structure prediction by ZEFSAII (Michael W. Deem and Ramdas Pophale) SiO2 
 PCOD8020782
Probable space group: P -1
;
_chemical_formula_sum "Si O2"
_cell_formula_units_Z 14
_cell_length_a 11.327891
_cell_length_b 11.019637
_cell_length_c 8.592376
_cell_angle_alpha 41.289598
_cell_angle_beta 116.001047
_cell_angle_gamma 102.038806
_cell_volume 622.782819
_symmetry_space_group_name_H-M "P -1"
_symmetry_group_IT_number 2
_symmetry_cell_setting 'triclinic'
loop_
_space_group_symop_operation_xyz
x,y,z
-x,-y,-z
loop_
_atom_site_type_symbol
_atom_site_label
_atom_site_fract_x
_atom_site_fract_y
_atom_site_fract_z
Si Si1 0.916697 0.277739 0.951487
Si Si2 0.801520 0.222631 0.619188
Si Si3 0.108377 0.930894 0.492074
Si Si4 0.332447 0.499704 0.223916
Si Si5 0.555503 0.154999 0.714005
Si Si6 0.372236 0.886357 0.861735
Si Si7 0.860467 0.477196 0.161567
O O1 0.894420 0.190849 0.855184
O O2 0.777293 0.405314 0.803045
O O3 0.026773 0.403280 0.875266
O O4 0.973347 0.097123 0.274549
O O5 0.648267 0.215383 0.577011
O O6 0.808712 0.426201 0.350738
O O7 0.852653 0.059611 0.678521
O O8 0.229145 0.981121 0.614952
O O9 0.083666 0.718697 0.713628
O O10 0.438549 0.332385 0.523696
O O11 0.406335 0.665414 0.048197
O O12 0.263702 0.415395 0.118736
O O13 0.489324 0.986941 0.770724
O O14 0.640419 0.087087 0.983663
#
# Coordination Sequence:
#
# PCOD8020782 Si02
#       7
#     2   2   2   2   2   2   2
#     4  12  21  41  66  88 125 160 198 253 301 353
#     4  10  23  42  58  92 126 159 201 245 298 367
#     4   9  23  42  59  92 123 153 208 247 295 365
#     4  11  23  41  64  94 120 157 204 253 296 362
#     4  11  23  43  63  91 122 157 208 246 301 362
#     4  10  22  43  62  90 119 163 203 249 304 342
#     4   9  23  41  59  97 118 161 200 244 314 346
#
# _framework density 22.479745000000001
#
# number of rings (size 3 to 8) (size 9 to 14) (size 15 to 20)
#    0.857    0.857    1.429    2.571    0.000    4.571 
#    2.571    0.000    0.000    0.000    0.000    0.000 
#    0.000    0.000    0.000    0.000    0.000    0.000 
#
# Total GULP energy -173531.170966 kJ/mol
# GULP energy per Si atom -12395.083640 kJ/mol
# Density = 2.242858 g / cm^3
# Si number density = 22.479745 Si / 1000 Ang^3
#
#
#
# Elastic Constant Matrix: (Units=GPa)
#
#
# Indices 1 2 3 4 5 6 
#
# 1 85.3091 53.2861 28.1526 -15.8457 3.4791 27.6040
# 2 53.2861 108.3503 44.1706 11.6756 11.0340 32.9629
# 3 28.1526 44.1706 90.7654 6.6798 10.2114 9.2807
# 4 -15.8457 11.6756 6.6798 34.8432 13.1853 -5.1761
# 5 3.4791 11.0340 10.2114 13.1853 27.1866 -10.2362
# 6 27.6040 32.9629 9.2807 -5.1761 -10.2362 37.2466
#
#
#
# Elastic Compliance Matrix: (Units=1/GPa)
#
#
# Indices 1 2 3 4 5 6 
#
# 1 0.025403 -0.008868 -0.002442 0.017693 -0.011482 -0.011067
# 2 -0.008868 0.021810 -0.004881 -0.010127 -0.006510 -0.014709
# 3 -0.002442 -0.004881 0.014238 -0.001270 -0.001709 0.001936
# 4 0.017693 -0.010127 -0.001270 0.048360 -0.022358 -0.003258
# 5 -0.011482 -0.006510 -0.001709 -0.022358 0.063293 0.028984
# 6 -0.011067 -0.014709 0.001936 -0.003258 0.028984 0.055098
#
#
# Mechanical properties :
#
#
# Convention : Reuss Voigt Hill
#
# Bulk Modulus (GPa) = 34.40270 59.51594 46.95932
# Shear Modulus (GPa) = 18.49980 30.44297 24.47138
#
# Velocity S-wave (km/s) = 2.87183 3.68399 3.30297
# Velocity P-wave (km/s) = 5.13163 6.68046 5.95660
#
# Compressibility (1/GPa) = 0.02906749
#
# Stress axis : x y z
#
# Youngs Moduli (GPa) = 39.36600 45.85146 70.23322
#
# Poissons Ratio (x) = 0.40660 0.17154
# Poissons Ratio (y) = 0.34909 0.34283
# Poissons Ratio (z) = 0.09615 0.22381
#
# Static dielectric constant tensor:
#      x y z
#    x 3.865640 0.240770 -0.134510 
#    y 0.240770 4.060120 0.158710 
#    z -0.134510 0.158710 4.090650 
# 
# 
# High freq. dielectric constant tensor:
#      x y z
#    x 1.870720 0.019290 -0.009190 
#    y 0.019290 1.890160 0.017550 
#    z -0.009190 0.017550 1.892010 
# 
# From -- ./inp_files/256133.got.cif
#   From: 2010.06.25/outbox.cif.g09.slc.cpg/sg2_129_cif.got.tgz:256133.got - 2010.06.27 13:26:56.
