data_PCOD8020302
_publ_section_title
;
Structure prediction by ZEFSAII (Michael W. Deem and Ramdas Pophale) SiO2 
 PCOD8020302
Probable space group: P -1
;
_chemical_formula_sum "Si O2"
_cell_formula_units_Z 14
_cell_length_a 11.273910
_cell_length_b 11.329690
_cell_length_c 11.370032
_cell_angle_alpha 141.880117
_cell_angle_beta 43.341801
_cell_angle_gamma 139.162625
_cell_volume 553.981331
_symmetry_space_group_name_H-M "P -1"
_symmetry_group_IT_number 2
_symmetry_cell_setting 'triclinic'
loop_
_space_group_symop_operation_xyz
x,y,z
-x,-y,-z
loop_
_atom_site_type_symbol
_atom_site_label
_atom_site_fract_x
_atom_site_fract_y
_atom_site_fract_z
Si Si1 0.182484 0.638880 0.129524
Si Si2 0.214961 0.872128 0.634192
Si Si3 0.449223 0.699084 0.183597
Si Si4 0.742364 0.060975 0.878018
Si Si5 0.157097 0.733149 0.810998
Si Si6 0.106535 0.995085 0.575766
Si Si7 0.520457 0.710724 0.590660
O O1 0.382577 0.690000 0.089911
O O2 0.221939 0.703768 0.014242
O O3 0.029467 0.398291 0.076587
O O4 0.089762 0.783408 0.362870
O O5 0.281811 0.703234 0.393936
O O6 0.083875 0.755787 0.751426
O O7 0.379218 0.073928 0.737313
O O8 0.105398 0.958058 0.689374
O O9 0.500000 0.500000 0.000000
O O10 0.923814 0.018746 0.677752
O O11 0.555235 0.883482 0.807042
O O12 0.732510 0.054278 0.022064
O O13 0.320855 0.648256 0.615385
O O14 0.305997 0.198430 0.557508
O O15 0.500000 0.500000 0.500000
#
# Coordination Sequence:
#
# PCOD8020302 Si02
#       7
#     2   2   2   2   2   2   2
#     4  10  22  42  67  93 130 175 219 269 331 393
#     4  10  23  45  64  97 139 171 221 276 327 393
#     4  10  22  44  70  94 129 183 223 264 333 399
#     4  11  23  42  66  96 132 172 219 267 336 396
#     4  12  24  41  63  98 137 164 215 283 325 388
#     4  10  22  43  69  89 131 179 215 268 333 397
#     4  11  22  41  67  95 126 171 222 273 329 383
#
# _framework density 25.271611
#
# number of rings (size 3 to 8) (size 9 to 14) (size 15 to 20)
#    0.000    1.429    0.000    7.714    2.000    2.857 
#   10.286    0.000    0.000    0.000    0.000    0.000 
#    0.000    0.000    0.000    0.000    0.000    0.000 
#
# Total GULP energy -173451.510666 kJ/mol
# GULP energy per Si atom -12389.393619 kJ/mol
# Density = 2.521409 g / cm^3
# Si number density = 25.271611 Si / 1000 Ang^3
#
#
#
# Elastic Constant Matrix: (Units=GPa)
#
#
# Indices 1 2 3 4 5 6 
#
# 1 113.2952 14.8039 12.3111 6.7995 18.5711 -19.4073
# 2 14.8039 87.4063 8.9180 4.9554 11.7558 -18.5594
# 3 12.3111 8.9180 55.2480 10.7869 4.3023 -21.1657
# 4 6.7995 4.9554 10.7869 29.0866 -9.5332 2.5060
# 5 18.5711 11.7558 4.3023 -9.5332 36.3862 -7.6985
# 6 -19.4073 -18.5594 -21.1657 2.5060 -7.6985 46.8687
#
#
#
# Elastic Compliance Matrix: (Units=1/GPa)
#
#
# Indices 1 2 3 4 5 6 
#
# 1 0.010738 0.000077 0.000599 -0.005077 -0.006055 0.004024
# 2 0.000077 0.013321 0.001138 -0.004667 -0.004575 0.005319
# 3 0.000599 0.001138 0.025047 -0.012050 -0.004263 0.011954
# 4 -0.005077 -0.004667 -0.012050 0.046818 0.015823 -0.009296
# 5 -0.006055 -0.004575 -0.004263 0.015823 0.036468 -0.001100
# 6 0.004024 0.005319 0.011954 -0.009296 -0.001100 0.030823
#
#
# Mechanical properties :
#
#
# Convention : Reuss Voigt Hill
#
# Bulk Modulus (GPa) = 18.96321 36.44616 27.70469
# Shear Modulus (GPa) = 28.22215 37.12940 32.67577
#
# Velocity S-wave (km/s) = 3.34541 3.83719 3.59971
# Velocity P-wave (km/s) = 4.73734 5.83825 5.31637
#
# Compressibility (1/GPa) = 0.05273368
#
# Stress axis : x y z
#
# Youngs Moduli (GPa) = 93.12842 75.06961 39.92455
#
# Poissons Ratio (x) = -0.00577 -0.02392
# Poissons Ratio (y) = -0.00716 -0.04542
# Poissons Ratio (z) = -0.05581 -0.08541
#
# Static dielectric constant tensor:
#      x y z
#    x 4.923820 -0.233770 0.133750 
#    y -0.233770 4.688450 -0.151530 
#    z 0.133750 -0.151530 4.494490 
# 
# 
# High freq. dielectric constant tensor:
#      x y z
#    x 2.030220 -0.002250 0.009170 
#    y -0.002250 1.993280 -0.005250 
#    z 0.009170 -0.005250 1.998690 
# 
# From -- ./inp_files/426827.got.cif
#   From: 2010.06.25/outbox.cif.g09.slc.cpg/sg2_214_cif.got.tgz:426827.got - 2010.06.27 13:26:56.
