data_PCOD8020320
_publ_section_title
;
Structure prediction by ZEFSAII (Michael W. Deem and Ramdas Pophale) SiO2 
 PCOD8020320
Probable space group: P -1
;
_chemical_formula_sum "Si O2"
_cell_formula_units_Z 16
_cell_length_a 8.593060
_cell_length_b 10.890348
_cell_length_c 11.615884
_cell_angle_alpha 51.348108
_cell_angle_beta 95.028144
_cell_angle_gamma 67.145293
_cell_volume 695.049750
_symmetry_space_group_name_H-M "P -1"
_symmetry_group_IT_number 2
_symmetry_cell_setting 'triclinic'
loop_
_space_group_symop_operation_xyz
x,y,z
-x,-y,-z
loop_
_atom_site_type_symbol
_atom_site_label
_atom_site_fract_x
_atom_site_fract_y
_atom_site_fract_z
Si Si1 0.230843 0.210802 0.096100
Si Si2 0.504225 0.197580 0.740393
Si Si3 0.162734 0.453125 0.395757
Si Si4 0.992434 0.937375 0.724963
Si Si5 0.268525 0.759662 0.651070
Si Si6 0.111766 0.839892 0.196594
Si Si7 0.212994 0.439908 0.754788
Si Si8 0.388288 0.223082 0.333549
O O1 0.298661 0.269350 0.175133
O O2 0.410145 0.017926 0.164404
O O3 0.063553 0.187497 0.135438
O O4 0.151748 0.380659 0.899745
O O5 0.335516 0.340598 0.560088
O O6 0.670221 0.231951 0.730306
O O7 0.405140 0.251027 0.827547
O O8 0.103862 0.667457 0.254943
O O9 0.222324 0.342706 0.343561
O O10 0.964589 0.472736 0.398796
O O11 0.841253 0.052757 0.546037
O O12 0.996212 0.077244 0.735957
O O13 0.194554 0.804148 0.752518
O O14 0.254589 0.596634 0.690920
O O15 0.483510 0.694110 0.703866
O O16 0.000000 0.000000 0.000000
O O17 0.500000 0.000000 0.500000
#
# Coordination Sequence:
#
# PCOD8020320 Si02
#       8
#     2   2   2   2   2   2   2   2
#     4  11  24  44  69  96 141 184 219 290 351 405
#     4  11  23  44  69  96 142 185 234 281 338 416
#     4  12  24  42  71  99 138 186 233 285 344 413
#     4  10  22  42  67  94 135 177 226 272 345 406
#     4  11  24  41  69  99 131 176 231 290 332 416
#     4  11  24  43  70 103 143 181 226 287 352 408
#     4  12  27  42  66 108 141 177 236 289 348 404
#     4  12  23  44  71  99 134 179 238 281 352 408
#
# _framework density 23.019936000000001
#
# number of rings (size 3 to 8) (size 9 to 14) (size 15 to 20)
#    0.000    0.750    2.500    5.625    1.750    5.500 
#    0.000    0.000    0.000    0.000    0.000    0.000 
#    0.000    0.000    0.000    0.000    0.000    0.000 
#
# Total GULP energy -198422.208915 kJ/mol
# GULP energy per Si atom -12401.388057 kJ/mol
# Density = 2.296754 g / cm^3
# Si number density = 23.019936 Si / 1000 Ang^3
#
#
#
# Elastic Constant Matrix: (Units=GPa)
#
#
# Indices 1 2 3 4 5 6 
#
# 1 103.3017 31.2734 13.5308 -8.8939 1.0429 12.4118
# 2 31.2734 108.8559 0.0101 5.9064 7.0234 8.6304
# 3 13.5308 0.0101 68.1454 2.6680 -3.9009 9.4965
# 4 -8.8939 5.9064 2.6680 33.2645 -0.3756 -4.7471
# 5 1.0429 7.0234 -3.9009 -0.3756 32.7556 -2.0624
# 6 12.4118 8.6304 9.4965 -4.7471 -2.0624 42.4246
#
#
#
# Elastic Compliance Matrix: (Units=1/GPa)
#
#
# Indices 1 2 3 4 5 6 
#
# 1 0.011507 -0.003360 -0.002174 0.003592 0.000023 -0.001793
# 2 -0.003360 0.010611 0.000919 -0.003144 -0.002211 -0.001840
# 3 -0.002174 0.000919 0.015745 -0.002458 0.001513 -0.003277
# 4 0.003592 -0.003144 -0.002458 0.032330 0.000877 0.003799
# 5 0.000023 -0.002211 0.001513 0.000877 0.031301 0.001724
# 6 -0.001793 -0.001840 -0.003277 0.003799 0.001724 0.025713
#
#
# Mechanical properties :
#
#
# Convention : Reuss Voigt Hill
#
# Bulk Modulus (GPa) = 34.92456 41.10350 38.01403
# Shear Modulus (GPa) = 34.25113 37.38820 35.81966
#
# Velocity S-wave (km/s) = 3.86150 4.03447 3.94893
# Velocity P-wave (km/s) = 5.92334 6.29261 6.11077
#
# Compressibility (1/GPa) = 0.02863315
#
# Stress axis : x y z
#
# Youngs Moduli (GPa) = 86.90584 94.24419 63.51049
#
# Poissons Ratio (x) = 0.31664 0.13805
# Poissons Ratio (y) = 0.29199 -0.05834
# Poissons Ratio (z) = 0.18890 -0.08657
#
# Static dielectric constant tensor:
#      x y z
#    x 4.198420 -0.100570 0.037100 
#    y -0.100570 4.542320 0.162130 
#    z 0.037100 0.162130 3.934030 
# 
# 
# High freq. dielectric constant tensor:
#      x y z
#    x 1.910810 0.000290 0.002540 
#    y 0.000290 1.933150 0.007200 
#    z 0.002540 0.007200 1.899410 
# 
# From -- ./inp_files/263067.got.cif
#   From: 2010.06.25/outbox.cif.g09.slc.cpg/sg2_132_cif.got.tgz:263067.got - 2010.06.27 13:26:56.
