data_PCOD8020456
_publ_section_title
;
Structure prediction by ZEFSAII (Michael W. Deem and Ramdas Pophale) SiO2 
 PCOD8020456
Probable space group: P -1
;
_chemical_formula_sum "Si O2"
_cell_formula_units_Z 14
_cell_length_a 11.935219
_cell_length_b 8.554875
_cell_length_c 8.196034
_cell_angle_alpha 129.205967
_cell_angle_beta 89.138330
_cell_angle_gamma 75.653830
_cell_volume 611.591189
_symmetry_space_group_name_H-M "P -1"
_symmetry_group_IT_number 2
_symmetry_cell_setting 'triclinic'
loop_
_space_group_symop_operation_xyz
x,y,z
-x,-y,-z
loop_
_atom_site_type_symbol
_atom_site_label
_atom_site_fract_x
_atom_site_fract_y
_atom_site_fract_z
Si Si1 0.897086 0.111781 0.947386
Si Si2 0.896383 0.347151 0.786466
Si Si3 0.267760 0.525242 0.609827
Si Si4 0.458635 0.252206 0.660582
Si Si5 0.871978 0.752994 0.494127
Si Si6 0.302197 0.755375 0.454990
Si Si7 0.740587 0.784633 0.189874
O O1 0.942740 0.246963 0.898088
O O2 0.853315 0.935405 0.747288
O O3 0.779223 0.264233 0.138334
O O4 0.000000 0.000000 0.000000
O O5 0.808060 0.221902 0.647842
O O6 0.998028 0.307882 0.625731
O O7 0.841415 0.605914 0.970788
O O8 0.385831 0.354044 0.567337
O O9 0.154312 0.441810 0.540768
O O10 0.305658 0.570492 0.459566
O O11 0.576935 0.319005 0.705473
O O12 0.369649 0.311272 0.859239
O O13 0.500000 0.000000 0.500000
O O14 0.774680 0.819717 0.398291
O O15 0.289330 0.970096 0.707829
#
# Coordination Sequence:
#
# PCOD8020456 Si02
#       7
#     2   2   2   2   2   2   2
#     4  12  26  41  66 100 137 176 222 272 329 396
#     4  12  24  42  67 100 133 184 220 265 338 397
#     4  11  25  45  65 105 135 174 222 274 330 391
#     4   9  20  44  72  95 128 178 223 275 330 386
#     4  11  24  43  65  92 140 174 219 271 323 399
#     4  11  24  41  71  96 137 173 221 276 331 389
#     4  10  22  42  68  96 128 176 225 268 327 396
#
# _framework density 22.891107999999999
#
# number of rings (size 3 to 8) (size 9 to 14) (size 15 to 20)
#    0.000    1.143    4.286    2.143    2.000    4.000 
#    0.000    0.000    0.000    6.857    0.000    0.000 
#    0.000    0.000    0.000    0.000    0.000    0.000 
#
# Total GULP energy -173470.002005 kJ/mol
# GULP energy per Si atom -12390.714429 kJ/mol
# Density = 2.283901 g / cm^3
# Si number density = 22.891108 Si / 1000 Ang^3
#
#
#
# Elastic Constant Matrix: (Units=GPa)
#
#
# Indices 1 2 3 4 5 6 
#
# 1 158.3431 50.9815 34.6670 2.7331 -1.3868 16.1988
# 2 50.9815 112.7919 15.2532 -0.4240 -5.7556 0.0981
# 3 34.6670 15.2532 91.1424 16.8060 2.4472 -2.9905
# 4 2.7331 -0.4240 16.8060 25.4391 -0.8355 -3.0853
# 5 -1.3868 -5.7556 2.4472 -0.8355 19.4775 8.5922
# 6 16.1988 0.0981 -2.9905 -3.0853 8.5922 37.6253
#
#
#
# Elastic Compliance Matrix: (Units=1/GPa)
#
#
# Indices 1 2 3 4 5 6 
#
# 1 0.008479 -0.003330 -0.002957 0.000532 0.001896 -0.004266
# 2 -0.003330 0.010618 -0.000784 0.001242 0.002685 0.000832
# 3 -0.002957 -0.000784 0.014028 -0.008779 -0.003690 0.002513
# 4 0.000532 0.001242 -0.008779 0.045425 0.002473 0.002230
# 5 0.001896 0.002685 -0.003690 0.002473 0.059207 -0.014434
# 6 -0.004266 0.000832 0.002513 0.002230 -0.014434 0.032091
#
#
# Mechanical properties :
#
#
# Convention : Reuss Voigt Hill
#
# Bulk Modulus (GPa) = 52.67827 62.67565 57.67696
# Shear Modulus (GPa) = 26.27195 33.93341 30.10268
#
# Velocity S-wave (km/s) = 3.39144 3.85435 3.63028
# Velocity P-wave (km/s) = 6.19664 6.87367 6.54392
#
# Compressibility (1/GPa) = 0.01898316
#
# Stress axis : x y z
#
# Youngs Moduli (GPa) = 117.94219 94.17897 71.28612
#
# Poissons Ratio (x) = 0.31362 0.21076
# Poissons Ratio (y) = 0.39276 0.05590
# Poissons Ratio (z) = 0.34871 0.07385
#
# Static dielectric constant tensor:
#      x y z
#    x 4.782140 0.205850 -0.059190 
#    y 0.205850 4.330440 0.169620 
#    z -0.059190 0.169620 3.948570 
# 
# 
# High freq. dielectric constant tensor:
#      x y z
#    x 1.910310 0.012980 -0.007170 
#    y 0.012980 1.912080 0.017960 
#    z -0.007170 0.017960 1.883890 
# 
# From -- ./inp_files/245928.got.cif
#   From: 2010.06.25/outbox.cif.g09.slc.cpg/sg2_123_cif.got.tgz:245928.got - 2010.06.27 13:26:56.
