data_PCOD8020536
_publ_section_title
;
Structure prediction by ZEFSAII (Michael W. Deem and Ramdas Pophale) SiO2 
 PCOD8020536
Probable space group: P -1
;
_chemical_formula_sum "Si O2"
_cell_formula_units_Z 14
_cell_length_a 19.548252
_cell_length_b 13.874049
_cell_length_c 9.133020
_cell_angle_alpha 133.246728
_cell_angle_beta 144.019733
_cell_angle_gamma 27.287005
_cell_volume 661.811430
_symmetry_space_group_name_H-M "P -1"
_symmetry_group_IT_number 2
_symmetry_cell_setting 'triclinic'
loop_
_space_group_symop_operation_xyz
x,y,z
-x,-y,-z
loop_
_atom_site_type_symbol
_atom_site_label
_atom_site_fract_x
_atom_site_fract_y
_atom_site_fract_z
Si Si1 0.378365 0.736772 0.026759
Si Si2 0.024511 0.060244 0.957690
Si Si3 0.874249 0.038185 0.434228
Si Si4 0.038128 0.626079 0.406147
Si Si5 0.096023 0.558063 0.751039
Si Si6 0.606508 0.789384 0.550133
Si Si7 0.331133 0.212269 0.013204
O O1 0.511681 0.737349 0.295863
O O2 0.500000 0.500000 0.000000
O O3 0.316570 0.818624 0.835546
O O4 0.214339 0.864985 0.994955
O O5 0.853193 0.154149 0.659157
O O6 0.026020 0.216831 0.152326
O O7 0.000000 0.000000 0.000000
O O8 0.000000 0.000000 0.500000
O O9 0.986151 0.805670 0.421710
O O10 0.148834 0.559718 0.680745
O O11 0.174091 0.411596 0.322626
O O12 0.843193 0.729558 0.210234
O O13 0.000000 0.500000 0.500000
O O14 0.269511 0.389669 0.987532
O O15 0.591337 0.816535 0.725634
O O16 0.500000 0.000000 0.500000
O O17 0.500000 0.000000 0.000000
#
# Coordination Sequence:
#
# PCOD8020536 Si02
#       7
#     2   2   2   2   2   2   2
#     4  11  27  44  66  99 141 175 233 284 335 409
#     4  11  23  44  72  98 132 186 225 277 350 406
#     4  10  22  42  69  94 136 178 229 272 344 398
#     4  11  23  45  69  98 139 179 228 282 342 410
#     4  10  24  41  70  98 139 175 229 280 346 402
#     4  12  26  42  71 101 137 182 231 278 343 408
#     4  11  26  43  69 103 140 175 227 287 344 405
#
# _framework density 21.154060000000001
#
# number of rings (size 3 to 8) (size 9 to 14) (size 15 to 20)
#    0.000    1.143    1.429    3.857   14.000    0.000 
#    0.000    0.714    0.000    0.000    0.000    0.000 
#    0.000    0.000    0.000    0.000    0.000    0.000 
#
# Total GULP energy -173456.266962 kJ/mol
# GULP energy per Si atom -12389.733354 kJ/mol
# Density = 2.110591 g / cm^3
# Si number density = 21.154060 Si / 1000 Ang^3
#
#
#
# Elastic Constant Matrix: (Units=GPa)
#
#
# Indices 1 2 3 4 5 6 
#
# 1 119.4182 78.3365 63.6393 -7.2690 -20.3912 5.3074
# 2 78.3365 191.2230 71.7041 9.8152 -14.1453 13.6254
# 3 63.6393 71.7041 139.3054 4.2834 -26.4401 4.6170
# 4 -7.2690 9.8152 4.2834 37.2472 4.5932 -6.9024
# 5 -20.3912 -14.1453 -26.4401 4.5932 49.3724 -6.5939
# 6 5.3074 13.6254 4.6170 -6.9024 -6.5939 52.2194
#
#
#
# Elastic Compliance Matrix: (Units=1/GPa)
#
#
# Indices 1 2 3 4 5 6 
#
# 1 0.013862 -0.004359 -0.003840 0.004196 0.002149 0.000894
# 2 -0.004359 0.008056 -0.002113 -0.003017 -0.000603 -0.001947
# 3 -0.003840 -0.002113 0.010789 -0.001860 0.003789 0.000220
# 4 0.004196 -0.003017 -0.001860 0.029735 -0.002338 0.004160
# 5 0.002149 -0.000603 0.003789 -0.002338 0.023518 0.002265
# 6 0.000894 -0.001947 0.000220 0.004160 0.002265 0.020384
#
#
# Mechanical properties :
#
#
# Convention : Reuss Voigt Hill
#
# Bulk Modulus (GPa) = 82.74797 97.47848 90.11323
# Shear Modulus (GPa) = 38.16911 43.51891 40.84401
#
# Velocity S-wave (km/s) = 4.25236 4.54060 4.39884
# Velocity P-wave (km/s) = 7.95687 8.58310 8.27591
#
# Compressibility (1/GPa) = 0.01208489
#
# Stress axis : x y z
#
# Youngs Moduli (GPa) = 72.13754 124.12396 92.68628
#
# Poissons Ratio (x) = 0.54108 0.35590
# Poissons Ratio (y) = 0.31446 0.19581
# Poissons Ratio (z) = 0.27699 0.26222
#
# Static dielectric constant tensor:
#      x y z
#    x -2.651910 -4.569480 13.758630 
#    y -4.569480 0.430780 9.832470 
#    z 13.758630 9.832470 -25.470390 
# 
# 
# High freq. dielectric constant tensor:
#      x y z
#    x 1.837890 0.016980 -0.020930 
#    y 0.016980 1.833730 0.003120 
#    z -0.020930 0.003120 1.841510 
# 
# From -- ./inp_files/333750.got.cif
#   From: 2010.06.25/outbox.cif.g09.slc.cpg/sg2_167_cif.got.tgz:333750.got - 2010.06.27 13:26:56.
