data_PCOD8020479
_publ_section_title
;
Structure prediction by ZEFSAII (Michael W. Deem and Ramdas Pophale) SiO2 
 PCOD8020479
Probable space group: P -1
;
_chemical_formula_sum "Si O2"
_cell_formula_units_Z 16
_cell_length_a 8.180541
_cell_length_b 8.746332
_cell_length_c 20.581108
_cell_angle_alpha 48.514659
_cell_angle_beta 135.545062
_cell_angle_gamma 112.232400
_cell_volume 759.952879
_symmetry_space_group_name_H-M "P -1"
_symmetry_group_IT_number 2
_symmetry_cell_setting 'triclinic'
loop_
_space_group_symop_operation_xyz
x,y,z
-x,-y,-z
loop_
_atom_site_type_symbol
_atom_site_label
_atom_site_fract_x
_atom_site_fract_y
_atom_site_fract_z
Si Si1 0.909517 0.184213 0.970094
Si Si2 0.544809 0.290819 0.611852
Si Si3 0.367742 0.222960 0.834703
Si Si4 0.399738 0.565327 0.847831
Si Si5 0.128384 0.570494 0.902552
Si Si6 0.210427 0.313220 0.621959
Si Si7 0.999633 0.966665 0.827562
Si Si8 0.214476 0.995645 0.611320
O O1 0.639698 0.172754 0.908454
O O2 0.952400 0.405220 0.893278
O O3 0.052843 0.139568 0.090147
O O4 0.000000 0.000000 0.000000
O O5 0.500000 0.500000 0.500000
O O6 0.457722 0.344149 0.647195
O O7 0.391366 0.124090 0.588042
O O8 0.818488 0.184801 0.709827
O O9 0.315698 0.390004 0.829928
O O10 0.232842 0.297630 0.709378
O O11 0.267213 0.018824 0.886807
O O12 0.240087 0.596348 0.857476
O O13 0.358447 0.769003 0.733768
O O14 0.674418 0.502583 0.964951
O O15 0.977157 0.796160 0.814054
O O16 0.000000 0.500000 0.500000
O O17 0.130050 0.110185 0.623624
O O18 0.000000 0.000000 0.500000
#
# Coordination Sequence:
#
# PCOD8020479 Si02
#       8
#     2   2   2   2   2   2   2   2
#     4  12  26  41  65 104 138 181 228 283 346 414
#     4  10  24  42  70 100 136 180 226 287 343 406
#     4  12  25  41  70  97 136 184 232 275 350 412
#     4  11  24  43  71 100 138 184 231 286 350 415
#     4  11  26  44  69 101 145 177 234 287 350 410
#     4  10  22  42  68  98 131 176 226 281 339 405
#     4  12  24  44  68  97 142 183 227 284 349 411
#     4  10  23  43  72  98 135 177 230 282 349 404
#
# _framework density 21.053934999999999
#
# number of rings (size 3 to 8) (size 9 to 14) (size 15 to 20)
#    0.750    0.250    1.250    5.250    8.750    0.000 
#    0.000    0.000    0.000    3.000    0.000    0.000 
#    0.000    0.000    0.000    0.000    0.000    0.000 
#
# Total GULP energy -198323.330148 kJ/mol
# GULP energy per Si atom -12395.208134 kJ/mol
# Density = 2.100601 g / cm^3
# Si number density = 21.053935 Si / 1000 Ang^3
#
#
#
# Elastic Constant Matrix: (Units=GPa)
#
#
# Indices 1 2 3 4 5 6 
#
# 1 95.4220 49.6288 25.4946 -5.6454 4.8258 -7.3700
# 2 49.6288 136.6103 27.7160 -10.1301 0.5850 -3.8929
# 3 25.4946 27.7160 89.6804 -6.2295 -1.1783 -4.2799
# 4 -5.6454 -10.1301 -6.2295 41.6821 -6.3263 -5.1959
# 5 4.8258 0.5850 -1.1783 -6.3263 37.5967 -2.5137
# 6 -7.3700 -3.8929 -4.2799 -5.1959 -2.5137 51.5150
#
#
#
# Elastic Compliance Matrix: (Units=1/GPa)
#
#
# Indices 1 2 3 4 5 6 
#
# 1 0.013619 -0.004379 -0.002450 0.000341 -0.001608 0.001370
# 2 -0.004379 0.009336 -0.001516 0.001564 0.000642 0.000142
# 3 -0.002450 -0.001516 0.012464 0.001412 0.001017 0.000762
# 4 0.000341 0.001564 0.001412 0.025698 0.004507 0.003096
# 5 -0.001608 0.000642 0.001017 0.004507 0.027699 0.001709
# 6 0.001370 0.000142 0.000762 0.003096 0.001709 0.020078
#
#
# Mechanical properties :
#
#
# Convention : Reuss Voigt Hill
#
# Bulk Modulus (GPa) = 53.39956 58.59907 55.99931
# Shear Modulus (GPa) = 37.92785 40.75033 39.33909
#
# Velocity S-wave (km/s) = 4.24897 4.40423 4.32729
# Velocity P-wave (km/s) = 7.03491 7.33186 7.18492
#
# Compressibility (1/GPa) = 0.01872675
#
# Stress axis : x y z
#
# Youngs Moduli (GPa) = 73.42434 107.11161 80.23240
#
# Poissons Ratio (x) = 0.46909 0.19660
# Poissons Ratio (y) = 0.32156 0.12167
# Poissons Ratio (z) = 0.17992 0.16243
#
# Static dielectric constant tensor:
#      x y z
#    x 4.011260 0.424160 1.534960 
#    y 0.424160 4.429120 2.050820 
#    z 1.534960 2.050820 11.733330 
# 
# 
# High freq. dielectric constant tensor:
#      x y z
#    x 1.833690 -0.004690 -0.003380 
#    y -0.004690 1.831740 -0.010240 
#    z -0.003380 -0.010240 1.817340 
# 
# From -- ./inp_files/587857.got.cif
#   From: 2010.06.25/outbox.cif.g09.slc.cpg/sg2_294_cif.got.tgz:587857.got - 2010.06.27 13:26:56.
