data_PCOD8020972
_publ_section_title
;
Structure prediction by ZEFSAII (Michael W. Deem and Ramdas Pophale) SiO2 
 PCOD8020972
Probable space group: P -1
;
_chemical_formula_sum "Si O2"
_cell_formula_units_Z 12
_cell_length_a 5.926323
_cell_length_b 6.436045
_cell_length_c 15.406760
_cell_angle_alpha 67.759199
_cell_angle_beta 101.271447
_cell_angle_gamma 85.934011
_cell_volume 526.596079
_symmetry_space_group_name_H-M "P -1"
_symmetry_group_IT_number 2
_symmetry_cell_setting 'triclinic'
loop_
_space_group_symop_operation_xyz
x,y,z
-x,-y,-z
loop_
_atom_site_type_symbol
_atom_site_label
_atom_site_fract_x
_atom_site_fract_y
_atom_site_fract_z
Si Si1 0.449014 0.317196 0.873737
Si Si2 0.922068 0.254802 0.208758
Si Si3 0.015558 0.219339 0.632086
Si Si4 0.287418 0.519668 0.279507
Si Si5 0.667218 0.432520 0.444449
Si Si6 0.170295 0.932937 0.943452
O O1 0.320269 0.574636 0.831881
O O2 0.621283 0.300866 0.806880
O O3 0.253094 0.155765 0.872511
O O4 0.602160 0.241898 0.982398
O O5 0.142046 0.362605 0.239398
O O6 0.896122 0.044777 0.302548
O O7 0.965598 0.181370 0.123332
O O8 0.236056 0.346505 0.619070
O O9 0.859930 0.331877 0.681916
O O10 0.874907 0.241183 0.525568
O O11 0.509986 0.356210 0.366336
O O12 0.500000 0.500000 0.500000
O O13 0.000000 0.000000 0.000000
#
# Coordination Sequence:
#
# PCOD8020972 Si02
#       6
#     2   2   2   2   2   2
#     4  11  25  42  64  93 126 164 212 261 314 376
#     4  12  24  39  65  96 125 162 211 263 315 372
#     4  10  22  43  66  91 130 170 209 258 312 371
#     4  11  23  41  64  94 129 164 212 261 311 373
#     4   9  20  41  66  92 127 171 210 254 311 371
#     4  11  25  46  66  89 127 169 209 259 317 377
#
# _framework density 22.787866999999999
#
# number of rings (size 3 to 8) (size 9 to 14) (size 15 to 20)
#    0.000    1.333    0.000    5.500    0.000   10.000 
#    0.000   11.667    0.000    0.000    0.000    0.000 
#    0.000    0.000    0.000    0.000    0.000    0.000 
#
# Total GULP energy -148793.621144 kJ/mol
# GULP energy per Si atom -12399.468429 kJ/mol
# Density = 2.273600 g / cm^3
# Si number density = 22.787867 Si / 1000 Ang^3
#
#
#
# Elastic Constant Matrix: (Units=GPa)
#
#
# Indices 1 2 3 4 5 6 
#
# 1 129.8816 54.7039 52.4647 -6.7351 -20.0622 17.9564
# 2 54.7039 107.8722 76.3341 -12.1049 7.9815 9.2937
# 3 52.4647 76.3341 142.7213 -8.7169 9.9207 15.4647
# 4 -6.7351 -12.1049 -8.7169 44.1241 6.2308 7.3880
# 5 -20.0622 7.9815 9.9207 6.2308 58.3649 0.2308
# 6 17.9564 9.2937 15.4647 7.3880 0.2308 25.1991
#
#
#
# Elastic Compliance Matrix: (Units=1/GPa)
#
#
# Indices 1 2 3 4 5 6 
#
# 1 0.011953 -0.004799 -0.001488 0.000520 0.004986 -0.006032
# 2 -0.004799 0.017263 -0.007139 0.002932 -0.003112 0.000603
# 3 -0.001488 -0.007139 0.011984 0.001081 -0.001672 -0.003963
# 4 0.000520 0.002932 0.001081 0.025819 -0.003124 -0.009656
# 5 0.004986 -0.003112 -0.001672 -0.003124 0.019894 -0.000645
# 6 -0.006032 0.000603 -0.003963 -0.009656 -0.000645 0.049029
#
#
# Mechanical properties :
#
#
# Convention : Reuss Voigt Hill
#
# Bulk Modulus (GPa) = 69.70223 83.05339 76.37781
# Shear Modulus (GPa) = 29.83730 38.66911 34.25321
#
# Velocity S-wave (km/s) = 3.62242 4.12383 3.88123
# Velocity P-wave (km/s) = 6.93900 7.69416 7.32632
#
# Compressibility (1/GPa) = 0.01434674
#
# Stress axis : x y z
#
# Youngs Moduli (GPa) = 83.66073 57.92740 83.44761
#
# Poissons Ratio (x) = 0.27801 0.12419
# Poissons Ratio (y) = 0.40152 0.59571
# Poissons Ratio (z) = 0.12451 0.41353
#
# Static dielectric constant tensor:
#      x y z
#    x 4.241810 0.157440 0.274750 
#    y 0.157440 3.748420 -0.015330 
#    z 0.274750 -0.015330 5.016190 
# 
# 
# High freq. dielectric constant tensor:
#      x y z
#    x 1.910430 0.007390 0.006560 
#    y 0.007390 1.862870 0.000210 
#    z 0.006560 0.000210 1.936030 
# 
# From -- ./inp_files/545602.got.cif
#   From: 2010.06.25/outbox.cif.g09.slc.cpg/sg2_273_cif.got.tgz:545602.got - 2010.06.27 13:26:56.
