data_PCOD8020797
_publ_section_title
;
Structure prediction by ZEFSAII (Michael W. Deem and Ramdas Pophale) SiO2 
 PCOD8020797
Probable space group: P -1
;
_chemical_formula_sum "Si O2"
_cell_formula_units_Z 14
_cell_length_a 20.879296
_cell_length_b 10.252481
_cell_length_c 6.881926
_cell_angle_alpha 103.071286
_cell_angle_beta 75.169272
_cell_angle_gamma 37.557086
_cell_volume 594.955441
_symmetry_space_group_name_H-M "P -1"
_symmetry_group_IT_number 2
_symmetry_cell_setting 'triclinic'
loop_
_space_group_symop_operation_xyz
x,y,z
-x,-y,-z
loop_
_atom_site_type_symbol
_atom_site_label
_atom_site_fract_x
_atom_site_fract_y
_atom_site_fract_z
Si Si1 0.278083 0.219896 0.764084
Si Si2 0.215331 0.876687 0.233004
Si Si3 0.191172 0.219975 0.488109
Si Si4 0.514125 0.611307 0.904388
Si Si5 0.601352 0.527822 0.405402
Si Si6 0.821288 0.360776 0.291874
Si Si7 0.108205 0.587166 0.411548
O O1 0.192933 0.252257 0.727497
O O2 0.243115 0.420523 0.746536
O O3 0.461115 0.857697 0.514522
O O4 0.211802 0.350796 0.074423
O O5 0.336155 0.586196 0.189701
O O6 0.162183 0.117133 0.441529
O O7 0.299916 0.740290 0.913358
O O8 0.065347 0.054454 0.401196
O O9 0.069817 0.531940 0.568608
O O10 0.354676 0.978780 0.191959
O O11 0.538043 0.546482 0.632692
O O12 0.500000 0.500000 0.000000
O O13 0.714077 0.427569 0.387329
O O14 0.807865 0.447691 0.547953
O O15 0.000000 0.000000 0.000000
#
# Coordination Sequence:
#
# PCOD8020797 Si02
#       7
#     2   2   2   2   2   2   2
#     4  11  25  43  70  97 138 182 222 282 343 396
#     4  11  24  40  70 100 138 181 225 275 345 401
#     4  10  22  43  63 102 137 170 234 276 330 423
#     4  10  23  41  66 103 133 173 230 274 326 414
#     4  12  24  45  71  98 139 185 221 281 346 392
#     4  11  26  46  68 102 135 174 241 281 325 417
#     4  11  24  44  68  98 138 179 226 284 342 392
#
# _framework density 23.531174
#
# number of rings (size 3 to 8) (size 9 to 14) (size 15 to 20)
#    0.000    1.143    4.286    0.857    2.000    7.429 
#    0.000    0.000    0.000    0.000    0.000    0.000 
#    0.000    0.000    0.000    0.000    0.000    0.000 
#
# Total GULP energy -173533.130781 kJ/mol
# GULP energy per Si atom -12395.223627 kJ/mol
# Density = 2.347762 g / cm^3
# Si number density = 23.531174 Si / 1000 Ang^3
#
#
#
# Elastic Constant Matrix: (Units=GPa)
#
#
# Indices 1 2 3 4 5 6 
#
# 1 72.6373 29.9332 26.7928 -12.8810 15.5703 -12.7134
# 2 29.9332 92.4243 19.0904 -1.3819 0.7563 -15.3443
# 3 26.7928 19.0904 106.2506 -16.3086 31.4801 -6.7410
# 4 -12.8810 -1.3819 -16.3086 42.1472 -14.4626 1.5566
# 5 15.5703 0.7563 31.4801 -14.4626 35.6810 -1.5421
# 6 -12.7134 -15.3443 -6.7410 1.5566 -1.5421 36.2882
#
#
#
# Elastic Compliance Matrix: (Units=1/GPa)
#
#
# Indices 1 2 3 4 5 6 
#
# 1 0.018751 -0.005035 -0.001541 0.002998 -0.005337 0.003798
# 2 -0.005035 0.013462 -0.002104 -0.000814 0.003599 0.003725
# 3 -0.001541 -0.002104 0.013577 0.000971 -0.010842 0.000590
# 4 0.002998 -0.000814 0.000971 0.028171 0.009274 0.000072
# 5 -0.005337 0.003599 -0.010842 0.009274 0.043564 -0.000908
# 6 0.003798 0.003725 0.000590 0.000072 -0.000908 0.030531
#
#
# Mechanical properties :
#
#
# Convention : Reuss Voigt Hill
#
# Bulk Modulus (GPa) = 35.17571 46.99387 41.08479
# Shear Modulus (GPa) = 28.58866 35.85634 32.22250
#
# Velocity S-wave (km/s) = 3.48936 3.90780 3.70449
# Velocity P-wave (km/s) = 5.58706 6.35417 5.98292
#
# Compressibility (1/GPa) = 0.02842871
#
# Stress axis : x y z
#
# Youngs Moduli (GPa) = 53.33068 74.28394 73.65192
#
# Poissons Ratio (x) = 0.37404 0.11353
# Poissons Ratio (y) = 0.26854 0.15496
# Poissons Ratio (z) = 0.08220 0.15629
#
# Static dielectric constant tensor:
#      x y z
#    x 4.036120 -0.529690 0.146080 
#    y -0.529690 4.862520 0.256430 
#    z 0.146080 0.256430 4.247490 
# 
# 
# High freq. dielectric constant tensor:
#      x y z
#    x 1.908890 -0.027470 0.017680 
#    y -0.027470 1.954160 0.003500 
#    z 0.017680 0.003500 1.931220 
# 
# From -- ./inp_files/94336.got.cif
#   From: 2010.06.25/outbox.cif.g09.slc.cpg/sg2_48_cif.got.tgz:94336.got - 2010.06.27 13:26:56.
