data_PCOD8020662
_publ_section_title
;
Structure prediction by ZEFSAII (Michael W. Deem and Ramdas Pophale) SiO2 
 PCOD8020662
Probable space group: P -1
;
_chemical_formula_sum "Si O2"
_cell_formula_units_Z 14
_cell_length_a 9.505935
_cell_length_b 9.680497
_cell_length_c 12.545129
_cell_angle_alpha 129.410967
_cell_angle_beta 50.425666
_cell_angle_gamma 134.144046
_cell_volume 599.183396
_symmetry_space_group_name_H-M "P -1"
_symmetry_group_IT_number 2
_symmetry_cell_setting 'triclinic'
loop_
_space_group_symop_operation_xyz
x,y,z
-x,-y,-z
loop_
_atom_site_type_symbol
_atom_site_label
_atom_site_fract_x
_atom_site_fract_y
_atom_site_fract_z
Si Si1 0.605106 0.280895 0.831972
Si Si2 0.317375 0.531994 0.562952
Si Si3 0.571873 0.940894 0.539595
Si Si4 0.704408 0.408837 0.165863
Si Si5 0.056216 0.131364 0.367225
Si Si6 0.134206 0.769662 0.151806
Si Si7 0.647834 0.630650 0.831480
O O1 0.534077 0.055374 0.712408
O O2 0.815646 0.339230 0.826249
O O3 0.653461 0.435894 0.785292
O O4 0.421983 0.269134 0.991342
O O5 0.500000 0.500000 0.500000
O O6 0.266160 0.618442 0.736693
O O7 0.126467 0.319226 0.508178
O O8 0.408758 0.700770 0.509971
O O9 0.809710 0.988685 0.432889
O O10 0.500000 0.000000 0.500000
O O11 0.502711 0.424292 0.227913
O O12 0.902180 0.628818 0.148028
O O13 0.708598 0.217363 0.012147
O O14 0.122053 0.215159 0.254168
O O15 0.167757 0.994858 0.274748
#
# Coordination Sequence:
#
# PCOD8020662 Si02
#       7
#     2   2   2   2   2   2   2
#     4  10  23  44  70 102 139 188 226 283 349 410
#     4  12  24  42  71 104 139 183 230 283 344 412
#     4  12  29  46  69 102 143 185 234 287 350 416
#     4  10  22  42  71 106 139 180 233 283 340 416
#     4  12  26  45  73 104 139 182 232 292 345 405
#     4  10  23  42  73 103 139 180 235 283 340 414
#     4  10  23  44  73 100 143 181 228 287 346 410
#
# _framework density 23.365131000000002
#
# number of rings (size 3 to 8) (size 9 to 14) (size 15 to 20)
#    0.000    1.143    1.429    3.429    4.000    6.286 
#    0.000    0.714    0.000    0.000    0.000    0.000 
#    0.000    0.000    0.000    0.000    0.000    0.000 
#
# Total GULP energy -173479.903847 kJ/mol
# GULP energy per Si atom -12391.421703 kJ/mol
# Density = 2.331195 g / cm^3
# Si number density = 23.365131 Si / 1000 Ang^3
#
#
#
# Elastic Constant Matrix: (Units=GPa)
#
#
# Indices 1 2 3 4 5 6 
#
# 1 91.5182 37.9838 39.0941 7.1532 6.3495 -16.6190
# 2 37.9838 111.2271 44.4560 3.9991 -2.2492 -17.2688
# 3 39.0941 44.4560 123.7125 5.3452 4.0922 -10.7119
# 4 7.1532 3.9991 5.3452 34.8419 -7.1807 5.9109
# 5 6.3495 -2.2492 4.0922 -7.1807 29.5639 1.0685
# 6 -16.6190 -17.2688 -10.7119 5.9109 1.0685 35.5624
#
#
#
# Elastic Compliance Matrix: (Units=1/GPa)
#
#
# Indices 1 2 3 4 5 6 
#
# 1 0.015036 -0.003083 -0.002851 -0.004105 -0.004264 0.005481
# 2 -0.003083 0.011834 -0.003018 -0.000485 0.001739 0.003425
# 3 -0.002851 -0.003018 0.010194 -0.000977 -0.001283 0.000474
# 4 -0.004105 -0.000485 -0.000977 0.033063 0.009308 -0.008223
# 5 -0.004264 0.001739 -0.001283 0.009308 0.037464 -0.004208
# 6 0.005481 0.003425 0.000474 -0.008223 -0.004208 0.033980
#
#
# Mechanical properties :
#
#
# Convention : Reuss Voigt Hill
#
# Bulk Modulus (GPa) = 52.19025 63.28061 57.73543
# Shear Modulus (GPa) = 30.14553 33.65522 31.90038
#
# Velocity S-wave (km/s) = 3.59582 3.79938 3.69900
# Velocity P-wave (km/s) = 6.29486 6.81096 6.55799
#
# Compressibility (1/GPa) = 0.01916067
#
# Stress axis : x y z
#
# Youngs Moduli (GPa) = 66.50646 84.50067 98.09316
#
# Poissons Ratio (x) = 0.26052 0.27963
# Poissons Ratio (y) = 0.20505 0.29608
# Poissons Ratio (z) = 0.18958 0.25505
#
# Static dielectric constant tensor:
#      x y z
#    x 3.380700 -0.200630 -1.930310 
#    y -0.200630 3.748480 -0.362220 
#    z -1.930310 -0.362220 0.306540 
# 
# 
# High freq. dielectric constant tensor:
#      x y z
#    x 1.911610 -0.006780 -0.000200 
#    y -0.006780 1.910070 -0.001690 
#    z -0.000200 -0.001690 1.953400 
# 
# From -- ./inp_files/383156.got.cif
#   From: 2010.06.25/outbox.cif.g09.slc.cpg/sg2_192_cif.got.tgz:383156.got - 2010.06.27 13:26:56.
