data_PCOD8020640
_publ_section_title
;
Structure prediction by ZEFSAII (Michael W. Deem and Ramdas Pophale) SiO2 
 PCOD8020640
Probable space group: P -1
;
_chemical_formula_sum "Si O2"
_cell_formula_units_Z 14
_cell_length_a 4.921589
_cell_length_b 24.980734
_cell_length_c 6.062632
_cell_angle_alpha 123.374329
_cell_angle_beta 93.934384
_cell_angle_gamma 104.678847
_cell_volume 581.834282
_symmetry_space_group_name_H-M "P -1"
_symmetry_group_IT_number 2
_symmetry_cell_setting 'triclinic'
loop_
_space_group_symop_operation_xyz
x,y,z
-x,-y,-z
loop_
_atom_site_type_symbol
_atom_site_label
_atom_site_fract_x
_atom_site_fract_y
_atom_site_fract_z
Si Si1 0.574008 0.859045 0.973652
Si Si2 0.298398 0.699288 0.559935
Si Si3 0.703812 0.643408 0.192678
Si Si4 0.840386 0.076400 0.092127
Si Si5 0.177834 0.481586 0.159392
Si Si6 0.824683 0.950311 0.566228
Si Si7 0.286617 0.607683 0.726798
O O1 0.422945 0.778644 0.799807
O O2 0.409345 0.890588 0.858614
O O3 0.903727 0.878988 0.955403
O O4 0.570577 0.889553 0.290212
O O5 0.552500 0.672544 0.438368
O O6 0.173086 0.656563 0.678418
O O7 0.048755 0.683794 0.325309
O O8 0.625650 0.560217 0.027318
O O9 0.584353 0.654368 0.970582
O O10 0.965707 0.080511 0.355822
O O11 0.703204 0.996059 0.826925
O O12 0.359950 0.549314 0.457562
O O13 0.959442 0.426340 0.185111
O O14 0.000000 0.500000 0.000000
O O15 0.000000 0.000000 0.500000
#
# Coordination Sequence:
#
# PCOD8020640 Si02
#       7
#     2   2   2   2   2   2   2
#     4  11  24  43  64  98 136 182 218 269 327 400
#     4  12  28  44  68  96 143 180 227 269 335 409
#     4  12  25  48  65 100 133 176 221 283 332 408
#     4  10  22  42  70  99 134 171 224 276 331 375
#     4  11  23  47  73 101 131 168 228 290 344 394
#     4   9  21  41  70 103 131 172 222 281 323 385
#     4  11  25  44  73 101 128 178 223 285 343 401
#
# _framework density 24.061833
#
# number of rings (size 3 to 8) (size 9 to 14) (size 15 to 20)
#    0.000    1.143    2.857    1.714    2.000   12.000 
#    0.000    0.000    0.000    0.000    0.000    0.000 
#    0.000    0.000    0.000    0.000    0.000    0.000 
#
# Total GULP energy -173606.702441 kJ/mol
# GULP energy per Si atom -12400.478746 kJ/mol
# Density = 2.400707 g / cm^3
# Si number density = 24.061833 Si / 1000 Ang^3
#
#
#
# Elastic Constant Matrix: (Units=GPa)
#
#
# Indices 1 2 3 4 5 6 
#
# 1 67.4407 22.3746 26.5704 7.9540 6.8673 -25.1417
# 2 22.3746 124.6619 83.5925 14.4036 2.7445 -16.4552
# 3 26.5704 83.5925 163.4106 12.4938 18.7674 -15.2906
# 4 7.9540 14.4036 12.4938 43.7920 -0.2664 3.9379
# 5 6.8673 2.7445 18.7674 -0.2664 35.2459 2.3487
# 6 -25.1417 -16.4552 -15.2906 3.9379 2.3487 28.4187
#
#
#
# Elastic Compliance Matrix: (Units=1/GPa)
#
#
# Indices 1 2 3 4 5 6 
#
# 1 0.025191 -0.000130 -0.000651 -0.006477 -0.006151 0.023267
# 2 -0.000130 0.013132 -0.006308 -0.002872 0.002052 0.004323
# 3 -0.000651 -0.006308 0.010267 -0.000932 -0.004978 0.001836
# 4 -0.006477 -0.002872 -0.000932 0.026300 0.002966 -0.011784
# 5 -0.006151 0.002052 -0.004978 0.002966 0.032754 -0.010050
# 6 0.023267 0.004323 0.001836 -0.011784 -0.010050 0.061727
#
#
# Mechanical properties :
#
#
# Convention : Reuss Voigt Hill
#
# Bulk Modulus (GPa) = 29.05897 68.95424 49.00661
# Shear Modulus (GPa) = 25.63834 36.35638 30.99736
#
# Velocity S-wave (km/s) = 3.26777 3.89132 3.59310
# Velocity P-wave (km/s) = 5.13233 6.99351 6.13392
#
# Compressibility (1/GPa) = 0.03441278
#
# Stress axis : x y z
#
# Youngs Moduli (GPa) = 39.69601 76.14740 97.39786
#
# Poissons Ratio (x) = 0.00990 0.06339
# Poissons Ratio (y) = 0.00516 0.61441
# Poissons Ratio (z) = 0.02584 0.48036
#
# Static dielectric constant tensor:
#      x y z
#    x 4.164370 -0.161510 -0.095730 
#    y -0.161510 4.261280 -0.066320 
#    z -0.095730 -0.066320 5.093480 
# 
# 
# High freq. dielectric constant tensor:
#      x y z
#    x 1.944700 -0.011590 0.002710 
#    y -0.011590 1.943120 -0.010510 
#    z 0.002710 -0.010510 1.969970 
# 
# From -- ./inp_files/9306.got.cif
#   From: 2010.06.25/outbox.cif.g09.slc.cpg/sg2_5_cif.got.tgz:9306.got - 2010.06.27 13:26:56.
