data_PCOD8020079
_publ_section_title
;
Structure prediction by ZEFSAII (Michael W. Deem and Ramdas Pophale) SiO2 
 PCOD8020079
Probable space group: P -1
;
_chemical_formula_sum "Si O2"
_cell_formula_units_Z 16
_cell_length_a 14.382381
_cell_length_b 10.006786
_cell_length_c 9.987611
_cell_angle_alpha 51.505762
_cell_angle_beta 64.304130
_cell_angle_gamma 37.347733
_cell_volume 676.806183
_symmetry_space_group_name_H-M "P -1"
_symmetry_group_IT_number 2
_symmetry_cell_setting 'triclinic'
loop_
_space_group_symop_operation_xyz
x,y,z
-x,-y,-z
loop_
_atom_site_type_symbol
_atom_site_label
_atom_site_fract_x
_atom_site_fract_y
_atom_site_fract_z
Si Si1 0.295486 0.148175 0.473878
Si Si2 0.046775 0.836362 0.820230
Si Si3 0.912084 0.852005 0.514718
Si Si4 0.735237 0.163367 0.689444
Si Si5 0.634936 0.606963 0.608923
Si Si6 0.291094 0.463789 0.108523
Si Si7 0.115596 0.453105 0.853607
Si Si8 0.562428 0.091148 0.974480
O O1 0.159300 0.177186 0.540590
O O2 0.285875 0.299925 0.507205
O O3 0.287047 0.264601 0.265786
O O4 0.452100 0.850778 0.571755
O O5 0.157391 0.587524 0.808895
O O6 0.019266 0.065252 0.649734
O O7 0.127746 0.727004 0.983201
O O8 0.876942 0.959648 0.833951
O O9 0.038739 0.580976 0.678240
O O10 0.784380 0.072432 0.563137
O O11 0.680835 0.427368 0.571207
O O12 0.595183 0.206463 0.779919
O O13 0.686497 0.461874 0.811355
O O14 0.439782 0.316769 0.015439
O O15 0.272504 0.159091 0.907227
O O16 0.000000 0.500000 0.000000
O O17 0.500000 0.000000 0.000000
#
# Coordination Sequence:
#
# PCOD8020079 Si02
#       8
#     2   2   2   2   2   2   2   2
#     4   9  21  45  66  90 132 174 211 267 327 375
#     4  11  23  41  64 100 133 170 213 275 323 382
#     4  11  23  40  69  97 129 170 216 275 321 376
#     4  11  24  42  65  97 132 169 218 265 333 376
#     4   9  23  44  67  90 136 173 212 266 328 384
#     4  10  22  42  65  92 135 167 221 255 322 391
#     4  11  20  40  63  91 139 164 211 268 323 378
#     4  12  23  36  67 102 124 171 218 262 325 381
#
# _framework density 23.640446000000001
#
# number of rings (size 3 to 8) (size 9 to 14) (size 15 to 20)
#    0.750    0.750    3.750    3.000    1.750    3.500 
#    0.000    0.625    0.000    0.000    0.000    0.000 
#    0.000    0.000    0.000    0.000    0.000    0.000 
#
# Total GULP energy -198228.669683 kJ/mol
# GULP energy per Si atom -12389.291855 kJ/mol
# Density = 2.358664 g / cm^3
# Si number density = 23.640446 Si / 1000 Ang^3
#
#
#
# Elastic Constant Matrix: (Units=GPa)
#
#
# Indices 1 2 3 4 5 6 
#
# 1 118.3949 12.6043 29.9534 -5.8730 -16.0162 -3.6855
# 2 12.6043 39.6416 -13.0411 -4.8690 -14.8795 10.4117
# 3 29.9534 -13.0411 69.2692 -10.0669 1.6617 -12.6894
# 4 -5.8730 -4.8690 -10.0669 35.6598 -6.1335 -6.4427
# 5 -16.0162 -14.8795 1.6617 -6.1335 35.7337 -4.7261
# 6 -3.6855 10.4117 -12.6894 -6.4427 -4.7261 32.0727
#
#
#
# Elastic Compliance Matrix: (Units=1/GPa)
#
#
# Indices 1 2 3 4 5 6 
#
# 1 0.010740 -0.003974 -0.005187 0.000594 0.003652 0.001130
# 2 -0.003974 0.036942 0.008553 0.008227 0.013906 -0.005363
# 3 -0.005187 0.008553 0.020586 0.007765 0.002498 0.006700
# 4 0.000594 0.008227 0.007765 0.034896 0.010515 0.009029
# 5 0.003652 0.013906 0.002498 0.010515 0.037704 0.004562
# 6 0.001130 -0.005363 0.006700 0.009029 0.004562 0.038187
#
#
# Mechanical properties :
#
#
# Convention : Reuss Voigt Hill
#
# Bulk Modulus (GPa) = 14.91377 31.81544 23.36460
# Shear Modulus (GPa) = 24.67646 33.87918 29.27782
#
# Velocity S-wave (km/s) = 3.23433 3.78974 3.52300
# Velocity P-wave (km/s) = 4.50224 5.71286 5.14329
#
# Compressibility (1/GPa) = 0.06705214
#
# Stress axis : x y z
#
# Youngs Moduli (GPa) = 93.10731 27.06911 48.57761
#
# Poissons Ratio (x) = 0.10758 0.25197
# Poissons Ratio (y) = 0.37005 -0.41550
# Poissons Ratio (z) = 0.48294 -0.23153
#
# Static dielectric constant tensor:
#      x y z
#    x 4.277230 -0.019030 -0.092180 
#    y -0.019030 4.175760 -0.312370 
#    z -0.092180 -0.312370 4.108410 
# 
# 
# High freq. dielectric constant tensor:
#      x y z
#    x 1.939430 -0.005830 -0.003670 
#    y -0.005830 1.921190 -0.024530 
#    z -0.003670 -0.024530 1.920270 
# 
# From -- ./inp_files/452137.got.cif
#   From: 2010.06.25/outbox.cif.g09.slc.cpg/sg2_227_cif.got.tgz:452137.got - 2010.06.27 13:26:56.
