data_PCOD8020978
_publ_section_title
;
Structure prediction by ZEFSAII (Michael W. Deem and Ramdas Pophale) SiO2 
 PCOD8020978
Probable space group: P -1
;
_chemical_formula_sum "Si O2"
_cell_formula_units_Z 14
_cell_length_a 13.987578
_cell_length_b 6.854087
_cell_length_c 11.696168
_cell_angle_alpha 80.250461
_cell_angle_beta 47.993702
_cell_angle_gamma 115.857949
_cell_volume 542.901594
_symmetry_space_group_name_H-M "P -1"
_symmetry_group_IT_number 2
_symmetry_cell_setting 'triclinic'
loop_
_space_group_symop_operation_xyz
x,y,z
-x,-y,-z
loop_
_atom_site_type_symbol
_atom_site_label
_atom_site_fract_x
_atom_site_fract_y
_atom_site_fract_z
Si Si1 0.562935 0.224284 0.582794
Si Si2 0.759755 0.850925 0.547777
Si Si3 0.134588 0.601715 0.523678
Si Si4 0.461576 0.680287 0.647696
Si Si5 0.291432 0.976963 0.025587
Si Si6 0.198824 0.311169 0.091037
Si Si7 0.337277 0.628082 0.177145
O O1 0.750509 0.444282 0.495217
O O2 0.579167 0.398350 0.446949
O O3 0.568977 0.012484 0.545204
O O4 0.367167 0.048289 0.827846
O O5 0.757090 0.064722 0.584780
O O6 0.968908 0.042108 0.311192
O O7 0.600953 0.665752 0.589248
O O8 0.692456 0.626227 0.723228
O O9 0.159452 0.560952 0.375540
O O10 0.917183 0.370124 0.768094
O O11 0.258230 0.450435 0.902847
O O12 0.275231 0.179594 0.063680
O O13 0.444962 0.046567 0.984364
O O14 0.308191 0.580944 0.068165
#
# Coordination Sequence:
#
# PCOD8020978 Si02
#       7
#     2   2   2   2   2   2   2
#     4   9  22  44  65  91 129 162 218 266 314 375
#     4  11  23  42  66  95 129 171 212 254 324 377
#     4  10  23  43  66  97 128 166 212 266 313 376
#     4  10  22  43  66  92 125 171 211 266 316 377
#     4  11  22  41  67  91 130 167 210 264 316 372
#     4  12  24  39  66  94 129 169 213 258 320 379
#     4  11  24  44  63  94 134 168 212 261 312 384
#
# _framework density 25.787362999999999
#
# number of rings (size 3 to 8) (size 9 to 14) (size 15 to 20)
#    0.000    1.429    2.857    1.714    0.000    2.286 
#    2.571   10.000    0.000    0.000    0.000    0.000 
#    0.000    0.000    0.000    0.000    0.000    0.000 
#
# Total GULP energy -173677.362454 kJ/mol
# GULP energy per Si atom -12405.525890 kJ/mol
# Density = 2.572867 g / cm^3
# Si number density = 25.787363 Si / 1000 Ang^3
#
#
#
# Elastic Constant Matrix: (Units=GPa)
#
#
# Indices 1 2 3 4 5 6 
#
# 1 112.7309 20.0321 67.4007 19.8457 13.6913 -0.3153
# 2 20.0321 69.4566 29.6075 6.4195 2.7011 15.5466
# 3 67.4007 29.6075 170.3679 6.3373 -4.3641 24.1957
# 4 19.8457 6.4195 6.3373 45.8451 3.2648 0.2896
# 5 13.6913 2.7011 -4.3641 3.2648 41.7048 10.2354
# 6 -0.3153 15.5466 24.1957 0.2896 10.2354 28.0727
#
#
#
# Elastic Compliance Matrix: (Units=1/GPa)
#
#
# Indices 1 2 3 4 5 6 
#
# 1 0.015613 -0.003154 -0.007237 -0.004815 -0.008036 0.011139
# 2 -0.003154 0.017792 -0.000226 -0.001210 0.002559 -0.010614
# 3 -0.007237 -0.000226 0.010475 0.001350 0.006139 -0.011237
# 4 -0.004815 -0.001210 0.001350 0.023875 0.000139 -0.000845
# 5 -0.008036 0.002559 0.006139 0.000139 0.031576 -0.018313
# 6 0.011139 -0.010614 -0.011237 -0.000845 -0.018313 0.057995
#
#
# Mechanical properties :
#
#
# Convention : Reuss Voigt Hill
#
# Bulk Modulus (GPa) = 44.16047 65.18177 54.67112
# Shear Modulus (GPa) = 26.86596 38.82553 32.84574
#
# Velocity S-wave (km/s) = 3.23124 3.88442 3.57279
# Velocity P-wave (km/s) = 5.57523 6.74165 6.18599
#
# Compressibility (1/GPa) = 0.02264469
#
# Stress axis : x y z
#
# Youngs Moduli (GPa) = 64.04929 56.20656 95.46458
#
# Poissons Ratio (x) = 0.17726 0.69092
# Poissons Ratio (y) = 0.20199 0.02161
# Poissons Ratio (z) = 0.46355 0.01272
#
# Static dielectric constant tensor:
#      x y z
#    x 5.080850 -0.165660 0.027990 
#    y -0.165660 4.814800 -0.023760 
#    z 0.027990 -0.023760 4.679650 
# 
# 
# High freq. dielectric constant tensor:
#      x y z
#    x 2.046140 -0.032320 0.001010 
#    y -0.032320 2.048210 0.004770 
#    z 0.001010 0.004770 2.034170 
# 
# From -- ./inp_files/396784.got.cif
#   From: 2010.06.25/outbox.cif.g09.slc.cpg/sg2_199_cif.got.tgz:396784.got - 2010.06.27 13:26:56.
