data_PCOD8020722
_publ_section_title
;
Structure prediction by ZEFSAII (Michael W. Deem and Ramdas Pophale) SiO2 
 PCOD8020722
Probable space group: P -1
;
_chemical_formula_sum "Si O2"
_cell_formula_units_Z 16
_cell_length_a 9.392881
_cell_length_b 12.712496
_cell_length_c 14.934881
_cell_angle_alpha 117.930763
_cell_angle_beta 135.634795
_cell_angle_gamma 39.090864
_cell_volume 771.003989
_symmetry_space_group_name_H-M "P -1"
_symmetry_group_IT_number 2
_symmetry_cell_setting 'triclinic'
loop_
_space_group_symop_operation_xyz
x,y,z
-x,-y,-z
loop_
_atom_site_type_symbol
_atom_site_label
_atom_site_fract_x
_atom_site_fract_y
_atom_site_fract_z
Si Si1 0.069220 0.653180 0.628062
Si Si2 0.441254 0.548922 0.093935
Si Si3 0.095191 0.903213 0.748887
Si Si4 0.231616 0.897355 0.141052
Si Si5 0.918703 0.125462 0.591265
Si Si6 0.737331 0.585948 0.536053
Si Si7 0.826583 0.718862 0.257542
Si Si8 0.741428 0.613788 0.996561
O O1 0.256586 0.590782 0.775765
O O2 0.993315 0.818654 0.627308
O O3 0.254469 0.519171 0.577540
O O4 0.797188 0.685292 0.549524
O O5 0.298592 0.733080 0.125131
O O6 0.225232 0.534920 0.016364
O O7 0.500000 0.500000 0.000000
O O8 0.434460 0.769671 0.873453
O O9 0.894420 0.998068 0.783252
O O10 0.039718 0.029930 0.702681
O O11 0.517130 0.851482 0.222014
O O12 0.000000 0.000000 0.000000
O O13 0.571800 0.280885 0.502117
O O14 0.048338 0.200496 0.656687
O O15 0.000000 0.000000 0.500000
O O16 0.971434 0.457153 0.666607
O O17 0.790577 0.686320 0.127702
O O18 0.000000 0.500000 0.000000
#
# Coordination Sequence:
#
# PCOD8020722 Si02
#       8
#     2   2   2   2   2   2   2   2
#     4  10  22  42  72  99 126 176 239 278 333 405
#     4  11  20  43  67 100 132 172 228 275 339 407
#     4  11  26  45  69 103 139 175 226 290 353 398
#     4  12  23  43  70 106 137 171 226 294 344 401
#     4  12  30  46  66 101 146 184 225 287 345 403
#     4  11  24  45  72  95 131 188 236 277 331 408
#     4  12  26  47  69 101 138 185 232 275 345 415
#     4  11  26  43  72 100 134 183 223 278 349 419
#
# _framework density 20.752164
#
# number of rings (size 3 to 8) (size 9 to 14) (size 15 to 20)
#    0.000    0.750    3.750    2.625   10.500    2.000 
#    0.000    0.000    0.000    0.000    0.000    0.000 
#    0.000    0.000    0.000    0.000    0.000    0.000 
#
# Total GULP energy -198364.558490 kJ/mol
# GULP energy per Si atom -12397.784906 kJ/mol
# Density = 2.070493 g / cm^3
# Si number density = 20.752164 Si / 1000 Ang^3
#
#
#
# Elastic Constant Matrix: (Units=GPa)
#
#
# Indices 1 2 3 4 5 6 
#
# 1 149.3827 60.9477 44.7305 -1.3625 14.0752 -22.5261
# 2 60.9477 93.7937 26.7692 7.0882 19.7827 -13.5511
# 3 44.7305 26.7692 88.1849 0.6121 2.9841 -15.7601
# 4 -1.3625 7.0882 0.6121 44.4020 1.5557 -0.8255
# 5 14.0752 19.7827 2.9841 1.5557 38.6013 2.1897
# 6 -22.5261 -13.5511 -15.7601 -0.8255 2.1897 54.0477
#
#
#
# Elastic Compliance Matrix: (Units=1/GPa)
#
#
# Indices 1 2 3 4 5 6 
#
# 1 0.010237 -0.005353 -0.003179 0.001283 -0.000912 0.002054
# 2 -0.005353 0.016385 -0.001745 -0.002506 -0.006299 0.001585
# 3 -0.003179 -0.001745 0.013854 0.000002 0.000855 0.002243
# 4 0.001283 -0.002506 0.000002 0.022970 -0.000124 0.000263
# 5 -0.000912 -0.006299 0.000855 -0.000124 0.029571 -0.002910
# 6 0.002054 0.001585 0.002243 0.000263 -0.002910 0.020532
#
#
# Mechanical properties :
#
#
# Convention : Reuss Voigt Hill
#
# Bulk Modulus (GPa) = 50.19231 66.25066 58.22149
# Shear Modulus (GPa) = 35.52582 40.67112 38.09847
#
# Velocity S-wave (km/s) = 4.14201 4.43182 4.28936
# Velocity P-wave (km/s) = 6.86397 7.62772 7.25590
#
# Compressibility (1/GPa) = 0.01992337
#
# Stress axis : x y z
#
# Youngs Moduli (GPa) = 97.68089 61.03135 72.18276
#
# Poissons Ratio (x) = 0.32669 0.22945
# Poissons Ratio (y) = 0.52287 0.12594
# Poissons Ratio (z) = 0.31051 0.10649
#
# Static dielectric constant tensor:
#      x y z
#    x 4.342170 0.847900 -0.026930 
#    y 0.847900 5.045370 -0.048570 
#    z -0.026930 -0.048570 3.848760 
# 
# 
# High freq. dielectric constant tensor:
#      x y z
#    x 1.829370 0.004110 -0.004210 
#    y 0.004110 1.820530 0.007400 
#    z -0.004210 0.007400 1.822510 
# 
# From -- ./inp_files/298648.got.cif
#   From: 2010.06.25/outbox.cif.g09.slc.cpg/sg2_150_cif.got.tgz:298648.got - 2010.06.27 13:26:56.
