data_PCOD8020179
_publ_section_title
;
Structure prediction by ZEFSAII (Michael W. Deem and Ramdas Pophale) SiO2 
 PCOD8020179
Probable space group: P -1
;
_chemical_formula_sum "Si O2"
_cell_formula_units_Z 16
_cell_length_a 8.895484
_cell_length_b 8.788273
_cell_length_c 14.843905
_cell_angle_alpha 67.255235
_cell_angle_beta 90.533599
_cell_angle_gamma 50.338017
_cell_volume 768.402130
_symmetry_space_group_name_H-M "P -1"
_symmetry_group_IT_number 2
_symmetry_cell_setting 'triclinic'
loop_
_space_group_symop_operation_xyz
x,y,z
-x,-y,-z
loop_
_atom_site_type_symbol
_atom_site_label
_atom_site_fract_x
_atom_site_fract_y
_atom_site_fract_z
Si Si1 0.735446 0.761305 0.539468
Si Si2 0.072400 0.052980 0.572271
Si Si3 0.675434 0.448895 0.573522
Si Si4 0.881489 0.918433 0.017410
Si Si5 0.494902 0.402322 0.263781
Si Si6 0.525172 0.608646 0.055710
Si Si7 0.154520 0.427173 0.224213
Si Si8 0.000427 0.339167 0.094584
O O1 0.866518 0.806128 0.483800
O O2 0.708084 0.618080 0.510722
O O3 0.867956 0.608716 0.663760
O O4 0.500000 0.000000 0.500000
O O5 0.891160 0.190398 0.614197
O O6 0.261911 0.815731 0.674147
O O7 0.000000 0.000000 0.500000
O O8 0.500000 0.500000 0.500000
O O9 0.617807 0.469211 0.672527
O O10 0.990507 0.693977 0.130745
O O11 0.884953 0.880288 0.918268
O O12 0.647062 0.112874 0.014085
O O13 0.000000 0.000000 0.000000
O O14 0.465775 0.576545 0.158312
O O15 0.387607 0.323067 0.236513
O O16 0.761684 0.487364 0.085984
O O17 0.500000 0.500000 0.000000
O O18 0.131120 0.277048 0.200435
O O19 0.000000 0.500000 0.000000
#
# Coordination Sequence:
#
# PCOD8020179 Si02
#       8
#     2   2   2   2   2   2   2   2
#     4  11  22  44  67  98 139 183 222 287 343 403
#     4  12  24  44  72  98 138 185 228 283 352 406
#     4  11  23  44  68  99 140 177 233 285 336 414
#     4  11  21  43  68  96 133 178 223 281 341 400
#     4  11  24  44  66 102 137 177 230 278 347 408
#     4  12  24  42  71 100 136 179 227 277 341 406
#     4  10  22  42  66  92 140 174 222 282 337 405
#     4  10  23  42  65  99 135 173 224 281 337 403
#
# _framework density 20.822433
#
# number of rings (size 3 to 8) (size 9 to 14) (size 15 to 20)
#    0.000    1.000    6.250    1.125    1.750    5.000 
#    2.250    2.500    0.000    0.000    0.000    0.000 
#    0.000    0.000    0.000    0.000    0.000    0.000 
#
# Total GULP energy -198287.489544 kJ/mol
# GULP energy per Si atom -12392.968096 kJ/mol
# Density = 2.077504 g / cm^3
# Si number density = 20.822433 Si / 1000 Ang^3
#
#
#
# Elastic Constant Matrix: (Units=GPa)
#
#
# Indices 1 2 3 4 5 6 
#
# 1 120.9396 48.5127 37.5506 23.5092 22.4299 3.0243
# 2 48.5127 158.7250 42.3696 12.1094 22.5903 -14.7369
# 3 37.5506 42.3696 102.1984 2.6625 11.6559 1.0255
# 4 23.5092 12.1094 2.6625 28.0974 0.3253 3.7126
# 5 22.4299 22.5903 11.6559 0.3253 45.0540 2.4560
# 6 3.0243 -14.7369 1.0255 3.7126 2.4560 48.5819
#
#
#
# Elastic Compliance Matrix: (Units=1/GPa)
#
#
# Indices 1 2 3 4 5 6 
#
# 1 0.012605 -0.001664 -0.003175 -0.009440 -0.004536 -0.000272
# 2 -0.001664 0.008336 -0.002488 -0.002329 -0.002855 0.003007
# 3 -0.003175 -0.002488 0.011948 0.002733 -0.000227 -0.001007
# 4 -0.009440 -0.002329 0.002733 0.044684 0.005047 -0.003846
# 5 -0.004536 -0.002855 -0.000227 0.005047 0.026032 -0.002280
# 6 -0.000272 0.003007 -0.001007 -0.003846 -0.002280 0.021943
#
#
# Mechanical properties :
#
#
# Convention : Reuss Voigt Hill
#
# Bulk Modulus (GPa) = 54.84523 70.96985 62.90754
# Shear Modulus (GPa) = 34.18023 41.24199 37.71111
#
# Velocity S-wave (km/s) = 4.05595 4.45528 4.26030
# Velocity P-wave (km/s) = 6.95205 7.78610 7.38087
#
# Compressibility (1/GPa) = 0.01823312
#
# Stress axis : x y z
#
# Youngs Moduli (GPa) = 79.33075 119.95708 83.69487
#
# Poissons Ratio (x) = 0.19966 0.26577
# Poissons Ratio (y) = 0.13204 0.20827
# Poissons Ratio (z) = 0.25191 0.29851
#
# Static dielectric constant tensor:
#      x y z
#    x 4.024240 -0.023160 0.115900 
#    y -0.023160 3.571770 -0.160080 
#    z 0.115900 -0.160080 3.781930 
# 
# 
# High freq. dielectric constant tensor:
#      x y z
#    x 1.831730 0.002850 0.009370 
#    y 0.002850 1.816190 0.003280 
#    z 0.009370 0.003280 1.811370 
# 
# From -- ./inp_files/215056.got.cif
#   From: 2010.06.25/outbox.cif.g09.slc.cpg/sg2_108_cif.got.tgz:215056.got - 2010.06.27 13:26:56.
