data_PCOD8020790
_publ_section_title
;
Structure prediction by ZEFSAII (Michael W. Deem and Ramdas Pophale) SiO2 
 PCOD8020790
Probable space group: P -1
;
_chemical_formula_sum "Si O2"
_cell_formula_units_Z 16
_cell_length_a 8.958649
_cell_length_b 11.395118
_cell_length_c 8.413599
_cell_angle_alpha 120.233889
_cell_angle_beta 79.562102
_cell_angle_gamma 96.361741
_cell_volume 729.597194
_symmetry_space_group_name_H-M "P -1"
_symmetry_group_IT_number 2
_symmetry_cell_setting 'triclinic'
loop_
_space_group_symop_operation_xyz
x,y,z
-x,-y,-z
loop_
_atom_site_type_symbol
_atom_site_label
_atom_site_fract_x
_atom_site_fract_y
_atom_site_fract_z
Si Si1 0.754760 0.425424 0.409702
Si Si2 0.260777 0.290701 0.249535
Si Si3 0.568397 0.081030 0.793872
Si Si4 0.119719 0.434794 0.816130
Si Si5 0.437143 0.833169 0.808014
Si Si6 0.296367 0.242877 0.855654
Si Si7 0.837733 0.013573 0.458300
Si Si8 0.032779 0.732010 0.529859
O O1 0.687308 0.562825 0.588046
O O2 0.814531 0.450189 0.236621
O O3 0.634816 0.300846 0.348820
O O4 0.892764 0.390917 0.474804
O O5 0.388327 0.185763 0.195031
O O6 0.110964 0.224057 0.310140
O O7 0.236170 0.298803 0.072190
O O8 0.473861 0.200612 0.805383
O O9 0.702977 0.031603 0.623042
O O10 0.443342 0.958480 0.767267
O O11 0.641277 0.131044 0.982781
O O12 0.266335 0.368018 0.826834
O O13 0.025527 0.317279 0.663395
O O14 0.000000 0.500000 0.000000
O O15 0.193359 0.116033 0.732976
O O16 0.847739 0.143927 0.429281
O O17 0.000000 0.000000 0.500000
#
# Coordination Sequence:
#
# PCOD8020790 Si02
#       8
#     2   2   2   2   2   2   2   2
#     4  11  23  40  67  94 125 175 220 261 316 391
#     4  10  22  43  62  94 133 169 218 259 323 392
#     4  10  24  43  66  98 134 166 217 274 325 384
#     4  11  23  41  66  95 135 171 213 270 326 382
#     4  10  22  43  68  93 128 173 214 267 323 384
#     4  11  23  43  66  94 135 174 208 273 334 370
#     4  12  24  41  67  99 128 170 218 272 322 382
#     4  11  23  41  64  95 128 168 219 266 320 384
#
# _framework density 21.929908999999999
#
# number of rings (size 3 to 8) (size 9 to 14) (size 15 to 20)
#    0.000    1.250    1.250    5.250    3.500    1.500 
#    2.250    1.250    0.000    0.000    0.000    0.000 
#    0.000    0.000    0.000    0.000    0.000    0.000 
#
# Total GULP energy -198381.356585 kJ/mol
# GULP energy per Si atom -12398.834787 kJ/mol
# Density = 2.188000 g / cm^3
# Si number density = 21.929909 Si / 1000 Ang^3
#
#
#
# Elastic Constant Matrix: (Units=GPa)
#
#
# Indices 1 2 3 4 5 6 
#
# 1 73.8146 27.6748 36.9012 -8.8777 -3.3662 -4.0951
# 2 27.6748 106.6511 29.7044 -9.2567 -5.4691 -8.6162
# 3 36.9012 29.7044 128.0338 -7.8962 -6.7381 6.4975
# 4 -8.8777 -9.2567 -7.8962 28.6096 0.5167 8.3291
# 5 -3.3662 -5.4691 -6.7381 0.5167 25.5512 3.5849
# 6 -4.0951 -8.6162 6.4975 8.3291 3.5849 42.8300
#
#
#
# Elastic Compliance Matrix: (Units=1/GPa)
#
#
# Indices 1 2 3 4 5 6 
#
# 1 0.017132 -0.002944 -0.004112 0.002909 0.000333 0.001076
# 2 -0.002944 0.010936 -0.001609 0.001653 0.001252 0.001737
# 3 -0.004112 -0.001609 0.009711 0.001626 0.002017 -0.002675
# 4 0.002909 0.001653 0.001626 0.038948 0.001406 -0.007328
# 5 0.000333 0.001252 0.002017 0.001406 0.040469 -0.003683
# 6 0.001076 0.001737 -0.002675 -0.007328 -0.003683 0.025940
#
#
# Mechanical properties :
#
#
# Convention : Reuss Voigt Hill
#
# Bulk Modulus (GPa) = 48.90241 55.22893 52.06567
# Shear Modulus (GPa) = 29.88964 33.67944 31.78454
#
# Velocity S-wave (km/s) = 3.69584 3.92315 3.81119
# Velocity P-wave (km/s) = 6.36868 6.76465 6.56965
#
# Compressibility (1/GPa) = 0.02044889
#
# Stress axis : x y z
#
# Youngs Moduli (GPa) = 58.37135 91.43843 102.97369
#
# Poissons Ratio (x) = 0.26916 0.42346
# Poissons Ratio (y) = 0.17182 0.16571
# Poissons Ratio (z) = 0.24004 0.14714
#
# Static dielectric constant tensor:
#      x y z
#    x 3.821960 -0.230700 0.064840 
#    y -0.230700 4.108670 -0.015340 
#    z 0.064840 -0.015340 4.062120 
# 
# 
# High freq. dielectric constant tensor:
#      x y z
#    x 1.854460 -0.018170 0.003460 
#    y -0.018170 1.871060 0.000850 
#    z 0.003460 0.000850 1.871310 
# 
# From -- ./inp_files/182383.got.cif
#   From: 2010.06.25/outbox.cif.g09.slc.cpg/sg2_92_cif.got.tgz:182383.got - 2010.06.27 13:26:56.
