data_PCOD8020463
_publ_section_title
;
Structure prediction by ZEFSAII (Michael W. Deem and Ramdas Pophale) SiO2 
 PCOD8020463
Probable space group: P -1
;
_chemical_formula_sum "Si O2"
_cell_formula_units_Z 14
_cell_length_a 9.133317
_cell_length_b 9.546772
_cell_length_c 11.286455
_cell_angle_alpha 75.548786
_cell_angle_beta 122.795051
_cell_angle_gamma 67.103966
_cell_volume 612.845491
_symmetry_space_group_name_H-M "P -1"
_symmetry_group_IT_number 2
_symmetry_cell_setting 'triclinic'
loop_
_space_group_symop_operation_xyz
x,y,z
-x,-y,-z
loop_
_atom_site_type_symbol
_atom_site_label
_atom_site_fract_x
_atom_site_fract_y
_atom_site_fract_z
Si Si1 0.902504 0.934069 0.380889
Si Si2 0.897654 0.559356 0.165754
Si Si3 0.589665 0.794575 0.556272
Si Si4 0.935603 0.876269 0.139743
Si Si5 0.362011 0.786674 0.231838
Si Si6 0.707547 0.454831 0.290015
Si Si7 0.524048 0.716369 0.794118
O O1 0.941726 0.949665 0.255984
O O2 0.036220 0.715016 0.515365
O O3 0.632744 0.071484 0.261935
O O4 0.000000 0.000000 0.500000
O O5 0.913291 0.716723 0.178650
O O6 0.725597 0.571068 0.177075
O O7 0.139982 0.350720 0.315121
O O8 0.780594 0.603245 0.976491
O O9 0.454009 0.820849 0.376877
O O10 0.526501 0.722463 0.651873
O O11 0.500000 0.000000 0.500000
O O12 0.162738 0.785116 0.184344
O O13 0.722712 0.053965 0.936887
O O14 0.564579 0.582890 0.312518
O O15 0.581555 0.382245 0.194159
#
# Coordination Sequence:
#
# PCOD8020463 Si02
#       7
#     2   2   2   2   2   2   2
#     4  10  22  42  68  97 128 170 217 266 323 386
#     4  12  26  43  68 100 132 173 221 271 325 387
#     4  12  26  44  69  98 133 172 219 273 326 388
#     4  11  25  44  69  97 132 173 220 270 325 391
#     4  11  25  46  68  96 132 176 219 268 330 390
#     4  11  24  42  68  96 133 174 218 269 328 389
#     4  11  24  44  68  97 135 175 218 270 327 388
#
# _framework density 22.844256999999999
#
# number of rings (size 3 to 8) (size 9 to 14) (size 15 to 20)
#    0.000    0.857    0.000    6.857    0.000   12.000 
#    0.000    0.000    0.000    0.000    0.000    0.000 
#    0.000    0.000    0.000    0.000    0.000    0.000 
#
# Total GULP energy -173644.254850 kJ/mol
# GULP energy per Si atom -12403.161061 kJ/mol
# Density = 2.279226 g / cm^3
# Si number density = 22.844257 Si / 1000 Ang^3
#
#
#
# Elastic Constant Matrix: (Units=GPa)
#
#
# Indices 1 2 3 4 5 6 
#
# 1 106.9359 52.5764 40.5674 -1.7462 -6.7564 -2.4302
# 2 52.5764 136.2639 67.1299 0.6943 -3.1380 -4.0882
# 3 40.5674 67.1299 151.3248 13.9930 -6.3017 2.4593
# 4 -1.7462 0.6943 13.9930 31.8606 -8.8893 -0.7624
# 5 -6.7564 -3.1380 -6.3017 -8.8893 33.3006 6.2377
# 6 -2.4302 -4.0882 2.4593 -0.7624 6.2377 37.0017
#
#
#
# Elastic Compliance Matrix: (Units=1/GPa)
#
#
# Indices 1 2 3 4 5 6 
#
# 1 0.012018 -0.003779 -0.001646 0.002112 0.002309 0.000135
# 2 -0.003779 0.010741 -0.003900 0.001186 -0.000418 0.001293
# 3 -0.001646 -0.003900 0.009180 -0.004011 0.000202 -0.001266
# 4 0.002112 0.001186 -0.004011 0.035856 0.009411 -0.000311
# 5 0.002309 -0.000418 0.000202 0.009411 0.034030 -0.005451
# 6 0.000135 0.001293 -0.001266 -0.000311 -0.005451 0.028174
#
#
# Mechanical properties :
#
#
# Convention : Reuss Voigt Hill
#
# Bulk Modulus (GPa) = 75.26064 79.45244 77.35654
# Shear Modulus (GPa) = 32.66277 36.04930 34.35604
#
# Velocity S-wave (km/s) = 3.78537 3.97677 3.88225
# Velocity P-wave (km/s) = 7.21956 7.47943 7.35064
#
# Compressibility (1/GPa) = 0.01328716
#
# Stress axis : x y z
#
# Youngs Moduli (GPa) = 83.21151 93.09860 108.93711
#
# Poissons Ratio (x) = 0.35185 0.17936
# Poissons Ratio (y) = 0.31448 0.42485
# Poissons Ratio (z) = 0.13700 0.36308
#
# Static dielectric constant tensor:
#      x y z
#    x 4.190670 -0.176590 0.101340 
#    y -0.176590 4.233770 -0.160660 
#    z 0.101340 -0.160660 4.467630 
# 
# 
# High freq. dielectric constant tensor:
#      x y z
#    x 1.902180 -0.013810 0.000530 
#    y -0.013810 1.903250 -0.005090 
#    z 0.000530 -0.005090 1.921260 
# 
# From -- ./inp_files/157242.got.cif
#   From: 2010.06.25/outbox.cif.g09.slc.cpg/sg2_79_cif.got.tgz:157242.got - 2010.06.27 13:26:56.
