data_PCOD8020959
_publ_section_title
;
Structure prediction by ZEFSAII (Michael W. Deem and Ramdas Pophale) SiO2 
 PCOD8020959
Probable space group: P -1
;
_chemical_formula_sum "Si O2"
_cell_formula_units_Z 16
_cell_length_a 14.617277
_cell_length_b 26.210784
_cell_length_c 18.358988
_cell_angle_alpha 20.267107
_cell_angle_beta 20.784735
_cell_angle_gamma 19.421038
_cell_volume 729.133058
_symmetry_space_group_name_H-M "P -1"
_symmetry_group_IT_number 2
_symmetry_cell_setting 'triclinic'
loop_
_space_group_symop_operation_xyz
x,y,z
-x,-y,-z
loop_
_atom_site_type_symbol
_atom_site_label
_atom_site_fract_x
_atom_site_fract_y
_atom_site_fract_z
Si Si1 0.358536 0.382137 0.033063
Si Si2 0.396042 0.864435 0.246237
Si Si3 0.674948 0.594875 0.265010
Si Si4 0.231344 0.287568 0.549507
Si Si5 0.536770 0.773151 0.980410
Si Si6 0.064954 0.928143 0.916999
Si Si7 0.212062 0.998474 0.557412
Si Si8 0.388248 0.386286 0.443228
O O1 0.598041 0.184695 0.147617
O O2 0.021104 0.440130 0.232340
O O3 0.399350 0.380710 0.916561
O O4 0.424989 0.521388 0.828602
O O5 0.544048 0.728362 0.251071
O O6 0.468903 0.757887 0.408466
O O7 0.032986 0.978879 0.350460
O O8 0.500000 0.000000 0.000000
O O9 0.500000 0.500000 0.500000
O O10 0.674924 0.702474 0.051535
O O11 0.423438 0.299211 0.455935
O O12 0.971428 0.473619 0.460670
O O13 0.469287 0.185285 0.444641
O O14 0.075840 0.190491 0.829528
O O15 0.724793 0.848882 0.703380
O O16 0.170031 0.909723 0.074120
O O17 0.080513 0.007074 0.723323
#
# Coordination Sequence:
#
# PCOD8020959 Si02
#       8
#     2   2   2   2   2   2   2   2
#     4  11  24  41  69  96 128 180 223 271 330 401
#     4  12  26  41  68 102 135 176 230 277 325 399
#     4  12  26  46  67  98 137 178 225 279 331 397
#     4   9  22  42  69  94 136 173 208 276 337 392
#     4  11  23  45  68  94 133 175 220 273 339 393
#     4  10  22  43  66 103 132 165 225 270 334 397
#     4  11  23  42  69  95 135 178 208 278 339 390
#     4  10  22  44  63  98 133 169 222 274 329 395
#
# _framework density 21.943868999999999
#
# number of rings (size 3 to 8) (size 9 to 14) (size 15 to 20)
#    0.000    1.250    1.250    3.750    5.250    1.000 
#    2.250    2.500    0.000    0.000    0.000    0.000 
#    0.000    0.000    0.000    0.000    0.000    0.000 
#
# Total GULP energy -198407.877890 kJ/mol
# GULP energy per Si atom -12400.492368 kJ/mol
# Density = 2.189392 g / cm^3
# Si number density = 21.943869 Si / 1000 Ang^3
#
#
#
# Elastic Constant Matrix: (Units=GPa)
#
#
# Indices 1 2 3 4 5 6 
#
# 1 77.5622 18.3445 29.6579 8.8912 -17.5896 -4.9822
# 2 18.3445 97.6981 33.6729 16.3122 -15.6140 -6.9944
# 3 29.6579 33.6729 91.3688 13.0183 -1.7374 -0.9932
# 4 8.8912 16.3122 13.0183 29.2567 -5.9649 -3.8622
# 5 -17.5896 -15.6140 -1.7374 -5.9649 33.4175 -8.4080
# 6 -4.9822 -6.9944 -0.9932 -3.8622 -8.4080 46.7752
#
#
#
# Elastic Compliance Matrix: (Units=1/GPa)
#
#
# Indices 1 2 3 4 5 6 
#
# 1 0.017437 0.000596 -0.005558 -0.000661 0.009946 0.003562
# 2 0.000596 0.013566 -0.004459 -0.004086 0.006399 0.002810
# 3 -0.005558 -0.004459 0.014809 -0.003830 -0.005488 -0.002247
# 4 -0.000661 -0.004086 -0.003830 0.039965 0.005568 0.003538
# 5 0.009946 0.006399 -0.005488 0.005568 0.041320 0.009787
# 6 0.003562 0.002810 -0.002247 0.003538 0.009787 0.024182
#
#
# Mechanical properties :
#
#
# Convention : Reuss Voigt Hill
#
# Bulk Modulus (GPa) = 37.07617 47.77553 42.42585
# Shear Modulus (GPa) = 27.91555 34.22015 31.06785
#
# Velocity S-wave (km/s) = 3.57057 3.95326 3.76678
# Velocity P-wave (km/s) = 5.82505 6.53120 6.18821
#
# Compressibility (1/GPa) = 0.02697151
#
# Stress axis : x y z
#
# Youngs Moduli (GPa) = 57.34902 73.71111 67.52701
#
# Poissons Ratio (x) = -0.04396 0.37530
# Poissons Ratio (y) = -0.03420 0.30110
# Poissons Ratio (z) = 0.31873 0.32868
#
# Static dielectric constant tensor:
#      x y z
#    x 4.085000 -0.163270 -0.116800 
#    y -0.163270 4.245990 -0.046170 
#    z -0.116800 -0.046170 3.823340 
# 
# 
# High freq. dielectric constant tensor:
#      x y z
#    x 1.869980 -0.005010 -0.008540 
#    y -0.005010 1.879530 0.001120 
#    z -0.008540 0.001120 1.855120 
# 
# From -- ./inp_files/364227.got.cif
#   From: 2010.06.25/outbox.cif.g09.slc.cpg/sg2_183_cif.got.tgz:364227.got - 2010.06.27 13:26:56.
