data_PCOD8020490
_publ_section_title
;
Structure prediction by ZEFSAII (Michael W. Deem and Ramdas Pophale) SiO2 
 PCOD8020490
Probable space group: P -1
;
_chemical_formula_sum "Si O2"
_cell_formula_units_Z 14
_cell_length_a 12.386191
_cell_length_b 9.208989
_cell_length_c 8.726070
_cell_angle_alpha 133.024365
_cell_angle_beta 74.955311
_cell_angle_gamma 120.036167
_cell_volume 624.631219
_symmetry_space_group_name_H-M "P -1"
_symmetry_group_IT_number 2
_symmetry_cell_setting 'triclinic'
loop_
_space_group_symop_operation_xyz
x,y,z
-x,-y,-z
loop_
_atom_site_type_symbol
_atom_site_label
_atom_site_fract_x
_atom_site_fract_y
_atom_site_fract_z
Si Si1 0.533683 0.236978 0.721031
Si Si2 0.596974 0.818983 0.959383
Si Si3 0.395827 0.390036 0.664678
Si Si4 0.224837 0.697175 0.822528
Si Si5 0.029094 0.870109 0.030046
Si Si6 0.225574 0.484172 0.985892
Si Si7 0.764736 0.721032 0.629711
O O1 0.509241 0.354374 0.666536
O O2 0.500000 0.000000 0.500000
O O3 0.437008 0.225723 0.880751
O O4 0.678412 0.351589 0.804289
O O5 0.465562 0.660932 0.802986
O O6 0.704933 0.737618 0.827508
O O7 0.644090 0.077167 0.084367
O O8 0.282103 0.327459 0.781569
O O9 0.334421 0.257355 0.436854
O O10 0.205826 0.623574 0.954142
O O11 0.222247 0.502644 0.570723
O O12 0.112869 0.754122 0.854453
O O13 0.905019 0.670895 0.999375
O O14 0.100990 0.057208 0.270366
O O15 0.000000 0.000000 0.000000
#
# Coordination Sequence:
#
# PCOD8020490 Si02
#       7
#     2   2   2   2   2   2   2
#     4  11  26  40  70 107 140 179 224 276 348 409
#     4  10  22  42  68  99 143 172 220 281 340 398
#     4  10  23  42  68 102 139 179 220 282 344 406
#     4  10  24  43  72 102 131 183 232 278 339 409
#     4  11  26  44  71  97 140 182 227 288 335 395
#     4  10  23  46  67  98 144 177 225 285 337 401
#     4  10  24  44  71  98 134 182 227 277 339 403
#
# _framework density 22.413225000000001
#
# number of rings (size 3 to 8) (size 9 to 14) (size 15 to 20)
#    0.000    1.714    0.000    2.571   14.000    8.000 
#    2.571    0.000    0.000    0.000    0.000    0.000 
#    0.000    0.000    0.000    0.000    0.000    0.000 
#
# Total GULP energy -173456.873177 kJ/mol
# GULP energy per Si atom -12389.776656 kJ/mol
# Density = 2.236221 g / cm^3
# Si number density = 22.413225 Si / 1000 Ang^3
#
#
#
# Elastic Constant Matrix: (Units=GPa)
#
#
# Indices 1 2 3 4 5 6 
#
# 1 116.3014 56.9601 70.5931 6.2583 13.9723 -6.1075
# 2 56.9601 135.4590 50.6277 17.8786 14.8151 11.0323
# 3 70.5931 50.6277 152.0900 28.0329 2.5245 12.9342
# 4 6.2583 17.8786 28.0329 25.0238 2.9152 2.5664
# 5 13.9723 14.8151 2.5245 2.9152 34.9406 6.4788
# 6 -6.1075 11.0323 12.9342 2.5664 6.4788 44.8342
#
#
#
# Elastic Compliance Matrix: (Units=1/GPa)
#
#
# Indices 1 2 3 4 5 6 
#
# 1 0.016354 -0.004883 -0.007918 0.008313 -0.005715 0.006064
# 2 -0.004883 0.010577 0.000110 -0.005999 -0.001532 -0.002735
# 3 -0.007918 0.000110 0.012846 -0.012486 0.004103 -0.004690
# 4 0.008313 -0.005999 -0.012486 0.056387 -0.005278 0.003746
# 5 -0.005715 -0.001532 0.004103 -0.005278 0.032816 -0.006025
# 6 0.006064 -0.002735 -0.004690 0.003746 -0.006025 0.025813
#
#
# Mechanical properties :
#
#
# Convention : Reuss Voigt Hill
#
# Bulk Modulus (GPa) = 69.47995 84.46801 76.97398
# Shear Modulus (GPa) = 27.03080 36.00435 31.51757
#
# Velocity S-wave (km/s) = 3.47655 4.01233 3.75401
# Velocity P-wave (km/s) = 6.86892 7.69633 7.29436
#
# Compressibility (1/GPa) = 0.01439264
#
# Stress axis : x y z
#
# Youngs Moduli (GPa) = 61.14704 94.54532 77.84567
#
# Poissons Ratio (x) = 0.46170 0.61640
# Poissons Ratio (y) = 0.29861 -0.00853
# Poissons Ratio (z) = 0.48418 -0.01036
#
# Static dielectric constant tensor:
#      x y z
#    x 4.595450 -0.571050 -0.040570 
#    y -0.571050 5.181320 0.345210 
#    z -0.040570 0.345210 4.196160 
# 
# 
# High freq. dielectric constant tensor:
#      x y z
#    x 1.884360 0.007830 0.004200 
#    y 0.007830 1.881400 0.009930 
#    z 0.004200 0.009930 1.884740 
# 
# From -- ./inp_files/245904.got.cif
#   From: 2010.06.25/outbox.cif.g09.slc.cpg/sg2_123_cif.got.tgz:245904.got - 2010.06.27 13:26:56.
