data_PCOD8020016
_publ_section_title
;
Structure prediction by ZEFSAII (Michael W. Deem and Ramdas Pophale) SiO2 
 PCOD8020016
Probable space group: P -1
;
_chemical_formula_sum "Si O2"
_cell_formula_units_Z 14
_cell_length_a 18.619095
_cell_length_b 9.061995
_cell_length_c 8.675974
_cell_angle_alpha 61.195133
_cell_angle_beta 45.155668
_cell_angle_gamma 40.599069
_cell_volume 670.862770
_symmetry_space_group_name_H-M "P -1"
_symmetry_group_IT_number 2
_symmetry_cell_setting 'triclinic'
loop_
_space_group_symop_operation_xyz
x,y,z
-x,-y,-z
loop_
_atom_site_type_symbol
_atom_site_label
_atom_site_fract_x
_atom_site_fract_y
_atom_site_fract_z
Si Si1 0.707250 0.993771 0.034556
Si Si2 0.927597 0.240316 0.914684
Si Si3 0.140021 0.762061 0.477018
Si Si4 0.126444 0.471982 0.860519
Si Si5 0.690963 0.373399 0.997133
Si Si6 0.834959 0.940120 0.569491
Si Si7 0.443834 0.882163 0.095740
O O1 0.680076 0.183358 0.092382
O O2 0.839177 0.878456 0.776710
O O3 0.575385 0.105781 0.067855
O O4 0.738700 0.798225 0.193905
O O5 0.792123 0.314564 0.008640
O O6 0.887203 0.420267 0.011099
O O7 0.022479 0.239349 0.649094
O O8 0.000000 0.000000 0.000000
O O9 0.129076 0.592878 0.652456
O O10 0.253648 0.609937 0.252214
O O11 0.195049 0.825272 0.495833
O O12 0.000000 0.000000 0.500000
O O13 0.000000 0.500000 0.000000
O O14 0.544121 0.620902 0.130187
O O15 0.705430 0.987929 0.662681
O O16 0.500000 0.000000 0.000000
#
# Coordination Sequence:
#
# PCOD8020016 Si02
#       7
#     2   2   2   2   2   2   2
#     4   9  22  40  62  93 132 163 218 260 327 372
#     4  12  22  39  67  98 125 165 217 265 322 378
#     4  11  20  40  64  98 128 169 213 259 325 386
#     4  12  24  37  61  98 138 161 208 278 319 376
#     4  11  22  41  72  89 124 180 212 257 328 390
#     4   9  21  38  66  89 130 163 216 258 322 378
#     4  10  22  42  64  96 127 170 221 266 314 387
#
# _framework density 20.868648
#
# number of rings (size 3 to 8) (size 9 to 14) (size 15 to 20)
#    0.857    0.571    2.857    3.857    0.000    1.714 
#    0.000    1.429    0.000    0.000    0.000    0.000 
#    0.000    0.000    0.000    0.000    0.000    0.000 
#
# Total GULP energy -173432.785357 kJ/mol
# GULP energy per Si atom -12388.056097 kJ/mol
# Density = 2.082115 g / cm^3
# Si number density = 20.868648 Si / 1000 Ang^3
#
#
#
# Elastic Constant Matrix: (Units=GPa)
#
#
# Indices 1 2 3 4 5 6 
#
# 1 168.3879 59.7211 11.3623 -5.7857 -18.4228 13.6431
# 2 59.7211 144.9311 23.2183 -22.9943 -4.6724 0.6714
# 3 11.3623 23.2183 39.1499 -15.4319 -6.9486 2.4339
# 4 -5.7857 -22.9943 -15.4319 33.3494 4.6349 -1.1246
# 5 -18.4228 -4.6724 -6.9486 4.6349 29.9133 1.0369
# 6 13.6431 0.6714 2.4339 -1.1246 1.0369 44.7759
#
#
#
# Elastic Compliance Matrix: (Units=1/GPa)
#
#
# Indices 1 2 3 4 5 6 
#
# 1 0.007754 -0.003300 0.000032 -0.001639 0.004607 -0.002463
# 2 -0.003300 0.009462 -0.003208 0.004798 -0.002085 0.001207
# 3 0.000032 -0.003208 0.033399 0.012444 0.005404 -0.001590
# 4 -0.001639 0.004798 0.012444 0.039279 -0.003484 0.000818
# 5 0.004607 -0.002085 0.005404 -0.003484 0.037828 -0.002630
# 6 -0.002463 0.001207 -0.001590 0.000818 -0.002630 0.023234
#
#
# Mechanical properties :
#
#
# Convention : Reuss Voigt Hill
#
# Bulk Modulus (GPa) = 26.55178 60.11913 43.33546
# Shear Modulus (GPa) = 28.33448 38.81887 33.57667
#
# Velocity S-wave (km/s) = 3.68877 4.31763 4.01553
# Velocity P-wave (km/s) = 5.55820 7.32985 6.50463
#
# Compressibility (1/GPa) = 0.03766226
#
# Stress axis : x y z
#
# Youngs Moduli (GPa) = 128.95998 105.68479 29.94096
#
# Poissons Ratio (x) = 0.34881 -0.00095
# Poissons Ratio (y) = 0.42563 0.09604
# Poissons Ratio (z) = -0.00407 0.33901
#
# Static dielectric constant tensor:
#      x y z
#    x 4.101940 0.282430 -0.015340 
#    y 0.282430 4.008190 -0.131290 
#    z -0.015340 -0.131290 3.746500 
# 
# 
# High freq. dielectric constant tensor:
#      x y z
#    x 1.831400 0.010550 -0.008040 
#    y 0.010550 1.812450 -0.012080 
#    z -0.008040 -0.012080 1.787230 
# 
# From -- ./inp_files/327399.got.cif
#   From: 2010.06.25/outbox.cif.g09.slc.cpg/sg2_164_cif.got.tgz:327399.got - 2010.06.27 13:26:56.
