data_PCOD8020549
_publ_section_title
;
Structure prediction by ZEFSAII (Michael W. Deem and Ramdas Pophale) SiO2 
 PCOD8020549
Probable space group: P -1
;
_chemical_formula_sum "Si O2"
_cell_formula_units_Z 16
_cell_length_a 11.187618
_cell_length_b 18.099308
_cell_length_c 8.937717
_cell_angle_alpha 60.603670
_cell_angle_beta 49.877831
_cell_angle_gamma 31.124460
_cell_volume 706.815848
_symmetry_space_group_name_H-M "P -1"
_symmetry_group_IT_number 2
_symmetry_cell_setting 'triclinic'
loop_
_space_group_symop_operation_xyz
x,y,z
-x,-y,-z
loop_
_atom_site_type_symbol
_atom_site_label
_atom_site_fract_x
_atom_site_fract_y
_atom_site_fract_z
Si Si1 0.711476 0.799774 0.840066
Si Si2 0.153534 0.113318 0.942765
Si Si3 0.772867 0.173938 0.017438
Si Si4 0.227530 0.546905 0.542569
Si Si5 0.632850 0.802423 0.227835
Si Si6 0.621234 0.328093 0.688839
Si Si7 0.300392 0.376349 0.431921
Si Si8 0.919156 0.886816 0.671774
O O1 0.876436 0.806410 0.763099
O O2 0.907600 0.668670 0.692696
O O3 0.657635 0.770152 0.063388
O O4 0.438185 0.946596 0.832134
O O5 0.055985 0.108241 0.176448
O O6 0.931859 0.189439 0.921822
O O7 0.182108 0.201358 0.857876
O O8 0.529575 0.257623 0.241994
O O9 0.624515 0.261721 0.893087
O O10 0.000000 0.000000 0.000000
O O11 0.341957 0.463250 0.693706
O O12 0.282223 0.621256 0.390169
O O13 0.348096 0.446821 0.400255
O O14 0.701041 0.688457 0.368875
O O15 0.327609 0.956789 0.357846
O O16 0.816207 0.198711 0.538932
O O17 0.000000 0.500000 0.500000
#
# Coordination Sequence:
#
# PCOD8020549 Si02
#       8
#     2   2   2   2   2   2   2   2
#     4   8  17  35  68  98 120 166 222 267 312 388
#     4   9  19  39  72  95 126 168 220 274 321 384
#     4  12  28  45  65  99 133 170 221 276 329 380
#     4  10  23  43  67  95 133 176 221 264 326 396
#     4   9  19  39  66  95 128 174 216 265 323 390
#     4  10  22  42  69  96 129 176 222 267 320 395
#     4  12  29  44  60  98 141 173 212 268 335 389
#     4   8  15  37  65  98 120 159 227 266 315 376
#
# _framework density 22.636731000000001
#
# number of rings (size 3 to 8) (size 9 to 14) (size 15 to 20)
#    0.000    2.250    0.000    3.000    5.250    4.000 
#    0.000    6.875    0.000    0.000    0.000    0.000 
#    0.000    0.000    0.000    0.000    0.000    0.000 
#
# Total GULP energy -198251.357115 kJ/mol
# GULP energy per Si atom -12390.709820 kJ/mol
# Density = 2.258521 g / cm^3
# Si number density = 22.636731 Si / 1000 Ang^3
#
#
#
# Elastic Constant Matrix: (Units=GPa)
#
#
# Indices 1 2 3 4 5 6 
#
# 1 52.1428 10.2060 5.4658 12.1041 1.8621 -3.7669
# 2 10.2060 85.6621 41.0697 12.9574 3.5516 5.4472
# 3 5.4658 41.0697 90.4414 14.8422 5.4860 -0.1665
# 4 12.1041 12.9574 14.8422 44.2425 -4.4303 0.9716
# 5 1.8621 3.5516 5.4860 -4.4303 22.0841 3.5978
# 6 -3.7669 5.4472 -0.1665 0.9716 3.5978 27.2811
#
#
#
# Elastic Compliance Matrix: (Units=1/GPa)
#
#
# Indices 1 2 3 4 5 6 
#
# 1 0.021308 -0.002184 0.000899 -0.005933 -0.003520 0.004059
# 2 -0.002184 0.015616 -0.006655 -0.001718 -0.000475 -0.003337
# 3 0.000899 -0.006655 0.014868 -0.003713 -0.003799 0.002177
# 4 -0.005933 -0.001718 -0.003713 0.026776 0.007467 -0.002437
# 5 -0.003520 -0.000475 -0.003799 0.007467 0.049266 -0.007177
# 6 0.004059 -0.003337 0.002177 -0.002437 -0.007177 0.038929
#
#
# Mechanical properties :
#
#
# Convention : Reuss Voigt Hill
#
# Bulk Modulus (GPa) = 27.84620 37.96993 32.90806
# Shear Modulus (GPa) = 25.69194 30.15520 27.92357
#
# Velocity S-wave (km/s) = 3.37258 3.65380 3.51601
# Velocity P-wave (km/s) = 5.24345 5.88306 5.57244
#
# Compressibility (1/GPa) = 0.03591154
#
# Stress axis : x y z
#
# Youngs Moduli (GPa) = 46.93156 64.03568 67.25728
#
# Poissons Ratio (x) = 0.13988 -0.06045
# Poissons Ratio (y) = 0.10251 0.44758
# Poissons Ratio (z) = -0.04218 0.42615
#
# Static dielectric constant tensor:
#      x y z
#    x 3.925470 0.025640 0.095080 
#    y 0.025640 4.127390 0.353700 
#    z 0.095080 0.353700 4.206680 
# 
# 
# High freq. dielectric constant tensor:
#      x y z
#    x 1.881620 -0.004630 0.000700 
#    y -0.004630 1.898230 0.012120 
#    z 0.000700 0.012120 1.881800 
# 
# From -- ./inp_files/279195.got.cif
#   From: 2010.06.25/outbox.cif.g09.slc.cpg/sg2_140_cif.got.tgz:279195.got - 2010.06.27 13:26:56.
