data_PCOD8020300
_publ_section_title
;
Structure prediction by ZEFSAII (Michael W. Deem and Ramdas Pophale) SiO2 
 PCOD8020300
Probable space group: P -1
;
_chemical_formula_sum "Si O2"
_cell_formula_units_Z 16
_cell_length_a 20.644610
_cell_length_b 9.267253
_cell_length_c 14.267286
_cell_angle_alpha 66.655981
_cell_angle_beta 20.370119
_cell_angle_gamma 77.027644
_cell_volume 774.608578
_symmetry_space_group_name_H-M "P -1"
_symmetry_group_IT_number 2
_symmetry_cell_setting 'triclinic'
loop_
_space_group_symop_operation_xyz
x,y,z
-x,-y,-z
loop_
_atom_site_type_symbol
_atom_site_label
_atom_site_fract_x
_atom_site_fract_y
_atom_site_fract_z
Si Si1 0.444980 0.386083 0.324874
Si Si2 0.856512 0.789263 0.942124
Si Si3 0.138540 0.543025 0.893113
Si Si4 0.675701 0.944499 0.804556
Si Si5 0.330248 0.063206 0.689144
Si Si6 0.685738 0.611706 0.786869
Si Si7 0.958018 0.720108 0.223035
Si Si8 0.553088 0.725850 0.206062
O O1 0.458890 0.241097 0.409351
O O2 0.237998 0.288814 0.566645
O O3 0.435430 0.540067 0.358870
O O4 0.657343 0.484605 0.947783
O O5 0.815942 0.619463 0.101870
O O6 0.772676 0.904298 0.085850
O O7 0.736580 0.732554 0.021008
O O8 0.100088 0.893099 0.560441
O O9 0.360233 0.720088 0.530513
O O10 0.000000 0.500000 0.000000
O O11 0.026311 0.580616 0.123447
O O12 0.656159 0.780462 0.812560
O O13 0.647877 0.893957 0.965311
O O14 0.500000 0.000000 0.000000
O O15 0.500000 0.000000 0.500000
O O16 0.145280 0.918722 0.913775
O O17 0.901437 0.668449 0.423132
O O18 0.500000 0.500000 0.000000
#
# Coordination Sequence:
#
# PCOD8020300 Si02
#       8
#     2   2   2   2   2   2   2   2
#     4  10  22  42  67  93 129 176 219 274 324 394
#     4  12  25  43  66  98 139 175 216 277 336 401
#     4  12  23  41  70 101 129 176 230 271 330 396
#     4  11  24  44  70  99 131 172 230 276 326 395
#     4  12  25  43  64  98 136 175 220 271 334 391
#     4   9  21  42  65  92 131 165 212 270 333 378
#     4  11  22  43  68  96 132 170 223 278 328 391
#     4  11  23  43  65  95 138 174 218 272 336 394
#
# _framework density 20.655594000000001
#
# number of rings (size 3 to 8) (size 9 to 14) (size 15 to 20)
#    0.000    1.000    3.750    2.625    5.250    0.000 
#    9.000    1.875    0.000    0.000    0.000    0.000 
#    0.000    0.000    0.000    0.000    0.000    0.000 
#
# Total GULP energy -198382.696345 kJ/mol
# GULP energy per Si atom -12398.918522 kJ/mol
# Density = 2.060858 g / cm^3
# Si number density = 20.655594 Si / 1000 Ang^3
#
#
#
# Elastic Constant Matrix: (Units=GPa)
#
#
# Indices 1 2 3 4 5 6 
#
# 1 112.4323 39.5965 53.8021 4.1664 7.1673 -13.4186
# 2 39.5965 83.5881 42.3796 12.3926 15.3537 -2.0252
# 3 53.8021 42.3796 128.2475 12.3527 23.0207 -3.0982
# 4 4.1664 12.3926 12.3527 34.6275 1.6218 -0.8422
# 5 7.1673 15.3537 23.0207 1.6218 39.2075 -5.4515
# 6 -13.4186 -2.0252 -3.0982 -0.8422 -5.4515 33.9276
#
#
#
# Elastic Compliance Matrix: (Units=1/GPa)
#
#
# Indices 1 2 3 4 5 6 
#
# 1 0.012971 -0.004484 -0.004470 0.001635 0.002625 0.004917
# 2 -0.004484 0.016762 -0.002497 -0.004409 -0.004347 -0.001809
# 3 -0.004470 -0.002497 0.011626 -0.002516 -0.005170 -0.001749
# 4 0.001635 -0.004409 -0.002516 0.031103 0.001787 0.001213
# 5 0.002625 -0.004347 -0.005170 0.001787 0.030418 0.005239
# 6 0.004917 -0.001809 -0.001749 0.001213 0.005239 0.032023
#
#
# Mechanical properties :
#
#
# Convention : Reuss Voigt Hill
#
# Bulk Modulus (GPa) = 54.17653 66.20270 60.18961
# Shear Modulus (GPa) = 30.49584 34.11849 32.30716
#
# Velocity S-wave (km/s) = 3.84656 4.06862 3.95915
# Velocity P-wave (km/s) = 6.78332 7.36151 7.07832
#
# Compressibility (1/GPa) = 0.01845818
#
# Stress axis : x y z
#
# Youngs Moduli (GPa) = 77.09386 59.66017 86.01537
#
# Poissons Ratio (x) = 0.26751 0.38448
# Poissons Ratio (y) = 0.34568 0.21474
# Poissons Ratio (z) = 0.34460 0.14894
#
# Static dielectric constant tensor:
#      x y z
#    x 4.013290 0.191110 0.488880 
#    y 0.191110 3.640450 -0.090920 
#    z 0.488880 -0.090920 4.365860 
# 
# 
# High freq. dielectric constant tensor:
#      x y z
#    x 1.812190 0.012130 0.013780 
#    y 0.012130 1.795520 -0.007280 
#    z 0.013780 -0.007280 1.826800 
# 
# From -- ./inp_files/177881.got.cif
#   From: 2010.06.25/outbox.cif.g09.slc.cpg/sg2_89_cif.got.tgz:177881.got - 2010.06.27 13:26:56.
