data_PCOD8020557
_publ_section_title
;
Structure prediction by ZEFSAII (Michael W. Deem and Ramdas Pophale) SiO2 
 PCOD8020557
Probable space group: P -1
;
_chemical_formula_sum "Si O2"
_cell_formula_units_Z 14
_cell_length_a 15.694025
_cell_length_b 16.079134
_cell_length_c 7.601665
_cell_angle_alpha 80.265223
_cell_angle_beta 98.169785
_cell_angle_gamma 162.623631
_cell_volume 563.421229
_symmetry_space_group_name_H-M "P -1"
_symmetry_group_IT_number 2
_symmetry_cell_setting 'triclinic'
loop_
_space_group_symop_operation_xyz
x,y,z
-x,-y,-z
loop_
_atom_site_type_symbol
_atom_site_label
_atom_site_fract_x
_atom_site_fract_y
_atom_site_fract_z
Si Si1 0.003158 0.789152 0.974778
Si Si2 0.701816 0.116587 0.593455
Si Si3 0.304353 0.195475 0.464666
Si Si4 0.262674 0.340398 0.313559
Si Si5 0.834288 0.200150 0.240397
Si Si6 0.506940 0.757474 0.781085
Si Si7 0.268533 0.740960 0.150248
O O1 0.841121 0.721201 0.883192
O O2 0.061778 0.789358 0.816463
O O3 0.817160 0.564719 0.143328
O O4 0.293965 0.084877 0.053415
O O5 0.920842 0.289771 0.441849
O O6 0.863768 0.313811 0.733366
O O7 0.500000 0.000000 0.500000
O O8 0.526070 0.874568 0.709125
O O9 0.348294 0.322394 0.319029
O O10 0.467722 0.354692 0.643198
O O11 0.416393 0.221206 0.379428
O O12 0.973250 0.872387 0.525929
O O13 0.999379 0.433826 0.103722
O O14 0.488108 0.878541 0.255059
O O15 0.500000 0.000000 0.000000
#
# Coordination Sequence:
#
# PCOD8020557 Si02
#       7
#     2   2   2   2   2   2   2
#     4  12  25  41  64  97 133 169 208 264 325 380
#     4  10  24  42  63  90 122 169 221 266 316 380
#     4  10  22  43  69  97 128 169 214 259 308 386
#     4  10  22  42  69  97 129 169 213 255 316 383
#     4  11  23  39  60  85 119 163 208 253 311 376
#     4  12  26  42  64  96 132 167 215 268 324 377
#     4  11  22  39  61  86 119 156 206 265 318 367
#
# _framework density 24.848195
#
# number of rings (size 3 to 8) (size 9 to 14) (size 15 to 20)
#    0.000    1.143    0.000    6.000    0.000    9.143 
#    0.000    0.000    0.000    0.000    0.000    0.000 
#    0.000    0.000    0.000    0.000    0.000    0.000 
#
# Total GULP energy -173581.743194 kJ/mol
# GULP energy per Si atom -12398.695942 kJ/mol
# Density = 2.479164 g / cm^3
# Si number density = 24.848195 Si / 1000 Ang^3
#
#
#
# Elastic Constant Matrix: (Units=GPa)
#
#
# Indices 1 2 3 4 5 6 
#
# 1 80.6576 0.3208 2.2297 10.7667 4.5933 -5.5513
# 2 0.3208 84.5423 -11.2628 4.7729 -9.3094 2.1222
# 3 2.2297 -11.2628 56.4622 0.2611 1.0880 0.3710
# 4 10.7667 4.7729 0.2611 28.0531 -1.4266 -6.5420
# 5 4.5933 -9.3094 1.0880 -1.4266 43.4822 -4.8006
# 6 -5.5513 2.1222 0.3710 -6.5420 -4.8006 29.4968
#
#
#
# Elastic Compliance Matrix: (Units=1/GPa)
#
#
# Indices 1 2 3 4 5 6 
#
# 1 0.013223 -0.000026 -0.000485 -0.004861 -0.001419 0.001188
# 2 -0.000026 0.012583 0.002481 -0.002274 0.002444 -0.001048
# 3 -0.000485 0.002481 0.018231 -0.000547 0.000041 -0.000614
# 4 -0.004861 -0.002274 -0.000547 0.040003 0.002291 0.008501
# 5 -0.001419 0.002444 0.000041 0.002291 0.024187 0.004001
# 6 0.001188 -0.001048 -0.000614 0.008501 0.004001 0.036745
#
#
# Mechanical properties :
#
#
# Convention : Reuss Voigt Hill
#
# Bulk Modulus (GPa) = 20.84389 22.69305 21.76847
# Shear Modulus (GPa) = 31.84205 35.56473 33.70339
#
# Velocity S-wave (km/s) = 3.58364 3.78733 3.68689
# Velocity P-wave (km/s) = 5.05272 5.31767 5.18689
#
# Compressibility (1/GPa) = 0.04797568
#
# Stress axis : x y z
#
# Youngs Moduli (GPa) = 75.62554 79.47290 54.85201
#
# Poissons Ratio (x) = 0.00210 0.02663
# Poissons Ratio (y) = 0.00200 -0.13611
# Poissons Ratio (z) = 0.03671 -0.19720
#
# Static dielectric constant tensor:
#      x y z
#    x 4.656190 0.449730 0.274630 
#    y 0.449730 5.451520 0.677610 
#    z 0.274630 0.677610 4.997620 
# 
# 
# High freq. dielectric constant tensor:
#      x y z
#    x 1.986230 -0.002230 0.007160 
#    y -0.002230 1.993210 -0.000140 
#    z 0.007160 -0.000140 1.988690 
# 
# From -- ./inp_files/313369.got.cif
#   From: 2010.06.25/outbox.cif.g09.slc.cpg/sg2_157_cif.got.tgz:313369.got - 2010.06.27 13:26:56.
