data_PCOD8020240
_publ_section_title
;
Structure prediction by ZEFSAII (Michael W. Deem and Ramdas Pophale) SiO2 
 PCOD8020240
Probable space group: P -1
;
_chemical_formula_sum "Si O2"
_cell_formula_units_Z 14
_cell_length_a 7.134111
_cell_length_b 11.336584
_cell_length_c 8.238721
_cell_angle_alpha 78.940578
_cell_angle_beta 99.958861
_cell_angle_gamma 82.062543
_cell_volume 633.900435
_symmetry_space_group_name_H-M "P -1"
_symmetry_group_IT_number 2
_symmetry_cell_setting 'triclinic'
loop_
_space_group_symop_operation_xyz
x,y,z
-x,-y,-z
loop_
_atom_site_type_symbol
_atom_site_label
_atom_site_fract_x
_atom_site_fract_y
_atom_site_fract_z
Si Si1 0.598218 0.085288 0.822086
Si Si2 0.641619 0.459464 0.679464
Si Si3 0.855231 0.612953 0.877114
Si Si4 0.139504 0.774171 0.750836
Si Si5 0.855849 0.216490 0.629627
Si Si6 0.208051 0.023522 0.818123
Si Si7 0.503792 0.682626 0.034558
O O1 0.701244 0.127663 0.667761
O O2 0.506521 0.198258 0.890221
O O3 0.417166 0.021515 0.762351
O O4 0.758225 0.997327 0.977795
O O5 0.500000 0.500000 0.500000
O O6 0.750594 0.569949 0.713483
O O7 0.800729 0.340742 0.690751
O O8 0.517729 0.432226 0.824744
O O9 0.957783 0.724041 0.810134
O O10 0.708375 0.661563 0.984451
O O11 0.000000 0.500000 0.000000
O O12 0.147924 0.752684 0.566701
O O13 0.111836 0.917395 0.750281
O O14 0.335200 0.698529 0.872126
O O15 0.068368 0.152283 0.735390
#
# Coordination Sequence:
#
# PCOD8020240 Si02
#       7
#     2   2   2   2   2   2   2
#     4   9  22  41  68  98 129 179 212 279 344 386
#     4  11  25  45  69  98 135 179 223 284 332 388
#     4  12  26  43  71  96 131 184 224 269 339 397
#     4  11  25  43  66 102 131 181 220 278 336 399
#     4  11  24  41  67  98 138 168 227 279 326 401
#     4  10  22  42  66  98 136 172 224 269 335 406
#     4  10  23  44  66  92 137 170 226 276 334 400
#
# _framework density 22.085487000000001
#
# number of rings (size 3 to 8) (size 9 to 14) (size 15 to 20)
#    0.000    1.429    1.429    2.143    4.000    8.000 
#    0.000    0.000    0.000    0.000    0.000    0.000 
#    0.000    0.000    0.000    0.000    0.000    0.000 
#
# Total GULP energy -173666.913457 kJ/mol
# GULP energy per Si atom -12404.779533 kJ/mol
# Density = 2.203522 g / cm^3
# Si number density = 22.085487 Si / 1000 Ang^3
#
#
#
# Elastic Constant Matrix: (Units=GPa)
#
#
# Indices 1 2 3 4 5 6 
#
# 1 139.1540 40.8160 63.7742 1.4263 -12.6380 5.2017
# 2 40.8160 60.2414 28.9886 -1.1790 5.2708 8.6072
# 3 63.7742 28.9886 111.0877 -10.4998 -5.1938 -10.3654
# 4 1.4263 -1.1790 -10.4998 27.6297 0.4925 3.9426
# 5 -12.6380 5.2708 -5.1938 0.4925 39.4122 0.2397
# 6 5.2017 8.6072 -10.3654 3.9426 0.2397 40.5734
#
#
#
# Elastic Compliance Matrix: (Units=1/GPa)
#
#
# Indices 1 2 3 4 5 6 
#
# 1 0.011771 -0.005473 -0.005558 -0.002805 0.003818 -0.001518
# 2 -0.005473 0.023256 -0.003589 0.000746 -0.005316 -0.005190
# 3 -0.005558 -0.003589 0.014033 0.004803 0.000459 0.004589
# 4 -0.002805 0.000746 0.004803 0.038540 -0.000834 -0.002312
# 5 0.003818 -0.005316 0.000459 -0.000834 0.027375 0.000675
# 6 -0.001518 -0.005190 0.004589 -0.002312 0.000675 0.027335
#
#
# Mechanical properties :
#
#
# Convention : Reuss Voigt Hill
#
# Bulk Modulus (GPa) = 50.45220 64.18227 57.31724
# Shear Modulus (GPa) = 28.06526 33.31668 30.69097
#
# Velocity S-wave (km/s) = 3.56863 3.88820 3.73184
# Velocity P-wave (km/s) = 6.31457 7.02007 6.67665
#
# Compressibility (1/GPa) = 0.01982074
#
# Stress axis : x y z
#
# Youngs Moduli (GPa) = 84.95543 42.99887 71.26225
#
# Poissons Ratio (x) = 0.23533 0.39604
# Poissons Ratio (y) = 0.46496 0.25577
# Poissons Ratio (z) = 0.47214 0.15433
#
# Static dielectric constant tensor:
#      x y z
#    x 4.130420 0.173650 -0.032930 
#    y 0.173650 4.082360 -0.139920 
#    z -0.032930 -0.139920 3.916030 
# 
# 
# High freq. dielectric constant tensor:
#      x y z
#    x 1.877550 0.003150 -0.001030 
#    y 0.003150 1.872520 -0.008270 
#    z -0.001030 -0.008270 1.864610 
# 
# From -- ./inp_files/39656.got.cif
#   From: 2010.06.25/outbox.cif.g09.slc.cpg/sg2_20_cif.got.tgz:39656.got - 2010.06.27 13:26:56.
