data_PCOD8020018
_publ_section_title
;
Structure prediction by ZEFSAII (Michael W. Deem and Ramdas Pophale) SiO2 
 PCOD8020018
Probable space group: P -1
;
_chemical_formula_sum "Si O2"
_cell_formula_units_Z 16
_cell_length_a 14.396889
_cell_length_b 8.734600
_cell_length_c 11.787085
_cell_angle_alpha 38.962996
_cell_angle_beta 125.658623
_cell_angle_gamma 123.051120
_cell_volume 744.893698
_symmetry_space_group_name_H-M "P -1"
_symmetry_group_IT_number 2
_symmetry_cell_setting 'triclinic'
loop_
_space_group_symop_operation_xyz
x,y,z
-x,-y,-z
loop_
_atom_site_type_symbol
_atom_site_label
_atom_site_fract_x
_atom_site_fract_y
_atom_site_fract_z
Si Si1 0.922352 0.356825 0.685272
Si Si2 0.766580 0.888225 0.751948
Si Si3 0.537419 0.768898 0.223983
Si Si4 0.407234 0.240590 0.479384
Si Si5 0.541798 0.842871 0.761975
Si Si6 0.369988 0.378861 0.842495
Si Si7 0.109635 0.228546 0.737196
Si Si8 0.000742 0.303724 0.015131
O O1 0.918001 0.624974 0.477782
O O2 0.036373 0.265944 0.774533
O O3 0.810947 0.164403 0.671099
O O4 0.929043 0.377311 0.813679
O O5 0.717022 0.881614 0.592091
O O6 0.653651 0.780551 0.810200
O O7 0.869752 0.727640 0.915094
O O8 0.431189 0.537278 0.304099
O O9 0.602036 0.834640 0.351366
O O10 0.628867 0.677685 0.257658
O O11 0.500000 0.000000 0.000000
O O12 0.511838 0.118302 0.567384
O O13 0.425914 0.661871 0.742326
O O14 0.560014 0.798715 0.934042
O O15 0.238013 0.316703 0.824216
O O16 0.075576 0.942660 0.843994
O O17 0.000000 0.500000 0.000000
#
# Coordination Sequence:
#
# PCOD8020018 Si02
#       8
#     2   2   2   2   2   2   2   2
#     4  10  22  43  70  91 129 164 221 277 320 374
#     4  11  22  42  69  96 126 172 223 268 320 381
#     4  11  24  44  57  91 139 172 207 259 323 386
#     4  11  24  41  66  92 133 174 215 259 320 396
#     4  11  22  39  66  98 129 173 221 265 321 383
#     4  11  22  39  65  95 134 168 217 270 320 383
#     4  10  22  42  64  97 122 170 219 269 320 377
#     4  11  25  45  66  95 131 171 215 269 334 387
#
# _framework density 21.479574
#
# number of rings (size 3 to 8) (size 9 to 14) (size 15 to 20)
#    0.000    1.250    2.500    4.125    1.750    2.500 
#    2.250    6.250    0.000    0.000    0.000    0.000 
#    0.000    0.000    0.000    0.000    0.000    0.000 
#
# Total GULP energy -198338.825917 kJ/mol
# GULP energy per Si atom -12396.176620 kJ/mol
# Density = 2.143069 g / cm^3
# Si number density = 21.479574 Si / 1000 Ang^3
#
#
#
# Elastic Constant Matrix: (Units=GPa)
#
#
# Indices 1 2 3 4 5 6 
#
# 1 65.8744 63.5881 40.4108 4.6576 9.2923 12.4206
# 2 63.5881 158.8850 73.4642 16.7446 -15.3430 -0.7735
# 3 40.4108 73.4642 106.9637 3.5981 -30.3066 -14.0151
# 4 4.6576 16.7446 3.5981 44.1916 -0.2530 -4.4966
# 5 9.2923 -15.3430 -30.3066 -0.2530 12.6739 1.7376
# 6 12.4206 -0.7735 -14.0151 -4.4966 1.7376 34.9723
#
#
#
# Elastic Compliance Matrix: (Units=1/GPa)
#
#
# Indices 1 2 3 4 5 6 
#
# 1 -0.012283 -0.000484 0.026016 0.000922 0.069077 0.011464
# 2 -0.000484 0.010872 -0.011542 -0.003614 -0.013608 -0.004002
# 3 0.026016 -0.011542 -0.008981 0.001008 -0.053089 -0.010327
# 4 0.000922 -0.003614 0.001008 0.024132 -0.002601 0.003229
# 5 0.069077 -0.013608 -0.053089 -0.002601 -0.109599 -0.040999
# 6 0.011464 -0.004002 -0.010327 0.003229 -0.040999 0.022748
#
#
# Mechanical properties :
#
#
# Convention : Reuss Voigt Hill
#
# Bulk Modulus (GPa) = 56.86089 76.29435 66.57762
# Shear Modulus (GPa) = -52.50565 28.65156 -11.92704
#
# Velocity S-wave (km/s) = -4.94950 3.65622 -2.35898
# Velocity P-wave (km/s) = 2.47666 7.30893 4.86244
#
# Compressibility (1/GPa) = 0.01758678
#
# Stress axis : x y z
#
# Youngs Moduli (GPa) = -81.41567 91.98095 -111.34069
#
# Poissons Ratio (x) = 0.04454 2.89665
# Poissons Ratio (y) = -0.03942 -1.28514
# Poissons Ratio (z) = 2.11812 1.06168
#
# Static dielectric constant tensor:
#      x y z
#    x 3.768490 -0.032950 -0.092650 
#    y -0.032950 3.981530 0.069900 
#    z -0.092650 0.069900 3.948280 
# 
# 
# High freq. dielectric constant tensor:
#      x y z
#    x 1.829490 -0.002420 -0.008210 
#    y -0.002420 1.844970 0.007680 
#    z -0.008210 0.007680 1.853940 
# 
# From -- ./inp_files/273972.got.cif
#   From: 2010.06.25/outbox.cif.g09.slc.cpg/sg2_137_cif.got.tgz:273972.got - 2010.06.27 13:26:56.
