data_PCOD8020270
_publ_section_title
;
Structure prediction by ZEFSAII (Michael W. Deem and Ramdas Pophale) SiO2 
 PCOD8020270
Probable space group: P -1
;
_chemical_formula_sum "Si O2"
_cell_formula_units_Z 14
_cell_length_a 5.384296
_cell_length_b 11.986968
_cell_length_c 9.682051
_cell_angle_alpha 85.733425
_cell_angle_beta 117.520225
_cell_angle_gamma 115.673292
_cell_volume 493.251613
_symmetry_space_group_name_H-M "P -1"
_symmetry_group_IT_number 2
_symmetry_cell_setting 'triclinic'
loop_
_space_group_symop_operation_xyz
x,y,z
-x,-y,-z
loop_
_atom_site_type_symbol
_atom_site_label
_atom_site_fract_x
_atom_site_fract_y
_atom_site_fract_z
Si Si1 0.063618 0.607780 0.675982
Si Si2 0.847046 0.356552 0.931611
Si Si3 0.772092 0.772299 0.645697
Si Si4 0.752769 0.802595 0.338354
Si Si5 0.328729 0.246334 0.044304
Si Si6 0.815889 0.990863 0.112517
Si Si7 0.077580 0.651267 0.380119
O O1 0.443962 0.702672 0.765996
O O2 0.900190 0.585703 0.485753
O O3 0.877989 0.663657 0.719680
O O4 0.006418 0.469996 0.732624
O O5 0.626368 0.301738 0.738545
O O6 0.587164 0.280367 0.985992
O O7 0.000000 0.500000 0.000000
O O8 0.117002 0.316566 0.979804
O O9 0.927837 0.833631 0.529710
O O10 0.418769 0.731641 0.520836
O O11 0.900588 0.867809 0.802217
O O12 0.790842 0.928349 0.262661
O O13 0.916225 0.739068 0.284391
O O14 0.123578 0.093749 0.984367
O O15 0.500000 0.000000 0.000000
#
# Coordination Sequence:
#
# PCOD8020270 Si02
#       7
#     2   2   2   2   2   2   2
#     4  10  22  42  67 105 141 182 237 298 362 430
#     4  11  25  44  73 107 146 188 238 302 369 435
#     4  11  23  43  72  98 141 191 238 295 357 434
#     4  10  25  43  67 104 140 184 241 297 364 423
#     4  11  25  44  72 104 144 188 244 296 365 426
#     4  11  24  48  69 100 144 189 249 298 358 432
#     4  10  23  41  69 103 141 182 238 295 365 433
#
# _framework density 28.383077
#
# number of rings (size 3 to 8) (size 9 to 14) (size 15 to 20)
#    0.000    1.429    1.429    2.143    8.000    0.571 
#   10.286    3.571    0.000    0.000    0.000    0.000 
#    0.000    0.000    0.000    0.000    0.000    0.000 
#
# Total GULP energy -173520.443388 kJ/mol
# GULP energy per Si atom -12394.317385 kJ/mol
# Density = 2.831848 g / cm^3
# Si number density = 28.383077 Si / 1000 Ang^3
#
#
#
# Elastic Constant Matrix: (Units=GPa)
#
#
# Indices 1 2 3 4 5 6 
#
# 1 95.2253 45.1681 53.1847 3.3065 15.7253 -34.4796
# 2 45.1681 194.1151 51.2236 16.4314 14.4377 -28.4288
# 3 53.1847 51.2236 153.7983 30.7266 -5.6379 -30.7998
# 4 3.3065 16.4314 30.7266 49.8832 -15.0327 13.1070
# 5 15.7253 14.4377 -5.6379 -15.0327 73.9110 3.4105
# 6 -34.4796 -28.4288 -30.7998 13.1070 3.4105 52.6510
#
#
#
# Elastic Compliance Matrix: (Units=1/GPa)
#
#
# Indices 1 2 3 4 5 6 
#
# 1 0.017280 -0.001145 -0.003258 -0.002752 -0.004712 0.009782
# 2 -0.001145 0.006449 -0.000520 -0.003163 -0.001853 0.003336
# 3 -0.003258 -0.000520 0.010421 -0.007559 -0.000205 0.005577
# 4 -0.002752 -0.003163 -0.007559 0.032713 0.008046 -0.016597
# 5 -0.004712 -0.001853 -0.000205 0.008046 0.016852 -0.007301
# 6 0.009782 0.003336 0.005577 -0.016597 -0.007301 0.035067
#
#
# Mechanical properties :
#
#
# Convention : Reuss Voigt Hill
#
# Bulk Modulus (GPa) = 41.14486 82.47684 61.81085
# Shear Modulus (GPa) = 36.56815 54.85986 45.71401
#
# Velocity S-wave (km/s) = 3.59329 4.40117 4.01759
# Velocity P-wave (km/s) = 5.63413 7.41274 6.58377
#
# Compressibility (1/GPa) = 0.02430437
#
# Stress axis : x y z
#
# Youngs Moduli (GPa) = 57.87038 155.05457 95.95552
#
# Poissons Ratio (x) = 0.17754 0.31264
# Poissons Ratio (y) = 0.06626 0.04990
# Poissons Ratio (z) = 0.18855 0.08063
#
# Static dielectric constant tensor:
#      x y z
#    x 6.056380 -0.066200 -1.488760 
#    y -0.066200 6.100690 1.528750 
#    z -1.488760 1.528750 9.767960 
# 
# 
# High freq. dielectric constant tensor:
#      x y z
#    x 2.190970 0.007820 -0.037730 
#    y 0.007820 2.157100 0.001760 
#    z -0.037730 0.001760 2.195950 
# 
# From -- ./inp_files/95692.got.cif
#   From: 2010.06.25/outbox.cif.g09.slc.cpg/sg2_48_cif.got.tgz:95692.got - 2010.06.27 13:26:56.
