data_PCOD8020561
_publ_section_title
;
Structure prediction by ZEFSAII (Michael W. Deem and Ramdas Pophale) SiO2 
 PCOD8020561
Probable space group: P -1
;
_chemical_formula_sum "Si O2"
_cell_formula_units_Z 14
_cell_length_a 21.219098
_cell_length_b 18.270550
_cell_length_c 12.709507
_cell_angle_alpha 27.576911
_cell_angle_beta 23.648357
_cell_angle_gamma 18.977599
_cell_volume 635.016968
_symmetry_space_group_name_H-M "P -1"
_symmetry_group_IT_number 2
_symmetry_cell_setting 'triclinic'
loop_
_space_group_symop_operation_xyz
x,y,z
-x,-y,-z
loop_
_atom_site_type_symbol
_atom_site_label
_atom_site_fract_x
_atom_site_fract_y
_atom_site_fract_z
Si Si1 0.214348 0.905300 0.592924
Si Si2 0.353313 0.538530 0.582182
Si Si3 0.019982 0.560128 0.176372
Si Si4 0.686095 0.937638 0.582748
Si Si5 0.147334 0.073499 0.876946
Si Si6 0.202566 0.395328 0.742614
Si Si7 0.189745 0.755985 0.348960
O O1 0.482241 0.702718 0.421981
O O2 0.173984 0.059462 0.551032
O O3 0.082945 0.056549 0.494339
O O4 0.104839 0.813213 0.909430
O O5 0.500000 0.500000 0.500000
O O6 0.257296 0.736084 0.393154
O O7 0.133491 0.615828 0.864582
O O8 0.211097 0.312528 0.253020
O O9 0.871245 0.751396 0.250585
O O10 0.866783 0.573702 0.312511
O O11 0.714016 0.991350 0.356602
O O12 0.418753 0.126228 0.778214
O O13 0.284493 0.836073 0.033997
O O14 0.288349 0.514061 0.472359
O O15 0.000000 0.500000 0.000000
#
# Coordination Sequence:
#
# PCOD8020561 Si02
#       7
#     2   2   2   2   2   2   2
#     4  10  22  42  69  97 130 174 221 278 322 388
#     4  12  23  42  71 102 125 173 220 277 345 378
#     4  12  25  43  66  98 140 173 222 279 328 396
#     4  12  25  44  68  98 135 183 223 265 334 400
#     4  10  25  45  65  98 137 181 220 274 328 390
#     4  12  25  43  68 102 132 175 222 280 335 392
#     4  10  23  44  67  98 135 165 226 276 324 397
#
# _framework density 22.046655000000001
#
# number of rings (size 3 to 8) (size 9 to 14) (size 15 to 20)
#    0.857    0.000    5.714    0.857    2.000    5.714 
#    2.571    0.000    0.000    0.000    0.000    0.000 
#    0.000    0.000    0.000    0.000    0.000    0.000 
#
# Total GULP energy -173500.919769 kJ/mol
# GULP energy per Si atom -12392.922841 kJ/mol
# Density = 2.199648 g / cm^3
# Si number density = 22.046655 Si / 1000 Ang^3
#
#
#
# Elastic Constant Matrix: (Units=GPa)
#
#
# Indices 1 2 3 4 5 6 
#
# 1 146.6873 51.7990 51.2375 -6.6205 20.4430 -5.2077
# 2 51.7990 99.9113 27.5308 -15.9614 9.9675 -4.2639
# 3 51.2375 27.5308 72.4185 -17.2770 19.0253 0.4770
# 4 -6.6205 -15.9614 -17.2770 37.4173 -2.1583 4.0105
# 5 20.4430 9.9675 19.0253 -2.1583 32.2060 -10.4222
# 6 -5.2077 -4.2639 0.4770 4.0105 -10.4222 40.4259
#
#
#
# Elastic Compliance Matrix: (Units=1/GPa)
#
#
# Indices 1 2 3 4 5 6 
#
# 1 0.010527 -0.004012 -0.006166 -0.002886 -0.001716 0.000849
# 2 -0.004012 0.013122 -0.000961 0.004380 -0.000556 0.000301
# 3 -0.006166 -0.000961 0.023589 0.009295 -0.010669 -0.004847
# 4 -0.002886 0.004380 0.009295 0.032596 -0.004236 -0.004345
# 5 -0.001716 -0.000556 -0.010669 -0.004236 0.041914 0.011072
# 6 0.000849 0.000301 -0.004847 -0.004345 0.011072 0.028221
#
#
# Mechanical properties :
#
#
# Convention : Reuss Voigt Hill
#
# Bulk Modulus (GPa) = 40.06465 64.46128 52.26296
# Shear Modulus (GPa) = 27.69083 34.57317 31.13200
#
# Velocity S-wave (km/s) = 3.54787 3.96432 3.76186
# Velocity P-wave (km/s) = 5.91568 7.08918 6.52885
#
# Compressibility (1/GPa) = 0.02495966
#
# Stress axis : x y z
#
# Youngs Moduli (GPa) = 94.99519 76.20962 42.39319
#
# Poissons Ratio (x) = 0.30577 0.26139
# Poissons Ratio (y) = 0.38114 0.04073
# Poissons Ratio (z) = 0.58573 0.07322
#
# Static dielectric constant tensor:
#      x y z
#    x 3.596580 0.318100 0.404790 
#    y 0.318100 3.765060 -0.330380 
#    z 0.404790 -0.330380 3.475010 
# 
# 
# High freq. dielectric constant tensor:
#      x y z
#    x 1.884970 -0.001290 0.003670 
#    y -0.001290 1.861940 -0.014270 
#    z 0.003670 -0.014270 1.838870 
# 
# From -- ./inp_files/472316.got.cif
#   From: 2010.06.25/outbox.cif.g09.slc.cpg/sg2_237_cif.got.tgz:472316.got - 2010.06.27 13:26:56.
