data_PCOD8020072
_publ_section_title
;
Structure prediction by ZEFSAII (Michael W. Deem and Ramdas Pophale) SiO2 
 PCOD8020072
Probable space group: P -1
;
_chemical_formula_sum "Si O2"
_cell_formula_units_Z 16
_cell_length_a 6.712943
_cell_length_b 8.662049
_cell_length_c 23.395111
_cell_angle_alpha 44.209090
_cell_angle_beta 53.967065
_cell_angle_gamma 69.860398
_cell_volume 759.829952
_symmetry_space_group_name_H-M "P -1"
_symmetry_group_IT_number 2
_symmetry_cell_setting 'triclinic'
loop_
_space_group_symop_operation_xyz
x,y,z
-x,-y,-z
loop_
_atom_site_type_symbol
_atom_site_label
_atom_site_fract_x
_atom_site_fract_y
_atom_site_fract_z
Si Si1 0.947165 0.650399 0.324255
Si Si2 0.985555 0.116767 0.235419
Si Si3 0.773412 0.904836 0.025799
Si Si4 0.379047 0.606928 0.638935
Si Si5 0.577061 0.427463 0.228653
Si Si6 0.267346 0.007894 0.115075
Si Si7 0.910248 0.841570 0.666483
Si Si8 0.061711 0.332489 0.485523
O O1 0.712748 0.591891 0.337091
O O2 0.186212 0.749774 0.218302
O O3 0.007689 0.435927 0.405768
O O4 0.885604 0.849127 0.324164
O O5 0.748273 0.240495 0.233351
O O6 0.131740 0.184016 0.251500
O O7 0.180001 0.171961 0.135086
O O8 0.677645 0.644048 0.117737
O O9 0.560330 0.051523 0.042212
O O10 0.864393 0.949974 0.933587
O O11 0.000000 0.000000 0.000000
O O12 0.396604 0.509938 0.725525
O O13 0.653466 0.713534 0.545043
O O14 0.185423 0.785550 0.620022
O O15 0.294700 0.329595 0.285875
O O16 0.890423 0.093987 0.582938
O O17 0.000000 0.500000 0.500000
#
# Coordination Sequence:
#
# PCOD8020072 Si02
#       8
#     2   2   2   2   2   2   2   2
#     4  10  22  42  65  92 126 169 211 263 306 374
#     4   9  23  42  64  91 132 164 209 260 317 360
#     4  11  22  39  67  95 124 163 212 252 317 386
#     4  11  24  40  64  90 131 165 214 260 315 364
#     4  11  25  43  66  95 126 172 204 260 324 372
#     4   9  21  40  61  94 125 158 207 260 308 371
#     4  11  24  44  61  94 132 164 212 265 309 378
#     4  12  24  39  66  95 124 173 217 253 315 368
#
# _framework density 21.057342999999999
#
# number of rings (size 3 to 8) (size 9 to 14) (size 15 to 20)
#    0.750    0.750    1.250    3.375    1.750    9.000 
#    0.000    1.250    0.000    0.000    0.000    0.000 
#    0.000    0.000    0.000    0.000    0.000    0.000 
#
# Total GULP energy -198356.357306 kJ/mol
# GULP energy per Si atom -12397.272332 kJ/mol
# Density = 2.100942 g / cm^3
# Si number density = 21.057343 Si / 1000 Ang^3
#
#
#
# Elastic Constant Matrix: (Units=GPa)
#
#
# Indices 1 2 3 4 5 6 
#
# 1 139.7424 52.2387 51.9917 6.0948 3.4154 18.6139
# 2 52.2387 91.6965 33.1271 5.4334 0.8312 7.5776
# 3 51.9917 33.1271 110.6935 1.4966 10.0734 4.4249
# 4 6.0948 5.4334 1.4966 35.2418 1.7119 -2.2091
# 5 3.4154 0.8312 10.0734 1.7119 32.2107 -1.1041
# 6 18.6139 7.5776 4.4249 -2.2091 -1.1041 35.2101
#
#
#
# Elastic Compliance Matrix: (Units=1/GPa)
#
#
# Indices 1 2 3 4 5 6 
#
# 1 0.010764 -0.004413 -0.003542 -0.001305 0.000000 -0.004377
# 2 -0.004413 0.014358 -0.002262 -0.001430 0.000862 -0.000535
# 3 -0.003542 -0.002262 0.011624 0.000676 -0.003208 0.000840
# 4 -0.001305 -0.001430 0.000676 0.029034 -0.001487 0.002688
# 5 0.000000 0.000862 -0.003208 -0.001487 0.032145 0.001132
# 6 -0.004377 -0.000535 0.000840 0.002688 0.001132 0.030929
#
#
# Mechanical properties :
#
#
# Convention : Reuss Voigt Hill
#
# Bulk Modulus (GPa) = 61.30829 68.53860 64.92345
# Shear Modulus (GPa) = 32.31570 34.18419 33.24995
#
# Velocity S-wave (km/s) = 3.92171 4.03350 3.97800
# Velocity P-wave (km/s) = 7.04873 7.36962 7.21096
#
# Compressibility (1/GPa) = 0.01631101
#
# Stress axis : x y z
#
# Youngs Moduli (GPa) = 92.90541 69.64764 86.03038
#
# Poissons Ratio (x) = 0.30737 0.30474
# Poissons Ratio (y) = 0.41001 0.19458
# Poissons Ratio (z) = 0.32909 0.15753
#
# Static dielectric constant tensor:
#      x y z
#    x 3.921120 0.032860 0.360710 
#    y 0.032860 3.800170 0.121960 
#    z 0.360710 0.121960 4.155820 
# 
# 
# High freq. dielectric constant tensor:
#      x y z
#    x 1.829630 0.002090 0.010230 
#    y 0.002090 1.830000 0.010710 
#    z 0.010230 0.010710 1.814800 
# 
# From -- ./inp_files/603775.got.cif
#   From: 2010.06.25/outbox.cif.g09.slc.cpg/sg2_302_cif.got.tgz:603775.got - 2010.06.27 13:26:56.
