data_PCOD8020013
_publ_section_title
;
Structure prediction by ZEFSAII (Michael W. Deem and Ramdas Pophale) SiO2 
 PCOD8020013
Probable space group: P -1
;
_chemical_formula_sum "Si O2"
_cell_formula_units_Z 16
_cell_length_a 6.569773
_cell_length_b 10.588518
_cell_length_c 11.704355
_cell_angle_alpha 59.464343
_cell_angle_beta 77.554197
_cell_angle_gamma 83.220327
_cell_volume 684.768893
_symmetry_space_group_name_H-M "P -1"
_symmetry_group_IT_number 2
_symmetry_cell_setting 'triclinic'
loop_
_space_group_symop_operation_xyz
x,y,z
-x,-y,-z
loop_
_atom_site_type_symbol
_atom_site_label
_atom_site_fract_x
_atom_site_fract_y
_atom_site_fract_z
Si Si1 0.665334 0.933417 0.864268
Si Si2 0.151397 0.630579 0.789488
Si Si3 0.956481 0.686916 0.020728
Si Si4 0.704950 0.949897 0.277572
Si Si5 0.535550 0.312318 0.460712
Si Si6 0.782388 0.429204 0.580551
Si Si7 0.984594 0.916852 0.655112
Si Si8 0.898891 0.174303 0.839828
O O1 0.785785 0.983360 0.712288
O O2 0.425734 0.957701 0.845104
O O3 0.733017 0.042167 0.908770
O O4 0.745161 0.767534 0.960302
O O5 0.112567 0.461455 0.837593
O O6 0.367162 0.686759 0.680107
O O7 0.971597 0.741980 0.711511
O O8 0.131336 0.645544 0.923283
O O9 0.064089 0.800006 0.042198
O O10 0.570473 0.840786 0.422961
O O11 0.879956 0.855665 0.233576
O O12 0.812170 0.064941 0.296699
O O13 0.719396 0.341827 0.514774
O O14 0.375396 0.444956 0.422816
O O15 0.789726 0.317541 0.735915
O O16 0.000000 0.500000 0.500000
O O17 0.000000 0.000000 0.500000
#
# Coordination Sequence:
#
# PCOD8020013 Si02
#       8
#     2   2   2   2   2   2   2   2
#     4  10  22  42  64  95 129 176 224 276 326 389
#     4  10  23  43  65  94 130 179 223 266 327 401
#     4  10  23  44  66  90 135 184 228 271 323 388
#     4  11  23  40  67 103 130 168 221 278 336 398
#     4  11  23  39  67 100 133 167 217 269 340 406
#     4  11  22  38  63 101 136 166 207 274 343 395
#     4  10  23  41  67  97 137 171 213 274 342 397
#     4  11  22  40  68  98 132 173 221 276 339 388
#
# _framework density 23.365546999999999
#
# number of rings (size 3 to 8) (size 9 to 14) (size 15 to 20)
#    0.000    1.500    2.500    1.875    3.500    3.500 
#    0.000    8.750    0.000    0.000    0.000    0.000 
#    0.000    0.000    0.000    0.000    0.000    0.000 
#
# Total GULP energy -198296.846510 kJ/mol
# GULP energy per Si atom -12393.552907 kJ/mol
# Density = 2.331237 g / cm^3
# Si number density = 23.365547 Si / 1000 Ang^3
#
#
#
# Elastic Constant Matrix: (Units=GPa)
#
#
# Indices 1 2 3 4 5 6 
#
# 1 87.1121 9.6186 11.8680 3.7139 17.9572 -2.9444
# 2 9.6186 75.3146 16.6918 -5.1050 18.2432 -4.9430
# 3 11.8680 16.6918 83.1194 0.6169 18.5291 -5.5231
# 4 3.7139 -5.1050 0.6169 42.8707 -5.7160 1.1043
# 5 17.9572 18.2432 18.5291 -5.7160 35.7591 -6.3224
# 6 -2.9444 -4.9430 -5.5231 1.1043 -6.3224 18.7339
#
#
#
# Elastic Compliance Matrix: (Units=1/GPa)
#
#
# Indices 1 2 3 4 5 6 
#
# 1 0.012988 -0.000124 -0.000349 -0.002014 -0.006638 -0.000216
# 2 -0.000124 0.015382 -0.001517 0.000948 -0.006617 0.001303
# 3 -0.000349 -0.001517 0.013872 -0.001211 -0.006144 0.001633
# 4 -0.002014 0.000948 -0.001211 0.024303 0.005011 -0.000165
# 5 -0.006638 -0.006617 -0.006144 0.005011 0.040192 0.008668
# 6 -0.000216 0.001303 0.001633 -0.000165 0.008668 0.057105
#
#
# Mechanical properties :
#
#
# Convention : Reuss Voigt Hill
#
# Bulk Modulus (GPa) = 26.13512 35.76698 30.95105
# Shear Modulus (GPa) = 27.68908 33.29725 30.49317
#
# Velocity S-wave (km/s) = 3.44617 3.77909 3.61646
# Velocity P-wave (km/s) = 5.20043 5.86369 5.54199
#
# Compressibility (1/GPa) = 0.03826270
#
# Stress axis : x y z
#
# Youngs Moduli (GPa) = 76.99619 65.00964 72.08544
#
# Poissons Ratio (x) = 0.00807 0.02517
# Poissons Ratio (y) = 0.00956 0.10933
# Poissons Ratio (z) = 0.02688 0.09859
#
# Static dielectric constant tensor:
#      x y z
#    x 4.205550 -0.286990 0.132900 
#    y -0.286990 4.798410 -0.236230 
#    z 0.132900 -0.236230 4.410680 
# 
# 
# High freq. dielectric constant tensor:
#      x y z
#    x 1.902310 -0.015060 -0.000500 
#    y -0.015060 1.937350 -0.008050 
#    z -0.000500 -0.008050 1.939010 
# 
# From -- ./inp_files/363841.got.cif
#   From: 2010.06.25/outbox.cif.g09.slc.cpg/sg2_182_cif.got.tgz:363841.got - 2010.06.27 13:26:56.
