data_PCOD8020559
_publ_section_title
;
Structure prediction by ZEFSAII (Michael W. Deem and Ramdas Pophale) SiO2 
 PCOD8020559
Probable space group: P -1
;
_chemical_formula_sum "Si O2"
_cell_formula_units_Z 16
_cell_length_a 11.233687
_cell_length_b 8.936550
_cell_length_c 16.589279
_cell_angle_alpha 51.360761
_cell_angle_beta 45.356546
_cell_angle_gamma 84.414297
_cell_volume 730.257242
_symmetry_space_group_name_H-M "P -1"
_symmetry_group_IT_number 2
_symmetry_cell_setting 'triclinic'
loop_
_space_group_symop_operation_xyz
x,y,z
-x,-y,-z
loop_
_atom_site_type_symbol
_atom_site_label
_atom_site_fract_x
_atom_site_fract_y
_atom_site_fract_z
Si Si1 0.289995 0.602292 0.545445
Si Si2 0.414388 0.141458 0.164943
Si Si3 0.804573 0.061898 0.495465
Si Si4 0.768708 0.369985 0.615358
Si Si5 0.097232 0.357295 0.999863
Si Si6 0.266221 0.172099 0.693024
Si Si7 0.226695 0.370893 0.112289
Si Si8 0.434002 0.374108 0.366280
O O1 0.227399 0.738111 0.585014
O O2 0.184690 0.564972 0.522050
O O3 0.205029 0.336165 0.706036
O O4 0.547143 0.783260 0.355479
O O5 0.379751 0.293943 0.068875
O O6 0.251387 0.017269 0.358818
O O7 0.385406 0.924520 0.201065
O O8 0.650281 0.343962 0.021035
O O9 0.051467 0.196131 0.321038
O O10 0.660637 0.834014 0.583868
O O11 0.641737 0.465408 0.677889
O O12 0.000000 0.500000 0.500000
O O13 0.123651 0.307302 0.095346
O O14 0.314035 0.483758 0.804799
O O15 0.932992 0.105440 0.116786
O O16 0.000000 0.500000 0.000000
O O17 0.356213 0.267559 0.528066
#
# Coordination Sequence:
#
# PCOD8020559 Si02
#       8
#     2   2   2   2   2   2   2   2
#     4   9  22  40  64  96 124 170 217 268 320 387
#     4  10  23  42  64  92 135 162 218 270 319 386
#     4  11  20  39  68  93 129 165 214 259 332 379
#     4  10  22  42  69  97 130 170 212 269 333 384
#     4  12  26  40  66  99 132 173 220 267 321 382
#     4  10  22  44  64  89 135 169 219 270 318 379
#     4  11  23  40  63  96 128 172 215 268 321 382
#     4  11  23  41  69  98 130 174 217 264 321 390
#
# _framework density 21.910087000000001
#
# number of rings (size 3 to 8) (size 9 to 14) (size 15 to 20)
#    0.000    1.500    2.500    1.875    5.250    3.000 
#    0.000    6.250    0.000    0.000    0.000    0.000 
#    0.000    0.000    0.000    0.000    0.000    0.000 
#
# Total GULP energy -198312.137677 kJ/mol
# GULP energy per Si atom -12394.508605 kJ/mol
# Density = 2.186022 g / cm^3
# Si number density = 21.910087 Si / 1000 Ang^3
#
#
#
# Elastic Constant Matrix: (Units=GPa)
#
#
# Indices 1 2 3 4 5 6 
#
# 1 79.9624 18.9717 1.9904 -2.2971 -10.7377 -1.7099
# 2 18.9717 138.4044 20.9200 -29.0357 -11.7502 -11.4897
# 3 1.9904 20.9200 90.5936 -13.2632 -15.8137 0.9836
# 4 -2.2971 -29.0357 -13.2632 40.9971 8.9391 -5.3873
# 5 -10.7377 -11.7502 -15.8137 8.9391 31.3008 -0.2396
# 6 -1.7099 -11.4897 0.9836 -5.3873 -0.2396 32.2796
#
#
#
# Elastic Compliance Matrix: (Units=1/GPa)
#
#
# Indices 1 2 3 4 5 6 
#
# 1 0.013520 -0.001869 0.000758 -0.001370 0.004709 -0.000166
# 2 -0.001869 0.009468 -0.001130 0.006718 0.000458 0.004430
# 3 0.000758 -0.001130 0.012562 0.002038 0.005598 -0.000363
# 4 -0.001370 0.006718 0.002038 0.032036 -0.006010 0.007558
# 5 0.004709 0.000458 0.005598 -0.006010 0.038276 -0.000477
# 6 -0.000166 0.004430 -0.000363 0.007558 -0.000477 0.033816
#
#
# Mechanical properties :
#
#
# Convention : Reuss Voigt Hill
#
# Bulk Modulus (GPa) = 32.18796 43.63606 37.91201
# Shear Modulus (GPa) = 32.35896 38.72070 35.53983
#
# Velocity S-wave (km/s) = 3.84721 4.20843 4.03187
# Velocity P-wave (km/s) = 5.87006 6.60104 6.24625
#
# Compressibility (1/GPa) = 0.03106751
#
# Stress axis : x y z
#
# Youngs Moduli (GPa) = 73.96476 105.61732 79.60517
#
# Poissons Ratio (x) = 0.19741 -0.06033
# Poissons Ratio (y) = 0.13825 0.08996
# Poissons Ratio (z) = -0.05606 0.11935
#
# Static dielectric constant tensor:
#      x y z
#    x 4.026090 -0.153220 -0.149830 
#    y -0.153220 4.444370 -0.266070 
#    z -0.149830 -0.266070 3.781750 
# 
# 
# High freq. dielectric constant tensor:
#      x y z
#    x 1.871010 -0.004340 -0.011790 
#    y -0.004340 1.873190 -0.024200 
#    z -0.011790 -0.024200 1.842060 
# 
# From -- ./inp_files/390434.got.cif
#   From: 2010.06.25/outbox.cif.g09.slc.cpg/sg2_196_cif.got.tgz:390434.got - 2010.06.27 13:26:56.
