data_PCOD8020044
_publ_section_title
;
Structure prediction by ZEFSAII (Michael W. Deem and Ramdas Pophale) SiO2 
 PCOD8020044
Probable space group: P -1
;
_chemical_formula_sum "Si O2"
_cell_formula_units_Z 14
_cell_length_a 8.762434
_cell_length_b 17.707811
_cell_length_c 12.098011
_cell_angle_alpha 149.297940
_cell_angle_beta 128.057867
_cell_angle_gamma 39.276864
_cell_volume 599.702185
_symmetry_space_group_name_H-M "P -1"
_symmetry_group_IT_number 2
_symmetry_cell_setting 'triclinic'
loop_
_space_group_symop_operation_xyz
x,y,z
-x,-y,-z
loop_
_atom_site_type_symbol
_atom_site_label
_atom_site_fract_x
_atom_site_fract_y
_atom_site_fract_z
Si Si1 0.951014 0.732663 0.591111
Si Si2 0.653061 0.399910 0.553469
Si Si3 0.301693 0.818270 0.510996
Si Si4 0.253215 0.732337 0.910868
Si Si5 0.467447 0.937466 0.290475
Si Si6 0.805173 0.490429 0.231154
Si Si7 0.928462 0.790958 0.191532
O O1 0.971542 0.554913 0.423164
O O2 0.072017 0.686951 0.465160
O O3 0.076568 0.795637 0.805814
O O4 0.666767 0.895337 0.648453
O O5 0.500000 0.500000 0.500000
O O6 0.635348 0.244901 0.409815
O O7 0.534201 0.561179 0.794960
O O8 0.523300 0.671782 0.342320
O O9 0.076630 0.815665 0.378347
O O10 0.217756 0.027020 0.724979
O O11 0.136714 0.678985 0.882390
O O12 0.280242 0.886549 0.159266
O O13 0.730270 0.782048 0.157318
O O14 0.500000 0.000000 0.500000
O O15 0.886651 0.404064 0.035849
#
# Coordination Sequence:
#
# PCOD8020044 Si02
#       7
#     2   2   2   2   2   2   2
#     4  11  22  43  68  97 140 177 226 281 340 406
#     4   9  20  40  68  92 131 178 232 274 336 401
#     4  10  22  42  65 101 141 181 222 288 339 408
#     4  10  24  43  68  97 136 180 227 279 344 403
#     4  12  26  43  66 101 139 177 231 282 337 411
#     4  11  23  42  71 100 133 180 228 280 340 407
#     4  11  24  41  67 101 142 177 229 277 352 407
#
# _framework density 23.344919000000001
#
# number of rings (size 3 to 8) (size 9 to 14) (size 15 to 20)
#    0.000    1.429    1.429    3.000    6.000    2.286 
#    0.000    5.714    0.000    0.000    0.000    0.000 
#    0.000    0.000    0.000    0.000    0.000    0.000 
#
# Total GULP energy -173437.820913 kJ/mol
# GULP energy per Si atom -12388.415780 kJ/mol
# Density = 2.329179 g / cm^3
# Si number density = 23.344919 Si / 1000 Ang^3
#
#
#
# Elastic Constant Matrix: (Units=GPa)
#
#
# Indices 1 2 3 4 5 6 
#
# 1 136.4584 27.8089 56.9477 -3.1542 4.4453 -6.6756
# 2 27.8089 76.6469 30.8555 -1.8092 5.3820 0.3606
# 3 56.9477 30.8555 108.9464 -11.9208 20.8776 3.2492
# 4 -3.1542 -1.8092 -11.9208 31.7246 -5.9614 0.5320
# 5 4.4453 5.3820 20.8776 -5.9614 44.9992 8.6053
# 6 -6.6756 0.3606 3.2492 0.5320 8.6053 35.8152
#
#
#
# Elastic Compliance Matrix: (Units=1/GPa)
#
#
# Indices 1 2 3 4 5 6 
#
# 1 0.009802 -0.001641 -0.005013 -0.000840 0.001049 0.002059
# 2 -0.001641 0.015021 -0.003441 -0.000616 -0.000098 -0.000112
# 3 -0.005013 -0.003441 0.014164 0.003711 -0.004973 -0.001045
# 4 -0.000840 -0.000616 0.003711 0.033427 0.003199 -0.001752
# 5 0.001049 -0.000098 -0.004973 0.003199 0.025939 -0.005632
# 6 0.002059 -0.000112 -0.001045 -0.001752 -0.005632 0.029780
#
#
# Mechanical properties :
#
#
# Convention : Reuss Voigt Hill
#
# Bulk Modulus (GPa) = 53.20602 61.47511 57.34056
# Shear Modulus (GPa) = 32.34369 36.27046 34.30708
#
# Velocity S-wave (km/s) = 3.72623 3.94595 3.83766
# Velocity P-wave (km/s) = 6.43069 6.86668 6.65226
#
# Compressibility (1/GPa) = 0.01879487
#
# Stress axis : x y z
#
# Youngs Moduli (GPa) = 102.02050 66.57507 70.60097
#
# Poissons Ratio (x) = 0.10928 0.35393
# Poissons Ratio (y) = 0.16746 0.24297
# Poissons Ratio (z) = 0.51143 0.22912
#
# Static dielectric constant tensor:
#      x y z
#    x 4.693190 -0.059880 -0.106800 
#    y -0.059880 4.126680 0.288160 
#    z -0.106800 0.288160 3.915030 
# 
# 
# High freq. dielectric constant tensor:
#      x y z
#    x 1.945090 -0.003900 -0.001450 
#    y -0.003900 1.914050 0.017010 
#    z -0.001450 0.017010 1.898130 
# 
# From -- ./inp_files/214171.got.cif
#   From: 2010.06.25/outbox.cif.g09.slc.cpg/sg2_108_cif.got.tgz:214171.got - 2010.06.27 13:26:56.
