data_PCOD8020776
_publ_section_title
;
Structure prediction by ZEFSAII (Michael W. Deem and Ramdas Pophale) SiO2 
 PCOD8020776
Probable space group: P -1
;
_chemical_formula_sum "Si O2"
_cell_formula_units_Z 16
_cell_length_a 15.876964
_cell_length_b 8.712622
_cell_length_c 14.857356
_cell_angle_alpha 125.598835
_cell_angle_beta 40.237740
_cell_angle_gamma 93.609985
_cell_volume 742.189437
_symmetry_space_group_name_H-M "P -1"
_symmetry_group_IT_number 2
_symmetry_cell_setting 'triclinic'
loop_
_space_group_symop_operation_xyz
x,y,z
-x,-y,-z
loop_
_atom_site_type_symbol
_atom_site_label
_atom_site_fract_x
_atom_site_fract_y
_atom_site_fract_z
Si Si1 0.018559 0.368449 0.032718
Si Si2 0.363074 0.006320 0.916279
Si Si3 0.136897 0.928734 0.182530
Si Si4 0.140047 0.877260 0.677503
Si Si5 0.412690 0.975860 0.668151
Si Si6 0.523219 0.683441 0.304198
Si Si7 0.013028 0.594285 0.427504
Si Si8 0.783207 0.609249 0.477227
O O1 0.842208 0.590775 0.319494
O O2 0.000000 0.500000 0.000000
O O3 0.206289 0.238154 0.886075
O O4 0.031900 0.132417 0.919711
O O5 0.404934 0.885721 0.740672
O O6 0.556825 0.858070 0.757277
O O7 0.229252 0.333532 0.129040
O O8 0.260240 0.946678 0.031127
O O9 0.040030 0.131293 0.417345
O O10 0.278454 0.614930 0.992101
O O11 0.968117 0.017297 0.292791
O O12 0.352758 0.723360 0.430328
O O13 0.137500 0.678046 0.659019
O O14 0.514313 0.073578 0.628129
O O15 0.527947 0.713246 0.419076
O O16 0.866183 0.673696 0.500598
O O17 0.000000 0.500000 0.500000
#
# Coordination Sequence:
#
# PCOD8020776 Si02
#       8
#     2   2   2   2   2   2   2   2
#     4  11  24  41  66  95 133 171 206 264 326 385
#     4  11  23  38  65  94 125 167 213 261 312 377
#     4  11  22  41  67  92 125 167 211 264 323 363
#     4  11  22  39  62  98 129 158 213 266 313 382
#     4  10  22  43  61  91 139 164 211 254 323 389
#     4  10  23  39  62  96 125 172 204 261 319 382
#     4  10  22  43  65  92 128 169 213 271 310 371
#     4  12  23  40  66  99 124 168 218 260 321 377
#
# _framework density 21.557838
#
# number of rings (size 3 to 8) (size 9 to 14) (size 15 to 20)
#    0.000    1.250    5.000    1.125    7.000    4.500 
#    0.000    0.625    0.000    1.500    0.000    0.000 
#    0.000    0.000    0.000    0.000    0.000    0.000 
#
# Total GULP energy -198403.301461 kJ/mol
# GULP energy per Si atom -12400.206341 kJ/mol
# Density = 2.150877 g / cm^3
# Si number density = 21.557838 Si / 1000 Ang^3
#
#
#
# Elastic Constant Matrix: (Units=GPa)
#
#
# Indices 1 2 3 4 5 6 
#
# 1 127.2278 20.4522 41.1896 8.6269 -5.0396 6.7466
# 2 20.4522 36.9677 5.5634 2.7933 -0.1089 6.5645
# 3 41.1896 5.5634 81.6083 23.6150 -2.6747 13.0830
# 4 8.6269 2.7933 23.6150 29.2803 -0.7105 3.2050
# 5 -5.0396 -0.1089 -2.6747 -0.7105 33.2540 5.7253
# 6 6.7466 6.5645 13.0830 3.2050 5.7253 26.1901
#
#
#
# Elastic Compliance Matrix: (Units=1/GPa)
#
#
# Indices 1 2 3 4 5 6 
#
# 1 0.010346 -0.005198 -0.005513 0.001813 0.000982 0.000955
# 2 -0.005198 0.031090 0.002490 -0.002599 0.000758 -0.007545
# 3 -0.005513 0.002490 0.020279 -0.014044 0.001886 -0.008028
# 4 0.001813 -0.002599 -0.014044 0.044998 -0.000201 0.001737
# 5 0.000982 0.000758 0.001886 -0.000201 0.031801 -0.008312
# 6 0.000955 -0.007545 -0.008028 0.001737 -0.008312 0.045442
#
#
# Mechanical properties :
#
#
# Convention : Reuss Voigt Hill
#
# Bulk Modulus (GPa) = 22.08759 42.24601 32.16680
# Shear Modulus (GPa) = 23.20308 29.65144 26.42726
#
# Velocity S-wave (km/s) = 3.28429 3.71271 3.50505
# Velocity P-wave (km/s) = 4.96488 6.16588 5.59768
#
# Compressibility (1/GPa) = 0.04527428
#
# Stress axis : x y z
#
# Youngs Moduli (GPa) = 96.65989 32.16479 49.31147
#
# Poissons Ratio (x) = 0.16718 0.27185
# Poissons Ratio (y) = 0.50241 -0.12281
# Poissons Ratio (z) = 0.53288 -0.08011
#
# Static dielectric constant tensor:
#      x y z
#    x 3.990120 0.148780 0.158780 
#    y 0.148780 3.668140 0.161800 
#    z 0.158780 0.161800 4.463920 
# 
# 
# High freq. dielectric constant tensor:
#      x y z
#    x 1.849160 0.005000 -0.007120 
#    y 0.005000 1.824470 0.006340 
#    z -0.007120 0.006340 1.853040 
# 
# From -- ./inp_files/306168.got.cif
#   From: 2010.06.25/outbox.cif.g09.slc.cpg/sg2_154_cif.got.tgz:306168.got - 2010.06.27 13:26:56.
