data_PCOD8020130
_publ_section_title
;
Structure prediction by ZEFSAII (Michael W. Deem and Ramdas Pophale) SiO2 
 PCOD8020130
Probable space group: P -1
;
_chemical_formula_sum "Si O2"
_cell_formula_units_Z 16
_cell_length_a 12.561318
_cell_length_b 20.754623
_cell_length_c 9.422803
_cell_angle_alpha 48.599542
_cell_angle_beta 141.106904
_cell_angle_gamma 151.694920
_cell_volume 728.989394
_symmetry_space_group_name_H-M "P -1"
_symmetry_group_IT_number 2
_symmetry_cell_setting 'triclinic'
loop_
_space_group_symop_operation_xyz
x,y,z
-x,-y,-z
loop_
_atom_site_type_symbol
_atom_site_label
_atom_site_fract_x
_atom_site_fract_y
_atom_site_fract_z
Si Si1 0.096842 0.184155 0.083745
Si Si2 0.018106 0.346595 0.368082
Si Si3 0.381313 0.689677 0.875066
Si Si4 0.324150 0.104172 0.362824
Si Si5 0.082138 0.185239 0.744402
Si Si6 0.327648 0.876169 0.107402
Si Si7 0.518366 0.465320 0.223903
Si Si8 0.864079 0.576561 0.935304
O O1 0.111822 0.086302 0.242710
O O2 0.339715 0.309519 0.255533
O O3 0.134842 0.234916 0.888980
O O4 0.819383 0.114039 0.956107
O O5 0.994604 0.234218 0.492812
O O6 0.186194 0.440665 0.546923
O O7 0.723209 0.272288 0.192539
O O8 0.148591 0.434183 0.232368
O O9 0.455471 0.754045 0.701875
O O10 0.145070 0.524245 0.864778
O O11 0.647960 0.752058 0.131636
O O12 0.466186 0.102212 0.627895
O O13 0.157670 0.978169 0.267048
O O14 0.123970 0.731591 0.028671
O O15 0.500000 0.000000 0.000000
O O16 0.500000 0.500000 0.000000
O O17 0.405821 0.485014 0.198385
#
# Coordination Sequence:
#
# PCOD8020130 Si02
#       8
#     2   2   2   2   2   2   2   2
#     4  10  22  42  65  98 132 173 227 277 326 398
#     4  12  24  42  70 100 136 183 214 279 349 382
#     4  11  24  42  68 102 129 171 232 274 328 403
#     4  11  25  43  70  97 132 184 221 279 335 396
#     4  11  23  44  68  99 137 174 226 276 331 405
#     4  11  26  45  65  98 138 178 225 275 334 404
#     4  11  21  41  69  98 136 176 221 278 332 398
#     4  11  25  44  66 100 144 169 225 283 329 406
#
# _framework density 21.948191999999999
#
# number of rings (size 3 to 8) (size 9 to 14) (size 15 to 20)
#    0.000    1.000    2.500    4.500    3.500    6.000 
#    0.000    0.000    0.000    0.000    0.000    0.000 
#    0.000    0.000    0.000    0.000    0.000    0.000 
#
# Total GULP energy -198381.726932 kJ/mol
# GULP energy per Si atom -12398.857933 kJ/mol
# Density = 2.189824 g / cm^3
# Si number density = 21.948192 Si / 1000 Ang^3
#
#
#
# Elastic Constant Matrix: (Units=GPa)
#
#
# Indices 1 2 3 4 5 6 
#
# 1 114.4517 25.0853 62.2518 -8.0702 13.2457 11.8074
# 2 25.0853 107.1001 51.6439 -20.3385 0.5871 -0.6144
# 3 62.2518 51.6439 116.8567 -19.6508 13.4737 1.9847
# 4 -8.0702 -20.3385 -19.6508 34.4909 -4.2704 -2.0699
# 5 13.2457 0.5871 13.4737 -4.2704 40.6070 0.4708
# 6 11.8074 -0.6144 1.9847 -2.0699 0.4708 34.4851
#
#
#
# Elastic Compliance Matrix: (Units=1/GPa)
#
#
# Indices 1 2 3 4 5 6 
#
# 1 0.013042 -0.000019 -0.006861 -0.001373 -0.002074 -0.004125
# 2 -0.000019 0.012686 -0.005013 0.004914 0.001994 0.000789
# 3 -0.006861 -0.005013 0.015344 0.003985 -0.002381 0.001648
# 4 -0.001373 0.004914 0.003985 0.034307 0.002635 0.002352
# 5 -0.002074 0.001994 -0.002381 0.002635 0.026333 0.000681
# 6 -0.004125 0.000789 0.001648 0.002352 0.000681 0.030461
#
#
# Mechanical properties :
#
#
# Convention : Reuss Voigt Hill
#
# Bulk Modulus (GPa) = 57.85114 68.48561 63.16838
# Shear Modulus (GPa) = 30.91711 35.21176 33.06443
#
# Velocity S-wave (km/s) = 3.75726 4.00973 3.88555
# Velocity P-wave (km/s) = 6.72591 7.26005 6.99808
#
# Compressibility (1/GPa) = 0.01728574
#
# Stress axis : x y z
#
# Youngs Moduli (GPa) = 76.67498 78.82940 65.17002
#
# Poissons Ratio (x) = 0.00154 0.44712
# Poissons Ratio (y) = 0.00150 0.32669
# Poissons Ratio (z) = 0.52606 0.39516
#
# Static dielectric constant tensor:
#      x y z
#    x 4.023520 -0.079710 0.225400 
#    y -0.079710 4.105440 -0.005460 
#    z 0.225400 -0.005460 3.890760 
# 
# 
# High freq. dielectric constant tensor:
#      x y z
#    x 1.862790 -0.005810 0.015030 
#    y -0.005810 1.869570 -0.006280 
#    z 0.015030 -0.006280 1.856910 
# 
# From -- ./inp_files/282966.got.cif
#   From: 2010.06.25/outbox.cif.g09.slc.cpg/sg2_142_cif.got.tgz:282966.got - 2010.06.27 13:26:56.
