data_PCOD8020487
_publ_section_title
;
Structure prediction by ZEFSAII (Michael W. Deem and Ramdas Pophale) SiO2 
 PCOD8020487
Probable space group: P -1
;
_chemical_formula_sum "Si O2"
_cell_formula_units_Z 16
_cell_length_a 6.533582
_cell_length_b 19.497801
_cell_length_c 18.665302
_cell_angle_alpha 21.169216
_cell_angle_beta 114.638554
_cell_angle_gamma 103.657074
_cell_volume 690.962049
_symmetry_space_group_name_H-M "P -1"
_symmetry_group_IT_number 2
_symmetry_cell_setting 'triclinic'
loop_
_space_group_symop_operation_xyz
x,y,z
-x,-y,-z
loop_
_atom_site_type_symbol
_atom_site_label
_atom_site_fract_x
_atom_site_fract_y
_atom_site_fract_z
Si Si1 0.461310 0.972292 0.780825
Si Si2 0.398480 0.589758 0.782437
Si Si3 0.168643 0.369605 0.263554
Si Si4 0.886635 0.639734 0.077555
Si Si5 0.169786 0.767177 0.721031
Si Si6 0.623612 0.352430 0.817366
Si Si7 0.260075 0.820549 0.294479
Si Si8 0.313306 0.898291 0.066277
O O1 0.217988 0.182209 0.511631
O O2 0.616902 0.032015 0.803664
O O3 0.642969 0.860983 0.846841
O O4 0.363569 0.816038 0.955867
O O5 0.551188 0.671359 0.675092
O O6 0.197773 0.550265 0.743108
O O7 0.264530 0.764007 0.656259
O O8 0.592118 0.359498 0.069292
O O9 0.996331 0.605185 0.044959
O O10 0.010965 0.349261 0.193177
O O11 0.120813 0.619393 0.179969
O O12 0.000000 0.000000 0.500000
O O13 0.394897 0.583908 0.579259
O O14 0.571625 0.286771 0.795891
O O15 0.292334 0.796472 0.237144
O O16 0.965458 0.923443 0.173525
O O17 0.500000 0.000000 0.000000
#
# Coordination Sequence:
#
# PCOD8020487 Si02
#       8
#     2   2   2   2   2   2   2   2
#     4  12  25  42  66 100 134 179 229 270 340 403
#     4  10  23  43  67 100 137 173 230 278 328 402
#     4  11  24  43  66 100 139 179 226 282 330 400
#     4  11  24  41  66  98 134 180 222 274 338 391
#     4  10  22  42  68  99 134 181 224 275 338 391
#     4  12  25  44  70  97 136 182 223 281 337 403
#     4  11  25  45  67 100 132 171 230 275 335 407
#     4  11  24  47  70  98 133 174 225 282 339 400
#
# _framework density 23.156120999999999
#
# number of rings (size 3 to 8) (size 9 to 14) (size 15 to 20)
#    0.000    1.000    3.750    2.250    0.000    6.000 
#    0.000    0.000    0.000    0.000    0.000    0.000 
#    0.000    0.000    0.000    0.000    0.000    0.000 
#
# Total GULP energy -198291.579376 kJ/mol
# GULP energy per Si atom -12393.223711 kJ/mol
# Density = 2.310342 g / cm^3
# Si number density = 23.156121 Si / 1000 Ang^3
#
#
#
# Elastic Constant Matrix: (Units=GPa)
#
#
# Indices 1 2 3 4 5 6 
#
# 1 136.9866 37.9113 39.1658 -8.1055 2.0821 15.6425
# 2 37.9113 108.9650 29.1555 -32.4353 0.4409 11.8590
# 3 39.1658 29.1555 86.3612 -17.9293 6.4028 -12.3203
# 4 -8.1055 -32.4353 -17.9293 35.9566 -6.9327 7.3354
# 5 2.0821 0.4409 6.4028 -6.9327 34.0467 -2.9065
# 6 15.6425 11.8590 -12.3203 7.3354 -2.9065 46.9293
#
#
#
# Elastic Compliance Matrix: (Units=1/GPa)
#
#
# Indices 1 2 3 4 5 6 
#
# 1 0.009461 -0.002121 -0.004325 -0.001266 -0.000301 -0.003574
# 2 -0.002121 0.015275 -0.002346 0.013827 0.002697 -0.005763
# 3 -0.004325 -0.002346 0.015956 0.003429 -0.001530 0.005593
# 4 -0.001266 0.013827 0.003429 0.044966 0.007665 -0.008726
# 5 -0.000301 0.002697 -0.001530 0.007665 0.031182 -0.000250
# 6 -0.003574 -0.005763 0.005593 -0.008726 -0.000250 0.026773
#
#
# Mechanical properties :
#
#
# Convention : Reuss Voigt Hill
#
# Bulk Modulus (GPa) = 43.27709 60.53088 51.90399
# Shear Modulus (GPa) = 29.60297 38.45852 34.03075
#
# Velocity S-wave (km/s) = 3.57936 4.07976 3.83772
# Velocity P-wave (km/s) = 5.98434 6.95627 6.48853
#
# Compressibility (1/GPa) = 0.02310691
#
# Stress axis : x y z
#
# Youngs Moduli (GPa) = 105.69259 65.46545 62.67212
#
# Poissons Ratio (x) = 0.13887 0.27107
# Poissons Ratio (y) = 0.22421 0.14705
# Poissons Ratio (z) = 0.45714 0.15361
#
# Static dielectric constant tensor:
#      x y z
#    x 4.350400 0.117830 0.257780 
#    y 0.117830 4.372130 -0.230690 
#    z 0.257780 -0.230690 3.896860 
# 
# 
# High freq. dielectric constant tensor:
#      x y z
#    x 1.924180 0.009300 0.023820 
#    y 0.009300 1.930630 -0.019440 
#    z 0.023820 -0.019440 1.893750 
# 
# From -- ./inp_files/584292.got.cif
#   From: 2010.06.25/outbox.cif.g09.slc.cpg/sg2_293_cif.got.tgz:584292.got - 2010.06.27 13:26:56.
