data_PCOD8020881
_publ_section_title
;
Structure prediction by ZEFSAII (Michael W. Deem and Ramdas Pophale) SiO2 
 PCOD8020881
Probable space group: P -1
;
_chemical_formula_sum "Si O2"
_cell_formula_units_Z 16
_cell_length_a 16.379741
_cell_length_b 9.624984
_cell_length_c 21.055166
_cell_angle_alpha 60.593954
_cell_angle_beta 18.357229
_cell_angle_gamma 50.929059
_cell_volume 729.450235
_symmetry_space_group_name_H-M "P -1"
_symmetry_group_IT_number 2
_symmetry_cell_setting 'triclinic'
loop_
_space_group_symop_operation_xyz
x,y,z
-x,-y,-z
loop_
_atom_site_type_symbol
_atom_site_label
_atom_site_fract_x
_atom_site_fract_y
_atom_site_fract_z
Si Si1 0.820762 0.598512 0.675208
Si Si2 0.144340 0.506826 0.053082
Si Si3 0.628387 0.195258 0.349820
Si Si4 0.490400 0.808070 0.418205
Si Si5 0.292758 0.220372 0.469966
Si Si6 0.732841 0.210126 0.046845
Si Si7 0.136869 0.779528 0.465463
Si Si8 0.216790 0.632604 0.576659
O O1 0.440356 0.740713 0.905622
O O2 0.000000 0.500000 0.500000
O O3 0.920021 0.417372 0.690936
O O4 0.922675 0.731472 0.596892
O O5 0.876725 0.635318 0.166142
O O6 0.052169 0.385777 0.190395
O O7 0.130729 0.661669 0.076425
O O8 0.487580 0.360515 0.799251
O O9 0.583961 0.140951 0.464316
O O10 0.383194 0.197717 0.482066
O O11 0.541622 0.415213 0.366341
O O12 0.994225 0.027000 0.096024
O O13 0.297949 0.733097 0.547121
O O14 0.363891 0.019426 0.432948
O O15 0.501988 0.271161 0.264337
O O16 0.084442 0.768099 0.581491
O O17 0.000000 0.000000 0.500000
#
# Coordination Sequence:
#
# PCOD8020881 Si02
#       8
#     2   2   2   2   2   2   2   2
#     4  10  22  43  65 101 139 175 232 287 337 410
#     4  11  23  46  69 102 140 178 233 290 343 406
#     4  11  21  42  68  99 136 179 231 284 345 403
#     4  11  26  41  68 103 141 178 227 295 343 410
#     4  11  21  40  70  99 136 177 235 286 343 404
#     4  11  23  38  74 105 135 180 234 290 343 410
#     4  12  27  46  73  98 140 192 229 281 351 421
#     4  11  27  46  68 102 145 182 229 290 346 412
#
# _framework density 21.934327
#
# number of rings (size 3 to 8) (size 9 to 14) (size 15 to 20)
#    0.000    1.000    5.000    2.250    7.000    3.000 
#    0.000    2.500    0.000    0.000    0.000    0.000 
#    0.000    0.000    0.000    0.000    0.000    0.000 
#
# Total GULP energy -198335.939970 kJ/mol
# GULP energy per Si atom -12395.996248 kJ/mol
# Density = 2.188440 g / cm^3
# Si number density = 21.934327 Si / 1000 Ang^3
#
#
#
# Elastic Constant Matrix: (Units=GPa)
#
#
# Indices 1 2 3 4 5 6 
#
# 1 114.3425 46.0992 23.0673 -13.9652 -19.6553 5.5036
# 2 46.0992 160.1208 23.7647 -10.9254 -15.4697 -0.5115
# 3 23.0673 23.7647 40.4089 -13.7804 -8.6107 4.9000
# 4 -13.9652 -10.9254 -13.7804 33.0695 4.2890 -7.4274
# 5 -19.6553 -15.4697 -8.6107 4.2890 30.2698 -0.7322
# 6 5.5036 -0.5115 4.9000 -7.4274 -0.7322 36.1909
#
#
#
# Elastic Compliance Matrix: (Units=1/GPa)
#
#
# Indices 1 2 3 4 5 6 
#
# 1 0.011453 -0.002173 -0.003455 0.001837 0.005064 -0.000825
# 2 -0.002173 0.007468 -0.002795 0.000388 0.001578 0.000926
# 3 -0.003455 -0.002795 0.033033 0.010443 0.004203 -0.001758
# 4 0.001837 0.000388 0.010443 0.036908 -0.000726 0.005872
# 5 0.005064 0.001578 0.004203 -0.000726 0.038412 -0.000689
# 6 -0.000825 0.000926 -0.001758 0.005872 -0.000689 0.029199
#
#
# Mechanical properties :
#
#
# Convention : Reuss Voigt Hill
#
# Bulk Modulus (GPa) = 28.48294 55.63718 42.06006
# Shear Modulus (GPa) = 27.02401 34.70211 30.86306
#
# Velocity S-wave (km/s) = 3.51385 3.98187 3.75516
# Velocity P-wave (km/s) = 5.42924 6.82354 6.16593
#
# Compressibility (1/GPa) = 0.03510873
#
# Stress axis : x y z
#
# Youngs Moduli (GPa) = 87.31293 133.91289 30.27279
#
# Poissons Ratio (x) = 0.29096 0.10458
# Poissons Ratio (y) = 0.18971 0.08462
# Poissons Ratio (z) = 0.30163 0.37430
#
# Static dielectric constant tensor:
#      x y z
#    x 1.820810 -0.352040 1.007200 
#    y -0.352040 4.221160 0.399710 
#    z 1.007200 0.399710 3.215160 
# 
# 
# High freq. dielectric constant tensor:
#      x y z
#    x 1.864520 -0.004140 -0.011660 
#    y -0.004140 1.877120 0.007200 
#    z -0.011660 0.007200 1.845570 
# 
# From -- ./inp_files/597360.got.cif
#   From: 2010.06.25/outbox.cif.g09.slc.cpg/sg2_299_cif.got.tgz:597360.got - 2010.06.27 13:26:56.
