data_PCOD8020483
_publ_section_title
;
Structure prediction by ZEFSAII (Michael W. Deem and Ramdas Pophale) SiO2 
 PCOD8020483
Probable space group: P -1
;
_chemical_formula_sum "Si O2"
_cell_formula_units_Z 16
_cell_length_a 5.600556
_cell_length_b 11.529536
_cell_length_c 16.733410
_cell_angle_alpha 50.749342
_cell_angle_beta 123.556787
_cell_angle_gamma 121.764703
_cell_volume 670.632352
_symmetry_space_group_name_H-M "P -1"
_symmetry_group_IT_number 2
_symmetry_cell_setting 'triclinic'
loop_
_space_group_symop_operation_xyz
x,y,z
-x,-y,-z
loop_
_atom_site_type_symbol
_atom_site_label
_atom_site_fract_x
_atom_site_fract_y
_atom_site_fract_z
Si Si1 0.066068 0.187647 0.731540
Si Si2 0.798850 0.311323 0.301557
Si Si3 0.572874 0.216550 0.072190
Si Si4 0.843141 0.893600 0.588221
Si Si5 0.154382 0.337094 0.849512
Si Si6 0.618850 0.093671 0.901555
Si Si7 0.181728 0.803904 0.477609
Si Si8 0.218703 0.173106 0.180143
O O1 0.028129 0.284291 0.760794
O O2 0.412211 0.197297 0.786421
O O3 0.984250 0.273315 0.600159
O O4 0.867341 0.009200 0.776367
O O5 0.863929 0.490507 0.212666
O O6 0.945092 0.292028 0.423549
O O7 0.440484 0.223205 0.276730
O O8 0.961964 0.227382 0.302402
O O9 0.451189 0.265656 0.113065
O O10 0.927032 0.233814 0.117661
O O11 0.380022 0.036720 0.106941
O O12 0.483769 0.320851 0.938695
O O13 0.521432 0.800654 0.537149
O O14 0.842605 0.016109 0.606407
O O15 0.000000 0.000000 0.500000
O O16 0.940816 0.213028 0.924758
O O17 0.500000 0.000000 0.000000
#
# Coordination Sequence:
#
# PCOD8020483 Si02
#       8
#     2   2   2   2   2   2   2   2
#     4  11  23  40  72 102 133 190 243 289 350 426
#     4  11  27  43  66 104 146 185 228 304 363 430
#     4  11  24  44  73 103 141 185 253 297 355 433
#     4   9  19  40  67  92 132 180 235 291 342 414
#     4  12  25  44  67 104 146 182 232 299 372 422
#     4  11  22  43  71 102 134 188 241 296 348 433
#     4  10  22  42  68  98 135 185 244 288 347 432
#     4  11  25  44  74 107 137 193 247 302 353 435
#
# _framework density 23.858079
#
# number of rings (size 3 to 8) (size 9 to 14) (size 15 to 20)
#    0.000    1.250    2.500    4.125    5.250    4.500 
#    0.000    1.250    0.000    0.000    0.000    0.000 
#    0.000    0.000    0.000    0.000    0.000    0.000 
#
# Total GULP energy -198262.402815 kJ/mol
# GULP energy per Si atom -12391.400176 kJ/mol
# Density = 2.380378 g / cm^3
# Si number density = 23.858079 Si / 1000 Ang^3
#
#
#
# Elastic Constant Matrix: (Units=GPa)
#
#
# Indices 1 2 3 4 5 6 
#
# 1 120.5283 36.0469 55.0394 -4.5622 17.7910 -6.5226
# 2 36.0469 80.0155 44.4855 -10.4200 19.6410 -7.2306
# 3 55.0394 44.4855 105.2235 8.8109 24.1402 -3.4793
# 4 -4.5622 -10.4200 8.8109 42.0577 -10.2872 -0.5621
# 5 17.7910 19.6410 24.1402 -10.2872 42.3029 3.7388
# 6 -6.5226 -7.2306 -3.4793 -0.5621 3.7388 19.4264
#
#
#
# Elastic Compliance Matrix: (Units=1/GPa)
#
#
# Indices 1 2 3 4 5 6 
#
# 1 0.011482 -0.001611 -0.005171 0.001735 -0.000934 0.002559
# 2 -0.001611 0.019007 -0.006560 0.005082 -0.003718 0.006221
# 3 -0.005171 -0.006560 0.017021 -0.007283 -0.006252 -0.000137
# 4 0.001735 0.005082 -0.007283 0.028715 0.008009 0.000459
# 5 -0.000934 -0.003718 -0.006252 0.008009 0.032047 -0.008753
# 6 0.002559 0.006221 -0.000137 0.000459 -0.008753 0.056325
#
#
# Mechanical properties :
#
#
# Convention : Reuss Voigt Hill
#
# Bulk Modulus (GPa) = 48.01636 64.10121 56.05878
# Shear Modulus (GPa) = 25.22402 32.10377 28.66390
#
# Velocity S-wave (km/s) = 3.25507 3.67224 3.46993
# Velocity P-wave (km/s) = 5.85635 6.70123 6.29299
#
# Compressibility (1/GPa) = 0.02082624
#
# Stress axis : x y z
#
# Youngs Moduli (GPa) = 87.09133 52.61223 58.74951
#
# Poissons Ratio (x) = 0.08477 0.30381
# Poissons Ratio (y) = 0.14032 0.38539
# Poissons Ratio (z) = 0.45037 0.34513
#
# Static dielectric constant tensor:
#      x y z
#    x -0.226970 1.973910 0.921140 
#    y 1.973910 3.110030 -0.030080 
#    z 0.921140 -0.030080 4.424070 
# 
# 
# High freq. dielectric constant tensor:
#      x y z
#    x 1.954130 -0.010680 0.002610 
#    y -0.010680 1.907910 0.021070 
#    z 0.002610 0.021070 1.951740 
# 
# From -- ./inp_files/511141.got.cif
#   From: 2010.06.25/outbox.cif.g09.slc.cpg/sg2_256_cif.got.tgz:511141.got - 2010.06.27 13:26:56.
