data_PCOD8020517
_publ_section_title
;
Structure prediction by ZEFSAII (Michael W. Deem and Ramdas Pophale) SiO2 
 PCOD8020517
Probable space group: P -1
;
_chemical_formula_sum "Si O2"
_cell_formula_units_Z 16
_cell_length_a 13.600835
_cell_length_b 20.014414
_cell_length_c 7.624621
_cell_angle_alpha 95.051699
_cell_angle_beta 94.648916
_cell_angle_gamma 156.693368
_cell_volume 745.769381
_symmetry_space_group_name_H-M "P -1"
_symmetry_group_IT_number 2
_symmetry_cell_setting 'triclinic'
loop_
_space_group_symop_operation_xyz
x,y,z
-x,-y,-z
loop_
_atom_site_type_symbol
_atom_site_label
_atom_site_fract_x
_atom_site_fract_y
_atom_site_fract_z
Si Si1 0.954053 0.548672 0.048161
Si Si2 0.669622 0.171154 0.120123
Si Si3 0.640009 0.790348 0.004148
Si Si4 0.209764 0.283102 0.433162
Si Si5 0.818266 0.885841 0.689138
Si Si6 0.822873 0.049977 0.021546
Si Si7 0.822414 0.035299 0.626698
Si Si8 0.349727 0.835695 0.480815
O O1 0.641743 0.373534 0.978497
O O2 0.097809 0.662957 0.274981
O O3 0.000000 0.500000 0.000000
O O4 0.062583 0.658400 0.921727
O O5 0.758313 0.229270 0.349495
O O6 0.479382 0.113204 0.028016
O O7 0.500000 0.000000 0.000000
O O8 0.620439 0.746249 0.797064
O O9 0.813285 0.965905 0.030477
O O10 0.859822 0.890822 0.178978
O O11 0.500000 0.500000 0.500000
O O12 0.065395 0.212945 0.576418
O O13 0.215643 0.205706 0.438069
O O14 0.043291 0.212995 0.233452
O O15 0.732109 0.898969 0.574991
O O16 0.914196 0.121191 0.850962
O O17 0.550863 0.901212 0.495615
O O18 0.500000 0.000000 0.500000
#
# Coordination Sequence:
#
# PCOD8020517 Si02
#       8
#     2   2   2   2   2   2   2   2
#     4  12  24  42  70 105 134 172 229 283 334 402
#     4  11  22  43  66  96 133 183 216 263 353 402
#     4   9  19  40  69  91 127 170 214 277 323 385
#     4  11  23  39  63  96 128 167 219 270 331 395
#     4   9  20  43  65  91 130 177 217 265 332 389
#     4   9  20  42  62  85 130 169 207 266 332 392
#     4  10  22  42  69  89 123 178 223 264 332 402
#     4  11  25  44  69  98 137 180 223 276 346 405
#
# _framework density 21.454353000000001
#
# number of rings (size 3 to 8) (size 9 to 14) (size 15 to 20)
#    0.000    1.750    2.500    1.875    1.750    2.000 
#    2.250    0.000    0.000    0.000    0.000    0.000 
#    0.000    0.000    0.000    0.000    0.000    0.000 
#
# Total GULP energy -198242.633503 kJ/mol
# GULP energy per Si atom -12390.164594 kJ/mol
# Density = 2.140552 g / cm^3
# Si number density = 21.454353 Si / 1000 Ang^3
#
#
#
# Elastic Constant Matrix: (Units=GPa)
#
#
# Indices 1 2 3 4 5 6 
#
# 1 81.4452 34.7027 23.1831 -3.1485 6.0760 11.9733
# 2 34.7027 143.8814 51.7102 -14.0954 -4.0025 33.0834
# 3 23.1831 51.7102 102.6603 -9.5766 -4.6437 10.1777
# 4 -3.1485 -14.0954 -9.5766 30.3916 3.0073 -4.7068
# 5 6.0760 -4.0025 -4.6437 3.0073 29.2028 -4.3550
# 6 11.9733 33.0834 10.1777 -4.7068 -4.3550 39.9385
#
#
#
# Elastic Compliance Matrix: (Units=1/GPa)
#
#
# Indices 1 2 3 4 5 6 
#
# 1 0.014499 -0.002352 -0.002058 -0.000203 -0.003993 -0.002334
# 2 -0.002352 0.010779 -0.003984 0.002424 0.000052 -0.006917
# 3 -0.002058 -0.003984 0.012349 0.001832 0.001834 0.001186
# 4 -0.000203 0.002424 0.001832 0.035075 -0.002734 0.001422
# 5 -0.003993 0.000052 0.001834 -0.002734 0.036299 0.004323
# 6 -0.002334 -0.006917 0.001186 0.001422 0.004323 0.031804
#
#
# Mechanical properties :
#
#
# Convention : Reuss Voigt Hill
#
# Bulk Modulus (GPa) = 47.98699 60.79767 54.39233
# Shear Modulus (GPa) = 30.38803 34.46596 32.42699
#
# Velocity S-wave (km/s) = 3.76760 4.01244 3.89194
# Velocity P-wave (km/s) = 6.42977 7.06158 6.75307
#
# Compressibility (1/GPa) = 0.02083898
#
# Stress axis : x y z
#
# Youngs Moduli (GPa) = 68.96935 92.77707 80.98110
#
# Poissons Ratio (x) = 0.21821 0.16665
# Poissons Ratio (y) = 0.16221 0.32262
# Poissons Ratio (z) = 0.14193 0.36961
#
# Static dielectric constant tensor:
#      x y z
#    x 3.888140 0.061270 -0.031270 
#    y 0.061270 3.500980 -0.158890 
#    z -0.031270 -0.158890 4.130680 
# 
# 
# High freq. dielectric constant tensor:
#      x y z
#    x 1.856290 0.013330 -0.000300 
#    y 0.013330 1.828070 -0.022430 
#    z -0.000300 -0.022430 1.836780 
# 
# From -- ./inp_files/319371.got.cif
#   From: 2010.06.25/outbox.cif.g09.slc.cpg/sg2_160_cif.got.tgz:319371.got - 2010.06.27 13:26:56.
