data_PCOD8020447
_publ_section_title
;
Structure prediction by ZEFSAII (Michael W. Deem and Ramdas Pophale) SiO2 
 PCOD8020447
Probable space group: P -1
;
_chemical_formula_sum "Si O2"
_cell_formula_units_Z 16
_cell_length_a 11.683168
_cell_length_b 20.506005
_cell_length_c 15.512817
_cell_angle_alpha 150.598286
_cell_angle_beta 129.869823
_cell_angle_gamma 28.911029
_cell_volume 757.556276
_symmetry_space_group_name_H-M "P -1"
_symmetry_group_IT_number 2
_symmetry_cell_setting 'triclinic'
loop_
_space_group_symop_operation_xyz
x,y,z
-x,-y,-z
loop_
_atom_site_type_symbol
_atom_site_label
_atom_site_fract_x
_atom_site_fract_y
_atom_site_fract_z
Si Si1 0.213579 0.199922 0.805385
Si Si2 0.339777 0.492829 0.380447
Si Si3 0.392719 0.387941 0.968695
Si Si4 0.634363 0.697415 0.489715
Si Si5 0.937672 0.407613 0.473283
Si Si6 0.402424 0.849035 0.039150
Si Si7 0.734075 0.225284 0.689418
Si Si8 0.192162 0.035660 0.441145
O O1 0.348012 0.242376 0.919013
O O2 0.246472 0.106372 0.620341
O O3 0.369576 0.991880 0.711983
O O4 0.901861 0.456257 0.976467
O O5 0.500000 0.500000 0.500000
O O6 0.229764 0.481012 0.390417
O O7 0.091359 0.725628 0.468928
O O8 0.555757 0.246570 0.144299
O O9 0.570527 0.279635 0.018340
O O10 0.553995 0.157536 0.725100
O O11 0.344149 0.562414 0.096797
O O12 0.722209 0.581965 0.492748
O O13 0.542707 0.640017 0.323206
O O14 0.873084 0.601819 0.444678
O O15 0.112280 0.142392 0.237060
O O16 0.820159 0.102306 0.681945
O O17 0.000000 0.000000 0.500000
#
# Coordination Sequence:
#
# PCOD8020447 Si02
#       8
#     2   2   2   2   2   2   2   2
#     4  10  22  42  68  95 133 167 216 280 320 398
#     4  12  27  42  66  98 135 175 221 275 330 400
#     4  12  22  38  67  97 134 170 212 272 331 395
#     4   9  21  43  68  92 130 183 214 270 331 376
#     4  10  23  45  67  93 134 174 227 270 319 401
#     4  11  24  43  64 101 130 175 219 263 350 377
#     4  11  21  40  65  93 136 170 215 274 325 393
#     4  11  24  42  61 102 127 169 224 263 343 381
#
# _framework density 21.120543999999999
#
# number of rings (size 3 to 8) (size 9 to 14) (size 15 to 20)
#    0.000    1.250    5.000    0.750    3.500    5.000 
#    0.000    8.125    0.000    0.000    0.000    0.000 
#    0.000    0.000    0.000    0.000    0.000    0.000 
#
# Total GULP energy -198373.868745 kJ/mol
# GULP energy per Si atom -12398.366797 kJ/mol
# Density = 2.107247 g / cm^3
# Si number density = 21.120544 Si / 1000 Ang^3
#
#
#
# Elastic Constant Matrix: (Units=GPa)
#
#
# Indices 1 2 3 4 5 6 
#
# 1 72.6094 33.3934 29.1433 -10.1225 -12.1903 23.1260
# 2 33.3934 111.6952 17.9032 3.2269 3.6811 17.4222
# 3 29.1433 17.9032 94.6867 -2.9771 -12.7312 -5.5689
# 4 -10.1225 3.2269 -2.9771 32.4526 -0.7457 8.0779
# 5 -12.1903 3.6811 -12.7312 -0.7457 39.6522 3.1531
# 6 23.1260 17.4222 -5.5689 8.0779 3.1531 39.5154
#
#
#
# Elastic Compliance Matrix: (Units=1/GPa)
#
#
# Indices 1 2 3 4 5 6 
#
# 1 0.028371 -0.005043 -0.007305 0.013575 0.008601 -0.018871
# 2 -0.005043 0.011003 -0.001068 -0.002505 -0.002858 -0.001310
# 3 -0.007305 -0.001068 0.013558 -0.002652 0.001594 0.007072
# 4 0.013575 -0.002505 -0.002652 0.039075 0.005533 -0.015644
# 5 0.008601 -0.002858 0.001594 0.005533 0.029303 -0.007018
# 6 -0.018871 -0.001310 0.007072 -0.015644 -0.007018 0.041683
#
#
# Mechanical properties :
#
#
# Convention : Reuss Voigt Hill
#
# Bulk Modulus (GPa) = 38.31598 48.87457 43.59528
# Shear Modulus (GPa) = 25.18565 35.56082 30.37323
#
# Velocity S-wave (km/s) = 3.45696 4.10775 3.79633
# Velocity P-wave (km/s) = 5.84081 6.75938 6.31681
#
# Compressibility (1/GPa) = 0.02609877
#
# Stress axis : x y z
#
# Youngs Moduli (GPa) = 35.24763 90.88590 73.75462
#
# Poissons Ratio (x) = 0.45835 0.53879
# Poissons Ratio (y) = 0.17776 0.07879
# Poissons Ratio (z) = 0.25749 0.09709
#
# Static dielectric constant tensor:
#      x y z
#    x 4.085640 0.135720 0.027360 
#    y 0.135720 3.977400 0.146400 
#    z 0.027360 0.146400 3.778530 
# 
# 
# High freq. dielectric constant tensor:
#      x y z
#    x 1.835420 0.011340 0.006280 
#    y 0.011340 1.835720 0.016560 
#    z 0.006280 0.016560 1.818380 
# 
# From -- ./inp_files/523974.got.cif
#   From: 2010.06.25/outbox.cif.g09.slc.cpg/sg2_262_cif.got.tgz:523974.got - 2010.06.27 13:26:56.
