data_PCOD8020652
_publ_section_title
;
Structure prediction by ZEFSAII (Michael W. Deem and Ramdas Pophale) SiO2 
 PCOD8020652
Probable space group: P -1
;
_chemical_formula_sum "Si O2"
_cell_formula_units_Z 16
_cell_length_a 14.832805
_cell_length_b 11.728656
_cell_length_c 8.439331
_cell_angle_alpha 69.535028
_cell_angle_beta 69.584233
_cell_angle_gamma 31.192540
_cell_volume 708.649358
_symmetry_space_group_name_H-M "P -1"
_symmetry_group_IT_number 2
_symmetry_cell_setting 'triclinic'
loop_
_space_group_symop_operation_xyz
x,y,z
-x,-y,-z
loop_
_atom_site_type_symbol
_atom_site_label
_atom_site_fract_x
_atom_site_fract_y
_atom_site_fract_z
Si Si1 0.963346 0.149788 0.674908
Si Si2 0.383278 0.938158 0.340014
Si Si3 0.374104 0.420547 0.140954
Si Si4 0.332106 0.812288 0.702489
Si Si5 0.020985 0.825619 0.701006
Si Si6 0.387098 0.494656 0.753747
Si Si7 0.534603 0.011606 0.148218
Si Si8 0.135855 0.251391 0.070365
O O1 0.786022 0.395772 0.728617
O O2 0.023642 0.145526 0.471836
O O3 0.126584 0.998658 0.769443
O O4 0.928149 0.043723 0.722094
O O5 0.339131 0.927811 0.539969
O O6 0.447818 0.763480 0.264964
O O7 0.523294 0.898664 0.312848
O O8 0.219486 0.172846 0.234346
O O9 0.556736 0.281558 0.162528
O O10 0.389879 0.260210 0.174773
O O11 0.332704 0.536652 0.949978
O O12 0.420098 0.604470 0.655517
O O13 0.229985 0.616346 0.679933
O O14 0.957236 0.780963 0.869437
O O15 0.721583 0.882575 0.093054
O O16 0.500000 0.000000 0.000000
O O17 0.000000 0.500000 0.000000
#
# Coordination Sequence:
#
# PCOD8020652 Si02
#       8
#     2   2   2   2   2   2   2   2
#     4  10  24  45  67 105 144 178 227 282 346 410
#     4  11  22  45  69  95 135 179 237 277 333 414
#     4  12  25  42  69 101 144 182 224 287 347 405
#     4  11  25  43  68 105 140 181 220 280 354 412
#     4  10  22  42  71 100 139 182 229 280 336 416
#     4  11  23  41  71 103 138 178 227 281 343 413
#     4  10  23  45  66  94 129 177 234 282 333 401
#     4  11  22  37  71 101 124 177 237 284 330 393
#
# _framework density 22.578161000000001
#
# number of rings (size 3 to 8) (size 9 to 14) (size 15 to 20)
#    0.000    1.250    3.750    2.250    3.500    4.500 
#    0.000    0.625    0.000    0.000    0.000    0.000 
#    0.000    0.000    0.000    0.000    0.000    0.000 
#
# Total GULP energy -198355.021396 kJ/mol
# GULP energy per Si atom -12397.188837 kJ/mol
# Density = 2.252677 g / cm^3
# Si number density = 22.578161 Si / 1000 Ang^3
#
#
#
# Elastic Constant Matrix: (Units=GPa)
#
#
# Indices 1 2 3 4 5 6 
#
# 1 99.4692 39.1481 14.4847 -5.1071 -13.5803 11.7679
# 2 39.1481 135.3290 30.2571 -1.5195 0.8681 18.0241
# 3 14.4847 30.2571 53.6960 -11.2584 -15.4724 9.9031
# 4 -5.1071 -1.5195 -11.2584 35.9580 5.4161 1.4985
# 5 -13.5803 0.8681 -15.4724 5.4161 44.4425 -11.9023
# 6 11.7679 18.0241 9.9031 1.4985 -11.9023 32.7130
#
#
#
# Elastic Compliance Matrix: (Units=1/GPa)
#
#
# Indices 1 2 3 4 5 6 
#
# 1 0.012015 -0.003312 0.000058 0.001154 0.003244 -0.001387
# 2 -0.003312 0.010136 -0.005426 -0.000947 -0.004109 -0.004202
# 3 0.000058 -0.005426 0.025717 0.006781 0.007620 -0.002355
# 4 0.001154 -0.000947 0.006781 0.030543 -0.002090 -0.004106
# 5 0.003244 -0.004109 0.007620 -0.002090 0.029008 0.009440
# 6 -0.001387 -0.004202 -0.002355 -0.004106 0.009440 0.037719
#
#
# Mechanical properties :
#
#
# Convention : Reuss Voigt Hill
#
# Bulk Modulus (GPa) = 32.77814 50.69709 41.73761
# Shear Modulus (GPa) = 28.95762 36.26298 32.61030
#
# Velocity S-wave (km/s) = 3.58516 4.01198 3.80456
# Velocity P-wave (km/s) = 5.62911 6.63054 6.15024
#
# Compressibility (1/GPa) = 0.03050814
#
# Stress axis : x y z
#
# Youngs Moduli (GPa) = 83.23238 98.65968 38.88512
#
# Poissons Ratio (x) = 0.32671 -0.00224
# Poissons Ratio (y) = 0.27562 0.21097
# Poissons Ratio (z) = -0.00479 0.53528
#
# Static dielectric constant tensor:
#      x y z
#    x 4.529400 0.010190 -0.438460 
#    y 0.010190 3.970270 -0.215360 
#    z -0.438460 -0.215360 4.040660 
# 
# 
# High freq. dielectric constant tensor:
#      x y z
#    x 1.896020 -0.001250 -0.018240 
#    y -0.001250 1.884240 -0.017480 
#    z -0.018240 -0.017480 1.877160 
# 
# From -- ./inp_files/272316.got.cif
#   From: 2010.06.25/outbox.cif.g09.slc.cpg/sg2_137_cif.got.tgz:272316.got - 2010.06.27 13:26:56.
