data_PCOD8020191
_publ_section_title
;
Structure prediction by ZEFSAII (Michael W. Deem and Ramdas Pophale) SiO2 
 PCOD8020191
Probable space group: P -1
;
_chemical_formula_sum "Si O2"
_cell_formula_units_Z 12
_cell_length_a 14.710095
_cell_length_b 6.311031
_cell_length_c 9.482949
_cell_angle_alpha 77.236919
_cell_angle_beta 48.108434
_cell_angle_gamma 58.661602
_cell_volume 548.573829
_symmetry_space_group_name_H-M "P -1"
_symmetry_group_IT_number 2
_symmetry_cell_setting 'triclinic'
loop_
_space_group_symop_operation_xyz
x,y,z
-x,-y,-z
loop_
_atom_site_type_symbol
_atom_site_label
_atom_site_fract_x
_atom_site_fract_y
_atom_site_fract_z
Si Si1 0.259050 0.039320 0.017661
Si Si2 0.838549 0.140532 0.102751
Si Si3 0.450199 0.088844 0.195219
Si Si4 0.090271 0.576176 0.218931
Si Si5 0.214983 0.962935 0.537832
Si Si6 0.241970 0.660249 0.290195
O O1 0.194232 0.039108 0.933377
O O2 0.407043 0.032515 0.839836
O O3 0.139961 0.283233 0.192043
O O4 0.297631 0.795229 0.107832
O O5 0.749471 0.203524 0.330796
O O6 0.811939 0.380544 0.001991
O O7 0.000000 0.000000 0.000000
O O8 0.352680 0.979569 0.361299
O O9 0.371421 0.390467 0.242745
O O10 0.500000 0.000000 0.000000
O O11 0.123146 0.623973 0.337787
O O12 0.922217 0.756131 0.338436
O O13 0.177508 0.825637 0.474028
#
# Coordination Sequence:
#
# PCOD8020191 Si02
#       6
#     2   2   2   2   2   2
#     4  11  23  42  68  90 129 168 206 254 311 372
#     4   9  23  43  63  92 126 167 206 256 311 365
#     4  12  24  41  63  95 127 166 206 256 316 368
#     4  10  22  42  66  94 123 165 212 255 311 364
#     4  11  24  39  64  96 127 162 208 259 310 368
#     4  11  22  40  67  90 129 161 213 257 310 363
#
# _framework density 21.874904999999998
#
# number of rings (size 3 to 8) (size 9 to 14) (size 15 to 20)
#    0.000    1.333    3.333    1.000    0.000   11.333 
#    0.000    1.667    0.000    0.000    0.000    0.000 
#    0.000    0.000    0.000    0.000    0.000    0.000 
#
# Total GULP energy -148782.609092 kJ/mol
# GULP energy per Si atom -12398.550758 kJ/mol
# Density = 2.182512 g / cm^3
# Si number density = 21.874905 Si / 1000 Ang^3
#
#
#
# Elastic Constant Matrix: (Units=GPa)
#
#
# Indices 1 2 3 4 5 6 
#
# 1 150.9220 13.1213 44.9773 3.2092 13.3519 12.2781
# 2 13.1213 60.7587 18.2594 9.5484 11.0506 0.4592
# 3 44.9773 18.2594 120.0233 -11.4255 13.0461 4.8078
# 4 3.2092 9.5484 -11.4255 25.4261 -5.1805 -5.4467
# 5 13.3519 11.0506 13.0461 -5.1805 40.1405 3.8778
# 6 12.2781 0.4592 4.8078 -5.4467 3.8778 24.9206
#
#
#
# Elastic Compliance Matrix: (Units=1/GPa)
#
#
# Indices 1 2 3 4 5 6 
#
# 1 0.008077 0.000097 -0.003033 -0.003626 -0.001818 -0.003906
# 2 0.000097 0.020179 -0.003443 -0.010553 -0.005718 -0.001172
# 3 -0.003033 -0.003443 0.010655 0.006532 -0.000765 0.001049
# 4 -0.003626 -0.010553 0.006532 0.050478 0.007480 0.010589
# 5 -0.001818 -0.005718 -0.000765 0.007480 0.028464 -0.001646
# 6 -0.003906 -0.001172 0.001049 0.010589 -0.001646 0.044442
#
#
# Mechanical properties :
#
#
# Convention : Reuss Voigt Hill
#
# Bulk Modulus (GPa) = 38.23329 53.82446 46.02887
# Shear Modulus (GPa) = 27.20802 35.12050 31.16426
#
# Velocity S-wave (km/s) = 3.53058 4.01124 3.77856
# Velocity P-wave (km/s) = 5.84261 6.79061 6.33437
#
# Compressibility (1/GPa) = 0.02615522
#
# Stress axis : x y z
#
# Youngs Moduli (GPa) = 123.80894 49.55553 93.85434
#
# Poissons Ratio (x) = -0.00481 0.28462
# Poissons Ratio (y) = -0.01202 0.32309
# Poissons Ratio (z) = 0.37546 0.17060
#
# Static dielectric constant tensor:
#      x y z
#    x 4.581040 -0.006400 0.102450 
#    y -0.006400 4.147650 -0.409580 
#    z 0.102450 -0.409580 4.513250 
# 
# 
# High freq. dielectric constant tensor:
#      x y z
#    x 1.868790 0.007110 0.001830 
#    y 0.007110 1.852990 -0.004660 
#    z 0.001830 -0.004660 1.850890 
# 
# From -- ./inp_files/26175.got.cif
#   From: 2010.06.25/outbox.cif.g09.slc.cpg/sg2_14_cif.got.tgz:26175.got - 2010.06.27 13:26:56.
