data_PCOD8020003
_publ_section_title
;
Structure prediction by ZEFSAII (Michael W. Deem and Ramdas Pophale) SiO2 
 PCOD8020003
Probable space group: P -1
;
_chemical_formula_sum "Si O2"
_cell_formula_units_Z 16
_cell_length_a 13.216244
_cell_length_b 13.268307
_cell_length_c 11.359523
_cell_angle_alpha 71.501685
_cell_angle_beta 97.251266
_cell_angle_gamma 34.595043
_cell_volume 744.895027
_symmetry_space_group_name_H-M "P -1"
_symmetry_group_IT_number 2
_symmetry_cell_setting 'triclinic'
loop_
_space_group_symop_operation_xyz
x,y,z
-x,-y,-z
loop_
_atom_site_type_symbol
_atom_site_label
_atom_site_fract_x
_atom_site_fract_y
_atom_site_fract_z
Si Si1 0.033193 0.259939 0.039851
Si Si2 0.533896 0.018937 0.872264
Si Si3 0.877857 0.205077 0.639426
Si Si4 0.858564 0.948871 0.474026
Si Si5 0.483816 0.851094 0.829026
Si Si6 0.874313 0.009587 0.013421
Si Si7 0.384778 0.365181 0.824407
Si Si8 0.350974 0.800966 0.409939
O O1 0.170500 0.232992 0.016687
O O2 0.215585 0.034559 0.251081
O O3 0.766945 0.554025 0.939628
O O4 0.975097 0.228533 0.942324
O O5 0.378990 0.278878 0.754374
O O6 0.439355 0.021707 0.762391
O O7 0.500000 0.000000 0.000000
O O8 0.640736 0.512648 0.511934
O O9 0.802609 0.155750 0.671659
O O10 0.004003 0.092849 0.570227
O O11 0.096273 0.030312 0.827693
O O12 0.091151 0.677141 0.686331
O O13 0.725313 0.993151 0.350207
O O14 0.656581 0.186828 0.451836
O O15 0.468906 0.816592 0.970490
O O16 0.567913 0.288680 0.835018
O O17 0.000000 0.000000 0.000000
#
# Coordination Sequence:
#
# PCOD8020003 Si02
#       8
#     2   2   2   2   2   2   2   2
#     4  11  21  41  66  93 132 166 214 273 323 383
#     4   9  21  40  69  94 121 171 211 269 333 380
#     4  11  23  41  63  93 135 175 220 262 320 387
#     4  12  24  43  66  98 133 171 219 265 322 388
#     4  11  22  42  65  93 126 168 218 265 324 386
#     4  11  21  39  64  95 125 177 219 260 325 388
#     4  10  22  42  64  93 133 164 213 271 321 377
#     4  11  24  41  63  95 133 174 214 273 320 378
#
# _framework density 21.479538000000002
#
# number of rings (size 3 to 8) (size 9 to 14) (size 15 to 20)
#    0.000    1.250    3.750    3.000    1.750    0.500 
#    2.250    2.500    0.000    0.000    0.000    0.000 
#    0.000    0.000    0.000    0.000    0.000    0.000 
#
# Total GULP energy -198262.298711 kJ/mol
# GULP energy per Si atom -12391.393669 kJ/mol
# Density = 2.143065 g / cm^3
# Si number density = 21.479538 Si / 1000 Ang^3
#
#
#
# Elastic Constant Matrix: (Units=GPa)
#
#
# Indices 1 2 3 4 5 6 
#
# 1 123.0728 25.9336 27.1862 -2.0773 11.2877 -2.9012
# 2 25.9336 94.7902 15.5709 7.4302 2.8863 -5.6454
# 3 27.1862 15.5709 79.9335 5.4536 7.2607 1.2692
# 4 -2.0773 7.4302 5.4536 31.0962 -1.3547 8.0343
# 5 11.2877 2.8863 7.2607 -1.3547 21.4228 6.2819
# 6 -2.9012 -5.6454 1.2692 8.0343 6.2819 33.2230
#
#
#
# Elastic Compliance Matrix: (Units=1/GPa)
#
#
# Indices 1 2 3 4 5 6 
#
# 1 0.009555 -0.002091 -0.002561 0.001127 -0.004132 0.001086
# 2 -0.002091 0.011823 -0.001293 -0.003550 -0.001142 0.002950
# 3 -0.002561 -0.001293 0.014123 -0.002571 -0.003514 0.000303
# 4 0.001127 -0.003550 -0.002571 0.036482 0.006108 -0.010384
# 5 -0.004132 -0.001142 -0.003514 0.006108 0.054146 -0.012136
# 6 0.001086 0.002950 0.000303 -0.010384 -0.012136 0.035490
#
#
# Mechanical properties :
#
#
# Convention : Reuss Voigt Hill
#
# Bulk Modulus (GPa) = 42.35345 48.35309 45.35327
# Shear Modulus (GPa) = 27.56647 32.42213 29.99430
#
# Velocity S-wave (km/s) = 3.58632 3.88937 3.74091
# Velocity P-wave (km/s) = 6.07534 6.53680 6.31029
#
# Compressibility (1/GPa) = 0.02361083
#
# Stress axis : x y z
#
# Youngs Moduli (GPa) = 104.65396 84.58167 70.80594
#
# Poissons Ratio (x) = 0.17689 0.18135
# Poissons Ratio (y) = 0.21887 0.09153
# Poissons Ratio (z) = 0.26804 0.10933
#
# Static dielectric constant tensor:
#      x y z
#    x 4.068480 0.057720 0.091910 
#    y 0.057720 4.132520 0.205770 
#    z 0.091910 0.205770 3.688980 
# 
# 
# High freq. dielectric constant tensor:
#      x y z
#    x 1.849330 -0.009530 0.008470 
#    y -0.009530 1.858480 0.013690 
#    z 0.008470 0.013690 1.816840 
# 
# From -- ./inp_files/398837.got.cif
#   From: 2010.06.25/outbox.cif.g09.slc.cpg/sg2_200_cif.got.tgz:398837.got - 2010.06.27 13:26:56.
