data_PCOD8020464
_publ_section_title
;
Structure prediction by ZEFSAII (Michael W. Deem and Ramdas Pophale) SiO2 
 PCOD8020464
Probable space group: P -1
;
_chemical_formula_sum "Si O2"
_cell_formula_units_Z 16
_cell_length_a 11.048472
_cell_length_b 9.328095
_cell_length_c 17.708447
_cell_angle_alpha 128.328648
_cell_angle_beta 134.879420
_cell_angle_gamma 86.365500
_cell_volume 750.170766
_symmetry_space_group_name_H-M "P -1"
_symmetry_group_IT_number 2
_symmetry_cell_setting 'triclinic'
loop_
_space_group_symop_operation_xyz
x,y,z
-x,-y,-z
loop_
_atom_site_type_symbol
_atom_site_label
_atom_site_fract_x
_atom_site_fract_y
_atom_site_fract_z
Si Si1 0.360013 0.760396 0.808498
Si Si2 0.688587 0.588074 0.506290
Si Si3 0.517906 0.499757 0.765417
Si Si4 0.861745 0.325032 0.472269
Si Si5 0.788948 0.963928 0.431312
Si Si6 0.310118 0.821326 0.422897
Si Si7 0.957595 0.600516 0.944698
Si Si8 0.351644 0.150000 0.313622
O O1 0.547696 0.738068 0.868541
O O2 0.256598 0.787716 0.698332
O O3 0.137343 0.489690 0.655362
O O4 0.500000 0.000000 0.000000
O O5 0.664168 0.655599 0.434327
O O6 0.850045 0.527211 0.559252
O O7 0.437720 0.340391 0.345471
O O8 0.786736 0.820424 0.678393
O O9 0.762008 0.599880 0.882046
O O10 0.422606 0.327845 0.742353
O O11 0.726213 0.079749 0.382887
O O12 0.811954 0.087512 0.563121
O O13 0.000000 0.000000 0.500000
O O14 0.104431 0.557951 0.208889
O O15 0.430407 0.787268 0.529135
O O16 0.500000 0.000000 0.500000
O O17 0.000000 0.500000 0.000000
O O18 0.187364 0.878313 0.117727
#
# Coordination Sequence:
#
# PCOD8020464 Si02
#       8
#     2   2   2   2   2   2   2   2
#     4  10  23  45  67  97 134 177 225 279 337 405
#     4  10  22  42  68  97 130 178 219 285 340 401
#     4  11  23  43  68  96 135 174 232 275 337 403
#     4  10  22  43  69  94 131 180 221 278 339 400
#     4  12  23  44  72  99 136 182 229 279 339 407
#     4  12  22  45  69  97 137 178 224 282 341 402
#     4  12  25  41  67 103 133 178 226 283 342 403
#     4  11  22  41  67  98 133 171 228 279 341 403
#
# _framework density 21.328478
#
# number of rings (size 3 to 8) (size 9 to 14) (size 15 to 20)
#    0.000    1.000    6.250    0.000    1.750    0.500 
#    6.750    0.625    0.000    0.000    0.000    0.000 
#    0.000    0.000    0.000    0.000    0.000    0.000 
#
# Total GULP energy -198236.435554 kJ/mol
# GULP energy per Si atom -12389.777222 kJ/mol
# Density = 2.127993 g / cm^3
# Si number density = 21.328478 Si / 1000 Ang^3
#
#
#
# Elastic Constant Matrix: (Units=GPa)
#
#
# Indices 1 2 3 4 5 6 
#
# 1 118.8963 21.4103 32.8522 -1.4984 -21.6098 -16.6238
# 2 21.4103 99.9654 33.1480 -1.1742 -4.0555 3.5828
# 3 32.8522 33.1480 120.9254 12.5939 -27.5043 -7.9728
# 4 -1.4984 -1.1742 12.5939 26.2461 -7.9832 7.1463
# 5 -21.6098 -4.0555 -27.5043 -7.9832 25.8613 4.6212
# 6 -16.6238 3.5828 -7.9728 7.1463 4.6212 43.0335
#
#
#
# Elastic Compliance Matrix: (Units=1/GPa)
#
#
# Indices 1 2 3 4 5 6 
#
# 1 0.010888 -0.001862 -0.000606 0.002606 0.008446 0.002909
# 2 -0.001862 0.011613 -0.003625 0.002045 -0.002525 -0.002426
# 3 -0.000606 -0.003625 0.012322 -0.003338 0.010685 0.001757
# 4 0.002606 0.002045 -0.003338 0.047052 0.015121 -0.009219
# 5 0.008446 -0.002525 0.010685 0.015121 0.062026 -0.003719
# 6 0.002909 -0.002426 0.001757 -0.009219 -0.003719 0.026819
#
#
# Mechanical properties :
#
#
# Convention : Reuss Voigt Hill
#
# Bulk Modulus (GPa) = 44.17560 57.17868 50.67714
# Shear Modulus (GPa) = 26.25340 35.85328 31.05334
#
# Velocity S-wave (km/s) = 3.51224 4.10445 3.81984
# Velocity P-wave (km/s) = 6.09957 7.02345 6.57775
#
# Compressibility (1/GPa) = 0.02263693
#
# Stress axis : x y z
#
# Youngs Moduli (GPa) = 91.84254 86.11255 81.15811
#
# Poissons Ratio (x) = 0.16034 0.04920
# Poissons Ratio (y) = 0.17101 0.29417
# Poissons Ratio (z) = 0.05567 0.31213
#
# Static dielectric constant tensor:
#      x y z
#    x 4.242600 -0.092550 -0.212650 
#    y -0.092550 4.070290 0.106080 
#    z -0.212650 0.106080 3.524890 
# 
# 
# High freq. dielectric constant tensor:
#      x y z
#    x 1.850710 -0.009380 -0.008690 
#    y -0.009380 1.855790 0.007920 
#    z -0.008690 0.007920 1.796720 
# 
# From -- ./inp_files/452349.got.cif
#   From: 2010.06.25/outbox.cif.g09.slc.cpg/sg2_227_cif.got.tgz:452349.got - 2010.06.27 13:26:56.
