data_PCOD8020632
_publ_section_title
;
Structure prediction by ZEFSAII (Michael W. Deem and Ramdas Pophale) SiO2 
 PCOD8020632
Probable space group: P -1
;
_chemical_formula_sum "Si O2"
_cell_formula_units_Z 16
_cell_length_a 17.362132
_cell_length_b 11.871169
_cell_length_c 9.202298
_cell_angle_alpha 40.133874
_cell_angle_beta 37.743347
_cell_angle_gamma 41.940482
_cell_volume 700.184234
_symmetry_space_group_name_H-M "P -1"
_symmetry_group_IT_number 2
_symmetry_cell_setting 'triclinic'
loop_
_space_group_symop_operation_xyz
x,y,z
-x,-y,-z
loop_
_atom_site_type_symbol
_atom_site_label
_atom_site_fract_x
_atom_site_fract_y
_atom_site_fract_z
Si Si1 0.716030 0.930236 0.945954
Si Si2 0.172167 0.801473 0.653296
Si Si3 0.524220 0.743853 0.011884
Si Si4 0.145482 0.853896 0.957547
Si Si5 0.864710 0.857913 0.092800
Si Si6 0.353328 0.385576 0.741412
Si Si7 0.783566 0.540926 0.633691
Si Si8 0.601751 0.483461 0.734602
O O1 0.800859 0.042548 0.636649
O O2 0.551482 0.033569 0.086399
O O3 0.768290 0.873034 0.086319
O O4 0.735303 0.747899 0.998467
O O5 0.247235 0.594840 0.687152
O O6 0.224801 0.817744 0.722392
O O7 0.012997 0.843915 0.840881
O O8 0.551744 0.654292 0.219941
O O9 0.398491 0.698197 0.173879
O O10 0.656551 0.670784 0.789189
O O11 0.136771 0.654369 0.214151
O O12 0.207918 0.953964 0.886629
O O13 0.000000 0.000000 0.000000
O O14 0.875557 0.666672 0.350470
O O15 0.439267 0.356424 0.489374
O O16 0.740445 0.478810 0.604059
O O17 0.500000 0.500000 0.000000
#
# Coordination Sequence:
#
# PCOD8020632 Si02
#       8
#     2   2   2   2   2   2   2   2
#     4  12  26  44  69 106 140 182 242 279 350 420
#     4  11  26  45  71 100 139 190 230 295 346 407
#     4  11  24  44  71 100 142 185 227 292 343 417
#     4  10  24  44  71 100 133 184 233 288 340 408
#     4  11  26  47  71 102 142 184 238 289 344 415
#     4  12  24  46  68 104 142 185 233 285 354 413
#     4  11  23  47  70 104 141 182 233 288 353 411
#     4  10  22  42  70  98 138 186 224 279 351 410
#
# _framework density 22.851130000000001
#
# number of rings (size 3 to 8) (size 9 to 14) (size 15 to 20)
#    0.000    1.000    3.750    1.875    1.750    5.000 
#    4.500    0.000    0.000    0.000    0.000    0.000 
#    0.000    0.000    0.000    0.000    0.000    0.000 
#
# Total GULP energy -198220.012040 kJ/mol
# GULP energy per Si atom -12388.750753 kJ/mol
# Density = 2.279912 g / cm^3
# Si number density = 22.851130 Si / 1000 Ang^3
#
#
#
# Elastic Constant Matrix: (Units=GPa)
#
#
# Indices 1 2 3 4 5 6 
#
# 1 84.9273 28.5682 35.2197 9.5568 21.1395 14.8674
# 2 28.5682 105.6391 61.8573 -15.5978 -2.4346 5.2446
# 3 35.2197 61.8573 122.4335 -15.8116 3.9574 7.0174
# 4 9.5568 -15.5978 -15.8116 33.4533 2.6407 -3.2418
# 5 21.1395 -2.4346 3.9574 2.6407 37.7735 -5.3351
# 6 14.8674 5.2446 7.0174 -3.2418 -5.3351 33.6417
#
#
#
# Elastic Compliance Matrix: (Units=1/GPa)
#
#
# Indices 1 2 3 4 5 6 
#
# 1 0.021136 -0.004600 -0.004047 -0.010149 -0.012509 -0.010741
# 2 -0.004600 0.014857 -0.005734 0.005413 0.004047 0.002076
# 3 -0.004047 -0.005734 0.012777 0.004546 0.000310 0.000504
# 4 -0.010149 0.005413 0.004546 0.037831 0.003890 0.006956
# 5 -0.012509 0.004047 0.000310 0.003890 0.034949 0.010750
# 6 -0.010741 0.002076 0.000504 0.006956 0.010750 0.036418
#
#
# Mechanical properties :
#
#
# Convention : Reuss Voigt Hill
#
# Bulk Modulus (GPa) = 49.97697 62.69893 56.33795
# Shear Modulus (GPa) = 25.85326 33.46402 29.65864
#
# Velocity S-wave (km/s) = 3.36725 3.83095 3.60656
# Velocity P-wave (km/s) = 6.08572 6.86045 6.48466
#
# Compressibility (1/GPa) = 0.02000922
#
# Stress axis : x y z
#
# Youngs Moduli (GPa) = 47.31167 67.30844 78.26611
#
# Poissons Ratio (x) = 0.30961 0.31674
# Poissons Ratio (y) = 0.21762 0.44876
# Poissons Ratio (z) = 0.19147 0.38593
#
# Static dielectric constant tensor:
#      x y z
#    x 4.696670 0.619940 0.290340 
#    y 0.619940 4.324680 -0.086170 
#    z 0.290340 -0.086170 4.301250 
# 
# 
# High freq. dielectric constant tensor:
#      x y z
#    x 1.912110 0.022200 0.015380 
#    y 0.022200 1.897540 -0.013400 
#    z 0.015380 -0.013400 1.906400 
# 
# From -- ./inp_files/332689.got.cif
#   From: 2010.06.25/outbox.cif.g09.slc.cpg/sg2_167_cif.got.tgz:332689.got - 2010.06.27 13:26:56.
