data_PCOD8020436
_publ_section_title
;
Structure prediction by ZEFSAII (Michael W. Deem and Ramdas Pophale) SiO2 
 PCOD8020436
Probable space group: P -1
;
_chemical_formula_sum "Si O2"
_cell_formula_units_Z 16
_cell_length_a 9.497311
_cell_length_b 20.654322
_cell_length_c 27.276394
_cell_angle_alpha 18.130161
_cell_angle_beta 30.075589
_cell_angle_gamma 29.170837
_cell_volume 788.929371
_symmetry_space_group_name_H-M "P -1"
_symmetry_group_IT_number 2
_symmetry_cell_setting 'triclinic'
loop_
_space_group_symop_operation_xyz
x,y,z
-x,-y,-z
loop_
_atom_site_type_symbol
_atom_site_label
_atom_site_fract_x
_atom_site_fract_y
_atom_site_fract_z
Si Si1 0.675096 0.153121 0.101836
Si Si2 0.321176 0.947839 0.547286
Si Si3 0.639169 0.065809 0.958556
Si Si4 0.318457 0.073364 0.637917
Si Si5 0.180198 0.993334 0.223347
Si Si6 0.229374 0.597729 0.884503
Si Si7 0.332517 0.466040 0.412251
Si Si8 0.346842 0.837270 0.386918
O O1 0.650298 0.107572 0.199556
O O2 0.519213 0.010731 0.220010
O O3 0.505934 0.412370 0.959406
O O4 0.018593 0.089335 0.027292
O O5 0.445009 0.016454 0.411170
O O6 0.356239 0.693350 0.730451
O O7 0.500000 0.000000 0.500000
O O8 0.978811 0.084632 0.549050
O O9 0.616428 0.319414 0.778790
O O10 0.447129 0.047746 0.076554
O O11 0.500000 0.000000 0.000000
O O12 0.409089 0.278281 0.483089
O O13 0.986550 0.125399 0.678088
O O14 0.941224 0.212537 0.161336
O O15 0.329621 0.816330 0.348355
O O16 0.000000 0.500000 0.000000
O O17 0.502949 0.393511 0.464799
O O18 0.000000 0.500000 0.500000
#
# Coordination Sequence:
#
# PCOD8020436 Si02
#       8
#     2   2   2   2   2   2   2   2
#     4  11  23  44  68  97 138 172 223 275 330 393
#     4  11  22  42  67  97 135 168 219 273 329 392
#     4  12  25  46  68  99 135 175 222 279 326 397
#     4  11  23  43  68  96 134 172 217 274 331 389
#     4  11  23  45  68  97 139 173 219 276 332 391
#     4  11  23  43  67  99 137 174 218 277 330 392
#     4  11  23  44  68  92 132 174 220 270 328 391
#     4  10  22  42  68  94 133 172 217 272 326 390
#
# _framework density 20.280650999999999
#
# number of rings (size 3 to 8) (size 9 to 14) (size 15 to 20)
#    0.000    1.000    8.750    0.000    1.750    5.000 
#    2.250    1.250    0.000    0.000    0.000    0.000 
#    0.000    0.000    0.000    0.000    0.000    0.000 
#
# Total GULP energy -198282.516375 kJ/mol
# GULP energy per Si atom -12392.657273 kJ/mol
# Density = 2.023449 g / cm^3
# Si number density = 20.280651 Si / 1000 Ang^3
#
#
#
# Elastic Constant Matrix: (Units=GPa)
#
#
# Indices 1 2 3 4 5 6 
#
# 1 116.5877 34.7890 43.4314 -1.3644 17.7533 -23.3265
# 2 34.7890 108.9051 50.3210 11.3767 21.3826 -22.7587
# 3 43.4314 50.3210 114.4236 17.9473 17.1945 -9.0870
# 4 -1.3644 11.3767 17.9473 38.9191 1.7123 1.0678
# 5 17.7533 21.3826 17.1945 1.7123 43.9016 5.7390
# 6 -23.3265 -22.7587 -9.0870 1.0678 5.7390 34.3701
#
#
#
# Elastic Compliance Matrix: (Units=1/GPa)
#
#
# Indices 1 2 3 4 5 6 
#
# 1 0.012298 0.000243 -0.003722 0.002060 -0.004794 0.008260
# 2 0.000243 0.014817 -0.004439 -0.002251 -0.006797 0.010008
# 3 -0.003722 -0.004439 0.012838 -0.004663 -0.000948 -0.001768
# 4 0.002060 -0.002251 -0.004663 0.028585 0.001292 -0.002429
# 5 -0.004794 -0.006797 -0.000948 0.001292 0.030056 -0.013064
# 6 0.008260 0.010008 -0.001768 -0.002429 -0.013064 0.043117
#
#
# Mechanical properties :
#
#
# Convention : Reuss Voigt Hill
#
# Bulk Modulus (GPa) = 41.46423 66.33321 53.89872
# Shear Modulus (GPa) = 30.19618 37.52982 33.86300
#
# Velocity S-wave (km/s) = 3.86283 4.30644 4.09065
# Velocity P-wave (km/s) = 6.35491 7.58326 6.99610
#
# Compressibility (1/GPa) = 0.02411717
#
# Stress axis : x y z
#
# Youngs Moduli (GPa) = 81.31550 67.49105 77.89540
#
# Poissons Ratio (x) = -0.01643 0.28990
# Poissons Ratio (y) = -0.01979 0.34580
# Poissons Ratio (z) = 0.30263 0.29961
#
# Static dielectric constant tensor:
#      x y z
#    x 3.723600 -0.195200 0.152740 
#    y -0.195200 3.611220 -0.305550 
#    z 0.152740 -0.305550 1.085820 
# 
# 
# High freq. dielectric constant tensor:
#      x y z
#    x 1.807960 -0.012580 -0.000810 
#    y -0.012580 1.782150 0.015780 
#    z -0.000810 0.015780 1.800950 
# 
# From -- ./inp_files/350177.got.cif
#   From: 2010.06.25/outbox.cif.g09.slc.cpg/sg2_176_cif.got.tgz:350177.got - 2010.06.27 13:26:56.
