data_PCOD8020611
_publ_section_title
;
Structure prediction by ZEFSAII (Michael W. Deem and Ramdas Pophale) SiO2 
 PCOD8020611
Probable space group: P -1
;
_chemical_formula_sum "Si O2"
_cell_formula_units_Z 16
_cell_length_a 8.243719
_cell_length_b 10.821531
_cell_length_c 11.956630
_cell_angle_alpha 54.111705
_cell_angle_beta 119.083070
_cell_angle_gamma 126.060948
_cell_volume 682.192502
_symmetry_space_group_name_H-M "P -1"
_symmetry_group_IT_number 2
_symmetry_cell_setting 'triclinic'
loop_
_space_group_symop_operation_xyz
x,y,z
-x,-y,-z
loop_
_atom_site_type_symbol
_atom_site_label
_atom_site_fract_x
_atom_site_fract_y
_atom_site_fract_z
Si Si1 0.502315 0.671206 0.951194
Si Si2 0.904538 0.454176 0.698785
Si Si3 0.178823 0.281833 0.799081
Si Si4 0.242109 0.077616 0.543834
Si Si5 0.702246 0.270445 0.947033
Si Si6 0.598525 0.390537 0.433049
Si Si7 0.262258 0.043386 0.823741
Si Si8 0.697527 0.220729 0.361902
O O1 0.478113 0.772845 0.782334
O O2 0.500000 0.500000 0.000000
O O3 0.725256 0.768912 0.033183
O O4 0.313879 0.637794 0.992335
O O5 0.813882 0.403581 0.818106
O O6 0.728982 0.452124 0.557680
O O7 0.992001 0.325710 0.746150
O O8 0.078260 0.641983 0.673774
O O9 0.364714 0.445708 0.715940
O O10 0.106667 0.123429 0.771716
O O11 0.356363 0.275462 0.440175
O O12 0.312206 0.066545 0.698002
O O13 0.314234 0.965916 0.546466
O O14 0.000000 0.000000 0.500000
O O15 0.471972 0.147358 0.903139
O O16 0.825356 0.155070 0.071052
O O17 0.670708 0.266251 0.455731
#
# Coordination Sequence:
#
# PCOD8020611 Si02
#       8
#     2   2   2   2   2   2   2   2
#     4  11  20  43  65  94 136 171 221 276 331 388
#     4  11  23  42  71  99 131 177 229 270 334 403
#     4  10  23  40  70  99 131 179 228 267 331 412
#     4  12  27  44  65  99 137 177 225 280 337 398
#     4  10  22  42  70  92 131 179 218 277 337 387
#     4  11  24  45  68  94 136 182 220 274 339 400
#     4  10  22  44  62  93 137 175 219 277 327 401
#     4  11  24  46  67 100 136 176 222 282 338 393
#
# _framework density 23.453790000000001
#
# number of rings (size 3 to 8) (size 9 to 14) (size 15 to 20)
#    0.000    1.250    5.000    1.875    3.500    3.500 
#    4.500    0.000    0.000    0.000    0.000    0.000 
#    0.000    0.000    0.000    0.000    0.000    0.000 
#
# Total GULP energy -198336.260510 kJ/mol
# GULP energy per Si atom -12396.016282 kJ/mol
# Density = 2.340041 g / cm^3
# Si number density = 23.453790 Si / 1000 Ang^3
#
#
#
# Elastic Constant Matrix: (Units=GPa)
#
#
# Indices 1 2 3 4 5 6 
#
# 1 51.7338 20.4818 -3.5472 -4.8899 1.1791 -8.8972
# 2 20.4818 69.7687 20.6661 1.8831 4.7679 -14.7307
# 3 -3.5472 20.6661 68.5133 -0.8499 -4.8816 7.0314
# 4 -4.8899 1.8831 -0.8499 24.5976 -4.9789 -0.8143
# 5 1.1791 4.7679 -4.8816 -4.9789 37.1427 0.6552
# 6 -8.8972 -14.7307 7.0314 -0.8143 0.6552 48.4264
#
#
#
# Elastic Compliance Matrix: (Units=1/GPa)
#
#
# Indices 1 2 3 4 5 6 
#
# 1 0.023472 -0.007917 0.003632 0.005748 0.001493 0.001453
# 2 -0.007917 0.020510 -0.007534 -0.004023 -0.004014 0.005865
# 3 0.003632 -0.007534 0.017776 0.002502 0.003598 -0.004212
# 4 0.005748 -0.004023 0.002502 0.043509 0.006493 0.000113
# 5 0.001493 -0.004014 0.003598 0.006493 0.028765 -0.001749
# 6 0.001453 0.005865 -0.004212 0.000113 -0.001749 0.023338
#
#
# Mechanical properties :
#
#
# Convention : Reuss Voigt Hill
#
# Bulk Modulus (GPa) = 26.23307 29.46857 27.85082
# Shear Modulus (GPa) = 25.81089 32.19436 29.00262
#
# Velocity S-wave (km/s) = 3.32098 3.70898 3.52033
# Velocity P-wave (km/s) = 5.09063 5.56182 5.33143
#
# Compressibility (1/GPa) = 0.03811983
#
# Stress axis : x y z
#
# Youngs Moduli (GPa) = 42.60342 48.75628 56.25543
#
# Poissons Ratio (x) = 0.38599 -0.20431
# Poissons Ratio (y) = 0.33728 0.42385
# Poissons Ratio (z) = -0.15473 0.36735
#
# Static dielectric constant tensor:
#      x y z
#    x 69.611160 -5.015580 6.526230 
#    y -5.015580 5.136670 0.347990 
#    z 6.526230 0.347990 6.253590 
# 
# 
# High freq. dielectric constant tensor:
#      x y z
#    x 1.922790 -0.029130 -0.002570 
#    y -0.029130 1.919560 0.007850 
#    z -0.002570 0.007850 1.928350 
# 
# From -- ./inp_files/306842.got.cif
#   From: 2010.06.25/outbox.cif.g09.slc.cpg/sg2_154_cif.got.tgz:306842.got - 2010.06.27 13:26:56.
