data_PCOD8020673
_publ_section_title
;
Structure prediction by ZEFSAII (Michael W. Deem and Ramdas Pophale) SiO2 
 PCOD8020673
Probable space group: P -1
;
_chemical_formula_sum "Si O2"
_cell_formula_units_Z 14
_cell_length_a 11.738116
_cell_length_b 8.636216
_cell_length_c 11.156336
_cell_angle_alpha 98.581999
_cell_angle_beta 82.178986
_cell_angle_gamma 37.897490
_cell_volume 624.045205
_symmetry_space_group_name_H-M "P -1"
_symmetry_group_IT_number 2
_symmetry_cell_setting 'triclinic'
loop_
_space_group_symop_operation_xyz
x,y,z
-x,-y,-z
loop_
_atom_site_type_symbol
_atom_site_label
_atom_site_fract_x
_atom_site_fract_y
_atom_site_fract_z
Si Si1 0.987102 0.190315 0.975681
Si Si2 0.014632 0.579318 0.381840
Si Si3 0.241269 0.923556 0.675091
Si Si4 0.747840 0.434056 0.359640
Si Si5 0.436408 0.263042 0.813811
Si Si6 0.863131 0.847777 0.817753
Si Si7 0.419947 0.231271 0.356417
O O1 0.062835 0.117817 0.821113
O O2 0.128594 0.134013 0.038722
O O3 0.755558 0.519004 0.042893
O O4 0.000000 0.000000 0.000000
O O5 0.046434 0.425445 0.249895
O O6 0.205907 0.483354 0.345678
O O7 0.000000 0.500000 0.500000
O O8 0.817133 0.904327 0.413106
O O9 0.281564 0.704261 0.592919
O O10 0.437410 0.780996 0.694639
O O11 0.629540 0.552810 0.264925
O O12 0.642858 0.687146 0.484252
O O13 0.988647 0.196807 0.277577
O O14 0.632533 0.117932 0.833078
O O15 0.471119 0.052235 0.728957
#
# Coordination Sequence:
#
# PCOD8020673 Si02
#       7
#     2   2   2   2   2   2   2
#     4  11  23  47  65 100 138 177 225 273 337 394
#     4  11  25  44  66  99 134 178 225 272 334 398
#     4  12  26  42  67 100 140 175 224 282 329 397
#     4  11  22  42  64 104 135 176 220 274 342 391
#     4  10  23  40  72  97 127 186 224 270 335 394
#     4  10  22  42  71  96 132 179 226 273 330 399
#     4  11  25  41  68  99 136 178 224 273 336 402
#
# _framework density 22.434273000000001
#
# number of rings (size 3 to 8) (size 9 to 14) (size 15 to 20)
#    0.000    1.143    4.286    2.571    4.000    5.714 
#    0.000    2.857    0.000    0.000    0.000    0.000 
#    0.000    0.000    0.000    0.000    0.000    0.000 
#
# Total GULP energy -173517.194674 kJ/mol
# GULP energy per Si atom -12394.085334 kJ/mol
# Density = 2.238321 g / cm^3
# Si number density = 22.434273 Si / 1000 Ang^3
#
#
#
# Elastic Constant Matrix: (Units=GPa)
#
#
# Indices 1 2 3 4 5 6 
#
# 1 141.6690 56.1054 10.9715 8.2799 -1.5018 -20.9417
# 2 56.1054 81.7830 11.6806 6.3239 2.6720 -11.9349
# 3 10.9715 11.6806 84.1695 12.6042 -2.1642 -3.6199
# 4 8.2799 6.3239 12.6042 30.4012 0.2623 -4.8572
# 5 -1.5018 2.6720 -2.1642 0.2623 30.7604 2.4397
# 6 -20.9417 -11.9349 -3.6199 -4.8572 2.4397 37.8250
#
#
#
# Elastic Compliance Matrix: (Units=1/GPa)
#
#
# Indices 1 2 3 4 5 6 
#
# 1 0.010178 -0.006421 -0.000143 -0.000835 0.000779 0.003438
# 2 -0.006421 0.017228 -0.001387 -0.000962 -0.002039 0.001756
# 3 -0.000143 -0.001387 0.012871 -0.005018 0.001062 0.000002
# 4 -0.000835 -0.000962 -0.005018 0.035957 -0.000889 0.003429
# 5 0.000779 -0.002039 0.001062 -0.000889 0.032993 -0.002352
# 6 0.003438 0.001756 0.000002 0.003429 -0.002352 0.029487
#
#
# Mechanical properties :
#
#
# Convention : Reuss Voigt Hill
#
# Bulk Modulus (GPa) = 41.02521 51.68184 46.35352
# Shear Modulus (GPa) = 30.72386 35.05491 32.88938
#
# Velocity S-wave (km/s) = 3.70470 3.95721 3.83303
# Velocity P-wave (km/s) = 6.05196 6.63072 6.34794
#
# Compressibility (1/GPa) = 0.02437526
#
# Stress axis : x y z
#
# Youngs Moduli (GPa) = 98.25122 58.04532 77.69649
#
# Poissons Ratio (x) = 0.37272 0.01109
# Poissons Ratio (y) = 0.63089 0.10774
# Poissons Ratio (z) = 0.01402 0.08049
#
# Static dielectric constant tensor:
#      x y z
#    x 4.260530 -0.184010 0.141240 
#    y -0.184010 3.863070 0.302150 
#    z 0.141240 0.302150 4.181120 
# 
# 
# High freq. dielectric constant tensor:
#      x y z
#    x 1.899050 -0.012720 0.011790 
#    y -0.012720 1.865050 0.021270 
#    z 0.011790 0.021270 1.882480 
# 
# From -- ./inp_files/389931.got.cif
#   From: 2010.06.25/outbox.cif.g09.slc.cpg/sg2_195_cif.got.tgz:389931.got - 2010.06.27 13:26:56.
