data_PCOD8020678
_publ_section_title
;
Structure prediction by ZEFSAII (Michael W. Deem and Ramdas Pophale) SiO2 
 PCOD8020678
Probable space group: P -1
;
_chemical_formula_sum "Si O2"
_cell_formula_units_Z 16
_cell_length_a 11.202578
_cell_length_b 8.574289
_cell_length_c 14.830955
_cell_angle_alpha 102.265865
_cell_angle_beta 56.339638
_cell_angle_gamma 138.184872
_cell_volume 737.075376
_symmetry_space_group_name_H-M "P -1"
_symmetry_group_IT_number 2
_symmetry_cell_setting 'triclinic'
loop_
_space_group_symop_operation_xyz
x,y,z
-x,-y,-z
loop_
_atom_site_type_symbol
_atom_site_label
_atom_site_fract_x
_atom_site_fract_y
_atom_site_fract_z
Si Si1 0.293744 0.775129 0.622971
Si Si2 0.896112 0.389281 0.626129
Si Si3 0.330139 0.166102 0.989704
Si Si4 0.468936 0.378570 0.139646
Si Si5 0.813107 0.951259 0.617722
Si Si6 0.818102 0.783966 0.168245
Si Si7 0.595466 0.456814 0.385966
Si Si8 0.601484 0.926632 0.219324
O O1 0.290749 0.582502 0.607976
O O2 0.056929 0.620284 0.658032
O O3 0.500000 0.000000 0.500000
O O4 0.302175 0.853272 0.729915
O O5 0.663858 0.282991 0.706009
O O6 0.000000 0.500000 0.500000
O O7 0.889336 0.197485 0.633236
O O8 0.516411 0.439369 0.896539
O O9 0.309177 0.990607 0.912618
O O10 0.417250 0.204160 0.059764
O O11 0.083465 0.037874 0.073666
O O12 0.262218 0.194804 0.274276
O O13 0.706265 0.558789 0.116858
O O14 0.603261 0.787860 0.619432
O O15 0.000000 0.000000 0.500000
O O16 0.786449 0.699801 0.273428
O O17 0.673778 0.821305 0.220888
O O18 0.500000 0.500000 0.500000
#
# Coordination Sequence:
#
# PCOD8020678 Si02
#       8
#     2   2   2   2   2   2   2   2
#     4  12  24  44  65  94 137 176 221 274 339 403
#     4  12  26  42  66  95 141 175 215 273 343 402
#     4  10  22  42  71  97 131 179 226 273 328 396
#     4   9  21  40  64  99 133 163 230 270 322 390
#     4  11  24  41  67 100 135 173 221 279 335 394
#     4  10  23  41  72  96 133 170 231 277 323 396
#     4  11  23  41  67 102 132 171 225 277 329 405
#     4  11  23  43  64 100 131 174 223 270 336 394
#
# _framework density 21.707412000000001
#
# number of rings (size 3 to 8) (size 9 to 14) (size 15 to 20)
#    0.000    1.250    2.500    3.000    8.750    4.000 
#    0.000    1.250    2.750    0.000    0.000    0.000 
#    0.000    0.000    0.000    0.000    0.000    0.000 
#
# Total GULP energy -198249.523199 kJ/mol
# GULP energy per Si atom -12390.595200 kJ/mol
# Density = 2.165801 g / cm^3
# Si number density = 21.707412 Si / 1000 Ang^3
#
#
#
# Elastic Constant Matrix: (Units=GPa)
#
#
# Indices 1 2 3 4 5 6 
#
# 1 102.1986 43.1418 51.5150 -3.9661 -9.5655 9.4271
# 2 43.1418 105.8816 58.9848 13.4314 0.2220 21.3612
# 3 51.5150 58.9848 152.6231 8.6195 10.0902 2.7132
# 4 -3.9661 13.4314 8.6195 43.5547 7.1334 7.1057
# 5 -9.5655 0.2220 10.0902 7.1334 38.8011 1.7537
# 6 9.4271 21.3612 2.7132 7.1057 1.7537 40.0072
#
#
#
# Elastic Compliance Matrix: (Units=1/GPa)
#
#
# Indices 1 2 3 4 5 6 
#
# 1 0.013770 -0.003581 -0.003647 0.002718 0.003943 -0.001741
# 2 -0.003581 0.015030 -0.004374 -0.003230 0.001050 -0.006357
# 3 -0.003647 -0.004374 0.009692 -0.000810 -0.003373 0.002829
# 4 0.002718 -0.003230 -0.000810 0.025487 -0.003640 -0.003228
# 5 0.003943 0.001050 -0.003373 -0.003640 0.028369 -0.001858
# 6 -0.001741 -0.006357 0.002829 -0.003228 -0.001858 0.029263
#
#
# Mechanical properties :
#
#
# Convention : Reuss Voigt Hill
#
# Bulk Modulus (GPa) = 65.40931 74.22072 69.81502
# Shear Modulus (GPa) = 33.35311 38.27670 35.81491
#
# Velocity S-wave (km/s) = 3.92405 4.20372 4.06629
# Velocity P-wave (km/s) = 7.12240 7.60443 7.36736
#
# Compressibility (1/GPa) = 0.01528834
#
# Stress axis : x y z
#
# Youngs Moduli (GPa) = 72.62210 66.53190 103.17644
#
# Poissons Ratio (x) = 0.23823 0.37630
# Poissons Ratio (y) = 0.26003 0.45132
# Poissons Ratio (z) = 0.26486 0.29103
#
# Static dielectric constant tensor:
#      x y z
#    x -0.582070 -3.388770 1.705090 
#    y -3.388770 0.840250 1.384820 
#    z 1.705090 1.384820 3.552570 
# 
# 
# High freq. dielectric constant tensor:
#      x y z
#    x 1.839420 0.029270 0.014330 
#    y 0.029270 1.854500 0.006830 
#    z 0.014330 0.006830 1.861310 
# 
# From -- ./inp_files/428440.got.cif
#   From: 2010.06.25/outbox.cif.g09.slc.cpg/sg2_215_cif.got.tgz:428440.got - 2010.06.27 13:26:56.
