data_PCOD8020123
_publ_section_title
;
Structure prediction by ZEFSAII (Michael W. Deem and Ramdas Pophale) SiO2 
 PCOD8020123
Probable space group: P -1
;
_chemical_formula_sum "Si O2"
_cell_formula_units_Z 16
_cell_length_a 9.260813
_cell_length_b 11.674101
_cell_length_c 18.291577
_cell_angle_alpha 42.026599
_cell_angle_beta 47.198866
_cell_angle_gamma 79.819632
_cell_volume 723.124675
_symmetry_space_group_name_H-M "P -1"
_symmetry_group_IT_number 2
_symmetry_cell_setting 'triclinic'
loop_
_space_group_symop_operation_xyz
x,y,z
-x,-y,-z
loop_
_atom_site_type_symbol
_atom_site_label
_atom_site_fract_x
_atom_site_fract_y
_atom_site_fract_z
Si Si1 0.108002 0.992524 0.156572
Si Si2 0.259026 0.065213 0.918051
Si Si3 0.622307 0.432739 0.836400
Si Si4 0.208704 0.467947 0.432279
Si Si5 0.310597 0.174090 0.305020
Si Si6 0.325769 0.764526 0.961893
Si Si7 0.388857 0.805335 0.687235
Si Si8 0.973872 0.673116 0.998784
O O1 0.014407 0.117362 0.092704
O O2 0.182271 0.931627 0.085937
O O3 0.351773 0.171349 0.041066
O O4 0.892272 0.765333 0.384943
O O5 0.502633 0.335565 0.723673
O O6 0.384225 0.992397 0.858287
O O7 0.000000 0.000000 0.000000
O O8 0.773942 0.550173 0.652414
O O9 0.561467 0.573540 0.832689
O O10 0.785511 0.409499 0.848614
O O11 0.000000 0.500000 0.500000
O O12 0.410952 0.175861 0.189156
O O13 0.401287 0.079742 0.374308
O O14 0.000000 0.000000 0.500000
O O15 0.104790 0.642082 0.033737
O O16 0.112988 0.721441 0.850380
O O17 0.500000 0.000000 0.500000
O O18 0.325395 0.578012 0.783746
#
# Coordination Sequence:
#
# PCOD8020123 Si02
#       8
#     2   2   2   2   2   2   2   2
#     4  11  23  45  72  98 140 182 235 289 347 416
#     4  11  24  46  70 105 139 182 235 292 354 407
#     4  11  25  44  70 100 141 182 231 289 350 418
#     4  11  26  45  74 103 136 190 242 286 354 419
#     4  11  26  42  66 107 134 181 231 278 356 415
#     4  11  24  46  68  96 144 177 225 293 344 413
#     4  10  23  41  65  93 137 177 226 272 336 413
#     4  10  22  42  65  97 132 180 220 280 344 399
#
# _framework density 22.126200000000001
#
# number of rings (size 3 to 8) (size 9 to 14) (size 15 to 20)
#    0.000    1.250    2.500    1.875    7.000    2.500 
#    0.000    0.000    0.000    0.000    0.000    0.000 
#    0.000    0.000    0.000    0.000    0.000    0.000 
#
# Total GULP energy -198302.823635 kJ/mol
# GULP energy per Si atom -12393.926477 kJ/mol
# Density = 2.207584 g / cm^3
# Si number density = 22.126200 Si / 1000 Ang^3
#
#
#
# Elastic Constant Matrix: (Units=GPa)
#
#
# Indices 1 2 3 4 5 6 
#
# 1 118.6188 34.6794 66.6906 2.3863 11.5285 6.5262
# 2 34.6794 141.8913 53.7384 9.6375 9.5694 6.9527
# 3 66.6906 53.7384 157.2930 -1.7748 18.5490 11.4394
# 4 2.3863 9.6375 -1.7748 27.3580 -2.4771 1.7295
# 5 11.5285 9.5694 18.5490 -2.4771 39.4352 3.4306
# 6 6.5262 6.9527 11.4394 1.7295 3.4306 34.5593
#
#
#
# Elastic Compliance Matrix: (Units=1/GPa)
#
#
# Indices 1 2 3 4 5 6 
#
# 1 0.011281 -0.000967 -0.004312 -0.000997 -0.001067 -0.000352
# 2 -0.000967 0.008478 -0.002391 -0.003099 -0.000801 -0.000497
# 3 -0.004312 -0.002391 0.009420 0.001724 -0.002336 -0.001677
# 4 -0.000997 -0.003099 0.001724 0.038220 0.002803 -0.001950
# 5 -0.001067 -0.000801 -0.002336 0.002803 0.027288 -0.001713
# 6 -0.000352 -0.000497 -0.001677 -0.001950 -0.001713 0.029925
#
#
# Mechanical properties :
#
#
# Convention : Reuss Voigt Hill
#
# Bulk Modulus (GPa) = 72.26320 80.89108 76.57714
# Shear Modulus (GPa) = 34.58653 37.78350 36.18502
#
# Velocity S-wave (km/s) = 3.95796 4.13684 4.04839
# Velocity P-wave (km/s) = 7.32241 7.71079 7.51911
#
# Compressibility (1/GPa) = 0.01383830
#
# Stress axis : x y z
#
# Youngs Moduli (GPa) = 88.64678 117.94737 106.16077
#
# Poissons Ratio (x) = 0.11404 0.45781
# Poissons Ratio (y) = 0.08571 0.25382
# Poissons Ratio (z) = 0.38228 0.28200
#
# Static dielectric constant tensor:
#      x y z
#    x 4.253120 -0.062400 -0.091000 
#    y -0.062400 4.616750 0.242330 
#    z -0.091000 0.242330 3.914190 
# 
# 
# High freq. dielectric constant tensor:
#      x y z
#    x 1.881480 0.007860 0.006700 
#    y 0.007860 1.886220 0.003430 
#    z 0.006700 0.003430 1.853380 
# 
# From -- ./inp_files/559657.got.cif
#   From: 2010.06.25/outbox.cif.g09.slc.cpg/sg2_280_cif.got.tgz:559657.got - 2010.06.27 13:26:56.
