data_PCOD8020073
_publ_section_title
;
Structure prediction by ZEFSAII (Michael W. Deem and Ramdas Pophale) SiO2 
 PCOD8020073
Probable space group: P -1
;
_chemical_formula_sum "Si O2"
_cell_formula_units_Z 14
_cell_length_a 9.375548
_cell_length_b 14.819822
_cell_length_c 11.540651
_cell_angle_alpha 128.450968
_cell_angle_beta 120.473237
_cell_angle_gamma 30.604870
_cell_volume 637.742115
_symmetry_space_group_name_H-M "P -1"
_symmetry_group_IT_number 2
_symmetry_cell_setting 'triclinic'
loop_
_space_group_symop_operation_xyz
x,y,z
-x,-y,-z
loop_
_atom_site_type_symbol
_atom_site_label
_atom_site_fract_x
_atom_site_fract_y
_atom_site_fract_z
Si Si1 0.047332 0.806036 0.054070
Si Si2 0.497780 0.894076 0.829381
Si Si3 0.349120 0.548467 0.651369
Si Si4 0.699972 0.537689 0.675527
Si Si5 0.662056 0.812076 0.344829
Si Si6 0.591586 0.598636 0.199485
Si Si7 0.760880 0.916001 0.798354
O O1 0.305501 0.748490 0.126956
O O2 0.160760 0.610416 0.931565
O O3 0.839176 0.942173 0.187497
O O4 0.870527 0.932533 0.964206
O O5 0.660969 0.696207 0.796522
O O6 0.648286 0.851640 0.739753
O O7 0.500000 0.000000 0.000000
O O8 0.512309 0.577538 0.725587
O O9 0.410066 0.433462 0.474865
O O10 0.462930 0.424664 0.715358
O O11 0.014813 0.755614 0.685026
O O12 0.023517 0.322008 0.658486
O O13 0.675615 0.684092 0.317908
O O14 0.500000 0.000000 0.500000
O O15 0.498486 0.878209 0.210095
#
# Coordination Sequence:
#
# PCOD8020073 Si02
#       7
#     2   2   2   2   2   2   2
#     4   9  21  45  65  94 124 173 217 258 315 382
#     4  10  22  42  65  92 126 170 212 258 316 377
#     4  10  23  43  65  95 124 176 207 264 324 371
#     4  11  24  42  66  94 134 161 218 262 316 385
#     4  12  25  40  64 102 128 165 214 265 319 385
#     4  10  23  43  69  90 134 166 217 262 322 371
#     4  10  22  42  66  93 130 168 213 256 326 371
#
# _framework density 21.952445999999998
#
# number of rings (size 3 to 8) (size 9 to 14) (size 15 to 20)
#    0.000    1.714    1.429    2.571    6.000    1.714 
#   12.857    5.000    0.000    0.000    0.000    0.000 
#    0.000    0.000    0.000    0.000    0.000    0.000 
#
# Total GULP energy -173548.949541 kJ/mol
# GULP energy per Si atom -12396.353539 kJ/mol
# Density = 2.190248 g / cm^3
# Si number density = 21.952446 Si / 1000 Ang^3
#
#
#
# Elastic Constant Matrix: (Units=GPa)
#
#
# Indices 1 2 3 4 5 6 
#
# 1 152.8968 52.4561 34.8282 16.3096 -8.3954 -4.0609
# 2 52.4561 125.4854 33.5859 0.7162 -8.6237 -12.5563
# 3 34.8282 33.5859 57.9694 7.1087 4.0815 -3.6828
# 4 16.3096 0.7162 7.1087 42.1655 1.3315 -7.2764
# 5 -8.3954 -8.6237 4.0815 1.3315 32.8048 7.5141
# 6 -4.0609 -12.5563 -3.6828 -7.2764 7.5141 35.5972
#
#
#
# Elastic Compliance Matrix: (Units=1/GPa)
#
#
# Indices 1 2 3 4 5 6 
#
# 1 0.008676 -0.002629 -0.003580 -0.003033 0.002428 -0.001440
# 2 -0.002629 0.010803 -0.004888 0.002115 0.001999 0.003015
# 3 -0.003580 -0.004888 0.022910 -0.002075 -0.005175 0.000906
# 4 -0.003033 0.002115 -0.002075 0.026329 -0.002423 0.006079
# 5 0.002428 0.001999 -0.005175 -0.002423 0.034029 -0.007232
# 6 -0.001440 0.003015 0.000906 0.006079 -0.007232 0.031854
#
#
# Mechanical properties :
#
#
# Convention : Reuss Voigt Hill
#
# Bulk Modulus (GPa) = 49.51697 64.23247 56.87472
# Shear Modulus (GPa) = 30.57589 36.47893 33.52741
#
# Velocity S-wave (km/s) = 3.73610 4.08085 3.91228
# Velocity P-wave (km/s) = 6.42003 7.17829 6.80972
#
# Compressibility (1/GPa) = 0.02019510
#
# Stress axis : x y z
#
# Youngs Moduli (GPa) = 115.25595 92.56467 43.64890
#
# Poissons Ratio (x) = 0.24332 0.15628
# Poissons Ratio (y) = 0.30296 0.21337
# Poissons Ratio (z) = 0.41266 0.45249
#
# Static dielectric constant tensor:
#      x y z
#    x 4.507280 -0.472330 -0.280460 
#    y -0.472330 4.216450 0.094690 
#    z -0.280460 0.094690 3.762730 
# 
# 
# High freq. dielectric constant tensor:
#      x y z
#    x 1.868240 -0.020920 -0.002010 
#    y -0.020920 1.868100 0.003170 
#    z -0.002010 0.003170 1.841540 
# 
# From -- ./inp_files/331634.got.cif
#   From: 2010.06.25/outbox.cif.g09.slc.cpg/sg2_166_cif.got.tgz:331634.got - 2010.06.27 13:26:56.
