data_PCOD8020081
_publ_section_title
;
Structure prediction by ZEFSAII (Michael W. Deem and Ramdas Pophale) SiO2 
 PCOD8020081
Probable space group: P -1
;
_chemical_formula_sum "Si O2"
_cell_formula_units_Z 16
_cell_length_a 17.005233
_cell_length_b 12.267141
_cell_length_c 10.458381
_cell_angle_alpha 115.957010
_cell_angle_beta 97.642548
_cell_angle_gamma 135.721408
_cell_volume 962.891469
_symmetry_space_group_name_H-M "P -1"
_symmetry_group_IT_number 2
_symmetry_cell_setting 'triclinic'
loop_
_space_group_symop_operation_xyz
x,y,z
-x,-y,-z
loop_
_atom_site_type_symbol
_atom_site_label
_atom_site_fract_x
_atom_site_fract_y
_atom_site_fract_z
Si Si1 0.023262 0.837658 0.985594
Si Si2 0.352892 0.172949 0.191316
Si Si3 0.448450 0.865362 0.115633
Si Si4 0.415854 0.721960 0.766513
Si Si5 0.511905 0.402960 0.609044
Si Si6 0.441806 0.098838 0.600576
Si Si7 0.734163 0.332381 0.787222
Si Si8 0.188728 0.297539 0.311776
O O1 0.162202 0.933592 0.011059
O O2 0.091890 0.044192 0.185201
O O3 0.912450 0.615811 0.945110
O O4 0.927013 0.753676 0.796697
O O5 0.417034 0.130564 0.130690
O O6 0.384582 0.229568 0.378171
O O7 0.446672 0.402767 0.250487
O O8 0.555954 0.916310 0.252660
O O9 0.299172 0.717843 0.092297
O O10 0.563328 0.126887 0.230755
O O11 0.378286 0.700174 0.894767
O O12 0.266176 0.447407 0.537847
O O13 0.440368 0.239074 0.633768
O O14 0.672508 0.545753 0.678551
O O15 0.601984 0.247544 0.651807
O O16 0.287842 0.829263 0.364816
#
# Coordination Sequence:
#
# PCOD8020081 Si02
#       8
#     2   2   2   2   2   2   2   2
#     4  10  17  28  46  77  98 119 153 197 241 282
#     4   9  19  27  48  72 103 121 144 200 247 274
#     4   9  18  30  54  70  88 124 172 200 213 277
#     4  10  18  34  49  72  92 126 167 191 231 281
#     4   9  15  31  47  71  94 124 163 192 229 280
#     4   9  16  29  53  73  87 121 162 206 222 265
#     4   9  16  28  49  74  89 117 159 199 231 263
#     4   9  16  27  50  68  95 129 158 192 226 277
#
# _framework density 16.616617999999999
#
# number of rings (size 3 to 8) (size 9 to 14) (size 15 to 20)
#    0.750    2.000    1.250    3.000    0.000    0.000 
#    0.000    3.750    0.000    8.250    0.000    0.000 
#    0.000    0.000    0.000    0.000    0.000    0.000 
#
# Total GULP energy -198276.117669 kJ/mol
# GULP energy per Si atom -12392.257354 kJ/mol
# Density = 1.657880 g / cm^3
# Si number density = 16.616618 Si / 1000 Ang^3
#
#
#
# Elastic Constant Matrix: (Units=GPa)
#
#
# Indices 1 2 3 4 5 6 
#
# 1 45.2343 22.0706 28.7102 -4.6520 10.9526 -7.3761
# 2 22.0706 108.9976 49.6138 -2.4798 -8.8741 -12.9897
# 3 28.7102 49.6138 97.8262 0.9874 -5.3671 5.0837
# 4 -4.6520 -2.4798 0.9874 22.8192 2.4589 0.3363
# 5 10.9526 -8.8741 -5.3671 2.4589 25.0356 1.4595
# 6 -7.3761 -12.9897 5.0837 0.3363 1.4595 22.2226
#
#
#
# Elastic Compliance Matrix: (Units=1/GPa)
#
#
# Indices 1 2 3 4 5 6 
#
# 1 0.041186 -0.001867 -0.013435 0.011071 -0.023640 0.017038
# 2 -0.001867 0.014054 -0.006848 0.000911 0.003722 0.008904
# 3 -0.013435 -0.006848 0.018859 -0.005048 0.008763 -0.013275
# 4 0.011071 0.000911 -0.005048 0.047458 -0.010575 0.005338
# 5 -0.023640 0.003722 0.008763 -0.010575 0.055171 -0.011139
# 6 0.017038 0.008904 -0.013275 0.005338 -0.011139 0.059547
#
#
# Mechanical properties :
#
#
# Convention : Reuss Voigt Hill
#
# Bulk Modulus (GPa) = 33.55547 50.31637 41.93592
# Shear Modulus (GPa) = 17.21129 24.12637 20.66883
#
# Velocity S-wave (km/s) = 3.22186 3.81457 3.53067
# Velocity P-wave (km/s) = 5.83766 7.05321 6.47402
#
# Compressibility (1/GPa) = 0.02980140
#
# Stress axis : x y z
#
# Youngs Moduli (GPa) = 24.28032 71.15263 53.02372
#
# Poissons Ratio (x) = 0.13282 0.71235
# Poissons Ratio (y) = 0.04532 0.36309
# Poissons Ratio (z) = 0.32620 0.48723
#
# Static dielectric constant tensor:
#      x y z
#    x 2.926990 -0.224060 0.036770 
#    y -0.224060 2.980530 0.114940 
#    z 0.036770 0.114940 3.055650 
# 
# 
# High freq. dielectric constant tensor:
#      x y z
#    x 1.610480 -0.028050 0.003280 
#    y -0.028050 1.627000 0.011450 
#    z 0.003280 0.011450 1.627170 
# 
# From -- ./inp_files/463959.got.cif
#   From: 2010.06.25/outbox.cif.g09.slc.cpg/sg2_232_cif.got.tgz:463959.got - 2010.06.27 13:26:56.
