data_PCOD8020902
_publ_section_title
;
Structure prediction by ZEFSAII (Michael W. Deem and Ramdas Pophale) SiO2 
 PCOD8020902
Probable space group: P -1
;
_chemical_formula_sum "Si O2"
_cell_formula_units_Z 16
_cell_length_a 17.660381
_cell_length_b 8.933680
_cell_length_c 6.236292
_cell_angle_alpha 91.514461
_cell_angle_beta 98.066801
_cell_angle_gamma 49.376214
_cell_volume 736.636345
_symmetry_space_group_name_H-M "P -1"
_symmetry_group_IT_number 2
_symmetry_cell_setting 'triclinic'
loop_
_space_group_symop_operation_xyz
x,y,z
-x,-y,-z
loop_
_atom_site_type_symbol
_atom_site_label
_atom_site_fract_x
_atom_site_fract_y
_atom_site_fract_z
Si Si1 0.382278 0.478650 0.439567
Si Si2 0.734790 0.571954 0.322233
Si Si3 0.908574 0.691073 0.611199
Si Si4 0.745226 0.900242 0.218025
Si Si5 0.556033 0.345988 0.212344
Si Si6 0.214886 0.684132 0.049835
Si Si7 0.102296 0.129677 0.976142
Si Si8 0.105319 0.599094 0.284211
O O1 0.353672 0.355839 0.536509
O O2 0.482183 0.338124 0.328451
O O3 0.392434 0.593430 0.623527
O O4 0.291158 0.646023 0.257223
O O5 0.720032 0.756442 0.226297
O O6 0.845225 0.409005 0.471526
O O7 0.723687 0.460540 0.131606
O O8 0.814170 0.871668 0.441531
O O9 0.942636 0.775655 0.798926
O O10 0.863782 0.613735 0.736382
O O11 0.000000 0.500000 0.500000
O O12 0.641514 0.123492 0.156315
O O13 0.812763 0.852684 0.035242
O O14 0.500000 0.500000 0.000000
O O15 0.144344 0.640252 0.099205
O O16 0.145931 0.909187 0.964893
O O17 0.016733 0.238039 0.760667
#
# Coordination Sequence:
#
# PCOD8020902 Si02
#       8
#     2   2   2   2   2   2   2   2
#     4  10  22  43  65  92 126 161 206 267 316 373
#     4  10  23  41  62  91 131 169 208 261 313 369
#     4  11  23  41  62  88 130 167 214 263 306 367
#     4  11  24  40  65  95 123 172 212 256 318 377
#     4  11  23  43  71  95 124 160 210 266 319 376
#     4  11  23  41  62  92 131 168 210 263 313 374
#     4  12  23  37  63  92 126 172 219 256 313 370
#     4  10  23  38  59  89 126 172 211 260 305 371
#
# _framework density 21.720351000000001
#
# number of rings (size 3 to 8) (size 9 to 14) (size 15 to 20)
#    0.000    1.250    1.250    4.500    3.500    3.000 
#    0.000    2.500    0.000    0.000    0.000    0.000 
#    0.000    0.000    0.000    0.000    0.000    0.000 
#
# Total GULP energy -198279.630428 kJ/mol
# GULP energy per Si atom -12392.476902 kJ/mol
# Density = 2.167091 g / cm^3
# Si number density = 21.720351 Si / 1000 Ang^3
#
#
#
# Elastic Constant Matrix: (Units=GPa)
#
#
# Indices 1 2 3 4 5 6 
#
# 1 116.7281 46.3985 39.0576 3.3732 -13.1764 -6.1716
# 2 46.3985 116.4203 68.8682 -11.3528 0.3172 -11.9071
# 3 39.0576 68.8682 107.8616 -2.8371 8.4748 2.4942
# 4 3.3732 -11.3528 -2.8371 32.5228 -0.4347 0.8291
# 5 -13.1764 0.3172 8.4748 -0.4347 41.4524 -3.5532
# 6 -6.1716 -11.9071 2.4942 0.8291 -3.5532 25.1233
#
#
#
# Elastic Compliance Matrix: (Units=1/GPa)
#
#
# Indices 1 2 3 4 5 6 
#
# 1 0.011315 -0.002928 -0.002688 -0.002432 0.004345 0.002353
# 2 -0.002928 0.017049 -0.010023 0.005189 0.001765 0.008435
# 3 -0.002688 -0.010023 0.017172 -0.001590 -0.004971 -0.007766
# 4 -0.002432 0.005189 -0.001590 0.032648 -0.000065 0.000933
# 5 0.004345 0.001765 -0.004971 -0.000065 0.027041 0.006224
# 6 0.002353 0.008435 -0.007766 0.000933 0.006224 0.046000
#
#
# Mechanical properties :
#
#
# Convention : Reuss Voigt Hill
#
# Bulk Modulus (GPa) = 70.12716 72.18428 71.15572
# Shear Modulus (GPa) = 26.70151 32.26542 29.48347
#
# Velocity S-wave (km/s) = 3.50999 3.85839 3.68830
# Velocity P-wave (km/s) = 6.98449 7.29076 7.13927
#
# Compressibility (1/GPa) = 0.01425981
#
# Stress axis : x y z
#
# Youngs Moduli (GPa) = 88.37634 58.65310 58.23418
#
# Poissons Ratio (x) = 0.17174 0.15651
# Poissons Ratio (y) = 0.25877 0.58367
# Poissons Ratio (z) = 0.23752 0.58787
#
# Static dielectric constant tensor:
#      x y z
#    x 4.285540 0.054930 -0.187890 
#    y 0.054930 3.560460 -0.161520 
#    z -0.187890 -0.161520 4.051960 
# 
# 
# High freq. dielectric constant tensor:
#      x y z
#    x 1.869660 0.006050 -0.008950 
#    y 0.006050 1.825580 -0.012990 
#    z -0.008950 -0.012990 1.864500 
# 
# From -- ./inp_files/46296.got.cif
#   From: 2010.06.25/outbox.cif.g09.slc.cpg/sg2_24_cif.got.tgz:46296.got - 2010.06.27 13:26:56.
