data_PCOD8020827
_publ_section_title
;
Structure prediction by ZEFSAII (Michael W. Deem and Ramdas Pophale) SiO2 
 PCOD8020827
Probable space group: P -1
;
_chemical_formula_sum "Si O2"
_cell_formula_units_Z 14
_cell_length_a 7.962027
_cell_length_b 12.872801
_cell_length_c 15.016816
_cell_angle_alpha 49.162362
_cell_angle_beta 53.722038
_cell_angle_gamma 93.058778
_cell_volume 649.611471
_symmetry_space_group_name_H-M "P -1"
_symmetry_group_IT_number 2
_symmetry_cell_setting 'triclinic'
loop_
_space_group_symop_operation_xyz
x,y,z
-x,-y,-z
loop_
_atom_site_type_symbol
_atom_site_label
_atom_site_fract_x
_atom_site_fract_y
_atom_site_fract_z
Si Si1 0.485492 0.612384 0.153822
Si Si2 0.654627 0.935941 0.574773
Si Si3 0.824554 0.072103 0.255234
Si Si4 0.759914 0.476715 0.536648
Si Si5 0.715758 0.930722 0.175265
Si Si6 0.302900 0.838275 0.076222
Si Si7 0.740977 0.678451 0.758232
O O1 0.452856 0.561760 0.297878
O O2 0.415357 0.737136 0.081754
O O3 0.256958 0.407351 0.285685
O O4 0.821783 0.734583 0.951024
O O5 0.337518 0.857688 0.737976
O O6 0.646383 0.790215 0.710838
O O7 0.696392 0.927465 0.461080
O O8 0.922001 0.164146 0.396492
O O9 0.763660 0.954172 0.252512
O O10 0.575444 0.299086 0.624138
O O11 0.000000 0.500000 0.500000
O O12 0.950629 0.678313 0.307182
O O13 0.664126 0.060580 0.081745
O O14 0.000000 0.000000 0.000000
O O15 0.500000 0.000000 0.000000
O O16 0.500000 0.500000 0.000000
#
# Coordination Sequence:
#
# PCOD8020827 Si02
#       7
#     2   2   2   2   2   2   2
#     4  11  23  43  70  97 134 178 226 281 333 412
#     4  10  26  47  70  96 137 183 222 293 330 397
#     4  11  24  46  65 103 142 177 222 278 356 391
#     4  10  22  43  64 100 128 178 225 266 336 411
#     4  12  24  43  67 100 143 173 222 285 341 410
#     4  11  23  42  71  97 136 181 225 279 330 410
#     4  11  24  46  72  98 126 176 242 274 334 402
#
# _framework density 21.551344
#
# number of rings (size 3 to 8) (size 9 to 14) (size 15 to 20)
#    0.000    1.143    5.714    0.000    6.000    3.429 
#    2.571    0.000    0.000    0.000    0.000    0.000 
#    0.000    0.000    0.000    0.000    0.000    0.000 
#
# Total GULP energy -173635.579407 kJ/mol
# GULP energy per Si atom -12402.541386 kJ/mol
# Density = 2.150229 g / cm^3
# Si number density = 21.551344 Si / 1000 Ang^3
#
#
#
# Elastic Constant Matrix: (Units=GPa)
#
#
# Indices 1 2 3 4 5 6 
#
# 1 83.8568 35.4893 39.2411 -3.5257 -8.8052 2.6329
# 2 35.4893 138.3779 49.9909 -6.3382 -3.4461 19.0257
# 3 39.2411 49.9909 123.7797 -4.9245 -2.0101 -6.2085
# 4 -3.5257 -6.3382 -4.9245 42.6997 -2.8596 -2.7718
# 5 -8.8052 -3.4461 -2.0101 -2.8596 32.6376 7.3967
# 6 2.6329 19.0257 -6.2085 -2.7718 7.3967 37.7593
#
#
#
# Elastic Compliance Matrix: (Units=1/GPa)
#
#
# Indices 1 2 3 4 5 6 
#
# 1 0.015157 -0.002161 -0.003909 0.000659 0.003982 -0.001342
# 2 -0.002161 0.009916 -0.003555 0.000620 0.001590 -0.005696
# 3 -0.003909 -0.003555 0.010962 0.000577 -0.001664 0.004235
# 4 0.000659 0.000620 0.000577 0.023844 0.002126 0.001070
# 5 0.003982 0.001590 -0.001664 0.002126 0.033734 -0.007805
# 6 -0.001342 -0.005696 0.004235 0.001070 -0.007805 0.031751
#
#
# Mechanical properties :
#
#
# Convention : Reuss Voigt Hill
#
# Bulk Modulus (GPa) = 59.57496 66.16189 62.86842
# Shear Modulus (GPa) = 33.28677 37.37221 35.32949
#
# Velocity S-wave (km/s) = 3.93432 4.16877 4.05324
# Velocity P-wave (km/s) = 6.95282 7.34424 7.15121
#
# Compressibility (1/GPa) = 0.01678558
#
# Stress axis : x y z
#
# Youngs Moduli (GPa) = 65.97690 100.84328 91.22358
#
# Poissons Ratio (x) = 0.21795 0.35656
# Poissons Ratio (y) = 0.14259 0.32430
# Poissons Ratio (z) = 0.25788 0.35850
#
# Static dielectric constant tensor:
#      x y z
#    x 4.109460 0.027560 0.184560 
#    y 0.027560 6.776540 -1.500660 
#    z 0.184560 -1.500660 5.316140 
# 
# 
# High freq. dielectric constant tensor:
#      x y z
#    x 1.844460 0.013710 -0.006970 
#    y 0.013710 1.847490 0.002820 
#    z -0.006970 0.002820 1.854360 
# 
# From -- ./inp_files/498932.got.cif
#   From: 2010.06.25/outbox.cif.g09.slc.cpg/sg2_250_cif.got.tgz:498932.got - 2010.06.27 13:26:56.
