data_PCOD8020359
_publ_section_title
;
Structure prediction by ZEFSAII (Michael W. Deem and Ramdas Pophale) SiO2 
 PCOD8020359
Probable space group: P -1
;
_chemical_formula_sum "Si O2"
_cell_formula_units_Z 16
_cell_length_a 9.090503
_cell_length_b 9.158378
_cell_length_c 11.608864
_cell_angle_alpha 83.217777
_cell_angle_beta 84.082186
_cell_angle_gamma 48.425059
_cell_volume 717.560415
_symmetry_space_group_name_H-M "P -1"
_symmetry_group_IT_number 2
_symmetry_cell_setting 'triclinic'
loop_
_space_group_symop_operation_xyz
x,y,z
-x,-y,-z
loop_
_atom_site_type_symbol
_atom_site_label
_atom_site_fract_x
_atom_site_fract_y
_atom_site_fract_z
Si Si1 0.149048 0.512778 0.428287
Si Si2 0.745508 0.076870 0.740136
Si Si3 0.691481 0.991783 0.100113
Si Si4 0.047052 0.059121 0.599573
Si Si5 0.254917 0.217132 0.113466
Si Si6 0.328210 0.703639 0.055432
Si Si7 0.067016 0.615561 0.170775
Si Si8 0.554516 0.133850 0.503264
O O1 0.162808 0.492311 0.291355
O O2 0.365493 0.356399 0.476394
O O3 0.000000 0.500000 0.500000
O O4 0.070243 0.721057 0.446424
O O5 0.614351 0.247189 0.833669
O O6 0.626263 0.129991 0.626460
O O7 0.946051 0.043114 0.717396
O O8 0.817186 0.869675 0.793517
O O9 0.845705 0.822636 0.197279
O O10 0.468155 0.134361 0.150634
O O11 0.722173 0.851567 0.011268
O O12 0.745722 0.121901 0.043716
O O13 0.281661 0.932137 0.601068
O O14 0.000000 0.000000 0.500000
O O15 0.094791 0.453935 0.103051
O O16 0.163129 0.692123 0.094095
O O17 0.500000 0.500000 0.000000
O O18 0.500000 0.000000 0.500000
#
# Coordination Sequence:
#
# PCOD8020359 Si02
#       8
#     2   2   2   2   2   2   2   2
#     4  12  26  43  67 105 138 177 238 284 336 432
#     4  10  23  44  70 102 142 184 231 290 350 415
#     4  10  23  42  68  96 134 177 226 289 338 408
#     4  10  23  45  66  97 140 176 232 288 349 406
#     4  10  22  42  67  97 133 172 234 281 343 409
#     4  11  22  46  69 102 143 179 231 289 346 419
#     4  12  24  42  68  98 135 182 231 281 350 409
#     4  11  23  44  74 100 138 184 232 291 350 407
#
# _framework density 22.297775000000001
#
# number of rings (size 3 to 8) (size 9 to 14) (size 15 to 20)
#    0.000    1.250    3.750    1.500    3.500    3.000 
#    0.000    1.250    0.000    0.000    0.000    0.000 
#    0.000    0.000    0.000    0.000    0.000    0.000 
#
# Total GULP energy -198217.553346 kJ/mol
# GULP energy per Si atom -12388.597084 kJ/mol
# Density = 2.224702 g / cm^3
# Si number density = 22.297775 Si / 1000 Ang^3
#
#
#
# Elastic Constant Matrix: (Units=GPa)
#
#
# Indices 1 2 3 4 5 6 
#
# 1 117.5154 60.1349 33.4794 -9.6009 -31.1104 5.1204
# 2 60.1349 159.4432 35.3339 1.5001 -12.0822 9.3902
# 3 33.4794 35.3339 74.5148 -1.6963 -13.1853 4.1623
# 4 -9.6009 1.5001 -1.6963 37.7909 5.2959 0.9989
# 5 -31.1104 -12.0822 -13.1853 5.2959 41.1837 -2.6780
# 6 5.1204 9.3902 4.1623 0.9989 -2.6780 47.1749
#
#
#
# Elastic Compliance Matrix: (Units=1/GPa)
#
#
# Indices 1 2 3 4 5 6 
#
# 1 0.013613 -0.003935 -0.002791 0.002380 0.007926 -0.000049
# 2 -0.003935 0.008254 -0.002329 -0.001235 -0.001206 -0.001053
# 3 -0.002791 -0.002329 0.016227 -0.000210 0.002396 -0.000525
# 4 0.002380 -0.001235 -0.000210 0.027433 -0.002205 -0.000700
# 5 0.007926 -0.001206 0.002396 -0.002205 0.031029 0.000976
# 6 -0.000049 -0.001053 -0.000525 -0.000700 0.000976 0.021529
#
#
# Mechanical properties :
#
#
# Convention : Reuss Voigt Hill
#
# Bulk Modulus (GPa) = 50.03751 67.70777 58.87264
# Shear Modulus (GPa) = 35.00009 40.06492 37.53251
#
# Velocity S-wave (km/s) = 3.96620 4.24348 4.10718
# Velocity P-wave (km/s) = 6.59270 7.37839 6.99658
#
# Compressibility (1/GPa) = 0.01998501
#
# Stress axis : x y z
#
# Youngs Moduli (GPa) = 73.45918 121.15174 61.62519
#
# Poissons Ratio (x) = 0.47668 0.17201
# Poissons Ratio (y) = 0.28903 0.14352
# Poissons Ratio (z) = 0.20504 0.28215
#
# Static dielectric constant tensor:
#      x y z
#    x 5.442130 -0.115600 -0.774550 
#    y -0.115600 4.262700 0.207410 
#    z -0.774550 0.207410 4.445180 
# 
# 
# High freq. dielectric constant tensor:
#      x y z
#    x 1.881510 0.018330 -0.009110 
#    y 0.018330 1.891500 0.011520 
#    z -0.009110 0.011520 1.877740 
# 
# From -- ./inp_files/381961.got.cif
#   From: 2010.06.25/outbox.cif.g09.slc.cpg/sg2_191_cif.got.tgz:381961.got - 2010.06.27 13:26:56.
