data_PCOD8020065
_publ_section_title
;
Structure prediction by ZEFSAII (Michael W. Deem and Ramdas Pophale) SiO2 
 PCOD8020065
Probable space group: P -1
;
_chemical_formula_sum "Si O2"
_cell_formula_units_Z 16
_cell_length_a 8.434489
_cell_length_b 24.589132
_cell_length_c 20.055671
_cell_angle_alpha 18.442911
_cell_angle_beta 138.048195
_cell_angle_gamma 145.574359
_cell_volume 726.215681
_symmetry_space_group_name_H-M "P -1"
_symmetry_group_IT_number 2
_symmetry_cell_setting 'triclinic'
loop_
_space_group_symop_operation_xyz
x,y,z
-x,-y,-z
loop_
_atom_site_type_symbol
_atom_site_label
_atom_site_fract_x
_atom_site_fract_y
_atom_site_fract_z
Si Si1 0.643035 0.694189 0.135727
Si Si2 0.673333 0.118788 0.528019
Si Si3 0.797831 0.963752 0.041753
Si Si4 0.748779 0.038961 0.162028
Si Si5 0.305019 0.889833 0.794378
Si Si6 0.725418 0.714705 0.432265
Si Si7 0.621882 0.700032 0.975167
Si Si8 0.287392 0.522256 0.951081
O O1 0.528056 0.524275 0.355466
O O2 0.545329 0.849716 0.938605
O O3 0.532215 0.597534 0.139800
O O4 0.992381 0.830832 0.086122
O O5 0.666407 0.257518 0.306795
O O6 0.974915 0.260987 0.494984
O O7 0.422441 0.053445 0.579792
O O8 0.639103 0.913999 0.725999
O O9 0.700040 0.766321 0.288094
O O10 0.503724 0.932918 0.966370
O O11 0.000000 0.000000 0.000000
O O12 0.751465 0.008133 0.278995
O O13 0.062704 0.248283 0.002172
O O14 0.695296 0.847623 0.324982
O O15 0.032476 0.671703 0.936453
O O16 0.375287 0.530898 0.045594
O O17 0.500000 0.500000 0.000000
#
# Coordination Sequence:
#
# PCOD8020065 Si02
#       8
#     2   2   2   2   2   2   2   2
#     4  11  23  43  67  95 126 169 216 257 318 384
#     4  10  22  42  65  90 130 170 213 258 322 377
#     4  12  23  43  69  94 131 170 208 261 324 376
#     4  11  22  43  65  92 136 166 206 270 314 370
#     4  11  22  44  65  92 133 169 209 267 316 376
#     4  11  23  42  68  96 127 168 214 261 317 379
#     4  10  23  44  63  93 132 168 212 265 316 375
#     4  12  24  40  67  97 127 169 217 264 315 375
#
# _framework density 22.032021
#
# number of rings (size 3 to 8) (size 9 to 14) (size 15 to 20)
#    0.000    1.000    7.500    0.750    0.000    4.500 
#    4.500    0.000    0.000    0.000    0.000    0.000 
#    0.000    0.000    0.000    0.000    0.000    0.000 
#
# Total GULP energy -198328.484562 kJ/mol
# GULP energy per Si atom -12395.530285 kJ/mol
# Density = 2.198188 g / cm^3
# Si number density = 22.032021 Si / 1000 Ang^3
#
#
#
# Elastic Constant Matrix: (Units=GPa)
#
#
# Indices 1 2 3 4 5 6 
#
# 1 106.8119 28.0954 20.2868 13.5153 -20.6855 -5.8372
# 2 28.0954 100.2738 30.4501 10.1227 -7.7549 -0.0160
# 3 20.2868 30.4501 87.8047 3.8339 -31.0812 1.9834
# 4 13.5153 10.1227 3.8339 19.2710 -1.2808 -8.2473
# 5 -20.6855 -7.7549 -31.0812 -1.2808 29.6951 2.2304
# 6 -5.8372 -0.0160 1.9834 -8.2473 2.2304 39.6024
#
#
#
# Elastic Compliance Matrix: (Units=1/GPa)
#
#
# Indices 1 2 3 4 5 6 
#
# 1 0.012443 -0.002535 0.001680 -0.007223 0.009474 -0.000289
# 2 -0.002535 0.012282 -0.004766 -0.004322 -0.003671 -0.000823
# 3 0.001680 -0.004766 0.020359 -0.002364 0.021318 -0.002467
# 4 -0.007223 -0.004322 -0.002364 0.064777 -0.006811 0.012925
# 5 0.009474 -0.003671 0.021318 -0.006811 0.061678 -0.004565
# 6 -0.000289 -0.000823 -0.002467 0.012925 -0.004565 0.028280
#
#
# Mechanical properties :
#
#
# Convention : Reuss Voigt Hill
#
# Bulk Modulus (GPa) = 29.54913 50.28392 39.91652
# Shear Modulus (GPa) = 22.48789 32.11758 27.30273
#
# Velocity S-wave (km/s) = 3.19829 3.82222 3.52409
# Velocity P-wave (km/s) = 5.20382 6.50782 5.89201
#
# Compressibility (1/GPa) = 0.03384194
#
# Stress axis : x y z
#
# Youngs Moduli (GPa) = 80.36738 81.41705 49.11927
#
# Poissons Ratio (x) = 0.20635 -0.08250
# Poissons Ratio (y) = 0.20369 0.23410
# Poissons Ratio (z) = -0.13499 0.38804
#
# Static dielectric constant tensor:
#      x y z
#    x 4.164300 0.037520 -0.225150 
#    y 0.037520 4.509850 -0.158870 
#    z -0.225150 -0.158870 3.908810 
# 
# 
# High freq. dielectric constant tensor:
#      x y z
#    x 1.873730 0.000540 -0.021060 
#    y 0.000540 1.880490 0.001210 
#    z -0.021060 0.001210 1.840520 
# 
# From -- ./inp_files/504754.got.cif
#   From: 2010.06.25/outbox.cif.g09.slc.cpg/sg2_253_cif.got.tgz:504754.got - 2010.06.27 13:26:56.
