data_PCOD8020619
_publ_section_title
;
Structure prediction by ZEFSAII (Michael W. Deem and Ramdas Pophale) SiO2 
 PCOD8020619
Probable space group: P -1
;
_chemical_formula_sum "Si O2"
_cell_formula_units_Z 16
_cell_length_a 8.606637
_cell_length_b 17.090923
_cell_length_c 20.277111
_cell_angle_alpha 27.600649
_cell_angle_beta 31.378564
_cell_angle_gamma 31.043608
_cell_volume 654.550026
_symmetry_space_group_name_H-M "P -1"
_symmetry_group_IT_number 2
_symmetry_cell_setting 'triclinic'
loop_
_space_group_symop_operation_xyz
x,y,z
-x,-y,-z
loop_
_atom_site_type_symbol
_atom_site_label
_atom_site_fract_x
_atom_site_fract_y
_atom_site_fract_z
Si Si1 0.302877 0.926407 0.533733
Si Si2 0.186003 0.709122 0.626977
Si Si3 0.351394 0.841775 0.724872
Si Si4 0.239142 0.379028 0.059725
Si Si5 0.853866 0.479000 0.774345
Si Si6 0.867468 0.866267 0.986140
Si Si7 0.823432 0.589369 0.430551
Si Si8 0.221197 0.004216 0.857162
O O1 0.372516 0.751506 0.591273
O O2 0.209215 0.877141 0.676228
O O3 0.617705 0.977822 0.389557
O O4 0.006284 0.101375 0.481959
O O5 0.469889 0.576457 0.572957
O O6 0.967120 0.603346 0.811231
O O7 0.726261 0.675510 0.712385
O O8 0.092324 0.787199 0.898942
O O9 0.411299 0.158091 0.146481
O O10 0.526997 0.443989 0.915523
O O11 0.000000 0.500000 0.000000
O O12 0.983874 0.504083 0.636293
O O13 0.128954 0.307889 0.842023
O O14 0.036765 0.981808 0.875935
O O15 0.500000 0.000000 0.000000
O O16 0.000000 0.500000 0.500000
O O17 0.744397 0.805483 0.298929
O O18 0.000000 0.000000 0.000000
#
# Coordination Sequence:
#
# PCOD8020619 Si02
#       8
#     2   2   2   2   2   2   2   2
#     4  10  22  42  70  95 131 184 225 289 348 413
#     4  11  23  40  70 103 134 171 245 287 343 409
#     4  11  23  44  70  95 138 183 230 279 354 420
#     4  11  22  40  70 107 136 177 232 295 358 412
#     4  11  25  45  67 102 146 184 228 291 351 422
#     4  11  25  43  69  99 135 184 235 281 351 410
#     4  12  24  43  70 105 144 182 229 295 358 410
#     4  11  23  45  73  99 142 180 233 299 349 413
#
# _framework density 24.444272000000002
#
# number of rings (size 3 to 8) (size 9 to 14) (size 15 to 20)
#    0.000    1.000    2.500    6.375    1.750    3.000 
#    2.250    0.625    0.000    0.000    0.000    0.000 
#    0.000    0.000    0.000    0.000    0.000    0.000 
#
# Total GULP energy -198330.310820 kJ/mol
# GULP energy per Si atom -12395.644426 kJ/mol
# Density = 2.438864 g / cm^3
# Si number density = 24.444272 Si / 1000 Ang^3
#
#
#
# Elastic Constant Matrix: (Units=GPa)
#
#
# Indices 1 2 3 4 5 6 
#
# 1 88.2845 35.5496 24.2215 4.3181 27.3135 -12.1329
# 2 35.5496 111.8662 54.4630 25.3567 17.3400 -16.3767
# 3 24.2215 54.4630 125.3400 36.7639 34.5367 1.7024
# 4 4.3181 25.3567 36.7639 51.6989 7.2325 6.2976
# 5 27.3135 17.3400 34.5367 7.2325 44.0597 -7.0886
# 6 -12.1329 -16.3767 1.7024 6.2976 -7.0886 44.7306
#
#
#
# Elastic Compliance Matrix: (Units=1/GPa)
#
#
# Indices 1 2 3 4 5 6 
#
# 1 0.015531 -0.004085 0.000784 0.001220 -0.008651 0.001144
# 2 -0.004085 0.013847 -0.004748 -0.004010 0.002278 0.005068
# 3 0.000784 -0.004748 0.014319 -0.006306 -0.009233 -0.002646
# 4 0.001220 -0.004010 -0.006306 0.026128 0.000759 -0.004456
# 5 -0.008651 0.002278 -0.009233 0.000759 0.034963 0.004273
# 6 0.001144 0.005068 -0.002646 -0.004456 0.004273 0.025927
#
#
# Mechanical properties :
#
#
# Convention : Reuss Voigt Hill
#
# Bulk Modulus (GPa) = 36.23248 61.55100 48.89174
# Shear Modulus (GPa) = 32.04889 42.18161 37.11525
#
# Velocity S-wave (km/s) = 3.62484 4.15857 3.90084
# Velocity P-wave (km/s) = 5.68981 6.94932 6.35087
#
# Compressibility (1/GPa) = 0.02759954
#
# Stress axis : x y z
#
# Youngs Moduli (GPa) = 64.38748 72.21974 69.83692
#
# Poissons Ratio (x) = 0.29504 -0.05478
# Poissons Ratio (y) = 0.26305 0.33155
# Poissons Ratio (z) = -0.05050 0.34287
#
# Static dielectric constant tensor:
#      x y z
#    x 5.025730 0.693150 0.158890 
#    y 0.693150 5.517980 -0.111180 
#    z 0.158890 -0.111180 4.604970 
# 
# 
# High freq. dielectric constant tensor:
#      x y z
#    x 1.970270 -0.004820 0.019670 
#    y -0.004820 1.967490 0.001590 
#    z 0.019670 0.001590 1.986160 
# 
# From -- ./inp_files/591211.got.cif
#   From: 2010.06.25/outbox.cif.g09.slc.cpg/sg2_296_cif.got.tgz:591211.got - 2010.06.27 13:26:56.
