data_PCOD8020409
_publ_section_title
;
Structure prediction by ZEFSAII (Michael W. Deem and Ramdas Pophale) SiO2 
 PCOD8020409
Probable space group: P -1
;
_chemical_formula_sum "Si O2"
_cell_formula_units_Z 16
_cell_length_a 7.711477
_cell_length_b 19.951609
_cell_length_c 7.471367
_cell_angle_alpha 110.812950
_cell_angle_beta 127.798410
_cell_angle_gamma 54.565576
_cell_volume 740.077775
_symmetry_space_group_name_H-M "P -1"
_symmetry_group_IT_number 2
_symmetry_cell_setting 'triclinic'
loop_
_space_group_symop_operation_xyz
x,y,z
-x,-y,-z
loop_
_atom_site_type_symbol
_atom_site_label
_atom_site_fract_x
_atom_site_fract_y
_atom_site_fract_z
Si Si1 0.543062 0.592895 0.474985
Si Si2 0.455101 0.900338 0.240365
Si Si3 0.821741 0.407099 0.474983
Si Si4 0.777535 0.981650 0.500035
Si Si5 0.656082 0.099667 0.240386
Si Si6 0.723927 0.350709 0.999998
Si Si7 0.721433 0.714538 0.820439
Si Si8 0.365053 0.285456 0.820449
O O1 0.756008 0.499996 0.569677
O O2 0.312910 0.624730 0.499994
O O3 0.668382 0.651246 0.613446
O O4 0.440224 0.592153 0.212020
O O5 0.226219 0.960502 0.282681
O O6 0.561009 0.806497 0.274745
O O7 0.676292 0.921184 0.439922
O O8 0.375072 0.916668 0.000016
O O9 0.716657 0.407844 0.212013
O O10 0.122117 0.348741 0.613433
O O11 0.607717 0.039513 0.282772
O O12 0.060164 0.921186 0.560123
O O13 0.480508 0.193512 0.274792
O O14 0.009363 0.293950 0.061188
O O15 0.608784 0.293947 0.938810
O O16 0.705705 0.696197 0.999995
#
# Coordination Sequence:
#
# PCOD8020409 Si02
#       8
#     2   2   2   2   2   2   2   2
#     4  11  25  45  70 100 136 177 226 277 329 395
#     4  10  23  42  64  98 129 168 217 266 327 392
#     4  11  25  45  70 100 136 177 226 277 329 395
#     4  10  22  42  68  90 130 172 210 270 330 388
#     4  10  23  42  64  98 129 168 217 266 327 392
#     4  12  25  44  70  98 134 184 222 272 336 388
#     4  11  25  45  69 102 136 178 222 276 332 396
#     4  11  25  45  69 102 136 178 222 276 332 396
#
# _framework density 21.619347999999999
#
# number of rings (size 3 to 8) (size 9 to 14) (size 15 to 20)
#    0.000    1.250    2.500    1.875    5.250    3.500 
#   11.250    0.000    0.000    0.000    0.000    0.000 
#    0.000    0.000    0.000    0.000    0.000    0.000 
#
# Total GULP energy -198454.093787 kJ/mol
# GULP energy per Si atom -12403.380862 kJ/mol
# Density = 2.157014 g / cm^3
# Si number density = 21.619348 Si / 1000 Ang^3
#
#
#
# Elastic Constant Matrix: (Units=GPa)
#
#
# Indices 1 2 3 4 5 6 
#
# 1 132.9928 50.2475 40.4529 0.0981 12.8872 -0.0596
# 2 50.2475 132.6419 49.9989 0.4089 22.1113 -0.1545
# 3 40.4529 49.9989 104.0313 -0.1361 0.3120 -0.0312
# 4 0.0981 0.4089 -0.1361 16.9489 0.1577 -1.9508
# 5 12.8872 22.1113 0.3120 0.1577 41.0373 -0.2480
# 6 -0.0596 -0.1545 -0.0312 -1.9508 -0.2480 8.5891
#
#
#
# Elastic Compliance Matrix: (Units=1/GPa)
#
#
# Indices 1 2 3 4 5 6 
#
# 1 0.009315 -0.002305 -0.002509 -0.000007 -0.001664 -0.000036
# 2 -0.002305 0.010896 -0.004325 -0.000241 -0.005113 -0.000038
# 3 -0.002509 -0.004325 0.012658 0.000202 0.003022 0.000084
# 4 -0.000007 -0.000241 0.000202 0.060592 -0.000019 0.013758
# 5 -0.001664 -0.005113 0.003022 -0.000019 0.027627 0.000701
# 6 -0.000036 -0.000038 0.000084 0.013758 0.000701 0.119571
#
#
# Mechanical properties :
#
#
# Convention : Reuss Voigt Hill
#
# Bulk Modulus (GPa) = 68.54353 72.34054 70.44203
# Shear Modulus (GPa) = 18.95366 28.57951 23.76658
#
# Velocity S-wave (km/s) = 2.96412 3.63980 3.31920
# Velocity P-wave (km/s) = 6.59456 7.15526 6.88063
#
# Compressibility (1/GPa) = 0.01458927
#
# Stress axis : x y z
#
# Youngs Moduli (GPa) = 107.35755 91.77763 79.00055
#
# Poissons Ratio (x) = 0.21159 0.19822
# Poissons Ratio (y) = 0.24751 0.34170
# Poissons Ratio (z) = 0.26937 0.39696
#
# Static dielectric constant tensor:
#      x y z
#    x 4.104050 0.001280 -0.146830 
#    y 0.001280 3.734360 -0.000760 
#    z -0.146830 -0.000760 3.824980 
# 
# 
# High freq. dielectric constant tensor:
#      x y z
#    x 1.866290 0.000100 -0.011330 
#    y 0.000100 1.846700 0.000000 
#    z -0.011330 0.000000 1.847130 
# 
# From -- ./inp_files/223917.got.cif
#   From: 2010.06.25/outbox.cif.g09.slc.cpg/sg2_112_cif.got.tgz:223917.got - 2010.06.27 13:26:56.
