data_PCOD8020332
_publ_section_title
;
Structure prediction by ZEFSAII (Michael W. Deem and Ramdas Pophale) SiO2 
 PCOD8020332
Probable space group: P -1
;
_chemical_formula_sum "Si O2"
_cell_formula_units_Z 16
_cell_length_a 11.619301
_cell_length_b 14.467527
_cell_length_c 9.236397
_cell_angle_alpha 70.712330
_cell_angle_beta 105.821726
_cell_angle_gamma 47.607803
_cell_volume 761.559425
_symmetry_space_group_name_H-M "P -1"
_symmetry_group_IT_number 2
_symmetry_cell_setting 'triclinic'
loop_
_space_group_symop_operation_xyz
x,y,z
-x,-y,-z
loop_
_atom_site_type_symbol
_atom_site_label
_atom_site_fract_x
_atom_site_fract_y
_atom_site_fract_z
Si Si1 0.309016 0.189510 0.250532
Si Si2 0.297464 0.180758 0.924566
Si Si3 0.197410 0.822292 0.838373
Si Si4 0.195388 0.773027 0.539299
Si Si5 0.609253 0.655912 0.129937
Si Si6 0.317201 0.566403 0.217475
Si Si7 0.814237 0.511726 0.988370
Si Si8 0.127539 0.641842 0.412481
O O1 0.340869 0.284694 0.194757
O O2 0.500000 0.000000 0.500000
O O3 0.302269 0.144899 0.112589
O O4 0.077462 0.344749 0.176139
O O5 0.315907 0.284059 0.863293
O O6 0.074973 0.291148 0.722189
O O7 0.500000 0.000000 0.000000
O O8 0.255036 0.730973 0.752018
O O9 0.351460 0.811000 0.929496
O O10 0.221026 0.726872 0.020891
O O11 0.944443 0.033035 0.642336
O O12 0.417931 0.618232 0.600753
O O13 0.058727 0.770870 0.442368
O O14 0.673134 0.560388 0.350938
O O15 0.743571 0.513988 0.116154
O O16 0.228890 0.528027 0.138989
O O17 0.223135 0.633364 0.311886
#
# Coordination Sequence:
#
# PCOD8020332 Si02
#       8
#     2   2   2   2   2   2   2   2
#     4  10  23  43  68  97 129 174 221 270 324 378
#     4  11  25  44  63 100 134 167 219 268 329 399
#     4  11  24  44  69  98 126 174 226 268 317 383
#     4  11  24  43  68  98 130 174 220 267 325 384
#     4  11  23  44  69  91 131 178 218 267 324 386
#     4  12  23  44  65  99 135 169 217 270 326 386
#     4  10  22  42  67  95 133 167 224 273 311 390
#     4  12  25  43  66  96 134 175 212 267 338 386
#
# _framework density 21.009520999999999
#
# number of rings (size 3 to 8) (size 9 to 14) (size 15 to 20)
#    0.000    1.000    3.750    2.625    1.750    2.500 
#    4.500    0.000    0.000    0.000    0.000    0.000 
#    0.000    0.000    0.000    0.000    0.000    0.000 
#
# Total GULP energy -198353.442007 kJ/mol
# GULP energy per Si atom -12397.090125 kJ/mol
# Density = 2.096170 g / cm^3
# Si number density = 21.009521 Si / 1000 Ang^3
#
#
#
# Elastic Constant Matrix: (Units=GPa)
#
#
# Indices 1 2 3 4 5 6 
#
# 1 91.0952 31.8786 59.4805 10.3891 -8.6165 11.6271
# 2 31.8786 76.5115 52.9132 -2.6134 -4.7769 4.9718
# 3 59.4805 52.9132 137.0519 -1.2187 -5.4693 1.4111
# 4 10.3891 -2.6134 -1.2187 35.5252 7.4607 4.8550
# 5 -8.6165 -4.7769 -5.4693 7.4607 26.1049 14.6178
# 6 11.6271 4.9718 1.4111 4.8550 14.6178 33.8321
#
#
#
# Elastic Compliance Matrix: (Units=1/GPa)
#
#
# Indices 1 2 3 4 5 6 
#
# 1 0.019853 -0.001990 -0.007295 -0.007423 0.012759 -0.010673
# 2 -0.001990 0.018597 -0.006156 0.001590 0.002814 -0.003236
# 3 -0.007295 -0.006156 0.012660 0.002361 -0.003933 0.004244
# 4 -0.007423 0.001590 0.002361 0.032777 -0.012718 0.003010
# 5 0.012759 0.002814 -0.003933 -0.012718 0.062551 -0.029835
# 6 -0.010673 -0.003236 0.004244 0.003010 -0.029835 0.045983
#
#
# Mechanical properties :
#
#
# Convention : Reuss Voigt Hill
#
# Bulk Modulus (GPa) = 49.43970 65.91146 57.67558
# Shear Modulus (GPa) = 21.73480 29.78485 25.75983
#
# Velocity S-wave (km/s) = 3.21989 3.76930 3.50537
# Velocity P-wave (km/s) = 6.11610 7.09815 6.62535
#
# Compressibility (1/GPa) = 0.02022666
#
# Stress axis : x y z
#
# Youngs Moduli (GPa) = 50.37077 53.77176 78.99154
#
# Poissons Ratio (x) = 0.10702 0.57621
# Poissons Ratio (y) = 0.10026 0.48631
# Poissons Ratio (z) = 0.36744 0.33104
#
# Static dielectric constant tensor:
#      x y z
#    x 3.681700 -0.429040 -0.136050 
#    y -0.429040 3.017210 -0.277930 
#    z -0.136050 -0.277930 3.555140 
# 
# 
# High freq. dielectric constant tensor:
#      x y z
#    x 1.828400 0.004740 0.006360 
#    y 0.004740 1.829250 0.010580 
#    z 0.006360 0.010580 1.825360 
# 
# From -- ./inp_files/272619.got.cif
#   From: 2010.06.25/outbox.cif.g09.slc.cpg/sg2_137_cif.got.tgz:272619.got - 2010.06.27 13:26:56.
