data_PCOD8020688
_publ_section_title
;
Structure prediction by ZEFSAII (Michael W. Deem and Ramdas Pophale) SiO2 
 PCOD8020688
Probable space group: P -1
;
_chemical_formula_sum "Si O2"
_cell_formula_units_Z 16
_cell_length_a 9.328498
_cell_length_b 9.005525
_cell_length_c 11.505819
_cell_angle_alpha 115.611043
_cell_angle_beta 54.299748
_cell_angle_gamma 112.143998
_cell_volume 697.484070
_symmetry_space_group_name_H-M "P -1"
_symmetry_group_IT_number 2
_symmetry_cell_setting 'triclinic'
loop_
_space_group_symop_operation_xyz
x,y,z
-x,-y,-z
loop_
_atom_site_type_symbol
_atom_site_label
_atom_site_fract_x
_atom_site_fract_y
_atom_site_fract_z
Si Si1 0.121081 0.883299 0.074754
Si Si2 0.771263 0.775813 0.073897
Si Si3 0.394366 0.389070 0.111944
Si Si4 0.730240 0.416117 0.086339
Si Si5 0.845020 0.937473 0.644700
Si Si6 0.355817 0.615639 0.623735
Si Si7 0.819708 0.546549 0.561741
Si Si8 0.546159 0.029432 0.224292
O O1 0.960577 0.885872 0.058389
O O2 0.090018 0.999231 0.236638
O O3 0.116941 0.691706 0.059035
O O4 0.312657 0.935612 0.937934
O O5 0.753411 0.600516 0.087338
O O6 0.605854 0.874435 0.215190
O O7 0.756176 0.746465 0.929244
O O8 0.540475 0.310071 0.092144
O O9 0.308486 0.500991 0.282545
O O10 0.500000 0.500000 0.000000
O O11 0.741218 0.430992 0.224587
O O12 0.813348 0.736958 0.592799
O O13 0.661849 0.010128 0.729756
O O14 0.000000 0.000000 0.500000
O O15 0.500000 0.500000 0.500000
O O16 0.221633 0.577431 0.568244
O O17 0.439151 0.810869 0.644655
O O18 0.000000 0.500000 0.500000
#
# Coordination Sequence:
#
# PCOD8020688 Si02
#       8
#     2   2   2   2   2   2   2   2
#     4  11  24  43  70 101 139 185 239 285 354 415
#     4  11  24  39  72 106 140 174 242 288 347 413
#     4  10  22  43  69 104 135 185 236 286 346 416
#     4  10  22  42  71  98 142 187 228 289 340 427
#     4  12  28  48  69 105 146 189 234 294 362 420
#     4  11  22  45  72  97 138 189 234 273 367 413
#     4  12  27  44  73 102 145 181 234 296 350 424
#     4  11  24  46  72 100 140 187 233 295 344 426
#
# _framework density 22.939591
#
# number of rings (size 3 to 8) (size 9 to 14) (size 15 to 20)
#    0.000    1.000    2.500    3.375    7.000    4.000 
#    0.000    1.250    0.000    0.000    0.000    0.000 
#    0.000    0.000    0.000    0.000    0.000    0.000 
#
# Total GULP energy -198219.422592 kJ/mol
# GULP energy per Si atom -12388.713912 kJ/mol
# Density = 2.288738 g / cm^3
# Si number density = 22.939591 Si / 1000 Ang^3
#
#
#
# Elastic Constant Matrix: (Units=GPa)
#
#
# Indices 1 2 3 4 5 6 
#
# 1 192.3553 17.7689 60.0187 -1.1733 9.4403 12.4732
# 2 17.7689 79.7251 27.6656 5.5377 0.0041 -7.9586
# 3 60.0187 27.6656 119.3568 -4.1556 23.5434 15.6757
# 4 -1.1733 5.5377 -4.1556 40.8672 4.4044 -5.6686
# 5 9.4403 0.0041 23.5434 4.4044 54.9529 12.9966
# 6 12.4732 -7.9586 15.6757 -5.6686 12.9966 31.4668
#
#
#
# Elastic Compliance Matrix: (Units=1/GPa)
#
#
# Indices 1 2 3 4 5 6 
#
# 1 0.006227 -0.000481 -0.002956 -0.000311 0.000553 -0.001402
# 2 -0.000481 0.014717 -0.004070 -0.001758 0.000705 0.005332
# 3 -0.002956 -0.004070 0.012156 0.001560 -0.003871 -0.004033
# 4 -0.000311 -0.001758 0.001560 0.026004 -0.003931 0.005209
# 5 0.000553 0.000705 -0.003871 -0.003931 0.021940 -0.007883
# 6 -0.001402 0.005332 -0.004033 0.005209 -0.007883 0.039887
#
#
# Mechanical properties :
#
#
# Convention : Reuss Voigt Hill
#
# Bulk Modulus (GPa) = 55.28925 66.92708 61.10817
# Shear Modulus (GPa) = 35.21794 44.52296 39.87045
#
# Velocity S-wave (km/s) = 3.92247 4.41032 4.17353
# Velocity P-wave (km/s) = 6.68347 7.42787 7.06548
#
# Compressibility (1/GPa) = 0.01808670
#
# Stress axis : x y z
#
# Youngs Moduli (GPa) = 160.58490 67.94853 82.26683
#
# Poissons Ratio (x) = 0.03266 0.24316
# Poissons Ratio (y) = 0.07718 0.33484
# Poissons Ratio (z) = 0.47465 0.27656
#
# Static dielectric constant tensor:
#      x y z
#    x 5.014630 0.082630 0.108240 
#    y 0.082630 4.100140 0.389830 
#    z 0.108240 0.389830 4.079270 
# 
# 
# High freq. dielectric constant tensor:
#      x y z
#    x 1.931560 -0.006790 0.004490 
#    y -0.006790 1.900650 0.021330 
#    z 0.004490 0.021330 1.899620 
# 
# From -- ./inp_files/383144.got.cif
#   From: 2010.06.25/outbox.cif.g09.slc.cpg/sg2_192_cif.got.tgz:383144.got - 2010.06.27 13:26:56.
