data_PCOD8020769
_publ_section_title
;
Structure prediction by ZEFSAII (Michael W. Deem and Ramdas Pophale) SiO2 
 PCOD8020769
Probable space group: P -1
;
_chemical_formula_sum "Si O2"
_cell_formula_units_Z 14
_cell_length_a 24.791472
_cell_length_b 7.093443
_cell_length_c 7.269578
_cell_angle_alpha 121.684517
_cell_angle_beta 48.627039
_cell_angle_gamma 133.297129
_cell_volume 692.129666
_symmetry_space_group_name_H-M "P -1"
_symmetry_group_IT_number 2
_symmetry_cell_setting 'triclinic'
loop_
_space_group_symop_operation_xyz
x,y,z
-x,-y,-z
loop_
_atom_site_type_symbol
_atom_site_label
_atom_site_fract_x
_atom_site_fract_y
_atom_site_fract_z
Si Si1 0.324514 0.386605 0.021744
Si Si2 0.469589 0.887958 0.806353
Si Si3 0.888271 0.429088 0.599630
Si Si4 0.033868 0.896485 0.714317
Si Si5 0.767436 0.182933 0.084563
Si Si6 0.180973 0.431192 0.513569
Si Si7 0.587973 0.889069 0.247774
O O1 0.272332 0.460469 0.313576
O O2 0.377347 0.621176 0.880248
O O3 0.257193 0.106263 0.933044
O O4 0.393693 0.343451 0.950476
O O5 0.460969 0.095911 0.810513
O O6 0.534881 0.832098 0.527225
O O7 0.500000 0.000000 0.000000
O O8 0.933018 0.275469 0.352269
O O9 0.833086 0.448574 0.575178
O O10 0.958558 0.720396 0.652697
O O11 0.827064 0.258666 0.814163
O O12 0.107259 0.133092 0.553391
O O13 0.000000 0.000000 0.000000
O O14 0.818644 0.400140 0.231832
O O15 0.679218 0.159298 0.212956
#
# Coordination Sequence:
#
# PCOD8020769 Si02
#       7
#     2   2   2   2   2   2   2
#     4  10  23  41  63  91 127 160 206 255 305 369
#     4  11  21  40  67  91 121 166 206 248 309 368
#     4  11  24  42  63  93 128 158 214 258 297 375
#     4  11  23  43  65  91 127 164 206 259 310 362
#     4  10  22  43  59  92 129 157 208 253 303 373
#     4  12  23  42  66  91 121 172 205 250 318 361
#     4   9  22  41  59  92 128 155 201 263 296 361
#
# _framework density 20.227425
#
# number of rings (size 3 to 8) (size 9 to 14) (size 15 to 20)
#    0.857    0.571    2.857    2.571    0.000    2.286 
#    2.571    4.286    0.000    0.000    0.000    0.000 
#    0.000    0.000    0.000    0.000    0.000    0.000 
#
# Total GULP energy -173511.452548 kJ/mol
# GULP energy per Si atom -12393.675182 kJ/mol
# Density = 2.018139 g / cm^3
# Si number density = 20.227425 Si / 1000 Ang^3
#
#
#
# Elastic Constant Matrix: (Units=GPa)
#
#
# Indices 1 2 3 4 5 6 
#
# 1 77.5479 26.4175 59.6581 2.4253 0.5833 -10.6086
# 2 26.4175 92.0091 46.8767 -3.5909 2.0740 5.2164
# 3 59.6581 46.8767 134.5938 0.5810 -11.9471 -10.9706
# 4 2.4253 -3.5909 0.5810 31.9236 4.5878 -10.2999
# 5 0.5833 2.0740 -11.9471 4.5878 36.3540 -1.0883
# 6 -10.6086 5.2164 -10.9706 -10.2999 -1.0883 36.6072
#
#
#
# Elastic Compliance Matrix: (Units=1/GPa)
#
#
# Indices 1 2 3 4 5 6 
#
# 1 0.020491 -0.001714 -0.008453 -0.000033 -0.002898 0.003554
# 2 -0.001714 0.014040 -0.004661 0.000966 -0.002538 -0.003698
# 3 -0.008453 -0.004661 0.013427 -0.000067 0.004893 0.002365
# 4 -0.000033 0.000966 -0.000067 0.035140 -0.004224 0.009594
# 5 -0.002898 -0.002538 0.004893 -0.004224 0.029860 0.000687
# 6 0.003554 -0.003698 0.002365 0.009594 0.000687 0.032303
#
#
# Mechanical properties :
#
#
# Convention : Reuss Voigt Hill
#
# Bulk Modulus (GPa) = 54.63858 63.33947 58.98902
# Shear Modulus (GPa) = 27.62158 32.39021 30.00590
#
# Velocity S-wave (km/s) = 3.69935 4.00597 3.85571
# Velocity P-wave (km/s) = 6.73184 7.26489 7.00344
#
# Compressibility (1/GPa) = 0.01830209
#
# Stress axis : x y z
#
# Youngs Moduli (GPa) = 48.80141 71.22599 74.47517
#
# Poissons Ratio (x) = 0.12209 0.62955
# Poissons Ratio (y) = 0.08365 0.34712
# Poissons Ratio (z) = 0.41252 0.33198
#
# Static dielectric constant tensor:
#      x y z
#    x 3.535330 0.059340 -0.339260 
#    y 0.059340 3.769910 -0.028500 
#    z -0.339260 -0.028500 3.581980 
# 
# 
# High freq. dielectric constant tensor:
#      x y z
#    x 1.776550 0.005340 -0.027850 
#    y 0.005340 1.798070 -0.004870 
#    z -0.027850 -0.004870 1.791470 
# 
# From -- ./inp_files/125906.got.cif
#   From: 2010.06.25/outbox.cif.g09.slc.cpg/sg2_63_cif.got.tgz:125906.got - 2010.06.27 13:26:56.
