data_PCOD8020771
_publ_section_title
;
Structure prediction by ZEFSAII (Michael W. Deem and Ramdas Pophale) SiO2 
 PCOD8020771
Probable space group: P -1
;
_chemical_formula_sum "Si O2"
_cell_formula_units_Z 16
_cell_length_a 13.617630
_cell_length_b 11.455482
_cell_length_c 13.469468
_cell_angle_alpha 149.813168
_cell_angle_beta 54.630720
_cell_angle_gamma 108.327819
_cell_volume 767.897049
_symmetry_space_group_name_H-M "P -1"
_symmetry_group_IT_number 2
_symmetry_cell_setting 'triclinic'
loop_
_space_group_symop_operation_xyz
x,y,z
-x,-y,-z
loop_
_atom_site_type_symbol
_atom_site_label
_atom_site_fract_x
_atom_site_fract_y
_atom_site_fract_z
Si Si1 0.590448 0.737824 0.970653
Si Si2 0.625871 0.219663 0.234995
Si Si3 0.708003 0.995422 0.635827
Si Si4 0.666923 0.252393 0.446041
Si Si5 0.269184 0.277328 0.917653
Si Si6 0.362339 0.353770 0.717657
Si Si7 0.197539 0.916131 0.164098
Si Si8 0.079740 0.850721 0.440001
O O1 0.681446 0.482135 0.663921
O O2 0.653727 0.698753 0.013081
O O3 0.579863 0.993880 0.110026
O O4 0.440769 0.759205 0.083331
O O5 0.500000 0.500000 0.500000
O O6 0.710677 0.237993 0.294285
O O7 0.722935 0.134227 0.020974
O O8 0.691332 0.761316 0.423742
O O9 0.775875 0.899028 0.635123
O O10 0.794293 0.083008 0.573480
O O11 0.512518 0.299345 0.563273
O O12 0.759023 0.974380 0.240164
O O13 0.364608 0.226909 0.729366
O O14 0.129959 0.539926 0.179326
O O15 0.254286 0.655149 0.006537
O O16 0.036710 0.031873 0.319843
O O17 0.000000 0.000000 0.500000
#
# Coordination Sequence:
#
# PCOD8020771 Si02
#       8
#     2   2   2   2   2   2   2   2
#     4  11  23  39  64  97 124 162 205 256 325 355
#     4  11  21  41  65  92 126 162 208 261 300 367
#     4  11  21  37  61  94 124 159 202 253 316 367
#     4  11  23  38  59  96 127 159 203 256 317 367
#     4  11  23  39  62  91 130 161 200 263 309 376
#     4  12  21  37  60  96 126 157 199 259 314 369
#     4  11  23  42  61  89 130 164 206 253 309 368
#     4  10  22  43  60  87 127 169 205 250 310 372
#
# _framework density 20.836126
#
# number of rings (size 3 to 8) (size 9 to 14) (size 15 to 20)
#    0.000    1.000    7.500    0.375    1.750    4.500 
#    0.000    2.500    0.000    1.500    0.000    0.000 
#    0.000    0.000    0.000    0.000    0.000    0.000 
#
# Total GULP energy -198308.942379 kJ/mol
# GULP energy per Si atom -12394.308899 kJ/mol
# Density = 2.078870 g / cm^3
# Si number density = 20.836126 Si / 1000 Ang^3
#
#
#
# Elastic Constant Matrix: (Units=GPa)
#
#
# Indices 1 2 3 4 5 6 
#
# 1 62.0044 37.7640 37.1828 -8.8436 17.7237 -6.4037
# 2 37.7640 114.8410 57.7333 -8.3447 5.2997 -18.7512
# 3 37.1828 57.7333 117.4526 1.4617 -4.5127 2.4542
# 4 -8.8436 -8.3447 1.4617 48.7146 -4.1462 2.3108
# 5 17.7237 5.2997 -4.5127 -4.1462 40.9868 -4.6337
# 6 -6.4037 -18.7512 2.4542 2.3108 -4.6337 26.2687
#
#
#
# Elastic Compliance Matrix: (Units=1/GPa)
#
#
# Indices 1 2 3 4 5 6 
#
# 1 0.026712 -0.004279 -0.006863 0.003281 -0.011215 0.001832
# 2 -0.004279 0.015001 -0.006231 0.001541 0.000534 0.010206
# 3 -0.006863 -0.006231 0.014079 -0.002055 0.004383 -0.006482
# 4 0.003281 0.001541 -0.002055 0.021467 0.000357 0.000267
# 5 -0.011215 0.000534 0.004383 0.000357 0.029979 0.002495
# 6 0.001832 0.010206 -0.006482 0.000267 0.002495 0.046822
#
#
# Mechanical properties :
#
#
# Convention : Reuss Voigt Hill
#
# Bulk Modulus (GPa) = 47.51403 62.18426 54.84915
# Shear Modulus (GPa) = 25.53338 33.96855 29.75096
#
# Velocity S-wave (km/s) = 3.50442 4.04204 3.78280
# Velocity P-wave (km/s) = 6.26321 7.18981 6.74245
#
# Compressibility (1/GPa) = 0.02104642
#
# Stress axis : x y z
#
# Youngs Moduli (GPa) = 37.43575 66.66289 71.02697
#
# Poissons Ratio (x) = 0.28522 0.48749
# Poissons Ratio (y) = 0.16017 0.44257
# Poissons Ratio (z) = 0.25694 0.41538
#
# Static dielectric constant tensor:
#      x y z
#    x 3.658270 -0.026830 0.019320 
#    y -0.026830 3.946660 -0.079310 
#    z 0.019320 -0.079310 4.252490 
# 
# 
# High freq. dielectric constant tensor:
#      x y z
#    x 1.792720 -0.014330 0.017630 
#    y -0.014330 1.807180 -0.000580 
#    z 0.017630 -0.000580 1.828470 
# 
# From -- ./inp_files/532785.got.cif
#   From: 2010.06.25/outbox.cif.g09.slc.cpg/sg2_267_cif.got.tgz:532785.got - 2010.06.27 13:26:56.
