data_PCOD8020158
_publ_section_title
;
Structure prediction by ZEFSAII (Michael W. Deem and Ramdas Pophale) SiO2 
 PCOD8020158
Probable space group: P -1
;
_chemical_formula_sum "Si O2"
_cell_formula_units_Z 16
_cell_length_a 13.972104
_cell_length_b 14.809455
_cell_length_c 11.621129
_cell_angle_alpha 49.135969
_cell_angle_beta 40.679402
_cell_angle_gamma 28.407896
_cell_volume 745.051241
_symmetry_space_group_name_H-M "P -1"
_symmetry_group_IT_number 2
_symmetry_cell_setting 'triclinic'
loop_
_space_group_symop_operation_xyz
x,y,z
-x,-y,-z
loop_
_atom_site_type_symbol
_atom_site_label
_atom_site_fract_x
_atom_site_fract_y
_atom_site_fract_z
Si Si1 0.630176 0.514296 0.559359
Si Si2 0.524642 0.763409 0.264765
Si Si3 0.863054 0.859807 0.585777
Si Si4 0.874566 0.704421 0.919784
Si Si5 0.271868 0.539675 0.833433
Si Si6 0.273494 0.070500 0.609729
Si Si7 0.417965 0.717532 0.815186
Si Si8 0.191951 0.610851 0.105844
O O1 0.676648 0.587328 0.361844
O O2 0.412310 0.573881 0.665998
O O3 0.578077 0.610877 0.645620
O O4 0.860959 0.286708 0.556039
O O5 0.552169 0.677284 0.189255
O O6 0.261605 0.947478 0.398974
O O7 0.623972 0.836663 0.099268
O O8 0.835974 0.760436 0.774485
O O9 0.748844 0.908205 0.525617
O O10 0.034780 0.703438 0.836728
O O11 0.000000 0.500000 0.000000
O O12 0.184932 0.569189 0.016661
O O13 0.047089 0.271962 0.708869
O O14 0.500000 0.000000 0.500000
O O15 0.286391 0.926502 0.762487
O O16 0.589540 0.598170 0.866312
O O17 0.229807 0.729786 0.979274
#
# Coordination Sequence:
#
# PCOD8020158 Si02
#       8
#     2   2   2   2   2   2   2   2
#     4  11  21  43  68  93 134 167 218 268 319 387
#     4  11  23  42  67  91 135 173 212 265 321 388
#     4  12  24  42  69  94 129 174 214 264 336 371
#     4  10  22  42  66  88 132 177 205 267 322 386
#     4  10  23  41  65 101 130 170 216 264 319 384
#     4  12  27  43  68 102 130 167 224 274 319 396
#     4  10  22  46  68  95 129 179 214 268 333 380
#     4  10  23  44  71  92 135 173 217 268 326 388
#
# _framework density 21.475034000000001
#
# number of rings (size 3 to 8) (size 9 to 14) (size 15 to 20)
#    0.000    1.250    5.000    1.125    1.750    3.000 
#    2.250    0.000    0.000    0.000    0.000    0.000 
#    0.000    0.000    0.000    0.000    0.000    0.000 
#
# Total GULP energy -198313.882074 kJ/mol
# GULP energy per Si atom -12394.617630 kJ/mol
# Density = 2.142616 g / cm^3
# Si number density = 21.475034 Si / 1000 Ang^3
#
#
#
# Elastic Constant Matrix: (Units=GPa)
#
#
# Indices 1 2 3 4 5 6 
#
# 1 96.7074 23.0750 55.5769 -3.7146 15.7970 -8.3263
# 2 23.0750 89.3618 23.1488 4.0958 13.4679 0.0456
# 3 55.5769 23.1488 103.4380 -0.1623 16.6694 -7.0204
# 4 -3.7146 4.0958 -0.1623 44.1861 -1.4993 10.8416
# 5 15.7970 13.4679 16.6694 -1.4993 36.8359 4.5985
# 6 -8.3263 0.0456 -7.0204 10.8416 4.5985 24.2955
#
#
#
# Elastic Compliance Matrix: (Units=1/GPa)
#
#
# Indices 1 2 3 4 5 6 
#
# 1 0.015848 -0.001715 -0.007346 0.000434 -0.003295 0.003742
# 2 -0.001715 0.012551 -0.001329 -0.001502 -0.003352 0.000310
# 3 -0.007346 -0.001329 0.014660 -0.001277 -0.003417 0.002938
# 4 0.000434 -0.001502 -0.001277 0.025987 0.003558 -0.012487
# 5 -0.003295 -0.003352 -0.003417 0.003558 0.032712 -0.009889
# 6 0.003742 0.000310 0.002938 -0.012487 -0.009889 0.050735
#
#
# Mechanical properties :
#
#
# Convention : Reuss Voigt Hill
#
# Bulk Modulus (GPa) = 44.88155 54.78985 49.83570
# Shear Modulus (GPa) = 27.67040 33.57724 30.62382
#
# Velocity S-wave (km/s) = 3.59345 3.95846 3.78036
# Velocity P-wave (km/s) = 6.17754 6.81625 6.50474
#
# Compressibility (1/GPa) = 0.02228087
#
# Stress axis : x y z
#
# Youngs Moduli (GPa) = 63.09848 79.67272 68.21318
#
# Poissons Ratio (x) = 0.13661 0.50109
# Poissons Ratio (y) = 0.10819 0.09064
# Poissons Ratio (z) = 0.46351 0.10587
#
# Static dielectric constant tensor:
#      x y z
#    x 3.946420 -0.217880 -0.078870 
#    y -0.217880 3.860190 0.228080 
#    z -0.078870 0.228080 4.323890 
# 
# 
# High freq. dielectric constant tensor:
#      x y z
#    x 1.828150 -0.012800 0.011980 
#    y -0.012800 1.838460 0.012970 
#    z 0.011980 0.012970 1.860100 
# 
# From -- ./inp_files/416078.got.cif
#   From: 2010.06.25/outbox.cif.g09.slc.cpg/sg2_209_cif.got.tgz:416078.got - 2010.06.27 13:26:56.
