data_PCOD8020442
_publ_section_title
;
Structure prediction by ZEFSAII (Michael W. Deem and Ramdas Pophale) SiO2 
 PCOD8020442
Probable space group: P -1
;
_chemical_formula_sum "Si O2"
_cell_formula_units_Z 14
_cell_length_a 24.160406
_cell_length_b 28.973896
_cell_length_c 14.893492
_cell_angle_alpha 158.640601
_cell_angle_beta 156.750689
_cell_angle_gamma 10.150525
_cell_volume 668.861251
_symmetry_space_group_name_H-M "P -1"
_symmetry_group_IT_number 2
_symmetry_cell_setting 'triclinic'
loop_
_space_group_symop_operation_xyz
x,y,z
-x,-y,-z
loop_
_atom_site_type_symbol
_atom_site_label
_atom_site_fract_x
_atom_site_fract_y
_atom_site_fract_z
Si Si1 0.335167 0.662952 0.385253
Si Si2 0.339682 0.659445 0.904377
Si Si3 0.028916 0.255079 0.927018
Si Si4 0.669743 0.549449 0.343840
Si Si5 0.387981 0.311262 0.119542
Si Si6 0.242947 0.106472 0.783073
Si Si7 0.225949 0.286032 0.662312
O O1 0.489613 0.516472 0.252253
O O2 0.548269 0.589940 0.625540
O O3 0.000000 0.000000 0.500000
O O4 0.277416 0.573477 0.183191
O O5 0.287263 0.577639 0.738037
O O6 0.588885 0.545633 0.123092
O O7 0.000000 0.000000 0.000000
O O8 0.961918 0.458164 0.213836
O O9 0.065589 0.199235 0.775305
O O10 0.361819 0.949331 0.912044
O O11 0.991546 0.365890 0.487611
O O12 0.378130 0.879417 0.520080
O O13 0.030558 0.600858 0.152088
O O14 0.396333 0.220773 0.879016
O O15 0.500000 0.000000 0.000000
O O16 0.500000 0.000000 0.500000
#
# Coordination Sequence:
#
# PCOD8020442 Si02
#       7
#     2   2   2   2   2   2   2
#     4  10  22  43  68 100 124 167 229 267 324 385
#     4  11  26  45  69  95 129 179 217 272 332 384
#     4  10  23  42  68  98 130 170 219 274 317 389
#     4  11  24  45  65  95 138 165 218 273 319 402
#     4  10  22  42  68  95 127 171 214 272 322 379
#     4  11  21  43  62 100 132 167 216 260 333 390
#     4  11  26  42  62  99 133 177 214 260 334 387
#
# _framework density 20.931097000000001
#
# number of rings (size 3 to 8) (size 9 to 14) (size 15 to 20)
#    0.000    1.429    2.857    2.571    6.000    4.571 
#    2.571    0.000    0.000    0.000    0.000    0.000 
#    0.000    0.000    0.000    0.000    0.000    0.000 
#
# Total GULP energy -173455.297373 kJ/mol
# GULP energy per Si atom -12389.664098 kJ/mol
# Density = 2.088346 g / cm^3
# Si number density = 20.931097 Si / 1000 Ang^3
#
#
#
# Elastic Constant Matrix: (Units=GPa)
#
#
# Indices 1 2 3 4 5 6 
#
# 1 96.8655 48.1851 59.6548 -3.9508 3.1713 -16.6052
# 2 48.1851 142.5158 59.7154 13.9525 -4.6222 -6.8172
# 3 59.6548 59.7154 154.8890 -6.4890 -1.7260 -18.7934
# 4 -3.9508 13.9525 -6.4890 50.0951 -4.3475 -0.9184
# 5 3.1713 -4.6222 -1.7260 -4.3475 36.2013 5.7241
# 6 -16.6052 -6.8172 -18.7934 -0.9184 5.7241 38.8390
#
#
#
# Elastic Compliance Matrix: (Units=1/GPa)
#
#
# Indices 1 2 3 4 5 6 
#
# 1 0.015480 -0.003577 -0.004004 0.001561 -0.002522 0.004461
# 2 -0.003577 0.009611 -0.002614 -0.003215 0.001246 -0.001367
# 3 -0.004004 -0.002614 0.009367 0.001694 0.000294 0.002358
# 4 0.001561 -0.003215 0.001694 0.021388 0.001921 0.001146
# 5 -0.002522 0.001246 0.000294 0.001921 0.029031 -0.004950
# 6 0.004461 -0.001367 0.002358 0.001146 -0.004950 0.029313
#
#
# Mechanical properties :
#
#
# Convention : Reuss Voigt Hill
#
# Bulk Modulus (GPa) = 71.09151 81.04233 76.06692
# Shear Modulus (GPa) = 35.90134 40.14141 38.02138
#
# Velocity S-wave (km/s) = 4.14601 4.38401 4.26667
# Velocity P-wave (km/s) = 7.54702 8.02675 7.79058
#
# Compressibility (1/GPa) = 0.01406638
#
# Stress axis : x y z
#
# Youngs Moduli (GPa) = 64.59860 104.04208 106.75942
#
# Poissons Ratio (x) = 0.37219 0.42750
# Poissons Ratio (y) = 0.23109 0.27912
# Poissons Ratio (z) = 0.25867 0.27201
#
# Static dielectric constant tensor:
#      x y z
#    x 3.865950 -0.220470 0.217480 
#    y -0.220470 5.295450 0.238750 
#    z 0.217480 0.238750 4.447220 
# 
# 
# High freq. dielectric constant tensor:
#      x y z
#    x 1.802230 -0.000540 0.006240 
#    y -0.000540 1.841360 -0.001220 
#    z 0.006240 -0.001220 1.839260 
# 
# From -- ./inp_files/543487.got.cif
#   From: 2010.06.25/outbox.cif.g09.slc.cpg/sg2_272_cif.got.tgz:543487.got - 2010.06.27 13:26:56.
