data_PCOD8020061
_publ_section_title
;
Structure prediction by ZEFSAII (Michael W. Deem and Ramdas Pophale) SiO2 
 PCOD8020061
Probable space group: P -1
;
_chemical_formula_sum "Si O2"
_cell_formula_units_Z 14
_cell_length_a 15.494155
_cell_length_b 7.101042
_cell_length_c 15.117648
_cell_angle_alpha 87.746021
_cell_angle_beta 27.020302
_cell_angle_gamma 73.863005
_cell_volume 637.887012
_symmetry_space_group_name_H-M "P -1"
_symmetry_group_IT_number 2
_symmetry_cell_setting 'triclinic'
loop_
_space_group_symop_operation_xyz
x,y,z
-x,-y,-z
loop_
_atom_site_type_symbol
_atom_site_label
_atom_site_fract_x
_atom_site_fract_y
_atom_site_fract_z
Si Si1 0.633127 0.598142 0.832235
Si Si2 0.019167 0.952358 0.133275
Si Si3 0.271495 0.149586 0.495748
Si Si4 0.171843 0.681992 0.836248
Si Si5 0.981257 0.581853 0.647220
Si Si6 0.324623 0.985709 0.981047
Si Si7 0.424196 0.240196 0.527945
O O1 0.767745 0.644798 0.781174
O O2 0.814170 0.433513 0.595872
O O3 0.441540 0.831430 0.961714
O O4 0.500000 0.500000 0.000000
O O5 0.809363 0.005559 0.385980
O O6 0.044231 0.761703 0.045538
O O7 0.978192 0.165561 0.111753
O O8 0.237158 0.869087 0.996688
O O9 0.329628 0.271757 0.515319
O O10 0.072745 0.344348 0.614492
O O11 0.490207 0.986816 0.240005
O O12 0.240252 0.429846 0.759092
O O13 0.374664 0.720257 0.660399
O O14 0.891694 0.777619 0.797430
O O15 0.500000 0.000000 0.500000
#
# Coordination Sequence:
#
# PCOD8020061 Si02
#       7
#     2   2   2   2   2   2   2
#     4  10  22  42  65  90 123 157 202 254 312 379
#     4  11  22  41  59  92 124 166 216 261 318 373
#     4  11  23  39  61  90 125 163 209 257 317 374
#     4  10  23  39  62  87 129 166 218 273 307 376
#     4  10  23  41  62  93 122 160 203 254 314 379
#     4  11  23  40  63  91 127 157 208 258 309 386
#     4  11  21  41  61  89 125 172 214 264 322 369
#
# _framework density 21.947461000000001
#
# number of rings (size 3 to 8) (size 9 to 14) (size 15 to 20)
#    0.000    1.429    2.857    2.143    0.000    3.429 
#    0.000    0.000    0.000    0.000    0.000    0.000 
#    0.000    0.000    0.000    0.000    0.000    0.000 
#
# Total GULP energy -173600.035216 kJ/mol
# GULP energy per Si atom -12400.002515 kJ/mol
# Density = 2.189751 g / cm^3
# Si number density = 21.947461 Si / 1000 Ang^3
#
#
#
# Elastic Constant Matrix: (Units=GPa)
#
#
# Indices 1 2 3 4 5 6 
#
# 1 110.0600 28.1010 21.1445 8.2886 -2.9454 -14.0607
# 2 28.1010 89.5172 43.9994 12.3367 20.3620 4.1694
# 3 21.1445 43.9994 124.1219 -0.5058 23.4428 -2.7908
# 4 8.2886 12.3367 -0.5058 38.4737 -2.1550 5.1684
# 5 -2.9454 20.3620 23.4428 -2.1550 37.1795 2.7265
# 6 -14.0607 4.1694 -2.7908 5.1684 2.7265 21.8993
#
#
#
# Elastic Compliance Matrix: (Units=1/GPa)
#
#
# Indices 1 2 3 4 5 6 
#
# 1 0.011557 -0.003901 -0.000965 -0.002188 0.002933 0.008191
# 2 -0.003901 0.016778 -0.004105 -0.004395 -0.006846 -0.004333
# 3 -0.000965 -0.004105 0.010584 0.001165 -0.004566 0.001805
# 4 -0.002188 -0.004395 0.001165 0.029141 0.003758 -0.007765
# 5 0.002933 -0.006846 -0.004566 0.003758 0.034161 -0.002535
# 6 0.008191 -0.004333 0.001805 -0.007765 -0.002535 0.054126
#
#
# Mechanical properties :
#
#
# Convention : Reuss Voigt Hill
#
# Bulk Modulus (GPa) = 47.67015 56.68766 52.17891
# Shear Modulus (GPa) = 27.58132 34.87411 31.22772
#
# Velocity S-wave (km/s) = 3.54884 3.99053 3.77615
# Velocity P-wave (km/s) = 6.20964 6.86420 6.54511
#
# Compressibility (1/GPa) = 0.02097749
#
# Stress axis : x y z
#
# Youngs Moduli (GPa) = 86.52780 59.60079 94.48252
#
# Poissons Ratio (x) = 0.23250 0.09114
# Poissons Ratio (y) = 0.33754 0.38789
# Poissons Ratio (z) = 0.08346 0.24468
#
# Static dielectric constant tensor:
#      x y z
#    x 4.223110 -0.100770 0.097490 
#    y -0.100770 3.671890 0.073430 
#    z 0.097490 0.073430 4.284740 
# 
# 
# High freq. dielectric constant tensor:
#      x y z
#    x 1.879140 -0.010890 -0.003380 
#    y -0.010890 1.833940 -0.002890 
#    z -0.003380 -0.002890 1.879980 
# 
# From -- ./inp_files/525660.got.cif
#   From: 2010.06.25/outbox.cif.g09.slc.cpg/sg2_263_cif.got.tgz:525660.got - 2010.06.27 13:26:56.
