data_PCOD8020172
_publ_section_title
;
Structure prediction by ZEFSAII (Michael W. Deem and Ramdas Pophale) SiO2 
 PCOD8020172
Probable space group: P -1
;
_chemical_formula_sum "Si O2"
_cell_formula_units_Z 16
_cell_length_a 30.929131
_cell_length_b 12.301365
_cell_length_c 18.354461
_cell_angle_alpha 150.910929
_cell_angle_beta 20.017419
_cell_angle_gamma 161.106290
_cell_volume 766.839606
_symmetry_space_group_name_H-M "P -1"
_symmetry_group_IT_number 2
_symmetry_cell_setting 'triclinic'
loop_
_space_group_symop_operation_xyz
x,y,z
-x,-y,-z
loop_
_atom_site_type_symbol
_atom_site_label
_atom_site_fract_x
_atom_site_fract_y
_atom_site_fract_z
Si Si1 0.100346 0.075446 0.657127
Si Si2 0.084706 0.713208 0.918515
Si Si3 0.954393 0.703203 0.814123
Si Si4 0.595734 0.493797 0.781222
Si Si5 0.047187 0.791341 0.427735
Si Si6 0.287109 0.226981 0.707519
Si Si7 0.788239 0.336006 0.441490
Si Si8 0.509997 0.748852 0.348321
O O1 0.327829 0.397902 0.472309
O O2 0.995991 0.867394 0.625025
O O3 0.038352 0.816109 0.665115
O O4 0.028975 0.217764 0.883207
O O5 0.057640 0.490563 0.766984
O O6 0.307036 0.070970 0.788313
O O7 0.000000 0.500000 0.000000
O O8 0.880022 0.356251 0.748435
O O9 0.771423 0.625074 0.069072
O O10 0.134545 0.007581 0.756194
O O11 0.621032 0.273560 0.640564
O O12 0.472067 0.333220 0.809109
O O13 0.798828 0.877099 0.670175
O O14 0.500000 0.500000 0.000000
O O15 0.865032 0.531093 0.510693
O O16 0.500000 0.500000 0.500000
O O17 0.284468 0.013687 0.640618
O O18 0.500000 0.000000 0.500000
#
# Coordination Sequence:
#
# PCOD8020172 Si02
#       8
#     2   2   2   2   2   2   2   2
#     4  11  23  41  66  91 128 168 207 261 314 378
#     4  12  23  39  65  92 126 165 210 261 313 366
#     4  10  22  42  66  92 124 171 209 255 320 368
#     4  11  25  39  63  91 127 169 202 263 322 372
#     4  10  24  43  61  92 130 163 213 257 314 386
#     4  10  23  40  65  98 127 159 213 265 305 374
#     4  11  23  42  63  95 123 167 212 256 320 370
#     4  11  23  41  59  97 125 161 216 259 308 379
#
# _framework density 20.864858000000002
#
# number of rings (size 3 to 8) (size 9 to 14) (size 15 to 20)
#    0.000    1.250    3.750    1.500    7.000    0.000 
#    0.000    0.000    0.000    4.500    0.000    0.000 
#    0.000    0.000    0.000    0.000    0.000    0.000 
#
# Total GULP energy -198342.365045 kJ/mol
# GULP energy per Si atom -12396.397815 kJ/mol
# Density = 2.081737 g / cm^3
# Si number density = 20.864858 Si / 1000 Ang^3
#
#
#
# Elastic Constant Matrix: (Units=GPa)
#
#
# Indices 1 2 3 4 5 6 
#
# 1 100.8757 17.4853 38.7641 -4.1143 14.6098 -5.9396
# 2 17.4853 45.6194 18.5297 -0.1394 -1.0286 -0.0800
# 3 38.7641 18.5297 114.0685 1.9839 13.1412 -0.6435
# 4 -4.1143 -0.1394 1.9839 31.5388 0.6356 -0.9089
# 5 14.6098 -1.0286 13.1412 0.6356 40.0125 6.9242
# 6 -5.9396 -0.0800 -0.6435 -0.9089 6.9242 35.5071
#
#
#
# Elastic Compliance Matrix: (Units=1/GPa)
#
#
# Indices 1 2 3 4 5 6 
#
# 1 0.012646 -0.003611 -0.003248 0.002006 -0.004180 0.002915
# 2 -0.003611 0.024653 -0.003149 -0.000264 0.003205 -0.001237
# 3 -0.003248 -0.003149 0.010677 -0.001058 -0.002399 0.000084
# 4 0.002006 -0.000264 -0.001058 0.032096 -0.001137 0.001359
# 5 -0.004180 0.003205 -0.002399 -0.001137 0.028501 -0.006323
# 6 0.002915 -0.001237 0.000084 0.001359 -0.006323 0.029917
#
#
# Mechanical properties :
#
#
# Convention : Reuss Voigt Hill
#
# Bulk Modulus (GPa) = 35.76494 45.56909 40.66702
# Shear Modulus (GPa) = 29.79263 33.79730 31.79497
#
# Velocity S-wave (km/s) = 3.78284 4.02906 3.90789
# Velocity P-wave (km/s) = 6.02148 6.59788 6.31626
#
# Compressibility (1/GPa) = 0.02796034
#
# Stress axis : x y z
#
# Youngs Moduli (GPa) = 79.07653 40.56319 93.65694
#
# Poissons Ratio (x) = 0.14647 0.30418
# Poissons Ratio (y) = 0.28553 0.29495
# Poissons Ratio (z) = 0.25683 0.12774
#
# Static dielectric constant tensor:
#      x y z
#    x 3.621080 0.636480 0.995280 
#    y 0.636480 3.234170 -0.735420 
#    z 0.995280 -0.735420 2.958260 
# 
# 
# High freq. dielectric constant tensor:
#      x y z
#    x 1.835290 -0.008170 0.013370 
#    y -0.008170 1.806620 0.013340 
#    z 0.013370 0.013340 1.812060 
# 
# From -- ./inp_files/272605.got.cif
#   From: 2010.06.25/outbox.cif.g09.slc.cpg/sg2_137_cif.got.tgz:272605.got - 2010.06.27 13:26:56.
