data_PCOD8020402
_publ_section_title
;
Structure prediction by ZEFSAII (Michael W. Deem and Ramdas Pophale) SiO2 
 PCOD8020402
Probable space group: P -1
;
_chemical_formula_sum "Si O2"
_cell_formula_units_Z 16
_cell_length_a 9.729812
_cell_length_b 12.719846
_cell_length_c 11.586053
_cell_angle_alpha 104.451733
_cell_angle_beta 40.256635
_cell_angle_gamma 127.230091
_cell_volume 672.137516
_symmetry_space_group_name_H-M "P -1"
_symmetry_group_IT_number 2
_symmetry_cell_setting 'triclinic'
loop_
_space_group_symop_operation_xyz
x,y,z
-x,-y,-z
loop_
_atom_site_type_symbol
_atom_site_label
_atom_site_fract_x
_atom_site_fract_y
_atom_site_fract_z
Si Si1 0.157579 0.150498 0.662295
Si Si2 0.676802 0.358473 0.670904
Si Si3 0.696959 0.355302 0.919482
Si Si4 0.328590 0.544934 0.661407
Si Si5 0.616605 0.935197 0.341117
Si Si6 0.695318 0.557494 0.105521
Si Si7 0.182834 0.855323 0.923881
Si Si8 0.387834 0.061450 0.162756
O O1 0.469692 0.285059 0.452750
O O2 0.165599 0.044512 0.704067
O O3 0.955022 0.057939 0.656118
O O4 0.013170 0.192548 0.849429
O O5 0.607549 0.301742 0.830719
O O6 0.616166 0.234265 0.593861
O O7 0.503268 0.403696 0.746702
O O8 0.000000 0.500000 0.500000
O O9 0.031380 0.451585 0.758040
O O10 0.609295 0.450995 0.025525
O O11 0.506554 0.213782 0.080567
O O12 0.500000 0.500000 0.500000
O O13 0.294032 0.521067 0.813963
O O14 0.500000 0.000000 0.500000
O O15 0.786031 0.028074 0.143199
O O16 0.019104 0.706676 0.917102
O O17 0.496079 0.917518 0.775700
O O18 0.500000 0.000000 0.000000
#
# Coordination Sequence:
#
# PCOD8020402 Si02
#       8
#     2   2   2   2   2   2   2   2
#     4  11  23  44  73 103 140 188 236 296 364 432
#     4  12  27  48  70 106 145 189 244 306 367 432
#     4  12  26  44  73 104 146 191 248 296 363 439
#     4  12  22  45  71 106 144 190 240 295 365 433
#     4  12  28  46  74 104 144 194 240 300 370 442
#     4  12  26  44  75 105 142 196 242 299 364 442
#     4  11  23  44  73 100 143 186 243 292 368 432
#     4  10  22  42  68 104 132 183 234 293 355 426
#
# _framework density 23.804652000000001
#
# number of rings (size 3 to 8) (size 9 to 14) (size 15 to 20)
#    0.000    0.500    3.750    4.875    5.250    2.000 
#    0.000    1.250    0.000    0.000    0.000    0.000 
#    0.000    0.000    0.000    0.000    0.000    0.000 
#
# Total GULP energy -198353.684780 kJ/mol
# GULP energy per Si atom -12397.105299 kJ/mol
# Density = 2.375047 g / cm^3
# Si number density = 23.804652 Si / 1000 Ang^3
#
#
#
# Elastic Constant Matrix: (Units=GPa)
#
#
# Indices 1 2 3 4 5 6 
#
# 1 146.3991 37.7179 21.0482 -15.0599 0.9528 -0.0926
# 2 37.7179 153.5051 28.1535 -2.1719 -7.8597 5.1072
# 3 21.0482 28.1535 50.8080 -22.2196 -4.6506 1.3844
# 4 -15.0599 -2.1719 -22.2196 47.2265 0.5706 1.8798
# 5 0.9528 -7.8597 -4.6506 0.5706 31.1069 -12.6935
# 6 -0.0926 5.1072 1.3844 1.8798 -12.6935 34.2851
#
#
#
# Elastic Compliance Matrix: (Units=1/GPa)
#
#
# Indices 1 2 3 4 5 6 
#
# 1 0.007653 -0.001597 -0.001673 0.001596 -0.000966 -0.000119
# 2 -0.001597 0.007780 -0.004524 -0.002278 0.001214 -0.000406
# 3 -0.001673 -0.004524 0.028725 0.012742 0.002926 -0.000106
# 4 0.001596 -0.002278 0.012742 0.027638 0.000101 -0.001649
# 5 -0.000966 0.001214 0.002926 0.000101 0.038630 0.013995
# 6 -0.000119 -0.000406 -0.000106 -0.001649 0.013995 0.034504
#
#
# Mechanical properties :
#
#
# Convention : Reuss Voigt Hill
#
# Bulk Modulus (GPa) = 34.99973 58.28350 46.64161
# Shear Modulus (GPa) = 29.40509 40.10988 34.75749
#
# Velocity S-wave (km/s) = 3.51845 4.10928 3.82529
# Velocity P-wave (km/s) = 5.58935 6.85946 6.25671
#
# Compressibility (1/GPa) = 0.02857165
#
# Stress axis : x y z
#
# Youngs Moduli (GPa) = 130.66974 128.53754 34.81336
#
# Poissons Ratio (x) = 0.20521 0.05823
# Poissons Ratio (y) = 0.20862 0.15748
# Poissons Ratio (z) = 0.21857 0.58145
#
# Static dielectric constant tensor:
#      x y z
#    x 5.063820 0.152130 0.040770 
#    y 0.152130 4.491490 -0.274520 
#    z 0.040770 -0.274520 4.361890 
# 
# 
# High freq. dielectric constant tensor:
#      x y z
#    x 1.960380 0.000500 0.000480 
#    y 0.000500 1.956360 -0.010130 
#    z 0.000480 -0.010130 1.924710 
# 
# From -- ./inp_files/392559.got.cif
#   From: 2010.06.25/outbox.cif.g09.slc.cpg/sg2_197_cif.got.tgz:392559.got - 2010.06.27 13:26:56.
