data_PCOD8020960
_publ_section_title
;
Structure prediction by ZEFSAII (Michael W. Deem and Ramdas Pophale) SiO2 
 PCOD8020960
Probable space group: P -1
;
_chemical_formula_sum "Si O2"
_cell_formula_units_Z 16
_cell_length_a 22.653861
_cell_length_b 28.135831
_cell_length_c 12.599337
_cell_angle_alpha 28.682232
_cell_angle_beta 30.645495
_cell_angle_gamma 10.963162
_cell_volume 732.965462
_symmetry_space_group_name_H-M "P -1"
_symmetry_group_IT_number 2
_symmetry_cell_setting 'triclinic'
loop_
_space_group_symop_operation_xyz
x,y,z
-x,-y,-z
loop_
_atom_site_type_symbol
_atom_site_label
_atom_site_fract_x
_atom_site_fract_y
_atom_site_fract_z
Si Si1 0.840741 0.733867 0.775093
Si Si2 0.765333 0.677258 0.417052
Si Si3 0.357414 0.610872 0.201019
Si Si4 0.335343 0.816036 0.515265
Si Si5 0.753801 0.743822 0.676732
Si Si6 0.325938 0.850336 0.703952
Si Si7 0.599814 0.676036 0.174420
Si Si8 0.344014 0.683964 0.473280
O O1 0.880618 0.723062 0.607863
O O2 0.047449 0.637845 0.721713
O O3 0.476644 0.038528 0.769688
O O4 0.000000 0.500000 0.000000
O O5 0.567708 0.732058 0.620454
O O6 0.000000 0.500000 0.500000
O O7 0.966142 0.522414 0.302893
O O8 0.420253 0.468645 0.304383
O O9 0.592292 0.421524 0.308041
O O10 0.431376 0.653352 0.941935
O O11 0.007037 0.876025 0.263210
O O12 0.318404 0.880686 0.530113
O O13 0.418650 0.829305 0.267591
O O14 0.014365 0.021676 0.574040
O O15 0.500000 0.000000 0.500000
O O16 0.580025 0.795032 0.910269
O O17 0.475187 0.691336 0.258995
O O18 0.500000 0.500000 0.500000
#
# Coordination Sequence:
#
# PCOD8020960 Si02
#       8
#     2   2   2   2   2   2   2   2
#     4  10  23  46  67  95 133 175 232 279 335 411
#     4  12  25  43  69 100 140 182 227 284 349 407
#     4  10  22  43  66 104 135 174 226 276 341 403
#     4  11  22  43  68  98 134 176 226 273 344 406
#     4  11  24  46  67 100 137 173 237 287 339 407
#     4  11  24  42  71  98 137 178 223 282 337 408
#     4  10  23  42  67  95 134 185 219 286 342 404
#     4  11  22  41  63  99 140 169 228 275 334 410
#
# _framework density 21.829132000000001
#
# number of rings (size 3 to 8) (size 9 to 14) (size 15 to 20)
#    0.000    1.250    2.500    4.125    0.000    5.000 
#    4.500    0.000    0.000    0.000    0.000    0.000 
#    0.000    0.000    0.000    0.000    0.000    0.000 
#
# Total GULP energy -198270.798338 kJ/mol
# GULP energy per Si atom -12391.924896 kJ/mol
# Density = 2.177945 g / cm^3
# Si number density = 21.829132 Si / 1000 Ang^3
#
#
#
# Elastic Constant Matrix: (Units=GPa)
#
#
# Indices 1 2 3 4 5 6 
#
# 1 122.7096 63.3032 45.1214 10.6623 12.0173 -15.6984
# 2 63.3032 143.6126 47.4498 -5.5925 0.7021 5.6117
# 3 45.1214 47.4498 126.9057 3.0895 -1.3618 0.5977
# 4 10.6623 -5.5925 3.0895 30.5067 -1.9905 6.9851
# 5 12.0173 0.7021 -1.3618 -1.9905 29.4784 4.6671
# 6 -15.6984 5.6117 0.5977 6.9851 4.6671 40.3711
#
#
#
# Elastic Compliance Matrix: (Units=1/GPa)
#
#
# Indices 1 2 3 4 5 6 
#
# 1 0.015391 -0.006483 -0.002964 -0.008977 -0.008359 0.009449
# 2 -0.006483 0.010852 -0.001833 0.005918 0.003560 -0.005438
# 3 -0.002964 -0.001833 0.009642 0.000143 0.001911 -0.001286
# 4 -0.008977 0.005918 0.000143 0.040324 0.008186 -0.012239
# 5 -0.008359 0.003560 0.001911 0.008186 0.039430 -0.009748
# 6 0.009449 -0.005438 -0.001286 -0.012239 -0.009748 0.032464
#
#
# Mechanical properties :
#
#
# Convention : Reuss Voigt Hill
#
# Bulk Modulus (GPa) = 75.04309 78.33074 76.68691
# Shear Modulus (GPa) = 28.55435 35.89482 32.22458
#
# Velocity S-wave (km/s) = 3.62067 4.05946 3.84633
# Velocity P-wave (km/s) = 7.20633 7.61143 7.41164
#
# Compressibility (1/GPa) = 0.01332568
#
# Stress axis : x y z
#
# Youngs Moduli (GPa) = 64.97272 92.15018 103.71195
#
# Poissons Ratio (x) = 0.59740 0.30741
# Poissons Ratio (y) = 0.42121 0.19008
# Poissons Ratio (z) = 0.19258 0.16889
#
# Static dielectric constant tensor:
#      x y z
#    x 4.525380 -0.233250 -0.003240 
#    y -0.233250 4.746200 0.307740 
#    z -0.003240 0.307740 3.996130 
# 
# 
# High freq. dielectric constant tensor:
#      x y z
#    x 1.874550 -0.001330 0.003820 
#    y -0.001330 1.871210 -0.003010 
#    z 0.003820 -0.003010 1.841950 
# 
# From -- ./inp_files/475774.got.cif
#   From: 2010.06.25/outbox.cif.g09.slc.cpg/sg2_238_cif.got.tgz:475774.got - 2010.06.27 13:26:56.
