data_PCOD8020548
_publ_section_title
;
Structure prediction by ZEFSAII (Michael W. Deem and Ramdas Pophale) SiO2 
 PCOD8020548
Probable space group: P -1
;
_chemical_formula_sum "Si O2"
_cell_formula_units_Z 16
_cell_length_a 21.944170
_cell_length_b 8.229492
_cell_length_c 19.425625
_cell_angle_alpha 78.236727
_cell_angle_beta 167.786762
_cell_angle_gamma 101.634383
_cell_volume 726.497252
_symmetry_space_group_name_H-M "P -1"
_symmetry_group_IT_number 2
_symmetry_cell_setting 'triclinic'
loop_
_space_group_symop_operation_xyz
x,y,z
-x,-y,-z
loop_
_atom_site_type_symbol
_atom_site_label
_atom_site_fract_x
_atom_site_fract_y
_atom_site_fract_z
Si Si1 0.517638 0.011731 0.727164
Si Si2 0.690050 0.077252 0.644638
Si Si3 0.251000 0.326243 0.933234
Si Si4 0.233417 0.192839 0.672741
Si Si5 0.241238 0.613265 0.226628
Si Si6 0.990089 0.770943 0.800373
Si Si7 0.117220 0.821842 0.575729
Si Si8 0.826120 0.528358 0.526590
O O1 0.255424 0.094425 0.470479
O O2 0.436051 0.955623 0.565958
O O3 0.772905 0.146337 0.994531
O O4 0.607797 0.850610 0.882349
O O5 0.680051 0.272925 0.631014
O O6 0.500000 0.000000 0.500000
O O7 0.000000 0.000000 0.000000
O O8 0.999793 0.302392 0.601169
O O9 0.081479 0.396063 0.806867
O O10 0.506703 0.447810 0.178600
O O11 0.120226 0.331226 0.484083
O O12 0.104427 0.203291 0.605028
O O13 0.144478 0.010990 0.560701
O O14 0.572310 0.228241 0.049679
O O15 0.500000 0.500000 0.500000
O O16 0.130788 0.722988 0.032185
O O17 0.000000 0.500000 0.000000
O O18 0.866451 0.607374 0.640058
#
# Coordination Sequence:
#
# PCOD8020548 Si02
#       8
#     2   2   2   2   2   2   2   2
#     4  12  25  46  70  93 131 179 223 273 316 396
#     4  12  23  45  69  99 127 170 229 268 325 389
#     4  12  27  43  66 102 134 174 217 276 329 381
#     4  10  22  42  69  96 129 175 215 269 318 394
#     4  12  26  42  69 100 133 171 212 278 335 389
#     4  12  26  47  67  95 133 181 221 262 333 395
#     4  10  22  42  69  97 128 172 226 258 320 392
#     4  12  27  43  65 100 139 172 215 273 337 384
#
# _framework density 22.023482999999999
#
# number of rings (size 3 to 8) (size 9 to 14) (size 15 to 20)
#    0.000    0.500    2.500    5.250    3.500    6.000 
#    0.000    0.000    0.000    0.000    0.000    0.000 
#    0.000    0.000    0.000    0.000    0.000    0.000 
#
# Total GULP energy -198441.682749 kJ/mol
# GULP energy per Si atom -12402.605172 kJ/mol
# Density = 2.197336 g / cm^3
# Si number density = 22.023483 Si / 1000 Ang^3
#
#
#
# Elastic Constant Matrix: (Units=GPa)
#
#
# Indices 1 2 3 4 5 6 
#
# 1 49.7289 36.7505 -2.9390 5.6560 -2.8105 -24.9539
# 2 36.7505 92.9147 62.3294 6.7835 9.2245 -9.2288
# 3 -2.9390 62.3294 41.1755 6.7834 8.1563 -24.3832
# 4 5.6560 6.7835 6.7834 50.0860 -5.8760 4.5892
# 5 -2.8105 9.2245 8.1563 -5.8760 39.9280 -0.5066
# 6 -24.9539 -9.2288 -24.3832 4.5892 -0.5066 48.2070
#
#
#
# Elastic Compliance Matrix: (Units=1/GPa)
#
#
# Indices 1 2 3 4 5 6 
#
# 1 0.005522 0.012941 -0.024160 0.001835 0.002515 -0.007033
# 2 0.012941 -0.004745 0.018715 -0.005070 -0.002363 0.015714
# 3 -0.024160 0.018715 -0.016308 0.003733 -0.002366 -0.017552
# 4 0.001835 -0.005070 0.003733 0.020357 0.003533 -0.000033
# 5 0.002515 -0.002363 -0.002366 0.003533 0.026766 -0.000402
# 6 -0.007033 0.015714 -0.017552 -0.000033 -0.000402 0.011233
#
#
# Mechanical properties :
#
#
# Convention : Reuss Voigt Hill
#
# Bulk Modulus (GPa) = -1853.86544 41.78900 -906.03822
# Shear Modulus (GPa) = 180.79122 33.48940 107.14031
#
# Velocity S-wave (km/s) = 9.07019 3.90375 6.98239
# Velocity P-wave (km/s) = 27.09066 6.27176 18.63557
#
# Compressibility (1/GPa) = -0.00053941
#
# Stress axis : x y z
#
# Youngs Moduli (GPa) = 181.08839 -210.77005 -61.32143
#
# Poissons Ratio (x) = 2.72753 -1.48153
# Poissons Ratio (y) = -2.34343 1.14760
# Poissons Ratio (z) = 4.37511 3.94446
#
# Static dielectric constant tensor:
#      x y z
#    x 4.187980 -0.185080 -0.056550 
#    y -0.185080 4.236670 0.141210 
#    z -0.056550 0.141210 4.205490 
# 
# 
# High freq. dielectric constant tensor:
#      x y z
#    x 1.873070 -0.007580 0.010380 
#    y -0.007580 1.880260 0.009620 
#    z 0.010380 0.009620 1.880390 
# 
# From -- ./inp_files/601940.got.cif
#   From: 2010.06.25/outbox.cif.g09.slc.cpg/sg2_301_cif.got.tgz:601940.got - 2010.06.27 13:26:56.
