data_PCOD8020772
_publ_section_title
;
Structure prediction by ZEFSAII (Michael W. Deem and Ramdas Pophale) SiO2 
 PCOD8020772
Probable space group: P -1
;
_chemical_formula_sum "Si O2"
_cell_formula_units_Z 14
_cell_length_a 8.606330
_cell_length_b 12.059791
_cell_length_c 11.131937
_cell_angle_alpha 51.225424
_cell_angle_beta 136.625144
_cell_angle_gamma 131.264821
_cell_volume 571.795310
_symmetry_space_group_name_H-M "P -1"
_symmetry_group_IT_number 2
_symmetry_cell_setting 'triclinic'
loop_
_space_group_symop_operation_xyz
x,y,z
-x,-y,-z
loop_
_atom_site_type_symbol
_atom_site_label
_atom_site_fract_x
_atom_site_fract_y
_atom_site_fract_z
Si Si1 0.489540 0.150902 0.459925
Si Si2 0.232024 0.958882 0.924603
Si Si3 0.926918 0.241694 0.805025
Si Si4 0.013868 0.577670 0.714562
Si Si5 0.541073 0.675043 0.914346
Si Si6 0.121222 0.209421 0.367237
Si Si7 0.040282 0.851642 0.424066
O O1 0.780400 0.198058 0.625363
O O2 0.448493 0.246625 0.261842
O O3 0.383989 0.205897 0.482222
O O4 0.329503 0.963155 0.482148
O O5 0.041864 0.837395 0.811935
O O6 0.219293 0.892126 0.095151
O O7 0.154400 0.106686 0.792405
O O8 0.500000 0.000000 0.000000
O O9 0.934822 0.400701 0.759567
O O10 0.196389 0.241688 0.930057
O O11 0.300390 0.668898 0.855815
O O12 0.993005 0.670062 0.517514
O O13 0.851609 0.613788 0.703704
O O14 0.500000 0.500000 0.000000
O O15 0.004107 0.105603 0.490510
#
# Coordination Sequence:
#
# PCOD8020772 Si02
#       7
#     2   2   2   2   2   2   2
#     4  11  20  39  67  84 122 163 204 246 306 366
#     4  11  19  35  62  93 124 159 204 245 303 376
#     4  11  22  39  65  91 116 168 207 239 308 369
#     4   9  23  39  60  89 126 155 204 255 305 349
#     4  10  22  43  60  88 124 167 202 247 302 367
#     4   9  19  38  60  88 121 155 195 254 305 346
#     4   9  19  39  60  87 122 157 196 253 303 347
#
# _framework density 24.484287999999999
#
# number of rings (size 3 to 8) (size 9 to 14) (size 15 to 20)
#    0.857    1.143    2.857    3.429    0.000    4.000 
#    0.000    2.143    0.000    0.000    0.000    0.000 
#    0.000    0.000    0.000    0.000    0.000    0.000 
#
# Total GULP energy -173445.433947 kJ/mol
# GULP energy per Si atom -12388.959568 kJ/mol
# Density = 2.442856 g / cm^3
# Si number density = 24.484288 Si / 1000 Ang^3
#
#
#
# Elastic Constant Matrix: (Units=GPa)
#
#
# Indices 1 2 3 4 5 6 
#
# 1 65.1825 19.5928 22.8717 10.8991 10.0225 5.6449
# 2 19.5928 53.5121 46.1068 -0.1408 10.8988 -2.2426
# 3 22.8717 46.1068 143.1193 2.3067 19.7510 1.7068
# 4 10.8991 -0.1408 2.3067 47.2605 6.5198 3.9630
# 5 10.0225 10.8988 19.7510 6.5198 47.2404 9.5882
# 6 5.6449 -2.2426 1.7068 3.9630 9.5882 32.2764
#
#
#
# Elastic Compliance Matrix: (Units=1/GPa)
#
#
# Indices 1 2 3 4 5 6 
#
# 1 0.018474 -0.006002 -0.000770 -0.003852 -0.001112 -0.002804
# 2 -0.006002 0.028473 -0.007865 0.001936 -0.003113 0.004131
# 3 -0.000770 -0.007865 0.009939 -0.000014 -0.002113 -0.000308
# 4 -0.003852 0.001936 -0.000014 0.022498 -0.002482 -0.001216
# 5 -0.001112 -0.003113 -0.002113 -0.002482 0.024762 -0.006961
# 6 -0.002804 0.004131 -0.000308 -0.001216 -0.006961 0.033993
#
#
# Mechanical properties :
#
#
# Convention : Reuss Voigt Hill
#
# Bulk Modulus (GPa) = 36.21332 48.77294 42.49313
# Shear Modulus (GPa) = 28.30992 36.90498 32.60745
#
# Velocity S-wave (km/s) = 3.40405 3.88660 3.65330
# Velocity P-wave (km/s) = 5.50206 6.33279 5.93198
#
# Compressibility (1/GPa) = 0.02761415
#
# Stress axis : x y z
#
# Youngs Moduli (GPa) = 54.13128 35.12058 100.61000
#
# Poissons Ratio (x) = 0.21079 0.07744
# Poissons Ratio (y) = 0.32488 0.79125
# Poissons Ratio (z) = 0.04167 0.27621
#
# Static dielectric constant tensor:
#      x y z
#    x 5.439800 0.596200 0.993320 
#    y 0.596200 4.764520 0.301820 
#    z 0.993320 0.301820 5.177190 
# 
# 
# High freq. dielectric constant tensor:
#      x y z
#    x 2.004440 -0.003330 0.018200 
#    y -0.003330 1.955700 -0.017260 
#    z 0.018200 -0.017260 1.980070 
# 
# From -- ./inp_files/398695.got.cif
#   From: 2010.06.25/outbox.cif.g09.slc.cpg/sg2_200_cif.got.tgz:398695.got - 2010.06.27 13:26:56.
