data_PCOD8020282
_publ_section_title
;
Structure prediction by ZEFSAII (Michael W. Deem and Ramdas Pophale) SiO2 
 PCOD8020282
Probable space group: P -1
;
_chemical_formula_sum "Si O2"
_cell_formula_units_Z 16
_cell_length_a 10.950843
_cell_length_b 13.493575
_cell_length_c 8.759754
_cell_angle_alpha 125.111011
_cell_angle_beta 97.502930
_cell_angle_gamma 51.623481
_cell_volume 776.597543
_symmetry_space_group_name_H-M "P -1"
_symmetry_group_IT_number 2
_symmetry_cell_setting 'triclinic'
loop_
_space_group_symop_operation_xyz
x,y,z
-x,-y,-z
loop_
_atom_site_type_symbol
_atom_site_label
_atom_site_fract_x
_atom_site_fract_y
_atom_site_fract_z
Si Si1 0.714695 0.786316 0.805513
Si Si2 0.960981 0.725570 0.256193
Si Si3 0.589626 0.118615 0.016510
Si Si4 0.589602 0.324522 0.427292
Si Si5 0.627340 0.702667 0.431107
Si Si6 0.833095 0.185910 0.613228
Si Si7 0.337656 0.909051 0.349770
Si Si8 0.011658 0.537213 0.813087
O O1 0.663259 0.790608 0.627721
O O2 0.907779 0.627113 0.721269
O O3 0.688504 0.946395 0.966422
O O4 0.606769 0.780144 0.905193
O O5 0.123974 0.703257 0.240995
O O6 0.998776 0.598985 0.276210
O O7 0.803502 0.908922 0.445663
O O8 0.923294 0.678979 0.052606
O O9 0.642513 0.092457 0.827651
O O10 0.641238 0.206936 0.189015
O O11 0.500000 0.500000 0.500000
O O12 0.454782 0.352160 0.539262
O O13 0.758633 0.237290 0.473881
O O14 0.509955 0.830486 0.390645
O O15 0.799656 0.542492 0.245327
O O16 0.701115 0.207340 0.722672
O O17 0.000000 0.000000 0.500000
#
# Coordination Sequence:
#
# PCOD8020282 Si02
#       8
#     2   2   2   2   2   2   2   2
#     4  10  23  39  61  91 132 162 205 261 312 378
#     4  10  24  39  63  94 126 166 205 262 315 367
#     4  10  23  39  65  93 122 169 207 257 316 374
#     4  10  23  42  66  94 127 166 210 264 315 372
#     4  10  23  41  64  93 126 165 209 258 314 371
#     4   9  21  42  64  87 124 167 209 259 306 372
#     4  10  22  42  67  91 124 166 217 250 308 386
#     4  11  24  38  62  95 129 161 206 264 314 368
#
# _framework density 20.602691
#
# number of rings (size 3 to 8) (size 9 to 14) (size 15 to 20)
#    0.000    2.000    0.000    1.125   15.750    2.000 
#    2.250    5.000    0.000    0.000    0.000    0.000 
#    0.000    0.000    0.000    0.000    0.000    0.000 
#
# Total GULP energy -198352.551290 kJ/mol
# GULP energy per Si atom -12397.034456 kJ/mol
# Density = 2.055580 g / cm^3
# Si number density = 20.602691 Si / 1000 Ang^3
#
#
#
# Elastic Constant Matrix: (Units=GPa)
#
#
# Indices 1 2 3 4 5 6 
#
# 1 93.1250 54.5002 43.5481 3.8313 10.4847 -9.8393
# 2 54.5002 125.2857 40.1904 7.5344 6.9376 -20.1341
# 3 43.5481 40.1904 89.8265 2.7034 -4.7314 1.1770
# 4 3.8313 7.5344 2.7034 24.8753 8.1785 -3.0117
# 5 10.4847 6.9376 -4.7314 8.1785 32.0954 3.2457
# 6 -9.8393 -20.1341 1.1770 -3.0117 3.2457 33.2489
#
#
#
# Elastic Compliance Matrix: (Units=1/GPa)
#
#
# Indices 1 2 3 4 5 6 
#
# 1 0.017791 -0.004684 -0.006992 0.002072 -0.006714 0.003519
# 2 -0.004684 0.012288 -0.003374 -0.001239 -0.001940 0.006252
# 3 -0.006992 -0.003374 0.016534 -0.002566 0.006669 -0.005581
# 4 0.002072 -0.001239 -0.002566 0.045422 -0.012900 0.005327
# 5 -0.006714 -0.001940 0.006669 -0.012900 0.038886 -0.008362
# 6 0.003519 0.006252 -0.005581 0.005327 -0.008362 0.036400
#
#
# Mechanical properties :
#
#
# Convention : Reuss Voigt Hill
#
# Bulk Modulus (GPa) = 60.55550 64.96828 62.76189
# Shear Modulus (GPa) = 24.63966 29.37717 27.00842
#
# Velocity S-wave (km/s) = 3.46199 3.78019 3.62459
# Velocity P-wave (km/s) = 6.74065 7.11727 6.93152
#
# Compressibility (1/GPa) = 0.01651378
#
# Stress axis : x y z
#
# Youngs Moduli (GPa) = 56.20677 81.37856 60.48309
#
# Poissons Ratio (x) = 0.38116 0.42289
# Poissons Ratio (y) = 0.26326 0.20408
# Poissons Ratio (z) = 0.39299 0.27458
#
# Static dielectric constant tensor:
#      x y z
#    x 4.057800 0.026590 0.071940 
#    y 0.026590 3.721950 0.010990 
#    z 0.071940 0.010990 3.610300 
# 
# 
# High freq. dielectric constant tensor:
#      x y z
#    x 1.808850 0.000190 0.004090 
#    y 0.000190 1.813820 0.000540 
#    z 0.004090 0.000540 1.796700 
# 
# From -- ./inp_files/263050.got.cif
#   From: 2010.06.25/outbox.cif.g09.slc.cpg/sg2_132_cif.got.tgz:263050.got - 2010.06.27 13:26:56.
