data_PCOD8020223
_publ_section_title
;
Structure prediction by ZEFSAII (Michael W. Deem and Ramdas Pophale) SiO2 
 PCOD8020223
Probable space group: P -1
;
_chemical_formula_sum "Si O2"
_cell_formula_units_Z 16
_cell_length_a 12.442765
_cell_length_b 23.996306
_cell_length_c 17.279284
_cell_angle_alpha 18.300936
_cell_angle_beta 146.394063
_cell_angle_gamma 154.437385
_cell_volume 688.340567
_symmetry_space_group_name_H-M "P -1"
_symmetry_group_IT_number 2
_symmetry_cell_setting 'triclinic'
loop_
_space_group_symop_operation_xyz
x,y,z
-x,-y,-z
loop_
_atom_site_type_symbol
_atom_site_label
_atom_site_fract_x
_atom_site_fract_y
_atom_site_fract_z
Si Si1 0.511607 0.247041 0.329653
Si Si2 0.418556 0.492619 0.833158
Si Si3 0.773486 0.077402 0.632791
Si Si4 0.942082 0.261774 0.763912
Si Si5 0.819646 0.650310 0.368778
Si Si6 0.580878 0.429112 0.869549
Si Si7 0.430392 0.126312 0.844177
Si Si8 0.997626 0.841049 0.500926
O O1 0.592739 0.329488 0.359792
O O2 0.703524 0.218238 0.447151
O O3 0.545495 0.433742 0.047312
O O4 0.215911 0.026527 0.446335
O O5 0.576986 0.588252 0.721386
O O6 0.139992 0.269457 0.928859
O O7 0.025040 0.157528 0.723577
O O8 0.858543 0.146988 0.504137
O O9 0.520359 0.808116 0.837026
O O10 0.000000 0.500000 0.500000
O O11 0.982835 0.260740 0.699400
O O12 0.668645 0.023356 0.938109
O O13 0.600660 0.650618 0.207931
O O14 0.687577 0.390449 0.663176
O O15 0.861973 0.590761 0.789689
O O16 0.213436 0.128200 0.676118
O O17 0.500000 0.000000 0.000000
#
# Coordination Sequence:
#
# PCOD8020223 Si02
#       8
#     2   2   2   2   2   2   2   2
#     4  11  23  42  70  91 131 177 218 263 325 382
#     4  10  22  42  66  97 126 170 217 271 324 380
#     4  12  24  44  66  97 130 179 218 260 322 396
#     4  11  19  37  64  92 130 164 206 268 322 382
#     4  10  23  39  65  95 127 169 212 266 327 381
#     4  10  23  42  69  93 129 169 217 274 329 375
#     4  11  22  38  64  97 129 167 209 266 331 386
#     4  11  24  43  66  93 134 175 214 270 321 382
#
# _framework density 23.244308
#
# number of rings (size 3 to 8) (size 9 to 14) (size 15 to 20)
#    0.000    1.250    3.750    2.250    0.000    4.000 
#    0.000    0.000    0.000    0.000    0.000    0.000 
#    0.000    0.000    0.000    0.000    0.000    0.000 
#
# Total GULP energy -198210.432028 kJ/mol
# GULP energy per Si atom -12388.152002 kJ/mol
# Density = 2.319140 g / cm^3
# Si number density = 23.244308 Si / 1000 Ang^3
#
#
#
# Elastic Constant Matrix: (Units=GPa)
#
#
# Indices 1 2 3 4 5 6 
#
# 1 118.4144 35.4110 70.2966 -30.0537 -24.0951 1.4906
# 2 35.4110 73.3300 11.3235 -20.7681 -14.7977 -12.6870
# 3 70.2966 11.3235 71.3637 -26.5194 -26.0638 14.4608
# 4 -30.0537 -20.7681 -26.5194 38.3885 17.1379 -0.2528
# 5 -24.0951 -14.7977 -26.0638 17.1379 45.7877 -5.9693
# 6 1.4906 -12.6870 14.4608 -0.2528 -5.9693 38.2193
#
#
#
# Elastic Compliance Matrix: (Units=1/GPa)
#
#
# Indices 1 2 3 4 5 6 
#
# 1 0.026014 -0.008393 -0.027238 -0.001536 -0.003170 0.006000
# 2 -0.008393 0.020478 0.009052 0.008700 0.004683 0.004489
# 3 -0.027238 0.009052 0.051347 0.014155 0.010751 -0.013588
# 4 -0.001536 0.008700 0.014155 0.042021 -0.006068 -0.003078
# 5 -0.003170 0.004683 0.010751 -0.006068 0.030378 0.002315
# 6 0.006000 0.004489 -0.013588 -0.003078 0.002315 0.032903
#
#
# Mechanical properties :
#
#
# Convention : Reuss Voigt Hill
#
# Bulk Modulus (GPa) = 22.38095 55.24112 38.81104
# Shear Modulus (GPa) = 18.43713 34.21757 26.32735
#
# Velocity S-wave (km/s) = 2.81942 3.84094 3.36912
# Velocity P-wave (km/s) = 4.49981 6.59450 5.64516
#
# Compressibility (1/GPa) = 0.04468085
#
# Stress axis : x y z
#
# Youngs Moduli (GPa) = 38.44105 48.83362 19.47536
#
# Poissons Ratio (x) = 0.40985 0.53046
# Poissons Ratio (y) = 0.32263 -0.17629
# Poissons Ratio (z) = 1.04704 -0.44203
#
# Static dielectric constant tensor:
#      x y z
#    x 4.401110 0.102350 -0.113260 
#    y 0.102350 4.310220 -0.112980 
#    z -0.113260 -0.112980 4.324540 
# 
# 
# High freq. dielectric constant tensor:
#      x y z
#    x 1.925730 0.001610 -0.003740 
#    y 0.001610 1.909190 -0.003430 
#    z -0.003740 -0.003430 1.913980 
# 
# From -- ./inp_files/570928.got.cif
#   From: 2010.06.25/outbox.cif.g09.slc.cpg/sg2_286_cif.got.tgz:570928.got - 2010.06.27 13:26:56.
