data_PCOD8020341
_publ_section_title
;
Structure prediction by ZEFSAII (Michael W. Deem and Ramdas Pophale) SiO2 
 PCOD8020341
Probable space group: P -1
;
_chemical_formula_sum "Si O2"
_cell_formula_units_Z 16
_cell_length_a 14.421896
_cell_length_b 11.305516
_cell_length_c 15.428179
_cell_angle_alpha 133.422801
_cell_angle_beta 41.365629
_cell_angle_gamma 98.630273
_cell_volume 781.668020
_symmetry_space_group_name_H-M "P -1"
_symmetry_group_IT_number 2
_symmetry_cell_setting 'triclinic'
loop_
_space_group_symop_operation_xyz
x,y,z
-x,-y,-z
loop_
_atom_site_type_symbol
_atom_site_label
_atom_site_fract_x
_atom_site_fract_y
_atom_site_fract_z
Si Si1 0.031177 0.506724 0.081512
Si Si2 0.735891 0.210693 0.196959
Si Si3 0.153787 0.058335 0.841912
Si Si4 0.467050 0.212798 0.671616
Si Si5 0.009031 0.379688 0.559453
Si Si6 0.668329 0.902811 0.653302
Si Si7 0.426027 0.381550 0.979212
Si Si8 0.758843 0.892226 0.915185
O O1 0.793562 0.773828 0.409797
O O2 0.220913 0.475436 0.946249
O O3 0.000000 0.500000 0.000000
O O4 0.102405 0.294261 0.986803
O O5 0.500000 0.500000 0.500000
O O6 0.745897 0.080110 0.206098
O O7 0.791169 0.051850 0.995383
O O8 0.923490 0.177612 0.049108
O O9 0.342926 0.843468 0.531636
O O10 0.480524 0.239667 0.778820
O O11 0.500000 0.000000 0.500000
O O12 0.896536 0.653689 0.761489
O O13 0.152991 0.261862 0.482628
O O14 0.168732 0.192949 0.276392
O O15 0.830139 0.398895 0.711007
O O16 0.542910 0.184436 0.877097
O O17 0.496919 0.912307 0.796221
O O18 0.500000 0.500000 0.000000
#
# Coordination Sequence:
#
# PCOD8020341 Si02
#       8
#     2   2   2   2   2   2   2   2
#     4  11  22  39  71  97 126 173 222 272 325 396
#     4  11  24  42  62  96 131 172 208 272 334 386
#     4  10  24  41  61  94 135 164 213 270 327 385
#     4  10  22  42  67  96 128 169 218 269 322 392
#     4  10  22  44  63  92 120 171 220 268 316 387
#     4  11  21  40  66  90 122 167 221 262 320 386
#     4  11  25  43  63  96 135 170 207 273 332 386
#     4  10  23  39  68  88 124 164 223 270 314 382
#
# _framework density 20.469045999999999
#
# number of rings (size 3 to 8) (size 9 to 14) (size 15 to 20)
#    0.000    1.500    1.250    3.375   10.500    1.500 
#    2.250    0.000    0.000    0.000    0.000    0.000 
#    0.000    0.000    0.000    0.000    0.000    0.000 
#
# Total GULP energy -198240.713378 kJ/mol
# GULP energy per Si atom -12390.044586 kJ/mol
# Density = 2.042246 g / cm^3
# Si number density = 20.469046 Si / 1000 Ang^3
#
#
#
# Elastic Constant Matrix: (Units=GPa)
#
#
# Indices 1 2 3 4 5 6 
#
# 1 103.8610 34.2639 57.3472 -0.4960 -3.5301 -0.7823
# 2 34.2639 56.2794 23.2663 -4.0280 -5.6539 -11.4254
# 3 57.3472 23.2663 127.9341 -22.2335 -16.4707 -4.4828
# 4 -0.4960 -4.0280 -22.2335 35.0987 4.9078 4.2135
# 5 -3.5301 -5.6539 -16.4707 4.9078 34.1700 0.2028
# 6 -0.7823 -11.4254 -4.4828 4.2135 0.2028 20.9662
#
#
#
# Elastic Compliance Matrix: (Units=1/GPa)
#
#
# Indices 1 2 3 4 5 6 
#
# 1 0.016061 -0.008412 -0.006871 -0.004203 -0.002414 -0.004586
# 2 -0.008412 0.026023 0.000082 0.000818 0.003277 0.013688
# 3 -0.006871 0.000082 0.012743 0.007248 0.004399 0.001014
# 4 -0.004203 0.000818 0.007248 0.033944 -0.001651 -0.004967
# 5 -0.002414 0.003277 0.004399 -0.001651 0.031900 0.002660
# 6 -0.004586 0.013688 0.001014 -0.004967 0.002660 0.056173
#
#
# Mechanical properties :
#
#
# Convention : Reuss Voigt Hill
#
# Bulk Modulus (GPa) = 40.94350 57.53658 49.24004
# Shear Modulus (GPa) = 23.21395 29.59345 26.40370
#
# Velocity S-wave (km/s) = 3.37129 3.80645 3.59546
# Velocity P-wave (km/s) = 5.93298 6.89121 6.42997
#
# Compressibility (1/GPa) = 0.02442390
#
# Stress axis : x y z
#
# Youngs Moduli (GPa) = 62.26383 38.42828 78.47260
#
# Poissons Ratio (x) = 0.32324 0.53922
# Poissons Ratio (y) = 0.52374 -0.00641
# Poissons Ratio (z) = 0.42784 -0.00314
#
# Static dielectric constant tensor:
#      x y z
#    x 3.681270 -0.017620 -0.301600 
#    y -0.017620 3.727690 -0.365680 
#    z -0.301600 -0.365680 4.364770 
# 
# 
# High freq. dielectric constant tensor:
#      x y z
#    x 1.801400 -0.009790 -0.016820 
#    y -0.009790 1.787080 -0.020820 
#    z -0.016820 -0.020820 1.821500 
# 
# From -- ./inp_files/518290.got.cif
#   From: 2010.06.25/outbox.cif.g09.slc.cpg/sg2_260_cif.got.tgz:518290.got - 2010.06.27 13:26:56.
