data_PCOD8020099
_publ_section_title
;
Structure prediction by ZEFSAII (Michael W. Deem and Ramdas Pophale) SiO2 
 PCOD8020099
Probable space group: P -1
;
_chemical_formula_sum "Si O2"
_cell_formula_units_Z 16
_cell_length_a 11.721800
_cell_length_b 9.537738
_cell_length_c 14.663958
_cell_angle_alpha 28.006665
_cell_angle_beta 80.342205
_cell_angle_gamma 87.873260
_cell_volume 736.776991
_symmetry_space_group_name_H-M "P -1"
_symmetry_group_IT_number 2
_symmetry_cell_setting 'triclinic'
loop_
_space_group_symop_operation_xyz
x,y,z
-x,-y,-z
loop_
_atom_site_type_symbol
_atom_site_label
_atom_site_fract_x
_atom_site_fract_y
_atom_site_fract_z
Si Si1 0.357776 0.739854 0.749563
Si Si2 0.023126 0.287396 0.738822
Si Si3 0.127275 0.503924 0.019880
Si Si4 0.426663 0.745525 0.535556
Si Si5 0.577104 0.935766 0.111104
Si Si6 0.597812 0.874761 0.845492
Si Si7 0.851685 0.091644 0.721400
Si Si8 0.155099 0.790980 0.049640
O O1 0.225785 0.718493 0.817819
O O2 0.349887 0.675458 0.679048
O O3 0.436770 0.083125 0.558009
O O4 0.417736 0.495723 0.936597
O O5 0.934180 0.051646 0.818564
O O6 0.106929 0.565164 0.515956
O O7 0.939733 0.415880 0.748607
O O8 0.114935 0.112063 0.870751
O O9 0.145405 0.626626 0.048812
O O10 0.000000 0.500000 0.000000
O O11 0.141458 0.155010 0.216672
O O12 0.424961 0.422539 0.673495
O O13 0.373780 0.970282 0.347427
O O14 0.520117 0.037407 0.151910
O O15 0.711131 0.144739 0.967039
O O16 0.500000 0.000000 0.000000
O O17 0.712636 0.023632 0.808593
#
# Coordination Sequence:
#
# PCOD8020099 Si02
#       8
#     2   2   2   2   2   2   2   2
#     4  10  24  43  65  93 135 174 219 275 331 400
#     4  10  22  42  66  95 130 169 230 262 326 394
#     4  11  23  43  65  95 134 172 214 275 333 385
#     4  11  23  42  66  97 127 180 221 269 337 396
#     4  12  24  42  65 100 137 172 223 280 333 389
#     4  11  22  41  68  93 133 171 221 273 336 392
#     4  10  22  42  65  94 131 175 210 278 326 390
#     4  11  24  41  69  96 129 177 221 268 329 399
#
# _framework density 21.716204999999999
#
# number of rings (size 3 to 8) (size 9 to 14) (size 15 to 20)
#    0.000    1.250    2.500    3.000    1.750    3.500 
#    2.250    0.000    0.000    0.000    0.000    0.000 
#    0.000    0.000    0.000    0.000    0.000    0.000 
#
# Total GULP energy -198383.125733 kJ/mol
# GULP energy per Si atom -12398.945358 kJ/mol
# Density = 2.166678 g / cm^3
# Si number density = 21.716205 Si / 1000 Ang^3
#
#
#
# Elastic Constant Matrix: (Units=GPa)
#
#
# Indices 1 2 3 4 5 6 
#
# 1 115.6881 29.2880 5.0024 0.4133 -12.7206 -0.1830
# 2 29.2880 104.3684 16.6104 3.4593 -3.4689 -11.4465
# 3 5.0024 16.6104 54.1366 2.7882 1.3257 1.6116
# 4 0.4133 3.4593 2.7882 34.0373 8.6502 0.4544
# 5 -12.7206 -3.4689 1.3257 8.6502 32.8431 5.6417
# 6 -0.1830 -11.4465 1.6116 0.4544 5.6417 34.1753
#
#
#
# Elastic Compliance Matrix: (Units=1/GPa)
#
#
# Indices 1 2 3 4 5 6 
#
# 1 0.009778 -0.002738 -0.000073 -0.000825 0.003977 -0.001507
# 2 -0.002738 0.011332 -0.003294 -0.000854 -0.000189 0.003979
# 3 -0.000073 -0.003294 0.019617 -0.001107 -0.000546 -0.001924
# 4 -0.000825 -0.000854 -0.001107 0.031814 -0.008882 0.000805
# 5 0.003977 -0.000189 -0.000546 -0.008882 0.035314 -0.005728
# 6 -0.001507 0.003979 -0.001924 0.000805 -0.005728 0.031611
#
#
# Mechanical properties :
#
#
# Convention : Reuss Voigt Hill
#
# Bulk Modulus (GPa) = 35.06720 41.77718 38.42219
# Shear Modulus (GPa) = 31.02084 35.09730 33.05907
#
# Velocity S-wave (km/s) = 3.78360 4.02454 3.90593
# Velocity P-wave (km/s) = 5.93890 6.39339 6.17033
#
# Compressibility (1/GPa) = 0.02851668
#
# Stress axis : x y z
#
# Youngs Moduli (GPa) = 102.26891 88.24263 50.97649
#
# Poissons Ratio (x) = 0.24161 0.00375
# Poissons Ratio (y) = 0.28001 0.16791
# Poissons Ratio (z) = 0.00752 0.29066
#
# Static dielectric constant tensor:
#      x y z
#    x 4.131600 0.004840 -0.118190 
#    y 0.004840 4.111490 0.057970 
#    z -0.118190 0.057970 3.870060 
# 
# 
# High freq. dielectric constant tensor:
#      x y z
#    x 1.861530 0.004610 -0.012780 
#    y 0.004610 1.853560 0.003790 
#    z -0.012780 0.003790 1.849430 
# 
# From -- ./inp_files/514815.got.cif
#   From: 2010.06.25/outbox.cif.g09.slc.cpg/sg2_258_cif.got.tgz:514815.got - 2010.06.27 13:26:56.
