data_PCOD8020753
_publ_section_title
;
Structure prediction by ZEFSAII (Michael W. Deem and Ramdas Pophale) SiO2 
 PCOD8020753
Probable space group: P -1
;
_chemical_formula_sum "Si O2"
_cell_formula_units_Z 14
_cell_length_a 9.324460
_cell_length_b 24.225563
_cell_length_c 8.987078
_cell_angle_alpha 29.828955
_cell_angle_beta 47.158390
_cell_angle_gamma 35.831627
_cell_volume 589.234161
_symmetry_space_group_name_H-M "P -1"
_symmetry_group_IT_number 2
_symmetry_cell_setting 'triclinic'
loop_
_space_group_symop_operation_xyz
x,y,z
-x,-y,-z
loop_
_atom_site_type_symbol
_atom_site_label
_atom_site_fract_x
_atom_site_fract_y
_atom_site_fract_z
Si Si1 0.939947 0.017053 0.173481
Si Si2 0.725183 0.386831 0.785130
Si Si3 0.678221 0.653309 0.759322
Si Si4 0.931537 0.662737 0.828469
Si Si5 0.826903 0.812056 0.849606
Si Si6 0.536768 0.087891 0.878622
Si Si7 0.707211 0.316382 0.642036
O O1 0.871911 0.921190 0.508212
O O2 0.717481 0.180479 0.976526
O O3 0.177613 0.982509 0.169979
O O4 0.000000 0.000000 0.000000
O O5 0.799660 0.349317 0.647720
O O6 0.570698 0.555297 0.510976
O O7 0.549344 0.346865 0.045974
O O8 0.960244 0.304743 0.917125
O O9 0.723295 0.712772 0.735110
O O10 0.617527 0.752620 0.433386
O O11 0.911528 0.504134 0.885895
O O12 0.810472 0.732973 0.908221
O O13 0.102228 0.709846 0.557821
O O14 0.562914 0.905092 0.901400
O O15 0.500000 0.000000 0.000000
#
# Coordination Sequence:
#
# PCOD8020753 Si02
#       7
#     2   2   2   2   2   2   2
#     4  12  26  46  70 106 144 183 227 294 355 409
#     4  10  22  42  74 103 131 189 237 284 349 409
#     4  10  22  43  68 100 139 185 231 288 348 413
#     4  10  22  43  68 100 141 180 234 292 347 411
#     4  12  26  45  75 105 139 185 237 290 349 416
#     4  12  28  46  70 102 145 187 234 286 348 425
#     4  10  22  43  69  99 142 181 230 289 346 417
#
# _framework density 23.759654999999999
#
# number of rings (size 3 to 8) (size 9 to 14) (size 15 to 20)
#    0.000    1.143    2.857    2.571    2.000    8.000 
#    0.000    0.000    0.000    0.000    0.000    0.000 
#    0.000    0.000    0.000    0.000    0.000    0.000 
#
# Total GULP energy -173631.792991 kJ/mol
# GULP energy per Si atom -12402.270928 kJ/mol
# Density = 2.370558 g / cm^3
# Si number density = 23.759655 Si / 1000 Ang^3
#
#
#
# Elastic Constant Matrix: (Units=GPa)
#
#
# Indices 1 2 3 4 5 6 
#
# 1 51.1604 10.9938 24.2381 -10.6134 -3.0805 13.6256
# 2 10.9938 104.4429 41.1233 1.2645 -6.7708 22.7817
# 3 24.2381 41.1233 140.6231 -22.9114 9.7436 2.1896
# 4 -10.6134 1.2645 -22.9114 38.2115 4.7498 4.1086
# 5 -3.0805 -6.7708 9.7436 4.7498 25.6497 -0.5685
# 6 13.6256 22.7817 2.1896 4.1086 -0.5685 37.2756
#
#
#
# Elastic Compliance Matrix: (Units=1/GPa)
#
#
# Indices 1 2 3 4 5 6 
#
# 1 0.025196 0.001342 -0.003981 0.005216 0.003698 -0.010315
# 2 0.001342 0.013577 -0.004969 -0.002932 0.005997 -0.008082
# 3 -0.003981 -0.004969 0.010650 0.005965 -0.006871 0.003104
# 4 0.005216 -0.002932 0.005965 0.032812 -0.008583 -0.004212
# 5 0.003698 0.005997 -0.006871 -0.008583 0.045147 -0.002978
# 6 -0.010315 -0.008082 0.003104 -0.004212 -0.002978 0.035774
#
#
# Mechanical properties :
#
#
# Convention : Reuss Voigt Hill
#
# Bulk Modulus (GPa) = 29.23410 49.88187 39.55798
# Shear Modulus (GPa) = 26.34693 34.88543 30.61618
#
# Velocity S-wave (km/s) = 3.33362 3.83595 3.59357
# Velocity P-wave (km/s) = 5.21039 6.37646 5.82269
#
# Compressibility (1/GPa) = 0.03420663
#
# Stress axis : x y z
#
# Youngs Moduli (GPa) = 39.68874 73.65393 93.89554
#
# Poissons Ratio (x) = -0.09883 0.37379
# Poissons Ratio (y) = -0.05325 0.46658
# Poissons Ratio (z) = 0.15800 0.36600
#
# Static dielectric constant tensor:
#      x y z
#    x 4.193310 -0.102570 0.037710 
#    y -0.102570 4.486060 0.120150 
#    z 0.037710 0.120150 4.390390 
# 
# 
# High freq. dielectric constant tensor:
#      x y z
#    x 1.931800 -0.000910 0.001280 
#    y -0.000910 1.946630 -0.003200 
#    z 0.001280 -0.003200 1.959310 
# 
# From -- ./inp_files/225786.got.cif
#   From: 2010.06.25/outbox.cif.g09.slc.cpg/sg2_113_cif.got.tgz:225786.got - 2010.06.27 13:26:56.
