data_PCOD8020059
_publ_section_title
;
Structure prediction by ZEFSAII (Michael W. Deem and Ramdas Pophale) SiO2 
 PCOD8020059
Probable space group: P -1
;
_chemical_formula_sum "Si O2"
_cell_formula_units_Z 16
_cell_length_a 13.859518
_cell_length_b 8.588799
_cell_length_c 18.795483
_cell_angle_alpha 90.111031
_cell_angle_beta 159.092583
_cell_angle_gamma 100.070758
_cell_volume 693.701158
_symmetry_space_group_name_H-M "P -1"
_symmetry_group_IT_number 2
_symmetry_cell_setting 'triclinic'
loop_
_space_group_symop_operation_xyz
x,y,z
-x,-y,-z
loop_
_atom_site_type_symbol
_atom_site_label
_atom_site_fract_x
_atom_site_fract_y
_atom_site_fract_z
Si Si1 0.601117 0.171894 0.714482
Si Si2 0.869030 0.731404 0.107826
Si Si3 0.802143 0.959852 0.759160
Si Si4 0.760853 0.299259 0.356739
Si Si5 0.293634 0.616984 0.350092
Si Si6 0.869389 0.238839 0.041311
Si Si7 0.986628 0.841892 0.342230
Si Si8 0.696771 0.965259 0.249595
O O1 0.585117 0.301718 0.644381
O O2 0.790597 0.071251 0.818763
O O3 0.767992 0.294891 0.898511
O O4 0.257589 0.030248 0.501914
O O5 0.829885 0.712480 0.166193
O O6 0.944405 0.583748 0.126614
O O7 0.567360 0.707803 0.858418
O O8 0.173223 0.925647 0.295464
O O9 0.511392 0.757654 0.559875
O O10 0.106585 0.936294 0.964073
O O11 0.000000 0.500000 0.500000
O O12 0.881613 0.247816 0.511396
O O13 0.710086 0.157779 0.258024
O O14 0.214375 0.407840 0.302092
O O15 0.618180 0.184453 0.930361
O O16 0.722214 0.883993 0.191517
O O17 0.000000 0.000000 0.500000
#
# Coordination Sequence:
#
# PCOD8020059 Si02
#       8
#     2   2   2   2   2   2   2   2
#     4  11  20  41  67  93 128 180 219 261 343 396
#     4  11  22  44  70  92 137 177 220 271 340 394
#     4  11  21  43  65  95 134 173 221 272 329 406
#     4  11  25  43  65 100 128 170 232 278 318 398
#     4  11  24  39  65 102 134 170 217 284 328 394
#     4  12  23  40  66  99 133 172 222 277 337 387
#     4  11  22  44  72  92 133 183 219 266 340 398
#     4  10  22  42  65  89 135 176 213 276 331 392
#
# _framework density 23.064685999999998
#
# number of rings (size 3 to 8) (size 9 to 14) (size 15 to 20)
#    0.000    1.000    6.250    1.875    3.500    2.000 
#    0.000    1.250    0.000    0.000    0.000    0.000 
#    0.000    0.000    0.000    0.000    0.000    0.000 
#
# Total GULP energy -198264.559359 kJ/mol
# GULP energy per Si atom -12391.534960 kJ/mol
# Density = 2.301219 g / cm^3
# Si number density = 23.064686 Si / 1000 Ang^3
#
#
#
# Elastic Constant Matrix: (Units=GPa)
#
#
# Indices 1 2 3 4 5 6 
#
# 1 137.1800 22.9144 17.2297 9.3053 10.2348 9.6110
# 2 22.9144 69.7476 -2.9891 19.7576 7.0046 13.5490
# 3 17.2297 -2.9891 49.6893 20.1439 9.7132 11.2959
# 4 9.3053 19.7576 20.1439 39.2567 -0.5518 5.9054
# 5 10.2348 7.0046 9.7132 -0.5518 37.8483 -2.5612
# 6 9.6110 13.5490 11.2959 5.9054 -2.5612 21.9349
#
#
#
# Elastic Compliance Matrix: (Units=1/GPa)
#
#
# Indices 1 2 3 4 5 6 
#
# 1 0.008218 -0.003049 -0.003311 0.001345 -0.000821 -0.000470
# 2 -0.003049 0.025720 0.016005 -0.017689 -0.009597 -0.019152
# 3 -0.003311 0.016005 0.040607 -0.024640 -0.014499 -0.024407
# 4 0.001345 -0.017689 -0.024640 0.045023 0.010712 0.012156
# 5 -0.000821 -0.009597 -0.014499 0.010712 0.033295 0.014758
# 6 -0.000470 -0.019152 -0.024407 0.012156 0.014758 0.068645
#
#
# Mechanical properties :
#
#
# Convention : Reuss Voigt Hill
#
# Bulk Modulus (GPa) = 10.65688 36.76967 23.71327
# Shear Modulus (GPa) = 21.41372 34.43876 27.92624
#
# Velocity S-wave (km/s) = 3.05030 3.86831 3.48340
# Velocity P-wave (km/s) = 4.12750 5.99402 5.14609
#
# Compressibility (1/GPa) = 0.09383611
#
# Stress axis : x y z
#
# Youngs Moduli (GPa) = 121.68792 38.88052 24.62608
#
# Poissons Ratio (x) = 0.11854 0.08153
# Poissons Ratio (y) = 0.37100 -0.39414
# Poissons Ratio (z) = 0.40286 -0.62228
#
# Static dielectric constant tensor:
#      x y z
#    x 4.641030 -0.383730 0.288480 
#    y -0.383730 4.385300 -0.225490 
#    z 0.288480 -0.225490 4.106100 
# 
# 
# High freq. dielectric constant tensor:
#      x y z
#    x 1.906240 -0.013580 0.016480 
#    y -0.013580 1.911040 -0.005920 
#    z 0.016480 -0.005920 1.911650 
# 
# From -- ./inp_files/202006.got.cif
#   From: 2010.06.25/outbox.cif.g09.slc.cpg/sg2_102_cif.got.tgz:202006.got - 2010.06.27 13:26:56.
