data_PCOD8020276
_publ_section_title
;
Structure prediction by ZEFSAII (Michael W. Deem and Ramdas Pophale) SiO2 
 PCOD8020276
Probable space group: P -1
;
_chemical_formula_sum "Si O2"
_cell_formula_units_Z 14
_cell_length_a 8.602432
_cell_length_b 20.548077
_cell_length_c 7.693401
_cell_angle_alpha 109.850193
_cell_angle_beta 70.849091
_cell_angle_gamma 148.244125
_cell_volume 671.069659
_symmetry_space_group_name_H-M "P -1"
_symmetry_group_IT_number 2
_symmetry_cell_setting 'triclinic'
loop_
_space_group_symop_operation_xyz
x,y,z
-x,-y,-z
loop_
_atom_site_type_symbol
_atom_site_label
_atom_site_fract_x
_atom_site_fract_y
_atom_site_fract_z
Si Si1 0.194182 0.208198 0.298564
Si Si2 0.870181 0.798956 0.302807
Si Si3 0.696846 0.464647 0.227505
Si Si4 0.674901 0.353341 0.820225
Si Si5 0.749947 0.033962 0.994529
Si Si6 0.194485 0.382605 0.906512
Si Si7 0.572884 0.218619 0.032762
O O1 0.025771 0.148565 0.491231
O O2 0.408495 0.350975 0.348640
O O3 0.411056 0.217775 0.213930
O O4 0.957553 0.134612 0.164590
O O5 0.529557 0.703623 0.322565
O O6 0.907344 0.731517 0.182413
O O7 0.058616 0.910846 0.199817
O O8 0.747318 0.563129 0.255669
O O9 0.991697 0.537072 0.275144
O O10 0.645866 0.407711 0.010846
O O11 0.570787 0.247057 0.862264
O O12 0.500000 0.000000 0.000000
O O13 0.616761 0.916960 0.009759
O O14 0.500000 0.500000 0.000000
O O15 0.918156 0.324839 0.053223
#
# Coordination Sequence:
#
# PCOD8020276 Si02
#       7
#     2   2   2   2   2   2   2
#     4  11  25  42  65  98 126 164 219 265 309 379
#     4  12  24  40  67  98 126 165 218 261 315 376
#     4   9  18  37  61  87 129 164 201 257 308 374
#     4   9  18  37  63  91 123 165 207 252 311 374
#     4  12  24  46  67  89 129 171 209 267 323 372
#     4  11  20  38  67  94 127 174 207 251 325 381
#     4  10  22  42  67  90 125 172 210 258 319 376
#
# _framework density 20.862217999999999
#
# number of rings (size 3 to 8) (size 9 to 14) (size 15 to 20)
#    0.000    1.429    5.714    1.286    0.000    2.286 
#    0.000    1.429    0.000    0.000    0.000    0.000 
#    0.000    0.000    0.000    0.000    0.000    0.000 
#
# Total GULP energy -173500.750538 kJ/mol
# GULP energy per Si atom -12392.910753 kJ/mol
# Density = 2.081473 g / cm^3
# Si number density = 20.862218 Si / 1000 Ang^3
#
#
#
# Elastic Constant Matrix: (Units=GPa)
#
#
# Indices 1 2 3 4 5 6 
#
# 1 112.6484 38.7121 27.7176 4.8497 5.6884 14.4809
# 2 38.7121 107.9915 26.4798 -10.5910 6.8618 -0.9318
# 3 27.7176 26.4798 92.3637 -10.1025 14.6279 17.4006
# 4 4.8497 -10.5910 -10.1025 13.0065 -4.5497 4.4577
# 5 5.6884 6.8618 14.6279 -4.5497 20.0858 2.1453
# 6 14.4809 -0.9318 17.4006 4.4577 2.1453 46.9811
#
#
#
# Elastic Compliance Matrix: (Units=1/GPa)
#
#
# Indices 1 2 3 4 5 6 
#
# 1 0.011855 -0.004471 -0.002788 -0.010354 -0.001970 -0.001638
# 2 -0.004471 0.012178 -0.001269 0.010307 0.000247 0.001100
# 3 -0.002788 -0.001269 0.015436 0.011563 -0.006794 -0.005670
# 4 -0.010354 0.010307 0.011563 0.108054 0.016737 -0.011903
# 5 -0.001970 0.000247 -0.006794 0.016737 0.059123 -0.001159
# 6 -0.001638 0.001100 -0.005670 -0.011903 -0.001159 0.025094
#
#
# Mechanical properties :
#
#
# Convention : Reuss Voigt Hill
#
# Bulk Modulus (GPa) = 44.61302 55.42471 50.01886
# Shear Modulus (GPa) = 19.51093 30.68763 25.09928
#
# Velocity S-wave (km/s) = 3.06147 3.83948 3.47233
# Velocity P-wave (km/s) = 5.82476 6.80295 6.33277
#
# Compressibility (1/GPa) = 0.02241498
#
# Stress axis : x y z
#
# Youngs Moduli (GPa) = 84.35047 82.11276 64.78382
#
# Poissons Ratio (x) = 0.36709 0.18061
# Poissons Ratio (y) = 0.37710 0.08220
# Poissons Ratio (z) = 0.23516 0.10418
#
# Static dielectric constant tensor:
#      x y z
#    x 4.115120 -0.049580 0.110590 
#    y -0.049580 4.123500 -0.214690 
#    z 0.110590 -0.214690 3.230610 
# 
# 
# High freq. dielectric constant tensor:
#      x y z
#    x 1.833660 0.001860 0.012220 
#    y 0.001860 1.831900 -0.017020 
#    z 0.012220 -0.017020 1.760350 
# 
# From -- ./inp_files/199398.got.cif
#   From: 2010.06.25/outbox.cif.g09.slc.cpg/sg2_100_cif.got.tgz:199398.got - 2010.06.27 13:26:56.
