data_PCOD8020712
_publ_section_title
;
Structure prediction by ZEFSAII (Michael W. Deem and Ramdas Pophale) SiO2 
 PCOD8020712
Probable space group: P -1
;
_chemical_formula_sum "Si O2"
_cell_formula_units_Z 16
_cell_length_a 12.214296
_cell_length_b 8.918157
_cell_length_c 20.129050
_cell_angle_alpha 32.097771
_cell_angle_beta 137.902577
_cell_angle_gamma 130.737284
_cell_volume 779.294212
_symmetry_space_group_name_H-M "P -1"
_symmetry_group_IT_number 2
_symmetry_cell_setting 'triclinic'
loop_
_space_group_symop_operation_xyz
x,y,z
-x,-y,-z
loop_
_atom_site_type_symbol
_atom_site_label
_atom_site_fract_x
_atom_site_fract_y
_atom_site_fract_z
Si Si1 0.808804 0.404223 0.954356
Si Si2 0.830138 0.797944 0.148802
Si Si3 0.562524 0.187543 0.652375
Si Si4 0.356721 0.040198 0.367779
Si Si5 0.926336 0.251948 0.836258
Si Si6 0.123582 0.720114 0.821347
Si Si7 0.376659 0.676584 0.837876
Si Si8 0.022534 0.786300 0.366707
O O1 0.694349 0.636839 0.785462
O O2 0.779182 0.365024 0.035629
O O3 0.000000 0.500000 0.000000
O O4 0.771209 0.121396 0.998034
O O5 0.692680 0.553562 0.160790
O O6 0.992872 0.738674 0.203353
O O7 0.875255 0.769593 0.255388
O O8 0.500000 0.500000 0.500000
O O9 0.732494 0.213008 0.758436
O O10 0.578270 0.063355 0.633499
O O11 0.445917 0.964169 0.725555
O O12 0.500000 0.000000 0.500000
O O13 0.200095 0.842635 0.393364
O O14 0.976362 0.505403 0.812522
O O15 0.000000 0.000000 0.000000
O O16 0.246580 0.775876 0.794899
O O17 0.016957 0.984358 0.683237
O O18 0.500000 0.500000 0.000000
O O19 0.000000 0.500000 0.500000
#
# Coordination Sequence:
#
# PCOD8020712 Si02
#       8
#     2   2   2   2   2   2   2   2
#     4  11  19  43  73 103 130 168 234 277 332 404
#     4  10  22  42  72  97 127 180 222 278 326 404
#     4  12  28  45  66 102 144 176 224 283 348 402
#     4  12  27  44  68 101 138 176 223 290 340 394
#     4  11  21  40  72  98 128 174 228 271 332 406
#     4  10  23  41  73 100 126 179 226 276 328 409
#     4  11  25  45  67 103 143 175 225 283 344 401
#     4  11  25  45  67  94 134 177 232 267 336 409
#
# _framework density 20.531399
#
# number of rings (size 3 to 8) (size 9 to 14) (size 15 to 20)
#    0.000    1.000    3.750    3.750    5.250    1.000 
#    0.000    4.375    0.000    0.000    0.000    0.000 
#    0.000    0.000    0.000    0.000    0.000    0.000 
#
# Total GULP energy -198268.380837 kJ/mol
# GULP energy per Si atom -12391.773802 kJ/mol
# Density = 2.048467 g / cm^3
# Si number density = 20.531399 Si / 1000 Ang^3
#
#
#
# Elastic Constant Matrix: (Units=GPa)
#
#
# Indices 1 2 3 4 5 6 
#
# 1 99.5569 64.2288 48.3291 -11.9882 -5.5897 6.2402
# 2 64.2288 153.1190 71.0478 -8.3150 -1.2654 4.1343
# 3 48.3291 71.0478 161.4322 -12.5613 -2.2279 8.2931
# 4 -11.9882 -8.3150 -12.5613 40.9912 8.2135 2.0395
# 5 -5.5897 -1.2654 -2.2279 8.2135 26.9657 -7.6411
# 6 6.2402 4.1343 8.2931 2.0395 -7.6411 36.7125
#
#
#
# Elastic Compliance Matrix: (Units=1/GPa)
#
#
# Indices 1 2 3 4 5 6 
#
# 1 0.014725 -0.005126 -0.001872 0.002450 0.001537 -0.001319
# 2 -0.005126 0.010006 -0.002911 -0.000238 -0.000684 0.000273
# 3 -0.001872 -0.002911 0.008226 0.001605 -0.000747 -0.001457
# 4 0.002450 -0.000238 0.001605 0.027552 -0.008937 -0.004143
# 5 0.001537 -0.000684 -0.000747 -0.008937 0.042685 0.009365
# 6 -0.001319 0.000273 -0.001457 -0.004143 0.009365 0.029940
#
#
# Mechanical properties :
#
#
# Convention : Reuss Voigt Hill
#
# Bulk Modulus (GPa) = 76.12249 86.81327 81.46788
# Shear Modulus (GPa) = 31.77985 36.30071 34.04028
#
# Velocity S-wave (km/s) = 3.93856 4.20939 4.07623
# Velocity P-wave (km/s) = 7.60524 8.12405 7.86892
#
# Compressibility (1/GPa) = 0.01313672
#
# Stress axis : x y z
#
# Youngs Moduli (GPa) = 67.91275 99.94018 121.57074
#
# Poissons Ratio (x) = 0.51233 0.22764
# Poissons Ratio (y) = 0.34815 0.35389
# Poissons Ratio (z) = 0.12716 0.29093
#
# Static dielectric constant tensor:
#      x y z
#    x 3.218520 -0.196240 0.064660 
#    y -0.196240 3.941250 -0.036600 
#    z 0.064660 -0.036600 4.088720 
# 
# 
# High freq. dielectric constant tensor:
#      x y z
#    x 1.813620 -0.013230 -0.002070 
#    y -0.013230 1.815540 -0.007130 
#    z -0.002070 -0.007130 1.806110 
# 
# From -- ./inp_files/271913.got.cif
#   From: 2010.06.25/outbox.cif.g09.slc.cpg/sg2_136_cif.got.tgz:271913.got - 2010.06.27 13:26:56.
