data_PCOD8020731
_publ_section_title
;
Structure prediction by ZEFSAII (Michael W. Deem and Ramdas Pophale) SiO2 
 PCOD8020731
Probable space group: P -1
;
_chemical_formula_sum "Si O2"
_cell_formula_units_Z 16
_cell_length_a 15.106573
_cell_length_b 11.755860
_cell_length_c 9.225566
_cell_angle_alpha 67.144828
_cell_angle_beta 79.271855
_cell_angle_gamma 135.902680
_cell_volume 723.286928
_symmetry_space_group_name_H-M "P -1"
_symmetry_group_IT_number 2
_symmetry_cell_setting 'triclinic'
loop_
_space_group_symop_operation_xyz
x,y,z
-x,-y,-z
loop_
_atom_site_type_symbol
_atom_site_label
_atom_site_fract_x
_atom_site_fract_y
_atom_site_fract_z
Si Si1 0.663674 0.400073 0.350454
Si Si2 0.718814 0.172861 0.740104
Si Si3 0.365881 0.685773 0.913931
Si Si4 0.302004 0.322955 0.610194
Si Si5 0.314651 0.885699 0.880213
Si Si6 0.931680 0.184332 0.990620
Si Si7 0.146303 0.258755 0.407167
Si Si8 0.986531 0.284445 0.610137
O O1 0.580363 0.311139 0.257619
O O2 0.730197 0.609942 0.293163
O O3 0.847911 0.539573 0.196758
O O4 0.514042 0.157992 0.618380
O O5 0.809867 0.416218 0.568295
O O6 0.861267 0.241307 0.599511
O O7 0.543190 0.956383 0.801098
O O8 0.663727 0.088182 0.965712
O O9 0.242788 0.665303 0.953329
O O10 0.280590 0.476151 0.139272
O O11 0.500000 0.500000 0.500000
O O12 0.278158 0.352104 0.441672
O O13 0.144963 0.030958 0.805595
O O14 0.165767 0.810954 0.914649
O O15 0.884447 0.116460 0.868895
O O16 0.009604 0.197266 0.542818
O O17 0.000000 0.000000 0.500000
#
# Coordination Sequence:
#
# PCOD8020731 Si02
#       8
#     2   2   2   2   2   2   2   2
#     4  12  25  45  68 107 144 190 236 294 361 431
#     4  10  22  43  72 104 136 181 231 297 365 421
#     4  12  26  42  71 106 146 179 236 302 360 422
#     4  12  26  48  75  98 144 198 245 290 359 437
#     4  11  23  45  72 101 138 185 240 292 355 427
#     4  11  24  43  74 100 136 190 243 285 354 430
#     4  12  27  47  70 104 145 187 240 303 357 427
#     4  10  22  42  73 102 134 182 236 292 359 426
#
# _framework density 22.121233
#
# number of rings (size 3 to 8) (size 9 to 14) (size 15 to 20)
#    0.000    0.750    3.750    3.375    3.500    1.500 
#    2.250    1.250    0.000    0.000    0.000    0.000 
#    0.000    0.000    0.000    0.000    0.000    0.000 
#
# Total GULP energy -198335.557053 kJ/mol
# GULP energy per Si atom -12395.972316 kJ/mol
# Density = 2.207088 g / cm^3
# Si number density = 22.121233 Si / 1000 Ang^3
#
#
#
# Elastic Constant Matrix: (Units=GPa)
#
#
# Indices 1 2 3 4 5 6 
#
# 1 110.3063 53.7167 50.8934 -5.3224 0.5862 -12.1994
# 2 53.7167 119.7677 39.2165 10.6289 1.1505 -12.6372
# 3 50.8934 39.2165 129.8040 -7.1485 6.2968 -4.6423
# 4 -5.3224 10.6289 -7.1485 32.1308 1.8910 1.6266
# 5 0.5862 1.1505 6.2968 1.8910 39.4125 -7.7676
# 6 -12.1994 -12.6372 -4.6423 1.6266 -7.7676 23.0545
#
#
#
# Elastic Compliance Matrix: (Units=1/GPa)
#
#
# Indices 1 2 3 4 5 6 
#
# 1 0.013650 -0.004739 -0.003682 0.002732 0.001200 0.004096
# 2 -0.004739 0.012081 -0.001993 -0.005523 0.001189 0.004504
# 3 -0.003682 -0.001993 0.009913 0.002465 -0.001959 -0.001878
# 4 0.002732 -0.005523 0.002465 0.034341 -0.002798 -0.004451
# 5 0.001200 0.001189 -0.001959 -0.002798 0.027830 0.010466
# 6 0.004096 0.004504 -0.001878 -0.004451 0.010466 0.051473
#
#
# Mechanical properties :
#
#
# Convention : Reuss Voigt Hill
#
# Bulk Modulus (GPa) = 67.48294 71.94791 69.71542
# Shear Modulus (GPa) = 28.56257 33.32300 30.94279
#
# Velocity S-wave (km/s) = 3.59720 3.88542 3.74409
# Velocity P-wave (km/s) = 6.91559 7.26111 7.09045
#
# Compressibility (1/GPa) = 0.01481856
#
# Stress axis : x y z
#
# Youngs Moduli (GPa) = 73.25856 82.77331 100.87622
#
# Poissons Ratio (x) = 0.39222 0.37139
# Poissons Ratio (y) = 0.34714 0.20103
# Poissons Ratio (z) = 0.26971 0.16495
#
# Static dielectric constant tensor:
#      x y z
#    x 4.321370 -0.083030 -0.037580 
#    y -0.083030 3.854700 0.071490 
#    z -0.037580 0.071490 4.273200 
# 
# 
# High freq. dielectric constant tensor:
#      x y z
#    x 1.883440 -0.006830 0.003140 
#    y -0.006830 1.859480 0.000390 
#    z 0.003140 0.000390 1.880060 
# 
# From -- ./inp_files/331930.got.cif
#   From: 2010.06.25/outbox.cif.g09.slc.cpg/sg2_166_cif.got.tgz:331930.got - 2010.06.27 13:26:56.
