data_PCOD8020788
_publ_section_title
;
Structure prediction by ZEFSAII (Michael W. Deem and Ramdas Pophale) SiO2 
 PCOD8020788
Probable space group: P -1
;
_chemical_formula_sum "Si O2"
_cell_formula_units_Z 12
_cell_length_a 24.515357
_cell_length_b 6.796550
_cell_length_c 7.803096
_cell_angle_alpha 73.649501
_cell_angle_beta 34.628128
_cell_angle_gamma 58.167169
_cell_volume 595.547128
_symmetry_space_group_name_H-M "P -1"
_symmetry_group_IT_number 2
_symmetry_cell_setting 'triclinic'
loop_
_space_group_symop_operation_xyz
x,y,z
-x,-y,-z
loop_
_atom_site_type_symbol
_atom_site_label
_atom_site_fract_x
_atom_site_fract_y
_atom_site_fract_z
Si Si1 0.523046 0.942325 0.257727
Si Si2 0.939154 0.243696 0.207062
Si Si3 0.655396 0.161192 0.737746
Si Si4 0.301901 0.616118 0.109118
Si Si5 0.134691 0.253501 0.861014
Si Si6 0.326215 0.891760 0.666785
O O1 0.409713 0.987786 0.450399
O O2 0.500000 0.000000 0.500000
O O3 0.630361 0.669355 0.024387
O O4 0.552589 0.125991 0.053405
O O5 0.832604 0.271029 0.576560
O O6 0.899125 0.468782 0.125223
O O7 0.023318 0.239619 0.133829
O O8 0.000000 0.000000 0.000000
O O9 0.659530 0.338987 0.818900
O O10 0.635415 0.271936 0.567965
O O11 0.777508 0.898872 0.485540
O O12 0.333840 0.737424 0.847409
O O13 0.197852 0.131091 0.909149
#
# Coordination Sequence:
#
# PCOD8020788 Si02
#       6
#     2   2   2   2   2   2
#     4  12  24  43  66  93 132 174 205 264 322 372
#     4  11  20  40  70  90 128 169 207 260 324 369
#     4  10  22  43  62  93 126 169 210 257 319 367
#     4  12  23  42  67  95 129 166 213 267 311 378
#     4   9  22  42  62  94 125 165 211 259 313 379
#     4  10  23  43  63  97 126 167 220 254 318 380
#
# _framework density 20.149540999999999
#
# number of rings (size 3 to 8) (size 9 to 14) (size 15 to 20)
#    1.000    0.333    5.000    1.000    0.000    1.333 
#    9.000    0.833    0.000    0.000    0.000    0.000 
#    0.000    0.000    0.000    0.000    0.000    0.000 
#
# Total GULP energy -148754.705126 kJ/mol
# GULP energy per Si atom -12396.225427 kJ/mol
# Density = 2.010368 g / cm^3
# Si number density = 20.149541 Si / 1000 Ang^3
#
#
#
# Elastic Constant Matrix: (Units=GPa)
#
#
# Indices 1 2 3 4 5 6 
#
# 1 108.7200 10.5732 44.2745 1.9806 -0.1685 12.0146
# 2 10.5732 64.5263 24.4618 15.6873 1.5105 16.8238
# 3 44.2745 24.4618 97.6102 -5.9700 -13.3274 22.6866
# 4 1.9806 15.6873 -5.9700 36.2474 8.9662 -3.5188
# 5 -0.1685 1.5105 -13.3274 8.9662 42.9912 4.0713
# 6 12.0146 16.8238 22.6866 -3.5188 4.0713 26.8319
#
#
#
# Elastic Compliance Matrix: (Units=1/GPa)
#
#
# Indices 1 2 3 4 5 6 
#
# 1 0.011482 0.000942 -0.005441 -0.001749 -0.001198 -0.001179
# 2 0.000942 0.023358 -0.003499 -0.012613 0.002062 -0.014075
# 3 -0.005441 -0.003499 0.016911 0.002148 0.005869 -0.010277
# 4 -0.001749 -0.012613 0.002148 0.036665 -0.007763 0.012862
# 5 -0.001198 0.002062 0.005869 -0.007763 0.027657 -0.010933
# 6 -0.001179 -0.014075 -0.010277 0.012862 -0.010933 0.058658
#
#
# Mechanical properties :
#
#
# Convention : Reuss Voigt Hill
#
# Bulk Modulus (GPa) = 27.96830 47.71949 37.84390
# Shear Modulus (GPa) = 24.67357 33.98389 29.32873
#
# Velocity S-wave (km/s) = 3.50311 4.11126 3.81931
# Velocity P-wave (km/s) = 5.50208 6.80226 6.18642
#
# Compressibility (1/GPa) = 0.03575476
#
# Stress axis : x y z
#
# Youngs Moduli (GPa) = 87.09032 42.81212 59.13324
#
# Poissons Ratio (x) = -0.04033 0.32173
# Poissons Ratio (y) = -0.08203 0.20693
# Poissons Ratio (z) = 0.47383 0.14982
#
# Static dielectric constant tensor:
#      x y z
#    x 3.641340 0.127730 -0.223450 
#    y 0.127730 3.513950 0.009530 
#    z -0.223450 0.009530 3.796880 
# 
# 
# High freq. dielectric constant tensor:
#      x y z
#    x 1.784510 0.008690 -0.018310 
#    y 0.008690 1.781830 -0.000690 
#    z -0.018310 -0.000690 1.792260 
# 
# From -- ./inp_files/39153.got.cif
#   From: 2010.06.25/outbox.cif.g09.slc.cpg/sg2_20_cif.got.tgz:39153.got - 2010.06.27 13:26:56.
