data_PCOD8020693
_publ_section_title
;
Structure prediction by ZEFSAII (Michael W. Deem and Ramdas Pophale) SiO2 
 PCOD8020693
Probable space group: P -1
;
_chemical_formula_sum "Si O2"
_cell_formula_units_Z 14
_cell_length_a 8.189534
_cell_length_b 11.551249
_cell_length_c 9.805407
_cell_angle_alpha 54.154803
_cell_angle_beta 105.455699
_cell_angle_gamma 126.403608
_cell_volume 600.486557
_symmetry_space_group_name_H-M "P -1"
_symmetry_group_IT_number 2
_symmetry_cell_setting 'triclinic'
loop_
_space_group_symop_operation_xyz
x,y,z
-x,-y,-z
loop_
_atom_site_type_symbol
_atom_site_label
_atom_site_fract_x
_atom_site_fract_y
_atom_site_fract_z
Si Si1 0.079317 0.663925 0.997083
Si Si2 0.692581 0.555561 0.412750
Si Si3 0.943591 0.090222 0.813299
Si Si4 0.651011 0.490831 0.138370
Si Si5 0.615856 0.892603 0.671690
Si Si6 0.282579 0.729979 0.266086
Si Si7 0.637136 0.992088 0.327570
O O1 0.172047 0.829808 0.807807
O O2 0.253049 0.691553 0.123226
O O3 0.000000 0.500000 0.000000
O O4 0.886061 0.633701 0.057358
O O5 0.500000 0.500000 0.500000
O O6 0.614060 0.518362 0.266068
O O7 0.793023 0.449001 0.548834
O O8 0.857373 0.759972 0.327425
O O9 0.841678 0.185111 0.786669
O O10 0.799505 0.933968 0.784868
O O11 0.000000 0.000000 0.000000
O O12 0.590487 0.297892 0.234718
O O13 0.500000 0.500000 0.000000
O O14 0.545374 0.011989 0.630752
O O15 0.711085 0.928125 0.514247
O O16 0.524530 0.860459 0.266403
#
# Coordination Sequence:
#
# PCOD8020693 Si02
#       7
#     2   2   2   2   2   2   2
#     4  12  26  41  75 105 141 184 246 296 370 429
#     4  12  28  48  74 106 147 198 248 298 364 432
#     4  11  25  46  75 106 144 191 239 304 368 430
#     4  12  26  48  68 105 147 190 236 305 363 432
#     4  10  22  42  71  99 145 175 239 290 365 427
#     4  11  25  47  75 103 148 188 247 297 366 436
#     4  10  22  43  70 107 133 187 232 301 355 438
#
# _framework density 23.314425
#
# number of rings (size 3 to 8) (size 9 to 14) (size 15 to 20)
#    0.000    0.857    4.286    1.714    4.000    3.429 
#    0.000    1.429    0.000    0.000    0.000    0.000 
#    0.000    0.000    0.000    0.000    0.000    0.000 
#
# Total GULP energy -173520.802168 kJ/mol
# GULP energy per Si atom -12394.343012 kJ/mol
# Density = 2.326136 g / cm^3
# Si number density = 23.314425 Si / 1000 Ang^3
#
#
#
# Elastic Constant Matrix: (Units=GPa)
#
#
# Indices 1 2 3 4 5 6 
#
# 1 74.8668 26.5882 50.5644 1.0244 -1.6541 3.4975
# 2 26.5882 143.4201 60.6925 9.8197 -12.7229 28.8575
# 3 50.5644 60.6925 170.0155 1.4471 1.1782 16.8091
# 4 1.0244 9.8197 1.4471 61.3446 6.4519 -1.5714
# 5 -1.6541 -12.7229 1.1782 6.4519 37.2452 -2.5501
# 6 3.4975 28.8575 16.8091 -1.5714 -2.5501 29.1458
#
#
#
# Elastic Compliance Matrix: (Units=1/GPa)
#
#
# Indices 1 2 3 4 5 6 
#
# 1 0.017013 -0.001575 -0.004729 0.000085 0.000509 0.002294
# 2 -0.001575 0.010467 -0.002423 -0.002167 0.003369 -0.008600
# 3 -0.004729 -0.002423 0.008354 0.000377 -0.001502 -0.001963
# 4 0.000085 -0.002167 0.000377 0.017074 -0.003533 0.002529
# 5 0.000509 0.003369 -0.001502 -0.003533 0.028667 -0.000213
# 6 0.002294 -0.008600 -0.001963 0.002529 -0.000213 0.043799
#
#
# Mechanical properties :
#
#
# Convention : Reuss Voigt Hill
#
# Bulk Modulus (GPa) = 54.40283 73.77696 64.08990
# Shear Modulus (GPa) = 33.56694 42.24427 37.90561
#
# Velocity S-wave (km/s) = 3.79852 4.26130 4.03655
# Velocity P-wave (km/s) = 6.52866 7.47828 7.01955
#
# Compressibility (1/GPa) = 0.01838140
#
# Stress axis : x y z
#
# Youngs Moduli (GPa) = 58.77833 95.53514 119.69823
#
# Poissons Ratio (x) = 0.15048 0.56601
# Poissons Ratio (y) = 0.09259 0.29001
# Poissons Ratio (z) = 0.27794 0.23147
#
# Static dielectric constant tensor:
#      x y z
#    x 3.891470 0.347390 0.096670 
#    y 0.347390 6.371000 -0.222770 
#    z 0.096670 -0.222770 4.502420 
# 
# 
# High freq. dielectric constant tensor:
#      x y z
#    x 1.889060 0.008730 0.005720 
#    y 0.008730 1.946550 0.005980 
#    z 0.005720 0.005980 1.936420 
# 
# From -- ./inp_files/185156.got.cif
#   From: 2010.06.25/outbox.cif.g09.slc.cpg/sg2_93_cif.got.tgz:185156.got - 2010.06.27 13:26:56.
