data_PCOD8020474
_publ_section_title
;
Structure prediction by ZEFSAII (Michael W. Deem and Ramdas Pophale) SiO2 
 PCOD8020474
Probable space group: P -1
;
_chemical_formula_sum "Si O2"
_cell_formula_units_Z 16
_cell_length_a 16.063989
_cell_length_b 9.852093
_cell_length_c 9.350363
_cell_angle_alpha 118.196529
_cell_angle_beta 115.857132
_cell_angle_gamma 35.475873
_cell_volume 753.092253
_symmetry_space_group_name_H-M "P -1"
_symmetry_group_IT_number 2
_symmetry_cell_setting 'triclinic'
loop_
_space_group_symop_operation_xyz
x,y,z
-x,-y,-z
loop_
_atom_site_type_symbol
_atom_site_label
_atom_site_fract_x
_atom_site_fract_y
_atom_site_fract_z
Si Si1 0.554101 0.103165 0.275591
Si Si2 0.857613 0.754693 0.859506
Si Si3 0.550525 0.082533 0.767445
Si Si4 0.854215 0.762270 0.190766
Si Si5 0.136236 0.891075 0.967449
Si Si6 0.134139 0.891054 0.633929
Si Si7 0.446968 0.404268 0.606479
Si Si8 0.562627 0.572697 0.906001
O O1 0.543427 0.248409 0.461569
O O2 0.447707 0.290929 0.162118
O O3 0.502711 0.006580 0.248492
O O4 0.717827 0.874760 0.232679
O O5 0.999985 0.499531 0.767364
O O6 0.717205 0.860249 0.731327
O O7 0.842652 0.726216 0.999898
O O8 0.861046 0.930829 0.923523
O O9 0.456019 0.245255 0.639131
O O10 0.541841 0.234166 0.950444
O O11 0.863098 0.931812 0.297203
O O12 0.125879 0.855482 0.776448
O O13 0.275627 0.638613 0.020222
O O14 0.000000 0.000000 0.000000
O O15 0.280935 0.634759 0.550223
O O16 0.000000 0.000000 0.500000
O O17 0.503911 0.482573 0.768664
#
# Coordination Sequence:
#
# PCOD8020474 Si02
#       8
#     2   2   2   2   2   2   2   2
#     4  12  27  41  71 108 141 179 236 291 349 412
#     4  10  22  42  68  97 138 180 225 286 346 404
#     4  12  24  45  72 102 136 188 235 286 345 416
#     4  10  23  42  66  99 138 179 228 280 347 413
#     4  11  25  42  71 104 132 180 239 288 336 411
#     4  11  25  44  68  99 142 184 224 284 356 414
#     4  12  25  46  71  99 143 185 232 290 353 409
#     4  12  23  45  75  99 133 183 245 287 328 414
#
# _framework density 21.245736999999998
#
# number of rings (size 3 to 8) (size 9 to 14) (size 15 to 20)
#    0.000    0.750    5.000    2.250    5.250    1.000 
#    0.000    0.625    0.000    0.000    0.000    0.000 
#    0.000    0.000    0.000    0.000    0.000    0.000 
#
# Total GULP energy -198457.955728 kJ/mol
# GULP energy per Si atom -12403.622233 kJ/mol
# Density = 2.119738 g / cm^3
# Si number density = 21.245737 Si / 1000 Ang^3
#
#
#
# Elastic Constant Matrix: (Units=GPa)
#
#
# Indices 1 2 3 4 5 6 
#
# 1 108.3921 58.3611 33.8010 0.2614 0.7936 -33.5591
# 2 58.3611 171.2942 55.2495 -7.8361 -0.5574 -25.8025
# 3 33.8010 55.2495 80.2738 -7.6587 -6.7295 -17.3482
# 4 0.2614 -7.8361 -7.6587 33.5240 -8.1110 0.1778
# 5 0.7936 -0.5574 -6.7295 -8.1110 28.3364 -5.1869
# 6 -33.5591 -25.8025 -17.3482 0.1778 -5.1869 27.9467
#
#
#
# Elastic Compliance Matrix: (Units=1/GPa)
#
#
# Indices 1 2 3 4 5 6 
#
# 1 0.016152 -0.002606 -0.001321 -0.000633 0.002031 0.016550
# 2 -0.002606 0.008424 -0.004173 0.001003 -0.000093 0.002034
# 3 -0.001321 -0.004173 0.018548 0.004958 0.007127 0.007367
# 4 -0.000633 0.001003 0.004958 0.034058 0.011923 0.005239
# 5 0.002031 -0.000093 0.007127 0.011923 0.043025 0.014687
# 6 0.016550 0.002034 0.007367 0.005239 0.014687 0.064799
#
#
# Mechanical properties :
#
#
# Convention : Reuss Voigt Hill
#
# Bulk Modulus (GPa) = 37.14222 72.75370 54.94796
# Shear Modulus (GPa) = 23.78911 32.13133 27.96022
#
# Velocity S-wave (km/s) = 3.34984 3.89313 3.63166
# Velocity P-wave (km/s) = 5.69930 7.38423 6.59579
#
# Compressibility (1/GPa) = 0.02692354
#
# Stress axis : x y z
#
# Youngs Moduli (GPa) = 61.91331 118.71178 53.91414
#
# Poissons Ratio (x) = 0.30941 0.07120
# Poissons Ratio (y) = 0.16137 0.22498
# Poissons Ratio (z) = 0.08176 0.49538
#
# Static dielectric constant tensor:
#      x y z
#    x 3.626390 -0.058760 -0.186130 
#    y -0.058760 4.394410 0.015970 
#    z -0.186130 0.015970 3.870470 
# 
# 
# High freq. dielectric constant tensor:
#      x y z
#    x 1.832970 0.001060 -0.003540 
#    y 0.001060 1.856950 0.000420 
#    z -0.003540 0.000420 1.822280 
# 
# From -- ./inp_files/299297.got.cif
#   From: 2010.06.25/outbox.cif.g09.slc.cpg/sg2_150_cif.got.tgz:299297.got - 2010.06.27 13:26:56.
