data_PCOD8020750
_publ_section_title
;
Structure prediction by ZEFSAII (Michael W. Deem and Ramdas Pophale) SiO2 
 PCOD8020750
Probable space group: P -1
;
_chemical_formula_sum "Si O2"
_cell_formula_units_Z 16
_cell_length_a 8.956756
_cell_length_b 8.752816
_cell_length_c 21.317433
_cell_angle_alpha 31.316451
_cell_angle_beta 62.998738
_cell_angle_gamma 59.531316
_cell_volume 747.877926
_symmetry_space_group_name_H-M "P -1"
_symmetry_group_IT_number 2
_symmetry_cell_setting 'triclinic'
loop_
_space_group_symop_operation_xyz
x,y,z
-x,-y,-z
loop_
_atom_site_type_symbol
_atom_site_label
_atom_site_fract_x
_atom_site_fract_y
_atom_site_fract_z
Si Si1 0.744227 0.110750 0.822252
Si Si2 0.507296 0.280092 0.517790
Si Si3 0.396115 0.401873 0.223510
Si Si4 0.608078 0.564587 0.015096
Si Si5 0.019577 0.548857 0.186642
Si Si6 0.165809 0.462354 0.438134
Si Si7 0.956641 0.172325 0.044238
Si Si8 0.851302 0.103039 0.441125
O O1 0.621823 0.401136 0.778749
O O2 0.852540 0.227731 0.706439
O O3 0.873082 0.896963 0.921560
O O4 0.627299 0.908192 0.885215
O O5 0.500000 0.500000 0.500000
O O6 0.337244 0.408891 0.464810
O O7 0.675224 0.288044 0.442423
O O8 0.509031 0.944031 0.658156
O O9 0.510837 0.539778 0.106402
O O10 0.210970 0.413536 0.224427
O O11 0.793036 0.319512 0.066978
O O12 0.500000 0.500000 0.000000
O O13 0.904671 0.315442 0.304218
O O14 0.024949 0.588563 0.096934
O O15 0.928282 0.868017 0.124858
O O16 0.000000 0.500000 0.500000
O O17 0.182088 0.191618 0.481245
O O18 0.000000 0.000000 0.500000
#
# Coordination Sequence:
#
# PCOD8020750 Si02
#       8
#     2   2   2   2   2   2   2   2
#     4  11  26  49  67  96 147 179 233 287 349 427
#     4  12  28  46  72 104 142 186 243 292 357 424
#     4  11  24  47  69 103 140 185 231 286 352 421
#     4  12  26  41  73 102 137 178 235 291 346 402
#     4  10  22  42  73  99 144 175 232 280 351 414
#     4  12  29  47  72 106 142 187 239 292 361 428
#     4  10  23  44  66 104 132 185 228 281 343 414
#     4  12  23  46  75 104 142 189 228 296 358 421
#
# _framework density 21.393865000000002
#
# number of rings (size 3 to 8) (size 9 to 14) (size 15 to 20)
#    0.000    0.750    3.750    2.625    7.000    1.000 
#    0.000    0.000    0.000    0.000    0.000    0.000 
#    0.000    0.000    0.000    0.000    0.000    0.000 
#
# Total GULP energy -198521.900544 kJ/mol
# GULP energy per Si atom -12407.618784 kJ/mol
# Density = 2.134517 g / cm^3
# Si number density = 21.393865 Si / 1000 Ang^3
#
#
#
# Elastic Constant Matrix: (Units=GPa)
#
#
# Indices 1 2 3 4 5 6 
#
# 1 114.9034 49.0087 30.1901 1.3551 -6.5577 13.3650
# 2 49.0087 121.1396 25.6853 5.1985 -13.1026 -4.3011
# 3 30.1901 25.6853 123.8460 12.6129 -20.9906 4.8753
# 4 1.3551 5.1985 12.6129 40.3820 -2.8405 -8.6547
# 5 -6.5577 -13.1026 -20.9906 -2.8405 39.2016 2.9174
# 6 13.3650 -4.3011 4.8753 -8.6547 2.9174 41.0398
#
#
#
# Elastic Compliance Matrix: (Units=1/GPa)
#
#
# Indices 1 2 3 4 5 6 
#
# 1 0.011517 -0.004448 -0.001747 -0.000146 -0.000206 -0.004025
# 2 -0.004448 0.010557 -0.000808 -0.000284 0.002150 0.002438
# 3 -0.001747 -0.000808 0.009809 -0.002926 0.004599 -0.001625
# 4 -0.000146 -0.000284 -0.002926 0.027008 -0.000181 0.006074
# 5 -0.000206 0.002150 0.004599 -0.000181 0.028817 -0.002341
# 6 -0.004025 0.002438 -0.001625 0.006074 -0.002341 0.027573
#
#
# Mechanical properties :
#
#
# Convention : Reuss Voigt Hill
#
# Bulk Modulus (GPa) = 55.93401 63.29523 59.61462
# Shear Modulus (GPa) = 36.96947 41.12499 39.04723
#
# Velocity S-wave (km/s) = 4.16148 4.38914 4.27682
# Velocity P-wave (km/s) = 7.02084 7.43881 7.23285
#
# Compressibility (1/GPa) = 0.01787821
#
# Stress axis : x y z
#
# Youngs Moduli (GPa) = 86.82608 94.72340 101.94309
#
# Poissons Ratio (x) = 0.42134 0.17807
# Poissons Ratio (y) = 0.38621 0.08236
# Poissons Ratio (z) = 0.15166 0.07653
#
# Static dielectric constant tensor:
#      x y z
#    x 3.838100 -0.024290 -0.047510 
#    y -0.024290 4.112470 0.083510 
#    z -0.047510 0.083510 4.133070 
# 
# 
# High freq. dielectric constant tensor:
#      x y z
#    x 1.840080 0.001600 -0.002060 
#    y 0.001600 1.853470 0.002510 
#    z -0.002060 0.002510 1.852610 
# 
# From -- ./inp_files/383186.got.cif
#   From: 2010.06.25/outbox.cif.g09.slc.cpg/sg2_192_cif.got.tgz:383186.got - 2010.06.27 13:26:56.
