data_PCOD8020642
_publ_section_title
;
Structure prediction by ZEFSAII (Michael W. Deem and Ramdas Pophale) SiO2 
 PCOD8020642
Probable space group: P -1
;
_chemical_formula_sum "Si O2"
_cell_formula_units_Z 16
_cell_length_a 14.702161
_cell_length_b 12.366202
_cell_length_c 8.655034
_cell_angle_alpha 71.677012
_cell_angle_beta 125.222564
_cell_angle_gamma 62.991785
_cell_volume 699.527596
_symmetry_space_group_name_H-M "P -1"
_symmetry_group_IT_number 2
_symmetry_cell_setting 'triclinic'
loop_
_space_group_symop_operation_xyz
x,y,z
-x,-y,-z
loop_
_atom_site_type_symbol
_atom_site_label
_atom_site_fract_x
_atom_site_fract_y
_atom_site_fract_z
Si Si1 0.608525 0.898676 0.490789
Si Si2 0.414639 0.680681 0.255514
Si Si3 0.861049 0.826895 0.571387
Si Si4 0.007054 0.918541 0.197018
Si Si5 0.936242 0.395933 0.639270
Si Si6 0.197036 0.870657 0.672665
Si Si7 0.778884 0.526673 0.751633
Si Si8 0.753542 0.768851 0.197951
O O1 0.755066 0.878702 0.603777
O O2 0.731707 0.681877 0.722072
O O3 0.500000 0.000000 0.500000
O O4 0.469074 0.013864 0.150723
O O5 0.500000 0.500000 0.500000
O O6 0.578421 0.638260 0.452696
O O7 0.379796 0.676297 0.042968
O O8 0.209318 0.896925 0.025581
O O9 0.834105 0.758569 0.437865
O O10 0.775622 0.017219 0.349261
O O11 0.090098 0.653563 0.915888
O O12 0.080524 0.726898 0.340502
O O13 0.182008 0.829788 0.506379
O O14 0.000000 0.000000 0.000000
O O15 0.914649 0.440432 0.777822
O O16 0.777568 0.610154 0.299426
O O17 0.141123 0.268168 0.833946
O O18 0.000000 0.000000 0.500000
#
# Coordination Sequence:
#
# PCOD8020642 Si02
#       8
#     2   2   2   2   2   2   2   2
#     4  12  27  45  66 103 141 179 238 288 354 417
#     4  11  24  45  70 101 139 185 236 289 349 414
#     4  12  24  44  73 102 138 188 234 286 356 415
#     4  11  23  46  72 102 139 185 235 295 349 416
#     4  11  24  42  71  98 143 182 231 281 358 414
#     4  10  22  42  70  99 135 180 231 283 343 413
#     4  12  25  44  68  99 142 183 230 289 349 420
#     4  11  25  44  70 101 140 184 230 290 349 425
#
# _framework density 22.872577
#
# number of rings (size 3 to 8) (size 9 to 14) (size 15 to 20)
#    0.000    0.750    1.250    7.500    5.250    1.000 
#    0.000    3.750    0.000    0.000    0.000    0.000 
#    0.000    0.000    0.000    0.000    0.000    0.000 
#
# Total GULP energy -198265.919894 kJ/mol
# GULP energy per Si atom -12391.619993 kJ/mol
# Density = 2.282052 g / cm^3
# Si number density = 22.872577 Si / 1000 Ang^3
#
#
#
# Elastic Constant Matrix: (Units=GPa)
#
#
# Indices 1 2 3 4 5 6 
#
# 1 124.1532 52.9880 36.3996 6.3538 -13.9668 8.9031
# 2 52.9880 126.8069 40.6745 -1.9767 -15.8306 7.3252
# 3 36.3996 40.6745 158.6456 18.7876 -12.2645 7.8031
# 4 6.3538 -1.9767 18.7876 35.1633 5.4804 -7.5803
# 5 -13.9668 -15.8306 -12.2645 5.4804 37.4974 -8.1247
# 6 8.9031 7.3252 7.8031 -7.5803 -8.1247 46.0451
#
#
#
# Elastic Compliance Matrix: (Units=1/GPa)
#
#
# Indices 1 2 3 4 5 6 
#
# 1 0.010351 -0.003732 -0.000945 -0.002158 0.002016 -0.001247
# 2 -0.003732 0.010331 -0.001865 0.001943 0.002096 0.000084
# 3 -0.000945 -0.001865 0.007748 -0.004629 0.001794 -0.001279
# 4 -0.002158 0.001943 -0.004629 0.033401 -0.005193 0.005475
# 5 0.002016 0.002096 0.001794 -0.005193 0.030405 0.003483
# 6 -0.001247 0.000084 -0.001279 0.005475 0.003483 0.023678
#
#
# Mechanical properties :
#
#
# Convention : Reuss Voigt Hill
#
# Bulk Modulus (GPa) = 65.16325 74.41444 69.78885
# Shear Modulus (GPa) = 37.28189 42.37739 39.82964
#
# Velocity S-wave (km/s) = 4.04168 4.30904 4.17750
# Velocity P-wave (km/s) = 7.09449 7.57378 7.33805
#
# Compressibility (1/GPa) = 0.01534607
#
# Stress axis : x y z
#
# Youngs Moduli (GPa) = 96.60671 96.79939 129.06317
#
# Poissons Ratio (x) = 0.36127 0.12201
# Poissons Ratio (y) = 0.36055 0.24064
# Poissons Ratio (z) = 0.09133 0.18048
#
# Static dielectric constant tensor:
#      x y z
#    x 4.545690 -0.010750 0.256880 
#    y -0.010750 4.125090 0.097120 
#    z 0.256880 0.097120 5.035960 
# 
# 
# High freq. dielectric constant tensor:
#      x y z
#    x 1.912730 0.003110 -0.012480 
#    y 0.003110 1.892840 -0.000950 
#    z -0.012480 -0.000950 1.919860 
# 
# From -- ./inp_files/307163.got.cif
#   From: 2010.06.25/outbox.cif.g09.slc.cpg/sg2_154_cif.got.tgz:307163.got - 2010.06.27 13:26:56.
