data_PCOD8020031
_publ_section_title
;
Structure prediction by ZEFSAII (Michael W. Deem and Ramdas Pophale) SiO2 
 PCOD8020031
Probable space group: P -1
;
_chemical_formula_sum "Si O2"
_cell_formula_units_Z 14
_cell_length_a 25.524148
_cell_length_b 11.153017
_cell_length_c 7.089008
_cell_angle_alpha 118.077130
_cell_angle_beta 63.025904
_cell_angle_gamma 158.643292
_cell_volume 647.695810
_symmetry_space_group_name_H-M "P -1"
_symmetry_group_IT_number 2
_symmetry_cell_setting 'triclinic'
loop_
_space_group_symop_operation_xyz
x,y,z
-x,-y,-z
loop_
_atom_site_type_symbol
_atom_site_label
_atom_site_fract_x
_atom_site_fract_y
_atom_site_fract_z
Si Si1 0.469480 0.795911 0.500290
Si Si2 0.562683 0.693679 0.727975
Si Si3 0.148440 0.817361 0.258032
Si Si4 0.732889 0.590569 0.097997
Si Si5 0.674706 0.685004 0.942400
Si Si6 0.294802 0.764158 0.287739
Si Si7 0.006998 0.291322 0.313707
O O1 0.375291 0.622996 0.711242
O O2 0.387532 0.526317 0.291206
O O3 0.500000 0.000000 0.500000
O O4 0.621988 0.052996 0.511508
O O5 0.500000 0.500000 0.500000
O O6 0.687369 0.852529 0.695872
O O7 0.621229 0.970204 0.808234
O O8 0.439229 0.440841 0.900964
O O9 0.071066 0.773444 0.463380
O O10 0.064558 0.498719 0.191575
O O11 0.174936 0.921202 0.074120
O O12 0.897338 0.945589 0.164455
O O13 0.708321 0.659616 0.043085
O O14 0.708125 0.395968 0.894651
O O15 0.134344 0.486088 0.365264
#
# Coordination Sequence:
#
# PCOD8020031 Si02
#       7
#     2   2   2   2   2   2   2
#     4  12  23  42  69 101 137 173 224 283 335 407
#     4  11  22  41  69 101 137 173 229 287 334 397
#     4  10  22  42  64  98 135 187 224 272 333 402
#     4  12  23  44  69 101 138 178 225 286 337 399
#     4  12  23  41  73 103 133 177 232 277 346 395
#     4  11  23  42  69 103 135 181 221 280 346 395
#     4  10  23  44  69  95 146 179 227 277 335 405
#
# _framework density 21.615085000000001
#
# number of rings (size 3 to 8) (size 9 to 14) (size 15 to 20)
#    0.000    0.857    4.286    3.857    0.000    0.571 
#    0.000    7.143    0.000    0.000    0.000    0.000 
#    0.000    0.000    0.000    0.000    0.000    0.000 
#
# Total GULP energy -173568.354242 kJ/mol
# GULP energy per Si atom -12397.739589 kJ/mol
# Density = 2.156589 g / cm^3
# Si number density = 21.615085 Si / 1000 Ang^3
#
#
#
# Elastic Constant Matrix: (Units=GPa)
#
#
# Indices 1 2 3 4 5 6 
#
# 1 104.2185 40.4824 26.8630 -28.0699 14.6537 7.3809
# 2 40.4824 108.8448 22.1458 -25.3356 9.9258 1.6765
# 3 26.8630 22.1458 55.5304 -33.3081 7.1616 -1.4449
# 4 -28.0699 -25.3356 -33.3081 34.2296 -1.7658 -0.5145
# 5 14.6537 9.9258 7.1616 -1.7658 36.1453 -5.7082
# 6 7.3809 1.6765 -1.4449 -0.5145 -5.7082 38.3147
#
#
#
# Elastic Compliance Matrix: (Units=1/GPa)
#
#
# Indices 1 2 3 4 5 6 
#
# 1 0.014048 -0.002503 0.000958 0.010283 -0.005200 -0.003197
# 2 -0.002503 0.011912 0.001751 0.008351 -0.002226 -0.000193
# 3 0.000958 0.001751 0.045299 0.045791 -0.007457 0.000951
# 4 0.010283 0.008351 0.045791 0.087780 -0.011427 -0.001143
# 5 -0.005200 -0.002226 -0.007457 -0.011427 0.032167 0.005457
# 6 -0.003197 -0.000193 0.000951 -0.001143 0.005457 0.027557
#
#
# Mechanical properties :
#
#
# Convention : Reuss Voigt Hill
#
# Bulk Modulus (GPa) = 13.95258 49.73068 31.84163
# Shear Modulus (GPa) = 20.64078 33.67808 27.15943
#
# Velocity S-wave (km/s) = 3.09354 3.95154 3.54856
# Velocity P-wave (km/s) = 4.38509 6.62396 5.61720
#
# Compressibility (1/GPa) = 0.07167135
#
# Stress axis : x y z
#
# Youngs Moduli (GPa) = 71.18619 83.95191 22.07561
#
# Poissons Ratio (x) = 0.21009 -0.02115
# Poissons Ratio (y) = 0.17815 -0.03866
# Poissons Ratio (z) = -0.06820 -0.14701
#
# Static dielectric constant tensor:
#      x y z
#    x 4.045410 -0.169450 0.446540 
#    y -0.169450 4.489590 -0.185620 
#    z 0.446540 -0.185620 3.553920 
# 
# 
# High freq. dielectric constant tensor:
#      x y z
#    x 1.866740 -0.004920 0.003170 
#    y -0.004920 1.865170 -0.004620 
#    z 0.003170 -0.004620 1.833480 
# 
# From -- ./inp_files/72505.got.cif
#   From: 2010.06.25/outbox.cif.g09.slc.cpg/sg2_37_cif.got.tgz:72505.got - 2010.06.27 13:26:56.
