data_PCOD8020602
_publ_section_title
;
Structure prediction by ZEFSAII (Michael W. Deem and Ramdas Pophale) SiO2 
 PCOD8020602
Probable space group: P -1
;
_chemical_formula_sum "Si O2"
_cell_formula_units_Z 16
_cell_length_a 12.069454
_cell_length_b 13.731735
_cell_length_c 5.577835
_cell_angle_alpha 74.465343
_cell_angle_beta 77.771320
_cell_angle_gamma 124.735936
_cell_volume 649.805142
_symmetry_space_group_name_H-M "P -1"
_symmetry_group_IT_number 2
_symmetry_cell_setting 'triclinic'
loop_
_space_group_symop_operation_xyz
x,y,z
-x,-y,-z
loop_
_atom_site_type_symbol
_atom_site_label
_atom_site_fract_x
_atom_site_fract_y
_atom_site_fract_z
Si Si1 0.692445 0.544604 0.442963
Si Si2 0.873821 0.792288 0.924946
Si Si3 0.239564 0.220932 0.518236
Si Si4 0.881662 0.210830 0.324795
Si Si5 0.898121 0.527936 0.625825
Si Si6 0.417197 0.042605 0.136751
Si Si7 0.484009 0.250951 0.615613
Si Si8 0.315822 0.736703 0.817760
O O1 0.681803 0.621304 0.611105
O O2 0.836106 0.556913 0.417241
O O3 0.533509 0.390055 0.607284
O O4 0.739048 0.627812 0.116710
O O5 0.849242 0.841545 0.655167
O O6 0.039125 0.836405 0.814022
O O7 0.866389 0.852545 0.140106
O O8 0.365439 0.206111 0.484534
O O9 0.804654 0.243700 0.153291
O O10 0.007694 0.345222 0.325709
O O11 0.751995 0.090315 0.634493
O O12 0.000000 0.500000 0.500000
O O13 0.750248 0.392230 0.908048
O O14 0.520764 0.127098 0.262141
O O15 0.400344 0.133134 0.926116
O O16 0.500000 0.000000 0.000000
O O17 0.639422 0.286310 0.442651
#
# Coordination Sequence:
#
# PCOD8020602 Si02
#       8
#     2   2   2   2   2   2   2   2
#     4  10  22  42  70 106 144 185 242 297 367 423
#     4  10  23  44  70 106 142 191 239 297 369 426
#     4  10  25  44  74 108 149 188 247 302 367 430
#     4  12  23  45  70 104 144 190 238 301 367 438
#     4  12  22  41  71 109 144 184 239 307 364 435
#     4  12  27  48  67 104 147 192 243 293 373 441
#     4  12  25  45  70 106 142 195 237 304 361 439
#     4  12  26  43  74 105 145 181 252 300 371 428
#
# _framework density 24.622769000000002
#
# number of rings (size 3 to 8) (size 9 to 14) (size 15 to 20)
#    0.750    0.000    3.750    4.125    1.750    1.500 
#    0.000    1.250    0.000    0.000    0.000    0.000 
#    0.000    0.000    0.000    0.000    0.000    0.000 
#
# Total GULP energy -198275.946005 kJ/mol
# GULP energy per Si atom -12392.246625 kJ/mol
# Density = 2.456673 g / cm^3
# Si number density = 24.622769 Si / 1000 Ang^3
#
#
#
# Elastic Constant Matrix: (Units=GPa)
#
#
# Indices 1 2 3 4 5 6 
#
# 1 109.7809 16.7190 23.6366 0.8441 -4.5404 48.1956
# 2 16.7190 21.5870 12.1457 -7.5187 14.6750 -21.7394
# 3 23.6366 12.1457 98.0732 7.0043 3.0221 2.0073
# 4 0.8441 -7.5187 7.0043 28.9269 8.2512 11.9274
# 5 -4.5404 14.6750 3.0221 8.2512 35.0829 20.4145
# 6 48.1956 -21.7394 2.0073 11.9274 20.4145 -11.5025
#
#
#
# Elastic Compliance Matrix: (Units=1/GPa)
#
#
# Indices 1 2 3 4 5 6 
#
# 1 0.006008 0.006014 -0.002228 0.001066 -0.005042 0.005576
# 2 0.006014 0.032101 -0.006280 0.020019 -0.003748 -0.022460
# 3 -0.002228 -0.006280 0.011826 -0.005603 0.001645 0.001706
# 4 0.001066 0.020019 -0.005603 0.048750 -0.014094 -0.008807
# 5 -0.005042 -0.003748 0.001645 -0.014094 0.024155 0.014500
# 6 0.005576 -0.022460 0.001706 -0.008807 0.014500 -0.004226
#
#
# Mechanical properties :
#
#
# Convention : Reuss Voigt Hill
#
# Bulk Modulus (GPa) = 22.24739 37.16039 29.70389
# Shear Modulus (GPa) = 36.07950 22.29745 29.18847
#
# Velocity S-wave (km/s) = 3.83206 3.01252 3.44674
# Velocity P-wave (km/s) = 5.35112 5.21776 5.28486
#
# Compressibility (1/GPa) = 0.04494909
#
# Stress axis : x y z
#
# Youngs Moduli (GPa) = 166.44225 31.15137 84.56197
#
# Poissons Ratio (x) = -0.18736 0.18838
# Poissons Ratio (y) = -1.00104 0.53101
# Poissons Ratio (z) = 0.37079 0.19562
#
# Static dielectric constant tensor:
#      x y z
#    x 6.667920 -1.016930 -0.461300 
#    y -1.016930 4.831040 0.026390 
#    z -0.461300 0.026390 4.514080 
# 
# 
# High freq. dielectric constant tensor:
#      x y z
#    x 1.996680 -0.007260 0.000940 
#    y -0.007260 1.964250 -0.007940 
#    z 0.000940 -0.007940 1.971300 
# 
# From -- ./inp_files/77613.got.cif
#   From: 2010.06.25/outbox.cif.g09.slc.cpg/sg2_39_cif.got.tgz:77613.got - 2010.06.27 13:26:56.
