data_PCOD8020729
_publ_section_title
;
Structure prediction by ZEFSAII (Michael W. Deem and Ramdas Pophale) SiO2 
 PCOD8020729
Probable space group: P -1
;
_chemical_formula_sum "Si O2"
_cell_formula_units_Z 12
_cell_length_a 8.660030
_cell_length_b 11.611944
_cell_length_c 9.951986
_cell_angle_alpha 131.738774
_cell_angle_beta 45.035853
_cell_angle_gamma 123.951855
_cell_volume 520.972113
_symmetry_space_group_name_H-M "P -1"
_symmetry_group_IT_number 2
_symmetry_cell_setting 'triclinic'
loop_
_space_group_symop_operation_xyz
x,y,z
-x,-y,-z
loop_
_atom_site_type_symbol
_atom_site_label
_atom_site_fract_x
_atom_site_fract_y
_atom_site_fract_z
Si Si1 0.566918 0.262679 0.019242
Si Si2 0.954985 0.235002 0.955021
Si Si3 0.566377 0.880896 0.260041
Si Si4 0.122294 0.649416 0.621517
Si Si5 0.593284 0.620122 0.242109
Si Si6 0.897084 0.904003 0.852588
O O1 0.727964 0.245588 0.028604
O O2 0.613343 0.154467 0.778135
O O3 0.587438 0.437396 0.086482
O O4 0.313512 0.202352 0.174882
O O5 0.165352 0.306065 0.786705
O O6 0.975745 0.055455 0.830884
O O7 0.970855 0.339223 0.162282
O O8 0.587478 0.711600 0.175754
O O9 0.500000 0.000000 0.500000
O O10 0.806531 0.949154 0.093757
O O11 0.384622 0.651500 0.482253
O O12 0.000000 0.500000 0.500000
O O13 0.089359 0.798531 0.666742
#
# Coordination Sequence:
#
# PCOD8020729 Si02
#       6
#     2   2   2   2   2   2
#     4  10  24  46  69  99 142 181 218 283 348 393
#     4  12  25  45  70  99 146 172 225 289 336 402
#     4  10  22  42  73 101 130 177 237 271 328 411
#     4  12  25  44  72 101 133 185 229 276 337 405
#     4  12  25  44  72 101 135 182 228 276 341 407
#     4  10  23  46  70  96 137 184 221 280 339 401
#
# _framework density 23.033861000000002
#
# number of rings (size 3 to 8) (size 9 to 14) (size 15 to 20)
#    1.000    0.000    3.333    3.000    4.667    0.667 
#    0.000    0.833    0.000    0.000    0.000    0.000 
#    0.000    0.000    0.000    0.000    0.000    0.000 
#
# Total GULP energy -148680.756118 kJ/mol
# GULP energy per Si atom -12390.063010 kJ/mol
# Density = 2.298144 g / cm^3
# Si number density = 23.033861 Si / 1000 Ang^3
#
#
#
# Elastic Constant Matrix: (Units=GPa)
#
#
# Indices 1 2 3 4 5 6 
#
# 1 123.1270 24.3097 57.4316 20.9070 -5.4851 7.7708
# 2 24.3097 136.4959 59.7118 20.2166 -2.5505 22.3902
# 3 57.4316 59.7118 112.3653 17.5908 -10.6227 2.5099
# 4 20.9070 20.2166 17.5908 38.7321 7.5290 -8.4395
# 5 -5.4851 -2.5505 -10.6227 7.5290 31.5446 -3.5263
# 6 7.7708 22.3902 2.5099 -8.4395 -3.5263 31.5411
#
#
#
# Elastic Compliance Matrix: (Units=1/GPa)
#
#
# Indices 1 2 3 4 5 6 
#
# 1 0.012065 0.002540 -0.006267 -0.006486 0.001082 -0.005891
# 2 0.002540 0.012695 -0.006674 -0.007332 -0.000270 -0.011099
# 3 -0.006267 -0.006674 0.015943 -0.000024 0.004359 0.005494
# 4 -0.006486 -0.007332 -0.000024 0.038429 -0.009105 0.016069
# 5 0.001082 -0.000270 0.004359 -0.009105 0.035634 0.001126
# 6 -0.005891 -0.011099 0.005494 0.016069 0.001126 0.045023
#
#
# Mechanical properties :
#
#
# Convention : Reuss Voigt Hill
#
# Bulk Modulus (GPa) = 50.25121 72.76603 61.50862
# Shear Modulus (GPa) = 26.70591 35.73258 31.21925
#
# Velocity S-wave (km/s) = 3.40872 3.94294 3.68552
# Velocity P-wave (km/s) = 6.11196 7.23799 6.69868
#
# Compressibility (1/GPa) = 0.01990002
#
# Stress axis : x y z
#
# Youngs Moduli (GPa) = 82.88619 78.77061 62.72453
#
# Poissons Ratio (x) = -0.20009 0.39310
# Poissons Ratio (y) = -0.21054 0.41865
# Poissons Ratio (z) = 0.51945 0.52575
#
# Static dielectric constant tensor:
#      x y z
#    x 4.241430 0.341590 -0.302790 
#    y 0.341590 4.415870 0.031590 
#    z -0.302790 0.031590 3.906400 
# 
# 
# High freq. dielectric constant tensor:
#      x y z
#    x 1.907400 0.026670 -0.021380 
#    y 0.026670 1.932410 0.011690 
#    z -0.021380 0.011690 1.890060 
# 
# From -- ./inp_files/385945.got.cif
#   From: 2010.06.25/outbox.cif.g09.slc.cpg/sg2_193_cif.got.tgz:385945.got - 2010.06.27 13:26:56.
