data_PCOD8020564
_publ_section_title
;
Structure prediction by ZEFSAII (Michael W. Deem and Ramdas Pophale) SiO2 
 PCOD8020564
Probable space group: P -1
;
_chemical_formula_sum "Si O2"
_cell_formula_units_Z 16
_cell_length_a 11.603681
_cell_length_b 8.915053
_cell_length_c 8.914308
_cell_angle_alpha 119.547874
_cell_angle_beta 103.766161
_cell_angle_gamma 65.448311
_cell_volume 729.060617
_symmetry_space_group_name_H-M "P -1"
_symmetry_group_IT_number 2
_symmetry_cell_setting 'triclinic'
loop_
_space_group_symop_operation_xyz
x,y,z
-x,-y,-z
loop_
_atom_site_type_symbol
_atom_site_label
_atom_site_fract_x
_atom_site_fract_y
_atom_site_fract_z
Si Si1 0.906330 0.414116 0.503646
Si Si2 0.465487 0.697191 0.015591
Si Si3 0.949105 0.005042 0.207642
Si Si4 0.466907 0.867972 0.806255
Si Si5 0.319705 0.171767 0.721806
Si Si6 0.959439 0.651063 0.191647
Si Si7 0.803212 0.025312 0.886915
Si Si8 0.691565 0.760276 0.587432
O O1 0.927172 0.207258 0.360642
O O2 0.761893 0.540362 0.481643
O O3 0.000000 0.500000 0.500000
O O4 0.929670 0.424577 0.691787
O O5 0.574007 0.767852 0.138977
O O6 0.331926 0.817875 0.106518
O O7 0.500000 0.500000 0.000000
O O8 0.454111 0.706233 0.832056
O O9 0.953005 0.857844 0.261445
O O10 0.835733 0.005818 0.063028
O O11 0.086920 0.922426 0.132726
O O12 0.575392 0.790378 0.677542
O O13 0.339484 0.978360 0.722715
O O14 0.500000 0.000000 0.000000
O O15 0.180483 0.325361 0.777826
O O16 0.349497 0.142614 0.539291
O O17 0.000000 0.500000 0.000000
O O18 0.795621 0.835092 0.728966
#
# Coordination Sequence:
#
# PCOD8020564 Si02
#       8
#     2   2   2   2   2   2   2   2
#     4  12  25  44  68 101 145 182 231 294 351 417
#     4  11  26  42  70 101 143 177 233 297 357 418
#     4  11  26  43  71 104 144 185 234 292 347 422
#     4  10  22  42  69  98 131 181 233 282 343 426
#     4  11  24  44  71 102 141 184 238 286 357 421
#     4  12  27  43  74 106 140 188 240 287 356 419
#     4  11  23  43  72 101 140 181 236 285 356 409
#     4  12  23  44  73 103 137 188 238 287 357 422
#
# _framework density 21.94605
#
# number of rings (size 3 to 8) (size 9 to 14) (size 15 to 20)
#    0.000    0.750    5.000    2.250   10.500    0.000 
#    0.000    0.625    0.000    0.000    0.000    0.000 
#    0.000    0.000    0.000    0.000    0.000    0.000 
#
# Total GULP energy -198298.819682 kJ/mol
# GULP energy per Si atom -12393.676230 kJ/mol
# Density = 2.189610 g / cm^3
# Si number density = 21.946050 Si / 1000 Ang^3
#
#
#
# Elastic Constant Matrix: (Units=GPa)
#
#
# Indices 1 2 3 4 5 6 
#
# 1 69.1007 34.5788 26.1551 0.5538 -14.3031 -13.1319
# 2 34.5788 159.4100 59.1373 -11.8428 -12.3321 8.4998
# 3 26.1551 59.1373 120.1113 -16.4145 -14.5742 12.8595
# 4 0.5538 -11.8428 -16.4145 39.8240 -0.9469 -0.4498
# 5 -14.3031 -12.3321 -14.5742 -0.9469 39.6325 0.8701
# 6 -13.1319 8.4998 12.8595 -0.4498 0.8701 34.8372
#
#
#
# Elastic Compliance Matrix: (Units=1/GPa)
#
#
# Indices 1 2 3 4 5 6 
#
# 1 0.020374 -0.003442 -0.003557 -0.002552 0.004700 0.009682
# 2 -0.003442 0.008339 -0.002889 0.001320 0.000371 -0.002258
# 3 -0.003557 -0.002889 0.011915 0.004102 0.002408 -0.005041
# 4 -0.002552 0.001320 0.004102 0.027242 0.001704 -0.002489
# 5 0.004700 0.000371 0.002408 0.001704 0.027967 0.000116
# 6 0.009682 -0.002258 -0.005041 -0.002489 0.000116 0.034731
#
#
# Mechanical properties :
#
#
# Convention : Reuss Voigt Hill
#
# Bulk Modulus (GPa) = 47.95765 65.37381 56.66573
# Shear Modulus (GPa) = 31.78766 38.10878 34.94822
#
# Velocity S-wave (km/s) = 3.80997 4.17162 3.99489
# Velocity P-wave (km/s) = 6.42297 7.28398 6.86698
#
# Compressibility (1/GPa) = 0.02085173
#
# Stress axis : x y z
#
# Youngs Moduli (GPa) = 49.08267 119.92312 83.92869
#
# Poissons Ratio (x) = 0.41280 0.29852
# Poissons Ratio (y) = 0.16895 0.24245
# Poissons Ratio (z) = 0.17458 0.34644
#
# Static dielectric constant tensor:
#      x y z
#    x 3.992510 -0.185030 -0.089240 
#    y -0.185030 4.859170 -0.245420 
#    z -0.089240 -0.245420 3.959080 
# 
# 
# High freq. dielectric constant tensor:
#      x y z
#    x 1.865980 -0.010150 -0.011100 
#    y -0.010150 1.876050 -0.017650 
#    z -0.011100 -0.017650 1.857420 
# 
# From -- ./inp_files/217526.got.cif
#   From: 2010.06.25/outbox.cif.g09.slc.cpg/sg2_109_cif.got.tgz:217526.got - 2010.06.27 13:26:56.
