data_PCOD8020368
_publ_section_title
;
Structure prediction by ZEFSAII (Michael W. Deem and Ramdas Pophale) SiO2 
 PCOD8020368
Probable space group: P -1
;
_chemical_formula_sum "Si O2"
_cell_formula_units_Z 16
_cell_length_a 22.843251
_cell_length_b 17.126556
_cell_length_c 14.349432
_cell_angle_alpha 30.984336
_cell_angle_beta 21.440394
_cell_angle_gamma 21.450056
_cell_volume 748.706293
_symmetry_space_group_name_H-M "P -1"
_symmetry_group_IT_number 2
_symmetry_cell_setting 'triclinic'
loop_
_space_group_symop_operation_xyz
x,y,z
-x,-y,-z
loop_
_atom_site_type_symbol
_atom_site_label
_atom_site_fract_x
_atom_site_fract_y
_atom_site_fract_z
Si Si1 0.499517 0.934654 0.169831
Si Si2 0.946134 0.017851 0.801375
Si Si3 0.597940 0.490511 0.637272
Si Si4 0.645942 0.135767 0.972840
Si Si5 0.907414 0.848184 0.708771
Si Si6 0.809680 0.065624 0.145482
Si Si7 0.782667 0.755865 0.559989
Si Si8 0.405712 0.645982 0.577518
O O1 0.481976 0.767343 0.357386
O O2 0.297911 0.141114 0.321435
O O3 0.744316 0.813514 0.973103
O O4 0.500000 0.000000 0.000000
O O5 0.813874 0.985394 0.964666
O O6 0.051122 0.087789 0.515392
O O7 0.794710 0.161791 0.968682
O O8 0.139335 0.806852 0.793132
O O9 0.578536 0.355736 0.869848
O O10 0.440103 0.736501 0.646598
O O11 0.505766 0.487165 0.678769
O O12 0.857178 0.373965 0.372363
O O13 0.791477 0.036259 0.763844
O O14 0.424127 0.183094 0.251264
O O15 0.843214 0.862120 0.300227
O O16 0.000000 0.000000 0.000000
O O17 0.000000 0.500000 0.500000
O O18 0.500000 0.500000 0.500000
#
# Coordination Sequence:
#
# PCOD8020368 Si02
#       8
#     2   2   2   2   2   2   2   2
#     4  11  23  43  67  98 135 169 225 277 329 398
#     4  11  22  41  66  93 133 175 221 270 326 402
#     4  11  22  41  65  97 131 176 216 273 329 392
#     4  10  23  43  67  96 134 171 222 274 332 390
#     4  10  22  42  67  98 132 171 219 277 334 390
#     4  12  24  43  65  95 135 175 225 272 326 398
#     4  11  25  46  68  95 137 181 219 275 339 398
#     4  12  23  38  66  99 129 171 218 271 335 392
#
# _framework density 21.370196
#
# number of rings (size 3 to 8) (size 9 to 14) (size 15 to 20)
#    0.000    1.000    3.750    3.750    1.750    3.000 
#    4.500    0.000    0.000    0.000    0.000    0.000 
#    0.000    0.000    0.000    0.000    0.000    0.000 
#
# Total GULP energy -198223.018781 kJ/mol
# GULP energy per Si atom -12388.938674 kJ/mol
# Density = 2.132156 g / cm^3
# Si number density = 21.370196 Si / 1000 Ang^3
#
#
#
# Elastic Constant Matrix: (Units=GPa)
#
#
# Indices 1 2 3 4 5 6 
#
# 1 145.3961 42.6156 59.2007 10.9524 -4.4207 -7.7592
# 2 42.6156 115.4864 49.7570 16.2678 -15.9690 2.3389
# 3 59.2007 49.7570 117.4298 12.4247 -17.9166 -1.9220
# 4 10.9524 16.2678 12.4247 31.6060 -3.0527 -7.0830
# 5 -4.4207 -15.9690 -17.9166 -3.0527 50.3159 4.1516
# 6 -7.7592 2.3389 -1.9220 -7.0830 4.1516 39.4030
#
#
#
# Elastic Compliance Matrix: (Units=1/GPa)
#
#
# Indices 1 2 3 4 5 6 
#
# 1 0.009106 -0.001825 -0.003954 -0.000394 -0.001358 0.001781
# 2 -0.001825 0.011725 -0.003266 -0.004399 0.002317 -0.002250
# 3 -0.003954 -0.003266 0.012525 -0.001716 0.003022 -0.000600
# 4 -0.000394 -0.004399 -0.001716 0.036165 -0.000396 0.006643
# 5 -0.001358 0.002317 0.003022 -0.000396 0.021759 -0.002621
# 6 0.001781 -0.002250 -0.000600 0.006643 -0.002621 0.027304
#
#
# Mechanical properties :
#
#
# Convention : Reuss Voigt Hill
#
# Bulk Modulus (GPa) = 65.50015 75.71767 70.60891
# Shear Modulus (GPa) = 35.27018 39.38091 37.32554
#
# Velocity S-wave (km/s) = 4.06697 4.29744 4.18379
# Velocity P-wave (km/s) = 7.26432 7.75450 7.51341
#
# Compressibility (1/GPa) = 0.01526714
#
# Stress axis : x y z
#
# Youngs Moduli (GPa) = 109.81846 85.28628 79.83724
#
# Poissons Ratio (x) = 0.15566 0.31565
# Poissons Ratio (y) = 0.20043 0.26075
# Poissons Ratio (z) = 0.43419 0.27854
#
# Static dielectric constant tensor:
#      x y z
#    x 5.325110 -1.244530 0.533220 
#    y -1.244530 3.324780 -0.990030 
#    z 0.533220 -0.990030 4.156910 
# 
# 
# High freq. dielectric constant tensor:
#      x y z
#    x 1.853570 -0.007950 -0.005210 
#    y -0.007950 1.827050 0.016050 
#    z -0.005210 0.016050 1.841430 
# 
# From -- ./inp_files/543137.got.cif
#   From: 2010.06.25/outbox.cif.g09.slc.cpg/sg2_272_cif.got.tgz:543137.got - 2010.06.27 13:26:56.
