data_PCOD8020728
_publ_section_title
;
Structure prediction by ZEFSAII (Michael W. Deem and Ramdas Pophale) SiO2 
 PCOD8020728
Probable space group: P -1
;
_chemical_formula_sum "Si O2"
_cell_formula_units_Z 10
_cell_length_a 18.758651
_cell_length_b 14.031418
_cell_length_c 7.549009
_cell_angle_alpha 33.615507
_cell_angle_beta 149.283646
_cell_angle_gamma 159.465872
_cell_volume 351.723933
_symmetry_space_group_name_H-M "P -1"
_symmetry_group_IT_number 2
_symmetry_cell_setting 'triclinic'
loop_
_space_group_symop_operation_xyz
x,y,z
-x,-y,-z
loop_
_atom_site_type_symbol
_atom_site_label
_atom_site_fract_x
_atom_site_fract_y
_atom_site_fract_z
Si Si1 0.859213 0.631979 0.309092
Si Si2 0.660432 0.380075 0.899745
Si Si3 0.666958 0.121760 0.823398
Si Si4 0.905145 0.101410 0.130724
Si Si5 0.283841 0.144039 0.246331
O O1 0.826993 0.442549 0.671274
O O2 0.701522 0.488706 0.019066
O O3 0.816281 0.760987 0.130476
O O4 0.117312 0.866540 0.438372
O O5 0.528223 0.387460 0.479672
O O6 0.897944 0.575943 0.011069
O O7 0.486998 0.050885 0.061127
O O8 0.500000 0.000000 0.500000
O O9 0.804565 0.077457 0.136277
O O10 0.000000 0.000000 0.500000
O O11 0.711603 0.922867 0.842133
#
# Coordination Sequence:
#
# PCOD8020728 Si02
#       5
#     2   2   2   2   2
#     4   9  21  41  69 102 134 179 229 276 336 410
#     4  10  23  44  72  97 139 179 227 278 341 401
#     4  10  24  46  72  97 144 181 218 287 347 392
#     4  11  27  46  69 104 138 178 233 283 333 412
#     4  10  22  42  73 100 135 183 229 276 339 410
#
# _framework density 28.43139
#
# number of rings (size 3 to 8) (size 9 to 14) (size 15 to 20)
#    0.000    2.000    0.000    0.600   14.000    8.800 
#    0.000    7.000    0.000    0.000    0.000    0.000 
#    0.000    0.000    0.000    0.000    0.000    0.000 
#
# Total GULP energy -123925.623173 kJ/mol
# GULP energy per Si atom -12392.562317 kJ/mol
# Density = 2.836668 g / cm^3
# Si number density = 28.431390 Si / 1000 Ang^3
#
#
#
# Elastic Constant Matrix: (Units=GPa)
#
#
# Indices 1 2 3 4 5 6 
#
# 1 94.7683 29.0456 2.0210 -8.2645 -25.3789 7.2863
# 2 29.0456 104.3041 29.2498 -2.4318 -9.2297 6.8327
# 3 2.0210 29.2498 59.6624 -4.4481 1.1167 6.3168
# 4 -8.2645 -2.4318 -4.4481 64.2691 -2.4452 -18.0477
# 5 -25.3789 -9.2297 1.1167 -2.4452 23.9836 3.5136
# 6 7.2863 6.8327 6.3168 -18.0477 3.5136 29.8927
#
#
#
# Elastic Compliance Matrix: (Units=1/GPa)
#
#
# Indices 1 2 3 4 5 6 
#
# 1 0.016540 -0.003100 0.001247 0.001415 0.017090 -0.004741
# 2 -0.003100 0.012346 -0.005879 -0.000675 0.001889 -0.001453
# 3 0.001247 -0.005879 0.019952 0.000505 -0.001424 -0.002704
# 4 0.001415 -0.000675 0.000505 0.018875 0.001539 0.010918
# 5 0.017090 0.001889 -0.001424 0.001539 0.062296 -0.010690
# 6 -0.004741 -0.001453 -0.002704 0.010918 -0.010690 0.043360
#
#
# Mechanical properties :
#
#
# Convention : Reuss Voigt Hill
#
# Bulk Modulus (GPa) = 29.96399 42.15195 36.05797
# Shear Modulus (GPa) = 25.00521 36.85697 30.93109
#
# Velocity S-wave (km/s) = 2.96884 3.60439 3.30194
# Velocity P-wave (km/s) = 4.72377 5.67276 5.21987
#
# Compressibility (1/GPa) = 0.03337340
#
# Stress axis : x y z
#
# Youngs Moduli (GPa) = 60.45871 80.99837 50.12095
#
# Poissons Ratio (x) = 0.25108 -0.06250
# Poissons Ratio (y) = 0.18741 0.29468
# Poissons Ratio (z) = -0.07539 0.47622
#
# Static dielectric constant tensor:
#      x y z
#    x 4.952050 0.441780 -0.487550 
#    y 0.441780 6.234420 -0.472420 
#    z -0.487550 -0.472420 5.268980 
# 
# 
# High freq. dielectric constant tensor:
#      x y z
#    x 2.132280 0.004420 -0.025740 
#    y 0.004420 2.175030 0.014440 
#    z -0.025740 0.014440 2.145370 
# 
# From -- ./inp_files/155756.got.cif
#   From: 2010.06.25/outbox.cif.g09.slc.cpg/sg2_78_cif.got.tgz:155756.got - 2010.06.27 13:26:56.
