data_PCOD8020766
_publ_section_title
;
Structure prediction by ZEFSAII (Michael W. Deem and Ramdas Pophale) SiO2 
 PCOD8020766
Probable space group: P -1
;
_chemical_formula_sum "Si O2"
_cell_formula_units_Z 14
_cell_length_a 19.206390
_cell_length_b 8.917244
_cell_length_c 9.824255
_cell_angle_alpha 130.512537
_cell_angle_beta 50.699821
_cell_angle_gamma 150.632517
_cell_volume 617.045194
_symmetry_space_group_name_H-M "P -1"
_symmetry_group_IT_number 2
_symmetry_cell_setting 'triclinic'
loop_
_space_group_symop_operation_xyz
x,y,z
-x,-y,-z
loop_
_atom_site_type_symbol
_atom_site_label
_atom_site_fract_x
_atom_site_fract_y
_atom_site_fract_z
Si Si1 0.145770 0.739572 0.044413
Si Si2 0.553516 0.345405 0.204208
Si Si3 0.184897 0.164263 0.434685
Si Si4 0.258144 0.672628 0.101250
Si Si5 0.075214 0.451822 0.453711
Si Si6 0.505790 0.323314 0.544881
Si Si7 0.257682 0.741082 0.650227
O O1 0.149955 0.592173 0.079411
O O2 0.169441 0.003260 0.223694
O O3 0.258220 0.854542 0.860644
O O4 0.000000 0.500000 0.000000
O O5 0.504168 0.208711 0.336854
O O6 0.586920 0.633919 0.317603
O O7 0.414247 0.046473 0.110819
O O8 0.704054 0.491526 0.071959
O O9 0.330708 0.338468 0.425479
O O10 0.198685 0.417506 0.533796
O O11 0.050441 0.912697 0.555989
O O12 0.186311 0.545547 0.264552
O O13 0.161849 0.679270 0.613544
O O14 0.000000 0.500000 0.500000
O O15 0.427242 0.039927 0.578693
#
# Coordination Sequence:
#
# PCOD8020766 Si02
#       7
#     2   2   2   2   2   2   2
#     4  12  25  47  70 106 150 190 241 299 359 440
#     4  10  22  42  76 107 143 181 244 313 352 428
#     4  12  26  47  75 103 154 190 236 305 367 431
#     4  11  22  45  73 109 142 185 249 300 361 431
#     4  12  23  46  75 101 142 194 239 296 363 425
#     4  11  23  47  72 106 142 192 241 296 371 427
#     4  12  27  46  72 107 145 193 242 294 366 439
#
# _framework density 22.688775
#
# number of rings (size 3 to 8) (size 9 to 14) (size 15 to 20)
#    0.000    0.571    5.714    1.714    2.000    1.714 
#    0.000    1.429    0.000    0.000    0.000    0.000 
#    0.000    0.000    0.000    0.000    0.000    0.000 
#
# Total GULP energy -173505.152512 kJ/mol
# GULP energy per Si atom -12393.225179 kJ/mol
# Density = 2.263713 g / cm^3
# Si number density = 22.688775 Si / 1000 Ang^3
#
#
#
# Elastic Constant Matrix: (Units=GPa)
#
#
# Indices 1 2 3 4 5 6 
#
# 1 91.2851 21.6054 55.2164 -3.2074 0.8566 7.7452
# 2 21.6054 119.6706 45.9084 -17.1165 -0.5279 -2.0660
# 3 55.2164 45.9084 155.6935 -6.8917 -8.0028 -16.5028
# 4 -3.2074 -17.1165 -6.8917 30.7264 1.1951 6.3162
# 5 0.8566 -0.5279 -8.0028 1.1951 43.5763 0.4898
# 6 7.7452 -2.0660 -16.5028 6.3162 0.4898 27.2061
#
#
#
# Elastic Compliance Matrix: (Units=1/GPa)
#
#
# Indices 1 2 3 4 5 6 
#
# 1 0.015733 -0.000258 -0.006427 0.001926 -0.001447 -0.008818
# 2 -0.000258 0.010287 -0.002960 0.005515 -0.000540 -0.002211
# 3 -0.006427 -0.002960 0.010482 -0.001759 0.001970 0.008336
# 4 0.001926 0.005515 -0.001759 0.037502 -0.001212 -0.009881
# 5 -0.001447 -0.000540 0.001970 -0.001212 0.023349 0.001427
# 6 -0.008818 -0.002211 0.008336 -0.009881 0.001427 0.046424
#
#
# Mechanical properties :
#
#
# Convention : Reuss Voigt Hill
#
# Bulk Modulus (GPa) = 58.10061 68.01219 63.05640
# Shear Modulus (GPa) = 29.62009 36.56302 33.09155
#
# Velocity S-wave (km/s) = 3.61708 4.01871 3.82317
# Velocity P-wave (km/s) = 6.56564 7.18154 6.88049
#
# Compressibility (1/GPa) = 0.01721152
#
# Stress axis : x y z
#
# Youngs Moduli (GPa) = 63.56056 97.21477 95.40085
#
# Poissons Ratio (x) = 0.02507 0.61319
# Poissons Ratio (y) = 0.01639 0.28236
# Poissons Ratio (z) = 0.40853 0.28773
#
# Static dielectric constant tensor:
#      x y z
#    x 4.250710 0.075890 0.096030 
#    y 0.075890 4.109950 -0.154350 
#    z 0.096030 -0.154350 4.881940 
# 
# 
# High freq. dielectric constant tensor:
#      x y z
#    x 1.906820 0.010780 -0.002720 
#    y 0.010780 1.882850 -0.006700 
#    z -0.002720 -0.006700 1.904180 
# 
# From -- ./inp_files/181141.got.cif
#   From: 2010.06.25/outbox.cif.g09.slc.cpg/sg2_91_cif.got.tgz:181141.got - 2010.06.27 13:26:56.
