data_PCOD8020933
_publ_section_title
;
Structure prediction by ZEFSAII (Michael W. Deem and Ramdas Pophale) SiO2 
 PCOD8020933
Probable space group: P -1
;
_chemical_formula_sum "Si O2"
_cell_formula_units_Z 14
_cell_length_a 12.341094
_cell_length_b 9.686752
_cell_length_c 13.613249
_cell_angle_alpha 43.598751
_cell_angle_beta 34.049077
_cell_angle_gamma 53.115903
_cell_volume 628.356134
_symmetry_space_group_name_H-M "P -1"
_symmetry_group_IT_number 2
_symmetry_cell_setting 'triclinic'
loop_
_space_group_symop_operation_xyz
x,y,z
-x,-y,-z
loop_
_atom_site_type_symbol
_atom_site_label
_atom_site_fract_x
_atom_site_fract_y
_atom_site_fract_z
Si Si1 0.206583 0.312650 0.378861
Si Si2 0.927835 0.090073 0.846289
Si Si3 0.511743 0.537637 0.162765
Si Si4 0.498867 0.356264 0.668790
Si Si5 0.471507 0.078544 0.163324
Si Si6 0.097170 0.595701 0.143124
Si Si7 0.919694 0.654128 0.057209
O O1 0.328299 0.469296 0.271868
O O2 0.355200 0.146928 0.312460
O O3 0.103200 0.426774 0.308391
O O4 0.030611 0.220188 0.618454
O O5 0.961257 0.191903 0.874670
O O6 0.698253 0.085266 0.009330
O O7 0.026760 0.869029 0.880894
O O8 0.451075 0.526161 0.329058
O O9 0.570438 0.766648 0.973980
O O10 0.696847 0.396491 0.073834
O O11 0.500000 0.500000 0.500000
O O12 0.280226 0.282226 0.872784
O O13 0.612635 0.144409 0.683024
O O14 0.928075 0.548107 0.213691
O O15 0.000000 0.500000 0.000000
#
# Coordination Sequence:
#
# PCOD8020933 Si02
#       7
#     2   2   2   2   2   2   2
#     4  11  23  40  70  97 125 162 214 270 307 376
#     4  11  23  41  67  96 127 167 210 263 317 371
#     4  11  21  43  67  92 131 165 206 269 314 376
#     4  11  26  42  64  92 129 173 209 260 316 378
#     4  10  22  43  65  96 128 163 214 260 321 368
#     4  11  21  43  64  95 127 166 210 259 321 370
#     4  11  25  44  62  88 131 170 210 256 316 379
#
# _framework density 22.280359000000001
#
# number of rings (size 3 to 8) (size 9 to 14) (size 15 to 20)
#    0.000    1.143    4.286    2.143    4.000    0.000 
#    0.000    2.143    0.000    0.000    0.000    0.000 
#    0.000    0.000    0.000    0.000    0.000    0.000 
#
# Total GULP energy -173466.929235 kJ/mol
# GULP energy per Si atom -12390.494945 kJ/mol
# Density = 2.222965 g / cm^3
# Si number density = 22.280359 Si / 1000 Ang^3
#
#
#
# Elastic Constant Matrix: (Units=GPa)
#
#
# Indices 1 2 3 4 5 6 
#
# 1 91.2197 38.8740 -4.6744 5.7676 31.5351 16.9922
# 2 38.8740 188.1807 52.4551 0.0804 22.7938 23.3216
# 3 -4.6744 52.4551 50.6971 6.4778 24.6273 18.0614
# 4 5.7676 0.0804 6.4778 31.2173 -0.8519 5.6105
# 5 31.5351 22.7938 24.6273 -0.8519 32.9874 11.0846
# 6 16.9922 23.3216 18.0614 5.6105 11.0846 32.9596
#
#
#
# Elastic Compliance Matrix: (Units=1/GPa)
#
#
# Indices 1 2 3 4 5 6 
#
# 1 0.158801 -0.058519 0.239987 -0.073972 -0.269331 -0.068801
# 2 -0.058519 0.029226 -0.096769 0.029322 0.100812 0.023622
# 3 0.239987 -0.096769 0.407259 -0.120118 -0.431814 -0.112754
# 4 -0.073972 0.029322 -0.120118 0.069382 0.132955 0.026687
# 5 -0.269331 0.100812 -0.431814 0.132955 0.506592 0.111144
# 6 -0.068801 0.023622 -0.112754 0.026687 0.111144 0.068961
#
#
# Mechanical properties :
#
#
# Convention : Reuss Voigt Hill
#
# Bulk Modulus (GPa) = 1.30773 55.93409 28.62091
# Shear Modulus (GPa) = 3.77154 35.66239 19.71697
#
# Velocity S-wave (km/s) = 1.30247 4.00512 2.97804
# Velocity P-wave (km/s) = 1.68823 6.82254 4.96977
#
# Compressibility (1/GPa) = 0.76468178
#
# Stress axis : x y z
#
# Youngs Moduli (GPa) = 6.29720 34.21614 2.45544
#
# Poissons Ratio (x) = 2.00230 -0.58927
# Poissons Ratio (y) = 0.36851 0.23761
# Poissons Ratio (z) = -1.51125 3.31107
#
# Static dielectric constant tensor:
#      x y z
#    x 3.944720 0.389890 -0.004230 
#    y 0.389890 4.253930 0.067910 
#    z -0.004230 0.067910 3.824300 
# 
# 
# High freq. dielectric constant tensor:
#      x y z
#    x 1.874510 0.001040 0.011660 
#    y 0.001040 1.901460 0.007570 
#    z 0.011660 0.007570 1.855630 
# 
# From -- ./inp_files/151983.got.cif
#   From: 2010.06.25/outbox.cif.g09.slc.cpg/sg2_76_cif.got.tgz:151983.got - 2010.06.27 13:26:56.
