data_PCOD8020885
_publ_section_title
;
Structure prediction by ZEFSAII (Michael W. Deem and Ramdas Pophale) SiO2 
 PCOD8020885
Probable space group: P -1
;
_chemical_formula_sum "Si O2"
_cell_formula_units_Z 14
_cell_length_a 9.374646
_cell_length_b 13.188253
_cell_length_c 8.982491
_cell_angle_alpha 43.921963
_cell_angle_beta 87.798905
_cell_angle_gamma 61.119829
_cell_volume 580.434487
_symmetry_space_group_name_H-M "P -1"
_symmetry_group_IT_number 2
_symmetry_cell_setting 'triclinic'
loop_
_space_group_symop_operation_xyz
x,y,z
-x,-y,-z
loop_
_atom_site_type_symbol
_atom_site_label
_atom_site_fract_x
_atom_site_fract_y
_atom_site_fract_z
Si Si1 0.851228 0.419595 0.481259
Si Si2 0.147896 0.820511 0.023679
Si Si3 0.242310 0.569670 0.855439
Si Si4 0.360634 0.771637 0.790165
Si Si5 0.243354 0.066301 0.852872
Si Si6 0.894754 0.839458 0.778129
Si Si7 0.365980 0.151360 0.021481
O O1 0.828673 0.368420 0.373671
O O2 0.725766 0.647380 0.268607
O O3 0.078130 0.300240 0.606305
O O4 0.788639 0.349093 0.687242
O O5 0.319511 0.733959 0.994784
O O6 0.963431 0.895343 0.855130
O O7 0.127314 0.989700 0.935285
O O8 0.325817 0.672812 0.772519
O O9 0.075030 0.641763 0.901325
O O10 0.415680 0.334899 0.109941
O O11 0.216920 0.997934 0.516834
O O12 0.355480 0.016481 0.056042
O O13 0.409989 0.967623 0.824174
O O14 0.755250 0.804270 0.874090
#
# Coordination Sequence:
#
# PCOD8020885 Si02
#       7
#     2   2   2   2   2   2   2
#     4  12  24  44  71 102 136 172 226 287 325 404
#     4  11  23  43  77  99 130 176 235 274 333 386
#     4  10  23  40  67 100 132 176 225 270 341 383
#     4  10  22  43  65 103 135 171 225 282 320 403
#     4  11  24  44  65 102 133 179 219 278 333 398
#     4  11  23  45  68  98 137 179 216 280 328 408
#     4  11  27  43  65 102 144 173 219 273 354 388
#
# _framework density 24.119861
#
# number of rings (size 3 to 8) (size 9 to 14) (size 15 to 20)
#    0.000    1.143    1.429    5.143    2.000    4.000 
#   10.286    5.000    0.000    0.000    0.000    0.000 
#    0.000    0.000    0.000    0.000    0.000    0.000 
#
# Total GULP energy -173520.919191 kJ/mol
# GULP energy per Si atom -12394.351371 kJ/mol
# Density = 2.406496 g / cm^3
# Si number density = 24.119861 Si / 1000 Ang^3
#
#
#
# Elastic Constant Matrix: (Units=GPa)
#
#
# Indices 1 2 3 4 5 6 
#
# 1 121.4923 32.5807 42.8454 3.1416 -1.6427 -30.7709
# 2 32.5807 62.2976 32.9037 -4.2142 -11.0286 -19.7152
# 3 42.8454 32.9037 85.0884 10.0401 -8.7874 -7.4346
# 4 3.1416 -4.2142 10.0401 42.5061 -6.3455 13.6170
# 5 -1.6427 -11.0286 -8.7874 -6.3455 29.4678 2.2294
# 6 -30.7709 -19.7152 -7.4346 13.6170 2.2294 47.8890
#
#
#
# Elastic Compliance Matrix: (Units=1/GPa)
#
#
# Indices 1 2 3 4 5 6 
#
# 1 0.012350 -0.002439 -0.004610 -0.002757 -0.002732 0.007127
# 2 -0.002439 0.024716 -0.007467 0.003506 0.007180 0.006117
# 3 -0.004610 -0.007467 0.017320 -0.003481 0.001547 -0.002430
# 4 -0.002757 0.003506 -0.003481 0.028979 0.007075 -0.009438
# 5 -0.002732 0.007180 0.001547 0.007075 0.038634 -0.002370
# 6 0.007127 0.006117 -0.002430 -0.009438 -0.002370 0.030396
#
#
# Mechanical properties :
#
#
# Convention : Reuss Voigt Hill
#
# Bulk Modulus (GPa) = 39.44228 53.94866 46.69547
# Shear Modulus (GPa) = 26.33273 34.67582 30.50428
#
# Velocity S-wave (km/s) = 3.30774 3.79574 3.56011
# Velocity P-wave (km/s) = 5.56564 6.45180 6.02503
#
# Compressibility (1/GPa) = 0.02535351
#
# Stress axis : x y z
#
# Youngs Moduli (GPa) = 80.97120 40.46025 57.73814
#
# Poissons Ratio (x) = 0.09867 0.26616
# Poissons Ratio (y) = 0.19747 0.43115
# Poissons Ratio (z) = 0.37326 0.30213
#
# Static dielectric constant tensor:
#      x y z
#    x 4.643390 -0.114360 0.282300 
#    y -0.114360 4.533550 -0.002430 
#    z 0.282300 -0.002430 4.076150 
# 
# 
# High freq. dielectric constant tensor:
#      x y z
#    x 1.966640 -0.003700 0.020890 
#    y -0.003700 1.976570 0.004040 
#    z 0.020890 0.004040 1.927190 
# 
# From -- ./inp_files/205110.got.cif
#   From: 2010.06.25/outbox.cif.g09.slc.cpg/sg2_103_cif.got.tgz:205110.got - 2010.06.27 13:26:56.
