data_PCOD8020524
_publ_section_title
;
Structure prediction by ZEFSAII (Michael W. Deem and Ramdas Pophale) SiO2 
 PCOD8020524
Probable space group: P -1
;
_chemical_formula_sum "Si O2"
_cell_formula_units_Z 14
_cell_length_a 18.847285
_cell_length_b 9.059359
_cell_length_c 6.524468
_cell_angle_alpha 128.573549
_cell_angle_beta 52.097659
_cell_angle_gamma 131.479359
_cell_volume 612.751106
_symmetry_space_group_name_H-M "P -1"
_symmetry_group_IT_number 2
_symmetry_cell_setting 'triclinic'
loop_
_space_group_symop_operation_xyz
x,y,z
-x,-y,-z
loop_
_atom_site_type_symbol
_atom_site_label
_atom_site_fract_x
_atom_site_fract_y
_atom_site_fract_z
Si Si1 0.434811 0.969049 0.288459
Si Si2 0.549918 0.353936 0.710380
Si Si3 0.123412 0.486778 0.203729
Si Si4 0.930242 0.742514 0.508050
Si Si5 0.774324 0.062447 0.495395
Si Si6 0.760612 0.670554 0.420827
Si Si7 0.946759 0.152776 0.984354
O O1 0.432583 0.769422 0.238666
O O2 0.322676 0.913693 0.376020
O O3 0.477304 0.183813 0.529602
O O4 0.500000 0.000000 0.000000
O O5 0.655611 0.499246 0.544661
O O6 0.500000 0.500000 0.000000
O O7 0.119004 0.462844 0.439237
O O8 0.153818 0.731627 0.319349
O O9 0.208078 0.432878 0.911971
O O10 0.012970 0.332328 0.183926
O O11 0.845218 0.746875 0.511952
O O12 0.022796 0.743909 0.208993
O O13 0.972810 0.952399 0.758828
O O14 0.746465 0.865021 0.522226
O O15 0.830690 0.057991 0.178703
#
# Coordination Sequence:
#
# PCOD8020524 Si02
#       7
#     2   2   2   2   2   2   2
#     4  11  26  49  72 104 139 173 226 286 342 410
#     4  11  26  47  75 103 134 177 226 282 346 412
#     4  11  23  45  65  95 139 180 225 280 326 393
#     4  10  22  42  69  91 138 181 224 279 329 391
#     4  12  25  42  69  98 136 178 225 275 338 400
#     4  11  25  43  66 100 135 175 224 275 337 400
#     4  10  23  41  64  99 133 181 227 277 329 392
#
# _framework density 22.847774999999999
#
# number of rings (size 3 to 8) (size 9 to 14) (size 15 to 20)
#    0.000    1.143    1.429    3.429    6.000    5.143 
#    5.143    0.000    0.000    0.000    0.000    0.000 
#    0.000    0.000    0.000    0.000    0.000    0.000 
#
# Total GULP energy -173582.475578 kJ/mol
# GULP energy per Si atom -12398.748256 kJ/mol
# Density = 2.279577 g / cm^3
# Si number density = 22.847775 Si / 1000 Ang^3
#
#
#
# Elastic Constant Matrix: (Units=GPa)
#
#
# Indices 1 2 3 4 5 6 
#
# 1 77.8315 45.3851 52.7049 -13.5145 -7.1620 -4.3994
# 2 45.3851 162.8424 67.3742 -14.1087 -2.1320 -12.9890
# 3 52.7049 67.3742 121.9351 -25.6885 -2.4699 -11.1875
# 4 -13.5145 -14.1087 -25.6885 52.7783 6.0120 -6.6761
# 5 -7.1620 -2.1320 -2.4699 6.0120 31.5171 -4.1661
# 6 -4.3994 -12.9890 -11.1875 -6.6761 -4.1661 36.4755
#
#
#
# Elastic Compliance Matrix: (Units=1/GPa)
#
#
# Indices 1 2 3 4 5 6 
#
# 1 0.019320 -0.002487 -0.006801 0.000549 0.003567 -0.000134
# 2 -0.002487 0.008373 -0.003360 0.000187 -0.000076 0.001677
# 3 -0.006801 -0.003360 0.014278 0.004837 -0.001165 0.003115
# 4 0.000549 0.000187 0.004837 0.022523 -0.003068 0.005388
# 5 0.003567 -0.000076 -0.001165 -0.003068 0.033465 0.003307
# 6 -0.000134 0.001677 0.003115 0.005388 0.003307 0.030316
#
#
# Mechanical properties :
#
#
# Convention : Reuss Voigt Hill
#
# Bulk Modulus (GPa) = 59.96786 77.05973 68.51379
# Shear Modulus (GPa) = 31.42100 37.29716 34.35908
#
# Velocity S-wave (km/s) = 3.71244 4.04470 3.88213
# Velocity P-wave (km/s) = 6.68430 7.45745 7.08143
#
# Compressibility (1/GPa) = 0.01667560
#
# Stress axis : x y z
#
# Youngs Moduli (GPa) = 51.76016 119.43007 70.03673
#
# Poissons Ratio (x) = 0.29704 0.47631
# Poissons Ratio (y) = 0.12874 0.23531
# Poissons Ratio (z) = 0.35201 0.40126
#
# Static dielectric constant tensor:
#      x y z
#    x 3.867030 -0.041300 0.034250 
#    y -0.041300 4.399610 -0.081240 
#    z 0.034250 -0.081240 4.355020 
# 
# 
# High freq. dielectric constant tensor:
#      x y z
#    x 1.883850 -0.002040 -0.004220 
#    y -0.002040 1.925420 -0.004710 
#    z -0.004220 -0.004710 1.923660 
# 
# From -- ./inp_files/107509.got.cif
#   From: 2010.06.25/outbox.cif.g09.slc.cpg/sg2_54_cif.got.tgz:107509.got - 2010.06.27 13:26:56.
