data_PCOD8020660
_publ_section_title
;
Structure prediction by ZEFSAII (Michael W. Deem and Ramdas Pophale) SiO2 
 PCOD8020660
Probable space group: P -1
;
_chemical_formula_sum "Si O2"
_cell_formula_units_Z 14
_cell_length_a 11.371955
_cell_length_b 19.794058
_cell_length_c 14.066167
_cell_angle_alpha 20.957828
_cell_angle_beta 136.001098
_cell_angle_gamma 146.430708
_cell_volume 597.956102
_symmetry_space_group_name_H-M "P -1"
_symmetry_group_IT_number 2
_symmetry_cell_setting 'triclinic'
loop_
_space_group_symop_operation_xyz
x,y,z
-x,-y,-z
loop_
_atom_site_type_symbol
_atom_site_label
_atom_site_fract_x
_atom_site_fract_y
_atom_site_fract_z
Si Si1 0.818969 0.264404 0.141235
Si Si2 0.102365 0.142035 0.970715
Si Si3 0.392402 0.003714 0.337548
Si Si4 0.770823 0.075354 0.003193
Si Si5 0.556239 0.291836 0.554047
Si Si6 0.072846 0.438229 0.863503
Si Si7 0.764666 0.827389 0.640374
O O1 0.581351 0.189744 0.123709
O O2 0.779578 0.014834 0.476368
O O3 0.000000 0.500000 0.000000
O O4 0.895112 0.326003 0.994540
O O5 0.232852 0.432596 0.654079
O O6 0.896544 0.021265 0.080131
O O7 0.268857 0.107143 0.155814
O O8 0.000000 0.000000 0.000000
O O9 0.500000 0.000000 0.500000
O O10 0.214255 0.729191 0.552243
O O11 0.630544 0.128819 0.791810
O O12 0.937882 0.316811 0.848357
O O13 0.615892 0.828878 0.300400
O O14 0.442749 0.293162 0.392136
O O15 0.250152 0.391681 0.034156
O O16 0.000000 0.000000 0.500000
#
# Coordination Sequence:
#
# PCOD8020660 Si02
#       7
#     2   2   2   2   2   2   2
#     4  11  24  42  68 100 150 172 220 290 343 400
#     4  12  30  47  67 101 147 178 228 290 347 408
#     4  12  27  42  69 105 137 187 225 280 356 400
#     4  11  26  45  75  99 132 184 239 278 335 421
#     4  11  24  47  74 100 136 185 234 277 348 403
#     4  11  24  44  68 104 137 177 237 281 336 411
#     4  10  22  42  71 104 136 179 226 285 340 400
#
# _framework density 23.41309
#
# number of rings (size 3 to 8) (size 9 to 14) (size 15 to 20)
#    0.000    0.857    4.286    2.143    8.000    2.286 
#    0.000    0.000    0.000    0.000    0.000    0.000 
#    0.000    0.000    0.000    0.000    0.000    0.000 
#
# Total GULP energy -173600.468931 kJ/mol
# GULP energy per Si atom -12400.033495 kJ/mol
# Density = 2.335980 g / cm^3
# Si number density = 23.413090 Si / 1000 Ang^3
#
#
#
# Elastic Constant Matrix: (Units=GPa)
#
#
# Indices 1 2 3 4 5 6 
#
# 1 166.0069 44.0713 33.9126 1.1222 8.3608 17.8723
# 2 44.0713 87.9509 10.6940 10.0216 -4.1815 6.0724
# 3 33.9126 10.6940 89.4342 -5.3491 4.9141 12.1045
# 4 1.1222 10.0216 -5.3491 42.5097 6.8739 6.7222
# 5 8.3608 -4.1815 4.9141 6.8739 29.3631 -1.0452
# 6 17.8723 6.0724 12.1045 6.7222 -1.0452 42.1997
#
#
#
# Elastic Compliance Matrix: (Units=1/GPa)
#
#
# Indices 1 2 3 4 5 6 
#
# 1 0.007832 -0.003799 -0.001945 0.001296 -0.002838 -0.002489
# 2 -0.003799 0.013991 -0.000782 -0.004062 0.004176 0.000570
# 3 -0.001945 -0.000782 0.012747 0.002744 -0.002448 -0.003218
# 4 0.001296 -0.004062 0.002744 0.026896 -0.007889 -0.005231
# 5 -0.002838 0.004176 -0.002448 -0.007889 0.037840 0.003497
# 6 -0.002489 0.000570 -0.003218 -0.005231 0.003497 0.026512
#
#
# Mechanical properties :
#
#
# Convention : Reuss Voigt Hill
#
# Bulk Modulus (GPa) = 46.47467 57.86086 52.16776
# Shear Modulus (GPa) = 34.23699 39.79542 37.01621
#
# Velocity S-wave (km/s) = 3.82815 4.12722 3.98050
# Velocity P-wave (km/s) = 6.27954 6.89048 6.59209
#
# Compressibility (1/GPa) = 0.02151710
#
# Stress axis : x y z
#
# Youngs Moduli (GPa) = 127.68438 71.47680 78.45203
#
# Poissons Ratio (x) = 0.27152 0.15260
# Poissons Ratio (y) = 0.48503 0.06136
# Poissons Ratio (z) = 0.24837 0.05590
#
# Static dielectric constant tensor:
#      x y z
#    x 7.643230 0.810460 2.500970 
#    y 0.810460 4.396120 0.364390 
#    z 2.500970 0.364390 6.237100 
# 
# 
# High freq. dielectric constant tensor:
#      x y z
#    x 1.934540 0.014100 0.007230 
#    y 0.014100 1.931300 -0.011700 
#    z 0.007230 -0.011700 1.925980 
# 
# From -- ./inp_files/524014.got.cif
#   From: 2010.06.25/outbox.cif.g09.slc.cpg/sg2_263_cif.got.tgz:524014.got - 2010.06.27 13:26:56.
