data_PCOD8020893
_publ_section_title
;
Structure prediction by ZEFSAII (Michael W. Deem and Ramdas Pophale) SiO2 
 PCOD8020893
Probable space group: P -1
;
_chemical_formula_sum "Si O2"
_cell_formula_units_Z 14
_cell_length_a 8.871705
_cell_length_b 15.730222
_cell_length_c 8.746845
_cell_angle_alpha 48.901199
_cell_angle_beta 118.575509
_cell_angle_gamma 90.362917
_cell_volume 714.928350
_symmetry_space_group_name_H-M "P -1"
_symmetry_group_IT_number 2
_symmetry_cell_setting 'triclinic'
loop_
_space_group_symop_operation_xyz
x,y,z
-x,-y,-z
loop_
_atom_site_type_symbol
_atom_site_label
_atom_site_fract_x
_atom_site_fract_y
_atom_site_fract_z
Si Si1 0.574970 0.263816 0.646414
Si Si2 0.856168 0.546474 0.738208
Si Si3 0.517219 0.080968 0.049638
Si Si4 0.857672 0.973696 0.567797
Si Si5 0.087888 0.263652 0.678601
Si Si6 0.151096 0.881404 0.308578
Si Si7 0.912690 0.308520 0.856319
O O1 0.355284 0.369328 0.392802
O O2 0.651863 0.188240 0.612918
O O3 0.703681 0.330516 0.675035
O O4 0.593509 0.173503 0.904784
O O5 0.920446 0.625753 0.563401
O O6 0.870586 0.421389 0.816283
O O7 0.000000 0.500000 0.000000
O O8 0.666488 0.996625 0.353101
O O9 0.306397 0.153361 0.936544
O O10 0.500000 0.000000 0.000000
O O11 0.797296 0.072107 0.563901
O O12 0.000000 0.000000 0.500000
O O13 0.960718 0.828453 0.843651
O O14 0.947914 0.210219 0.601847
O O15 0.022767 0.321481 0.746280
O O16 0.000000 0.000000 0.000000
#
# Coordination Sequence:
#
# PCOD8020893 Si02
#       7
#     2   2   2   2   2   2   2
#     4  10  22  43  65  89 127 172 204 263 315 378
#     4  11  26  42  64  92 126 170 221 261 308 368
#     4  11  23  37  61  95 134 162 203 264 327 373
#     4  12  23  37  68  98 127 166 211 258 320 392
#     4  10  23  42  64  90 130 168 204 272 315 366
#     4  11  20  42  67  97 128 161 210 257 325 380
#     4  11  23  43  64  90 126 173 212 251 318 381
#
# _framework density 19.582381999999999
#
# number of rings (size 3 to 8) (size 9 to 14) (size 15 to 20)
#    0.000    1.143    4.286    2.571    6.000    1.714 
#    0.000    2.857    0.000    0.000    0.000    0.000 
#    0.000    0.000    0.000    0.000    0.000    0.000 
#
# Total GULP energy -173624.862213 kJ/mol
# GULP energy per Si atom -12401.775872 kJ/mol
# Density = 1.953781 g / cm^3
# Si number density = 19.582382 Si / 1000 Ang^3
#
#
#
# Elastic Constant Matrix: (Units=GPa)
#
#
# Indices 1 2 3 4 5 6 
#
# 1 132.5903 50.4262 62.3246 -3.8954 12.0520 -22.4340
# 2 50.4262 147.4034 60.6978 2.1553 8.2906 -20.8976
# 3 62.3246 60.6978 140.0064 8.2221 13.2553 -9.8277
# 4 -3.8954 2.1553 8.2221 37.3970 2.5590 0.4094
# 5 12.0520 8.2906 13.2553 2.5590 20.7160 -0.6068
# 6 -22.4340 -20.8976 -9.8277 0.4094 -0.6068 27.1997
#
#
#
# Elastic Compliance Matrix: (Units=1/GPa)
#
#
# Indices 1 2 3 4 5 6 
#
# 1 0.011383 -0.001132 -0.003861 0.002282 -0.003775 0.007005
# 2 -0.001132 0.009184 -0.003041 0.000030 -0.000929 0.005003
# 3 -0.003861 -0.003041 0.010475 -0.002305 -0.003007 -0.001768
# 4 0.002282 0.000030 -0.002305 0.027700 -0.003269 0.000582
# 5 -0.003775 -0.000929 -0.003007 -0.003269 0.053060 -0.003681
# 6 0.007005 0.005003 -0.001768 0.000582 -0.003681 0.045657
#
#
# Mechanical properties :
#
#
# Convention : Reuss Voigt Hill
#
# Bulk Modulus (GPa) = 66.77636 85.21081 75.99359
# Shear Modulus (GPa) = 28.00817 33.49929 30.75373
#
# Velocity S-wave (km/s) = 3.78600 4.14053 3.96723
# Velocity P-wave (km/s) = 7.29972 8.15274 7.73799
#
# Compressibility (1/GPa) = 0.01497536
#
# Stress axis : x y z
#
# Youngs Moduli (GPa) = 87.85027 108.87954 95.46084
#
# Poissons Ratio (x) = 0.12325 0.36860
# Poissons Ratio (y) = 0.09944 0.29025
# Poissons Ratio (z) = 0.33922 0.33105
#
# Static dielectric constant tensor:
#      x y z
#    x 3.921740 -0.102970 -0.027300 
#    y -0.102970 3.852340 -0.001490 
#    z -0.027300 -0.001490 3.577770 
# 
# 
# High freq. dielectric constant tensor:
#      x y z
#    x 1.782510 -0.002740 0.000280 
#    y -0.002740 1.771570 -0.002000 
#    z 0.000280 -0.002000 1.756060 
# 
# From -- ./inp_files/156677.got.cif
#   From: 2010.06.25/outbox.cif.g09.slc.cpg/sg2_79_cif.got.tgz:156677.got - 2010.06.27 13:26:56.
