data_PCOD8020102
_publ_section_title
;
Structure prediction by ZEFSAII (Michael W. Deem and Ramdas Pophale) SiO2 
 PCOD8020102
Probable space group: P -1
;
_chemical_formula_sum "Si O2"
_cell_formula_units_Z 12
_cell_length_a 12.698864
_cell_length_b 19.106585
_cell_length_c 15.275148
_cell_angle_alpha 19.601032
_cell_angle_beta 152.233523
_cell_angle_gamma 153.463408
_cell_volume 533.171483
_symmetry_space_group_name_H-M "P -1"
_symmetry_group_IT_number 2
_symmetry_cell_setting 'triclinic'
loop_
_space_group_symop_operation_xyz
x,y,z
-x,-y,-z
loop_
_atom_site_type_symbol
_atom_site_label
_atom_site_fract_x
_atom_site_fract_y
_atom_site_fract_z
Si Si1 0.286480 0.569331 0.148969
Si Si2 0.508203 0.965057 0.336278
Si Si3 0.105741 0.858179 0.304574
Si Si4 0.442243 0.206024 0.754252
Si Si5 0.892256 0.391452 0.639435
Si Si6 0.064620 0.040626 0.241995
O O1 0.381624 0.362455 0.451557
O O2 0.325538 0.645415 0.190247
O O3 0.000000 0.500000 0.000000
O O4 0.446880 0.776089 0.959511
O O5 0.356501 0.881649 0.413037
O O6 0.377356 0.804474 0.346009
O O7 0.766917 0.945526 0.566460
O O8 0.904438 0.597272 0.468850
O O9 0.158389 0.947151 0.336743
O O10 0.000000 0.000000 0.000000
O O11 0.211385 0.120484 0.749672
O O12 0.500000 0.000000 0.000000
O O13 0.000000 0.500000 0.500000
O O14 0.075182 0.289163 0.936867
#
# Coordination Sequence:
#
# PCOD8020102 Si02
#       6
#     2   2   2   2   2   2
#     4  11  23  48  72  98 138 180 232 281 337 406
#     4  11  23  44  68 103 135 177 224 279 336 410
#     4  11  22  43  70  97 135 178 217 276 343 399
#     4  11  26  46  71  99 136 181 232 287 336 399
#     4  10  22  42  65  94 138 174 217 274 338 397
#     4  12  23  45  67 100 137 173 231 274 344 404
#
# _framework density 22.506830000000001
#
# number of rings (size 3 to 8) (size 9 to 14) (size 15 to 20)
#    0.000    1.000    6.667    0.500    0.000    7.333 
#    3.000    0.000    0.000    0.000    0.000    0.000 
#    0.000    0.000    0.000    0.000    0.000    0.000 
#
# Total GULP energy -148728.741605 kJ/mol
# GULP energy per Si atom -12394.061800 kJ/mol
# Density = 2.245560 g / cm^3
# Si number density = 22.506830 Si / 1000 Ang^3
#
#
#
# Elastic Constant Matrix: (Units=GPa)
#
#
# Indices 1 2 3 4 5 6 
#
# 1 58.3363 26.2634 27.0573 -5.8628 0.3838 2.7507
# 2 26.2634 132.8523 84.3085 2.6612 8.6912 -4.5523
# 3 27.0573 84.3085 203.9520 -8.3372 -7.6213 -16.2542
# 4 -5.8628 2.6612 -8.3372 49.5185 -2.8389 -3.7747
# 5 0.3838 8.6912 -7.6213 -2.8389 34.1778 -8.3140
# 6 2.7507 -4.5523 -16.2542 -3.7747 -8.3140 27.1561
#
#
#
# Elastic Compliance Matrix: (Units=1/GPa)
#
#
# Indices 1 2 3 4 5 6 
#
# 1 0.019568 -0.003006 -0.001551 0.001942 -0.000437 -0.003279
# 2 -0.003006 0.011427 -0.004782 -0.002227 -0.004705 -0.002393
# 3 -0.001551 -0.004782 0.007794 0.002080 0.004530 0.005696
# 4 0.001942 -0.002227 0.002080 0.021495 0.003981 0.004881
# 5 -0.000437 -0.004705 0.004530 0.003981 0.035022 0.013243
# 6 -0.003279 -0.002393 0.005696 0.004881 0.013243 0.044897
#
#
# Mechanical properties :
#
#
# Convention : Reuss Voigt Hill
#
# Bulk Modulus (GPa) = 49.73046 74.48878 62.10962
# Shear Modulus (GPa) = 30.19581 39.33792 34.76686
#
# Velocity S-wave (km/s) = 3.66680 4.18523 3.93456
# Velocity P-wave (km/s) = 6.33016 7.51816 6.94959
#
# Compressibility (1/GPa) = 0.02010840
#
# Stress axis : x y z
#
# Youngs Moduli (GPa) = 51.10456 87.51367 128.30279
#
# Poissons Ratio (x) = 0.26310 0.19905
# Poissons Ratio (y) = 0.15364 0.61358
# Poissons Ratio (z) = 0.07928 0.41851
#
# Static dielectric constant tensor:
#      x y z
#    x 3.858360 0.326420 -0.413590 
#    y 0.326420 4.758840 -0.321050 
#    z -0.413590 -0.321050 4.374020 
# 
# 
# High freq. dielectric constant tensor:
#      x y z
#    x 1.860730 0.004190 -0.018380 
#    y 0.004190 1.892990 -0.005920 
#    z -0.018380 -0.005920 1.907400 
# 
# From -- ./inp_files/317969.got.cif
#   From: 2010.06.25/outbox.cif.g09.slc.cpg/sg2_159_cif.got.tgz:317969.got - 2010.06.27 13:26:56.
