data_PCOD8020108
_publ_section_title
;
Structure prediction by ZEFSAII (Michael W. Deem and Ramdas Pophale) SiO2 
 PCOD8020108
Probable space group: P -1
;
_chemical_formula_sum "Si O2"
_cell_formula_units_Z 14
_cell_length_a 7.790577
_cell_length_b 9.582861
_cell_length_c 17.457781
_cell_angle_alpha 52.158720
_cell_angle_beta 144.531484
_cell_angle_gamma 132.393501
_cell_volume 552.187943
_symmetry_space_group_name_H-M "P -1"
_symmetry_group_IT_number 2
_symmetry_cell_setting 'triclinic'
loop_
_space_group_symop_operation_xyz
x,y,z
-x,-y,-z
loop_
_atom_site_type_symbol
_atom_site_label
_atom_site_fract_x
_atom_site_fract_y
_atom_site_fract_z
Si Si1 0.195168 0.146260 0.676091
Si Si2 0.901393 0.517889 0.066891
Si Si3 0.225996 0.258092 0.338498
Si Si4 0.278991 0.902159 0.024594
Si Si5 0.942726 0.364552 0.616993
Si Si6 0.164410 0.327172 0.454931
Si Si7 0.174568 0.262548 0.885146
O O1 0.523702 0.128386 0.821977
O O2 0.201631 0.170804 0.578437
O O3 0.170647 0.331613 0.646755
O O4 0.908635 0.958786 0.668892
O O5 0.908745 0.635051 0.107976
O O6 0.137699 0.402983 0.203091
O O7 0.029630 0.682528 0.991143
O O8 0.550465 0.374295 0.963337
O O9 0.597875 0.315037 0.469677
O O10 0.026862 0.236686 0.353586
O O11 0.500000 0.000000 0.000000
O O12 0.111306 0.039689 0.950272
O O13 0.071108 0.586286 0.616991
O O14 0.944515 0.249791 0.733623
O O15 0.500000 0.500000 0.500000
#
# Coordination Sequence:
#
# PCOD8020108 Si02
#       7
#     2   2   2   2   2   2   2
#     4  12  24  43  68 103 143 180 230 289 350 413
#     4  11  25  47  74 100 138 188 232 296 344 416
#     4  11  23  45  71 102 137 181 238 283 349 411
#     4  12  25  45  69 103 142 185 230 287 354 421
#     4  11  23  43  68 102 139 177 230 290 348 413
#     4  10  22  42  65  95 132 183 230 280 339 409
#     4  11  24  48  70 102 139 180 244 283 351 415
#
# _framework density 25.353687000000001
#
# number of rings (size 3 to 8) (size 9 to 14) (size 15 to 20)
#    0.000    0.857    4.286    3.429    2.000    0.571 
#    2.571    0.000    0.000    0.000    0.000    0.000 
#    0.000    0.000    0.000    0.000    0.000    0.000 
#
# Total GULP energy -173483.941605 kJ/mol
# GULP energy per Si atom -12391.710115 kJ/mol
# Density = 2.529598 g / cm^3
# Si number density = 25.353687 Si / 1000 Ang^3
#
#
#
# Elastic Constant Matrix: (Units=GPa)
#
#
# Indices 1 2 3 4 5 6 
#
# 1 47.7481 -4.4212 13.9593 -18.6852 -13.5135 5.2904
# 2 -4.4212 105.5840 35.5082 -28.3647 -1.1923 14.6313
# 3 13.9593 35.5082 139.9145 -23.9025 10.7448 5.2665
# 4 -18.6852 -28.3647 -23.9025 39.7559 1.2894 -3.7748
# 5 -13.5135 -1.1923 10.7448 1.2894 26.9471 -6.2818
# 6 5.2904 14.6313 5.2665 -3.7748 -6.2818 33.8200
#
#
#
# Elastic Compliance Matrix: (Units=1/GPa)
#
#
# Indices 1 2 3 4 5 6 
#
# 1 0.036343 0.008876 -0.003700 0.020283 0.018360 -0.003275
# 2 0.008876 0.014879 -0.002655 0.012556 0.004355 -0.005202
# 3 -0.003700 -0.002655 0.008978 0.001901 -0.005767 -0.000530
# 4 0.020283 0.012556 0.001901 0.044305 0.007241 -0.002611
# 5 0.018360 0.004355 -0.005767 0.007241 0.049913 0.006221
# 6 -0.003275 -0.005202 -0.000530 -0.002611 0.006221 0.033277
#
#
# Mechanical properties :
#
#
# Convention : Reuss Voigt Hill
#
# Bulk Modulus (GPa) = 15.32767 42.59325 28.96046
# Shear Modulus (GPa) = 24.46175 36.65129 30.55652
#
# Velocity S-wave (km/s) = 3.10953 3.80623 3.47538
# Velocity P-wave (km/s) = 4.35326 6.01270 5.24897
#
# Compressibility (1/GPa) = 0.06524150
#
# Stress axis : x y z
#
# Youngs Moduli (GPa) = 27.51551 67.20942 111.38520
#
# Poissons Ratio (x) = -0.59657 0.41215
# Poissons Ratio (y) = -0.24424 0.29576
# Poissons Ratio (z) = 0.10181 0.17846
#
# Static dielectric constant tensor:
#      x y z
#    x 4.921490 -0.460330 0.045450 
#    y -0.460330 5.099670 -0.358100 
#    z 0.045450 -0.358100 4.632460 
# 
# 
# High freq. dielectric constant tensor:
#      x y z
#    x 2.008980 -0.015560 -0.006040 
#    y -0.015560 2.009600 -0.023930 
#    z -0.006040 -0.023930 2.016990 
# 
# From -- ./inp_files/458418.got.cif
#   From: 2010.06.25/outbox.cif.g09.slc.cpg/sg2_230_cif.got.tgz:458418.got - 2010.06.27 13:26:56.
