data_PCOD8020167
_publ_section_title
;
Structure prediction by ZEFSAII (Michael W. Deem and Ramdas Pophale) SiO2 
 PCOD8020167
Probable space group: P -1
;
_chemical_formula_sum "Si O2"
_cell_formula_units_Z 16
_cell_length_a 12.120139
_cell_length_b 10.811376
_cell_length_c 8.653661
_cell_angle_alpha 124.679293
_cell_angle_beta 91.027855
_cell_angle_gamma 119.801140
_cell_volume 733.816553
_symmetry_space_group_name_H-M "P -1"
_symmetry_group_IT_number 2
_symmetry_cell_setting 'triclinic'
loop_
_space_group_symop_operation_xyz
x,y,z
-x,-y,-z
loop_
_atom_site_type_symbol
_atom_site_label
_atom_site_fract_x
_atom_site_fract_y
_atom_site_fract_z
Si Si1 0.201675 0.328987 0.451040
Si Si2 0.470565 0.431453 0.627619
Si Si3 0.758989 0.784901 0.937217
Si Si4 0.864041 0.436202 0.546959
Si Si5 0.160186 0.435263 0.055770
Si Si6 0.992558 0.168568 0.588319
Si Si7 0.266375 0.972997 0.686665
Si Si8 0.475793 0.801681 0.337841
O O1 0.318661 0.380333 0.619366
O O2 0.196610 0.190202 0.224757
O O3 0.229356 0.506074 0.483632
O O4 0.058196 0.241387 0.471585
O O5 0.500000 0.500000 0.500000
O O6 0.595406 0.616720 0.853345
O O7 0.476360 0.258847 0.553807
O O8 0.845591 0.740106 0.008702
O O9 0.790233 0.977650 0.134813
O O10 0.911774 0.520582 0.782855
O O11 0.745493 0.208655 0.389082
O O12 0.000000 0.500000 0.500000
O O13 0.316238 0.630301 0.164314
O O14 0.067653 0.347143 0.835627
O O15 0.832224 0.085868 0.508750
O O16 0.000000 0.000000 0.500000
O O17 0.422742 0.154366 0.771837
O O18 0.500000 0.000000 0.500000
#
# Coordination Sequence:
#
# PCOD8020167 Si02
#       8
#     2   2   2   2   2   2   2   2
#     4  10  22  42  66  90 134 177 221 276 337 400
#     4   9  20  39  67  94 130 175 224 270 335 398
#     4   9  21  40  66  96 126 177 224 271 333 407
#     4  11  23  45  65  95 136 184 218 274 345 407
#     4  10  23  43  70  95 135 179 219 275 348 398
#     4  12  24  40  65 103 130 166 232 283 330 400
#     4  12  24  40  67 101 133 171 233 280 336 403
#     4  11  23  43  69 100 139 175 222 283 343 404
#
# _framework density 21.803815
#
# number of rings (size 3 to 8) (size 9 to 14) (size 15 to 20)
#    0.000    1.500    3.750    1.500    1.750    3.000 
#    0.000    3.125    0.000    0.000    0.000    0.000 
#    0.000    0.000    0.000    0.000    0.000    0.000 
#
# Total GULP energy -198214.850768 kJ/mol
# GULP energy per Si atom -12388.428173 kJ/mol
# Density = 2.175419 g / cm^3
# Si number density = 21.803815 Si / 1000 Ang^3
#
#
#
# Elastic Constant Matrix: (Units=GPa)
#
#
# Indices 1 2 3 4 5 6 
#
# 1 86.9207 29.2680 46.8084 -5.0304 -4.4303 -1.9043
# 2 29.2680 102.1989 39.3796 -0.7642 -14.0243 -3.2550
# 3 46.8084 39.3796 128.7163 -2.6410 -19.7129 4.4137
# 4 -5.0304 -0.7642 -2.6410 24.8847 1.6115 -9.3065
# 5 -4.4303 -14.0243 -19.7129 1.6115 38.1224 1.6401
# 6 -1.9043 -3.2550 4.4137 -9.3065 1.6401 50.8864
#
#
#
# Elastic Compliance Matrix: (Units=1/GPa)
#
#
# Indices 1 2 3 4 5 6 
#
# 1 0.015202 -0.002623 -0.005017 0.003140 -0.001988 0.001475
# 2 -0.002623 0.011817 -0.002254 -0.000330 0.002861 0.000701
# 3 -0.005017 -0.002254 0.010990 -0.000787 0.004372 -0.001570
# 4 0.003140 -0.000330 -0.000787 0.043979 -0.002379 0.008285
# 5 -0.001988 0.002861 0.004372 -0.002379 0.029485 -0.001656
# 6 0.001475 0.000701 -0.001570 0.008285 -0.001656 0.021456
#
#
# Mechanical properties :
#
#
# Convention : Reuss Voigt Hill
#
# Bulk Modulus (GPa) = 54.87904 60.97196 57.92550
# Shear Modulus (GPa) = 31.48798 36.27069 33.87934
#
# Velocity S-wave (km/s) = 3.80432 4.08303 3.94614
# Velocity P-wave (km/s) = 6.67242 7.08892 6.88382
#
# Compressibility (1/GPa) = 0.01822189
#
# Stress axis : x y z
#
# Youngs Moduli (GPa) = 65.78012 84.62384 90.99087
#
# Poissons Ratio (x) = 0.22197 0.45646
# Poissons Ratio (y) = 0.17255 0.20510
# Poissons Ratio (z) = 0.32999 0.19075
#
# Static dielectric constant tensor:
#      x y z
#    x 4.366110 -0.035010 0.178790 
#    y -0.035010 4.673890 -0.260580 
#    z 0.178790 -0.260580 3.984350 
# 
# 
# High freq. dielectric constant tensor:
#      x y z
#    x 1.865520 0.002720 -0.005770 
#    y 0.002720 1.859380 0.004540 
#    z -0.005770 0.004540 1.838730 
# 
# From -- ./inp_files/263485.got.cif
#   From: 2010.06.25/outbox.cif.g09.slc.cpg/sg2_132_cif.got.tgz:263485.got - 2010.06.27 13:26:56.
