data_PCOD8020106
_publ_section_title
;
Structure prediction by ZEFSAII (Michael W. Deem and Ramdas Pophale) SiO2 
 PCOD8020106
Probable space group: P -1
;
_chemical_formula_sum "Si O2"
_cell_formula_units_Z 12
_cell_length_a 14.695123
_cell_length_b 17.325719
_cell_length_c 5.352334
_cell_angle_alpha 75.311874
_cell_angle_beta 110.061923
_cell_angle_gamma 156.839579
_cell_volume 496.346051
_symmetry_space_group_name_H-M "P -1"
_symmetry_group_IT_number 2
_symmetry_cell_setting 'triclinic'
loop_
_space_group_symop_operation_xyz
x,y,z
-x,-y,-z
loop_
_atom_site_type_symbol
_atom_site_label
_atom_site_fract_x
_atom_site_fract_y
_atom_site_fract_z
Si Si1 0.321409 0.958340 0.198390
Si Si2 0.157103 0.690091 0.593131
Si Si3 0.915362 0.638658 0.705839
Si Si4 0.296597 0.281847 0.031235
Si Si5 0.378408 0.246744 0.641414
Si Si6 0.895486 0.084442 0.633331
O O1 0.230585 0.805855 0.348761
O O2 0.319154 0.030413 0.331960
O O3 0.591914 0.153969 0.181410
O O4 0.130936 0.837764 0.908351
O O5 0.000000 0.500000 0.500000
O O6 0.993694 0.610520 0.709758
O O7 0.662300 0.440226 0.770853
O O8 0.901107 0.695813 0.430470
O O9 0.301502 0.222417 0.856915
O O10 0.031829 0.122955 0.905061
O O11 0.500000 0.500000 0.000000
O O12 0.329922 0.270034 0.346196
O O13 0.227722 0.052805 0.605830
#
# Coordination Sequence:
#
# PCOD8020106 Si02
#       6
#     2   2   2   2   2   2
#     4  10  23  41  66  94 134 168 220 277 334 396
#     4  10  22  42  65  95 130 171 219 274 339 403
#     4  11  24  41  67  97 132 176 218 283 333 396
#     4  12  25  46  69  97 140 181 225 278 331 393
#     4  12  27  43  70 101 135 183 226 273 335 395
#     4  11  25  42  66  98 133 175 225 275 330 399
#
# _framework density 24.176680000000001
#
# number of rings (size 3 to 8) (size 9 to 14) (size 15 to 20)
#    0.000    1.000    1.667    4.000    7.000    2.000 
#    0.000    0.000    0.000    0.000    0.000    0.000 
#    0.000    0.000    0.000    0.000    0.000    0.000 
#
# Total GULP energy -148786.180671 kJ/mol
# GULP energy per Si atom -12398.848389 kJ/mol
# Density = 2.412165 g / cm^3
# Si number density = 24.176680 Si / 1000 Ang^3
#
#
#
# Elastic Constant Matrix: (Units=GPa)
#
#
# Indices 1 2 3 4 5 6 
#
# 1 153.1900 49.6159 23.0718 15.1550 -1.7461 -0.2975
# 2 49.6159 90.1702 3.8466 27.7089 6.9969 3.9953
# 3 23.0718 3.8466 64.8312 18.8418 -1.2250 5.7929
# 4 15.1550 27.7089 18.8418 37.0901 4.3014 -5.4207
# 5 -1.7461 6.9969 -1.2250 4.3014 32.5951 22.1826
# 6 -0.2975 3.9953 5.7929 -5.4207 22.1826 38.1924
#
#
#
# Elastic Compliance Matrix: (Units=1/GPa)
#
#
# Indices 1 2 3 4 5 6 
#
# 1 0.008582 -0.005440 -0.003611 0.002587 0.000157 0.001459
# 2 -0.005440 0.018966 0.006261 -0.016454 0.002743 -0.006905
# 3 -0.003611 0.006261 0.022854 -0.017857 0.010297 -0.012665
# 4 0.002587 -0.016454 -0.017857 0.053057 -0.020101 0.023655
# 5 0.000157 0.002743 0.010297 -0.020101 0.060089 -0.039601
# 6 0.001459 -0.006905 -0.012665 0.023655 -0.039601 0.055196
#
#
# Mechanical properties :
#
#
# Convention : Reuss Voigt Hill
#
# Bulk Modulus (GPa) = 22.30964 51.25112 36.78038
# Shear Modulus (GPa) = 20.89746 37.01933 28.95840
#
# Velocity S-wave (km/s) = 2.94320 3.91730 3.46465
# Velocity P-wave (km/s) = 4.56045 6.45793 5.59029
#
# Compressibility (1/GPa) = 0.04482367
#
# Stress axis : x y z
#
# Youngs Moduli (GPa) = 116.51843 52.72676 43.75565
#
# Poissons Ratio (x) = 0.28684 0.15799
# Poissons Ratio (y) = 0.63387 -0.27397
# Poissons Ratio (z) = 0.42070 -0.33015
#
# Static dielectric constant tensor:
#      x y z
#    x 4.648790 0.102030 0.095900 
#    y 0.102030 4.396050 0.108840 
#    z 0.095900 0.108840 4.303360 
# 
# 
# High freq. dielectric constant tensor:
#      x y z
#    x 1.979470 -0.003230 0.006240 
#    y -0.003230 1.964550 0.012000 
#    z 0.006240 0.012000 1.948600 
# 
# From -- ./inp_files/21210.got.cif
#   From: 2010.06.25/outbox.cif.g09.slc.cpg/sg2_11_cif.got.tgz:21210.got - 2010.06.27 13:26:56.
