data_PCOD8020925
_publ_section_title
;
Structure prediction by ZEFSAII (Michael W. Deem and Ramdas Pophale) SiO2 
 PCOD8020925
Probable space group: P -1
;
_chemical_formula_sum "Si O2"
_cell_formula_units_Z 16
_cell_length_a 8.914636
_cell_length_b 11.875946
_cell_length_c 18.246648
_cell_angle_alpha 132.495138
_cell_angle_beta 123.837431
_cell_angle_gamma 31.680448
_cell_volume 747.235662
_symmetry_space_group_name_H-M "P -1"
_symmetry_group_IT_number 2
_symmetry_cell_setting 'triclinic'
loop_
_space_group_symop_operation_xyz
x,y,z
-x,-y,-z
loop_
_atom_site_type_symbol
_atom_site_label
_atom_site_fract_x
_atom_site_fract_y
_atom_site_fract_z
Si Si1 0.279523 0.779447 0.902130
Si Si2 0.302887 0.334922 0.549366
Si Si3 0.179725 0.681886 0.970336
Si Si4 0.224825 0.116178 0.724386
Si Si5 0.770395 0.625305 0.054747
Si Si6 0.575499 0.475584 0.701683
Si Si7 0.759988 0.791511 0.384914
Si Si8 0.403655 0.413966 0.395488
O O1 0.161303 0.713684 0.890235
O O2 0.432244 0.622867 0.802265
O O3 0.487204 0.741923 0.993703
O O4 0.018189 0.059994 0.931422
O O5 0.422057 0.425038 0.607063
O O6 0.294195 0.323405 0.631023
O O7 0.000000 0.500000 0.500000
O O8 0.531071 0.069090 0.463533
O O9 0.094550 0.571578 0.930850
O O10 0.500000 0.500000 0.000000
O O11 0.302175 0.161259 0.837540
O O12 0.245340 0.227072 0.712486
O O13 0.916198 0.235703 0.701037
O O14 0.452618 0.834566 0.645079
O O15 0.000000 0.500000 0.000000
O O16 0.528898 0.629079 0.692157
O O17 0.073700 0.638423 0.424923
O O18 0.500000 0.500000 0.500000
#
# Coordination Sequence:
#
# PCOD8020925 Si02
#       8
#     2   2   2   2   2   2   2   2
#     4  10  22  43  65  95 126 171 214 260 322 380
#     4  11  23  43  65  95 128 166 208 274 320 379
#     4   9  22  43  63  88 131 171 209 262 319 369
#     4  11  24  42  64  98 126 173 211 260 329 377
#     4  11  23  41  66  94 135 163 212 269 313 382
#     4  11  24  39  67  93 123 167 218 258 321 393
#     4  10  23  42  64  93 127 163 213 257 327 384
#     4  11  23  42  66  93 129 166 212 270 320 384
#
# _framework density 21.412254999999998
#
# number of rings (size 3 to 8) (size 9 to 14) (size 15 to 20)
#    0.000    1.500    1.250    3.000    3.500    5.500 
#   11.250    0.000    0.000    0.000    0.000    0.000 
#    0.000    0.000    0.000    0.000    0.000    0.000 
#
# Total GULP energy -198272.949683 kJ/mol
# GULP energy per Si atom -12392.059355 kJ/mol
# Density = 2.136352 g / cm^3
# Si number density = 21.412255 Si / 1000 Ang^3
#
#
#
# Elastic Constant Matrix: (Units=GPa)
#
#
# Indices 1 2 3 4 5 6 
#
# 1 114.7498 38.5250 25.8945 3.3518 -15.8080 7.2142
# 2 38.5250 125.6839 34.6935 17.6336 -4.3049 -4.0964
# 3 25.8945 34.6935 85.1619 0.9385 -9.4833 0.2372
# 4 3.3518 17.6336 0.9385 28.4014 -5.4223 0.1403
# 5 -15.8080 -4.3049 -9.4833 -5.4223 38.3989 1.3964
# 6 7.2142 -4.0964 0.2372 0.1403 1.3964 34.1138
#
#
#
# Elastic Compliance Matrix: (Units=1/GPa)
#
#
# Indices 1 2 3 4 5 6 
#
# 1 0.010776 -0.003013 -0.001611 0.001431 0.004004 -0.002799
# 2 -0.003013 0.010814 -0.003638 -0.006618 -0.001936 0.002067
# 3 -0.001611 -0.003638 0.013994 0.002513 0.002751 -0.000316
# 4 0.001431 -0.006618 0.002513 0.040259 0.006208 -0.001534
# 5 0.004004 -0.001936 0.002751 0.006208 0.029114 -0.002316
# 6 -0.002799 0.002067 -0.000316 -0.001534 -0.002316 0.030257
#
#
# Mechanical properties :
#
#
# Convention : Reuss Voigt Hill
#
# Bulk Modulus (GPa) = 52.46713 58.20239 55.33476
# Shear Modulus (GPa) = 31.62751 35.28166 33.45459
#
# Velocity S-wave (km/s) = 3.84744 4.06363 3.95701
# Velocity P-wave (km/s) = 6.65534 7.01842 6.83929
#
# Compressibility (1/GPa) = 0.01905955
#
# Stress axis : x y z
#
# Youngs Moduli (GPa) = 92.80272 92.47511 71.46092
#
# Poissons Ratio (x) = 0.27863 0.11513
# Poissons Ratio (y) = 0.27962 0.25995
# Poissons Ratio (z) = 0.14951 0.33639
#
# Static dielectric constant tensor:
#      x y z
#    x 4.593470 0.227420 -0.318740 
#    y 0.227420 4.110700 -0.024860 
#    z -0.318740 -0.024860 3.816930 
# 
# 
# High freq. dielectric constant tensor:
#      x y z
#    x 1.859520 0.002290 -0.023010 
#    y 0.002290 1.846700 0.002510 
#    z -0.023010 0.002510 1.826880 
# 
# From -- ./inp_files/46690.got.cif
#   From: 2010.06.25/outbox.cif.g09.slc.cpg/sg2_24_cif.got.tgz:46690.got - 2010.06.27 13:26:56.
