data_PCOD8020439
_publ_section_title
;
Structure prediction by ZEFSAII (Michael W. Deem and Ramdas Pophale) SiO2 
 PCOD8020439
Probable space group: P -1
;
_chemical_formula_sum "Si O2"
_cell_formula_units_Z 14
_cell_length_a 15.506329
_cell_length_b 20.991316
_cell_length_c 9.263879
_cell_angle_alpha 48.738145
_cell_angle_beta 29.993310
_cell_angle_gamma 27.990814
_cell_volume 632.248519
_symmetry_space_group_name_H-M "P -1"
_symmetry_group_IT_number 2
_symmetry_cell_setting 'triclinic'
loop_
_space_group_symop_operation_xyz
x,y,z
-x,-y,-z
loop_
_atom_site_type_symbol
_atom_site_label
_atom_site_fract_x
_atom_site_fract_y
_atom_site_fract_z
Si Si1 0.108943 0.217996 0.631162
Si Si2 0.091866 0.952319 0.768679
Si Si3 0.296587 0.607207 0.319899
Si Si4 0.203612 0.062352 0.965751
Si Si5 0.879567 0.478723 0.606616
Si Si6 0.829261 0.903552 0.709881
Si Si7 0.706166 0.590551 0.385615
O O1 0.847825 0.309190 0.752118
O O2 0.157926 0.299055 0.449182
O O3 0.008894 0.212612 0.933718
O O4 0.446115 0.045499 0.360448
O O5 0.405244 0.773627 0.534765
O O6 0.824359 0.013462 0.973167
O O7 0.114312 0.039115 0.557301
O O8 0.000000 0.000000 0.000000
O O9 0.361993 0.481149 0.437249
O O10 0.070961 0.730177 0.588369
O O11 0.610746 0.531411 0.987740
O O12 0.095265 0.098089 0.233830
O O13 0.795532 0.564812 0.459215
O O14 0.000000 0.500000 0.500000
O O15 0.500000 0.000000 0.000000
O O16 0.000000 0.500000 0.000000
#
# Coordination Sequence:
#
# PCOD8020439 Si02
#       7
#     2   2   2   2   2   2   2
#     4  10  22  42  68  94 135 177 228 277 346 405
#     4  12  27  45  72 103 140 185 232 283 351 416
#     4  11  23  48  69  98 140 187 223 286 353 412
#     4  11  24  42  69 100 135 178 230 285 339 410
#     4  11  25  41  69  98 135 180 234 274 343 421
#     4  12  25  43  70 103 139 177 232 288 344 409
#     4  11  25  46  71  99 141 181 230 288 351 408
#
# _framework density 22.143193
#
# number of rings (size 3 to 8) (size 9 to 14) (size 15 to 20)
#    0.000    0.857    1.429    6.429    8.000    2.286 
#    0.000    2.143    0.000    0.000    0.000    0.000 
#    0.000    0.000    0.000    0.000    0.000    0.000 
#
# Total GULP energy -173441.168434 kJ/mol
# GULP energy per Si atom -12388.654888 kJ/mol
# Density = 2.209279 g / cm^3
# Si number density = 22.143193 Si / 1000 Ang^3
#
#
#
# Elastic Constant Matrix: (Units=GPa)
#
#
# Indices 1 2 3 4 5 6 
#
# 1 147.7613 21.1743 46.1142 -10.4145 -3.4067 20.2106
# 2 21.1743 81.4747 20.0485 6.1406 -3.5569 7.3980
# 3 46.1142 20.0485 108.0495 -1.8730 -0.6553 -2.2896
# 4 -10.4145 6.1406 -1.8730 40.1601 5.0394 4.2992
# 5 -3.4067 -3.5569 -0.6553 5.0394 42.7961 -1.5266
# 6 20.2106 7.3980 -2.2896 4.2992 -1.5266 27.6486
#
#
#
# Elastic Compliance Matrix: (Units=1/GPa)
#
#
# Indices 1 2 3 4 5 6 
#
# 1 0.009374 -0.001046 -0.003908 0.003206 -0.000042 -0.007397
# 2 -0.001046 0.013539 -0.002154 -0.002311 0.001188 -0.002611
# 3 -0.003908 -0.002154 0.011406 -0.000620 -0.000083 0.004469
# 4 0.003206 -0.002311 -0.000620 0.027140 -0.003363 -0.006182
# 5 -0.000042 0.001188 -0.000083 -0.003363 0.023912 0.001549
# 6 -0.007397 -0.002611 0.004469 -0.006182 0.001549 0.043691
#
#
# Mechanical properties :
#
#
# Convention : Reuss Voigt Hill
#
# Bulk Modulus (GPa) = 49.74479 56.88439 53.31459
# Shear Modulus (GPa) = 33.33822 38.78420 36.06121
#
# Velocity S-wave (km/s) = 3.88438 4.18965 4.03990
# Velocity P-wave (km/s) = 6.52930 7.01066 6.77426
#
# Compressibility (1/GPa) = 0.02010261
#
# Stress axis : x y z
#
# Youngs Moduli (GPa) = 106.67918 73.86173 87.67352
#
# Poissons Ratio (x) = 0.07729 0.34262
# Poissons Ratio (y) = 0.11162 0.18883
# Poissons Ratio (z) = 0.41690 0.15908
#
# Static dielectric constant tensor:
#      x y z
#    x 3.912150 1.135400 0.037890 
#    y 1.135400 -1.503480 0.049360 
#    z 0.037890 0.049360 4.121900 
# 
# 
# High freq. dielectric constant tensor:
#      x y z
#    x 1.873430 0.001320 -0.004370 
#    y 0.001320 1.886170 -0.000590 
#    z -0.004370 -0.000590 1.877060 
# 
# From -- ./inp_files/206756.got.cif
#   From: 2010.06.25/outbox.cif.g09.slc.cpg/sg2_104_cif.got.tgz:206756.got - 2010.06.27 13:26:56.
