data_PCOD8020401
_publ_section_title
;
Structure prediction by ZEFSAII (Michael W. Deem and Ramdas Pophale) SiO2 
 PCOD8020401
Probable space group: P -1
;
_chemical_formula_sum "Si O2"
_cell_formula_units_Z 16
_cell_length_a 14.534876
_cell_length_b 11.831541
_cell_length_c 16.526659
_cell_angle_alpha 56.772728
_cell_angle_beta 144.429069
_cell_angle_gamma 150.183870
_cell_volume 688.990085
_symmetry_space_group_name_H-M "P -1"
_symmetry_group_IT_number 2
_symmetry_cell_setting 'triclinic'
loop_
_space_group_symop_operation_xyz
x,y,z
-x,-y,-z
loop_
_atom_site_type_symbol
_atom_site_label
_atom_site_fract_x
_atom_site_fract_y
_atom_site_fract_z
Si Si1 0.320430 0.550907 0.556798
Si Si2 0.840770 0.107120 0.636829
Si Si3 0.349970 0.334905 0.539064
Si Si4 0.685091 0.369569 0.003475
Si Si5 0.573455 0.061984 0.727687
Si Si6 0.350299 0.699460 0.168516
Si Si7 0.201484 0.235920 0.709689
Si Si8 0.777156 0.365425 0.241743
O O1 0.266626 0.405703 0.502630
O O2 0.321101 0.469259 0.672355
O O3 0.043771 0.452021 0.403512
O O4 0.640904 0.874794 0.650114
O O5 0.016553 0.122818 0.704878
O O6 0.086125 0.382285 0.752522
O O7 0.617636 0.038694 0.449386
O O8 0.500000 0.500000 0.500000
O O9 0.608981 0.430980 0.732528
O O10 0.025561 0.011174 0.419380
O O11 0.622505 0.235258 0.092322
O O12 0.058302 0.667730 0.136652
O O13 0.532843 0.188055 0.884826
O O14 0.519114 0.388715 0.893782
O O15 0.462686 0.084442 0.711370
O O16 0.470533 0.841916 0.779804
O O17 0.000000 0.500000 0.000000
#
# Coordination Sequence:
#
# PCOD8020401 Si02
#       8
#     2   2   2   2   2   2   2   2
#     4  12  24  43  74 102 136 187 234 291 348 414
#     4  12  25  47  74 102 137 182 254 288 335 419
#     4  12  23  43  73 108 144 179 232 291 350 422
#     4  11  27  44  67 104 150 178 228 289 358 422
#     4  11  23  46  70 103 140 183 234 296 342 410
#     4  10  22  42  68 103 144 176 224 285 353 415
#     4  12  26  44  71 107 139 185 229 290 358 416
#     4  12  27  44  75 102 134 194 242 283 348 421
#
# _framework density 23.222394000000001
#
# number of rings (size 3 to 8) (size 9 to 14) (size 15 to 20)
#    0.000    0.500    6.250    1.125    3.500    4.000 
#    0.000    1.250    0.000    0.000    0.000    0.000 
#    0.000    0.000    0.000    0.000    0.000    0.000 
#
# Total GULP energy -198341.189838 kJ/mol
# GULP energy per Si atom -12396.324365 kJ/mol
# Density = 2.316954 g / cm^3
# Si number density = 23.222394 Si / 1000 Ang^3
#
#
#
# Elastic Constant Matrix: (Units=GPa)
#
#
# Indices 1 2 3 4 5 6 
#
# 1 21.4215 6.6032 8.1022 22.9966 21.2990 17.6864
# 2 6.6032 90.6127 1.8095 -14.9901 -14.0516 -12.7537
# 3 8.1022 1.8095 47.1775 10.6903 16.2117 17.7553
# 4 22.9966 -14.9901 10.6903 -7.0205 -13.9277 -28.0268
# 5 21.2990 -14.0516 16.2117 -13.9277 27.1830 -19.6723
# 6 17.6864 -12.7537 17.7553 -28.0268 -19.6723 11.9331
#
#
#
# Elastic Compliance Matrix: (Units=1/GPa)
#
#
# Indices 1 2 3 4 5 6 
#
# 1 0.026511 0.002210 -0.012442 0.011353 0.002208 0.011885
# 2 0.002210 0.009960 0.000914 -0.003233 -0.000360 -0.002177
# 3 -0.012442 0.000914 0.023373 0.006881 -0.002008 -0.002508
# 4 0.011353 -0.003233 0.006881 0.018195 -0.018075 -0.017586
# 5 0.002208 -0.000360 -0.002008 -0.018075 0.022786 -0.005558
# 6 0.011885 -0.002177 -0.002508 -0.017586 -0.005558 0.017126
#
#
# Mechanical properties :
#
#
# Convention : Reuss Voigt Hill
#
# Bulk Modulus (GPa) = 24.26730 21.36016 22.81373
# Shear Modulus (GPa) = 33.26172 15.93224 24.59698
#
# Velocity S-wave (km/s) = 3.78870 2.62214 3.25805
# Velocity P-wave (km/s) = 5.44165 4.28784 4.89883
#
# Compressibility (1/GPa) = 0.04120772
#
# Stress axis : x y z
#
# Youngs Moduli (GPa) = 37.71972 100.40444 42.78450
#
# Poissons Ratio (x) = -0.22187 0.53231
# Poissons Ratio (y) = -0.08335 -0.03910
# Poissons Ratio (z) = 0.46930 -0.09176
#
# Static dielectric constant tensor:
#      x y z
#    x 4.591880 -0.033880 0.009970 
#    y -0.033880 4.265400 0.171050 
#    z 0.009970 0.171050 3.940260 
# 
# 
# High freq. dielectric constant tensor:
#      x y z
#    x 1.934840 0.012490 0.008010 
#    y 0.012490 1.911340 -0.009650 
#    z 0.008010 -0.009650 1.910930 
# 
# From -- ./inp_files/573599.got.cif
#   From: 2010.06.25/outbox.cif.g09.slc.cpg/sg2_287_cif.got.tgz:573599.got - 2010.06.27 13:26:56.
