data_PCOD8020472
_publ_section_title
;
Structure prediction by ZEFSAII (Michael W. Deem and Ramdas Pophale) SiO2 
 PCOD8020472
Probable space group: P -1
;
_chemical_formula_sum "Si O2"
_cell_formula_units_Z 16
_cell_length_a 9.049137
_cell_length_b 5.120523
_cell_length_c 14.048228
_cell_angle_alpha 85.880254
_cell_angle_beta 97.311245
_cell_angle_gamma 95.674536
_cell_volume 641.327676
_symmetry_space_group_name_H-M "P -1"
_symmetry_group_IT_number 2
_symmetry_cell_setting 'triclinic'
loop_
_space_group_symop_operation_xyz
x,y,z
-x,-y,-z
loop_
_atom_site_type_symbol
_atom_site_label
_atom_site_fract_x
_atom_site_fract_y
_atom_site_fract_z
Si Si1 0.409897 0.553956 0.896725
Si Si2 0.463447 0.172203 0.581543
Si Si3 0.519307 0.096928 0.800383
Si Si4 0.767147 0.385966 0.570249
Si Si5 0.151209 0.957405 0.568878
Si Si6 0.093177 0.118626 0.324309
Si Si7 0.842443 0.996809 0.864219
Si Si8 0.895849 0.660800 0.050163
O O1 0.449193 0.852288 0.861854
O O2 0.232263 0.520357 0.902271
O O3 0.448551 0.359773 0.820398
O O4 0.500000 0.500000 0.000000
O O5 0.589433 0.422533 0.576894
O O6 0.500000 0.000000 0.500000
O O7 0.485159 0.033698 0.688756
O O8 0.283320 0.203307 0.561791
O O9 0.696713 0.150100 0.831667
O O10 0.788838 0.310774 0.461844
O O11 0.857769 0.650984 0.603302
O O12 0.819509 0.137872 0.640300
O O13 0.089089 0.930792 0.673298
O O14 0.000000 0.000000 0.500000
O O15 0.133535 0.202746 0.216868
O O16 0.818781 0.855877 0.967445
O O17 0.995345 0.188124 0.868135
O O18 0.000000 0.500000 0.000000
#
# Coordination Sequence:
#
# PCOD8020472 Si02
#       8
#     2   2   2   2   2   2   2   2
#     4  12  27  48  78 108 151 193 246 306 369 444
#     4  10  23  46  73 108 146 191 252 302 358 436
#     4  12  27  48  75 109 146 202 246 301 371 435
#     4  10  22  42  68  97 137 183 234 289 354 414
#     4   9  21  44  68 101 143 185 232 299 362 422
#     4  11  23  41  69 100 134 185 232 288 354 423
#     4  11  26  44  72 104 147 190 246 299 366 442
#     4  11  27  46  73 108 147 192 236 304 375 441
#
# _framework density 24.948243999999999
#
# number of rings (size 3 to 8) (size 9 to 14) (size 15 to 20)
#    0.000    1.250    2.500    1.500    8.750    0.000 
#    0.000   20.625    0.000    0.000    0.000    0.000 
#    0.000    0.000    0.000    0.000    0.000    0.000 
#
# Total GULP energy -198233.049921 kJ/mol
# GULP energy per Si atom -12389.565620 kJ/mol
# Density = 2.489146 g / cm^3
# Si number density = 24.948244 Si / 1000 Ang^3
#
#
#
# Elastic Constant Matrix: (Units=GPa)
#
#
# Indices 1 2 3 4 5 6 
#
# 1 183.8367 32.6932 37.2084 7.7054 -17.1105 34.6341
# 2 32.6932 55.9698 -4.7988 18.8188 -12.2459 10.6581
# 3 37.2084 -4.7988 104.3530 11.8988 -9.2107 2.4744
# 4 7.7054 18.8188 11.8988 20.1083 3.0966 -3.6597
# 5 -17.1105 -12.2459 -9.2107 3.0966 39.5900 -5.9679
# 6 34.6341 10.6581 2.4744 -3.6597 -5.9679 45.5073
#
#
#
# Elastic Compliance Matrix: (Units=1/GPa)
#
#
# Indices 1 2 3 4 5 6 
#
# 1 0.007629 -0.004641 -0.003079 0.002409 0.000306 -0.004318
# 2 -0.004641 0.043614 0.011013 -0.049765 0.016566 -0.009111
# 3 -0.003079 0.011013 0.013932 -0.018675 0.006531 -0.001639
# 4 0.002409 -0.049765 -0.018675 0.113322 -0.025048 0.016666
# 5 0.000306 0.016566 0.006531 -0.025048 0.033683 -0.002065
# 6 -0.004318 -0.009111 -0.001639 0.016666 -0.002065 0.028553
#
#
# Mechanical properties :
#
#
# Convention : Reuss Voigt Hill
#
# Bulk Modulus (GPa) = 13.93513 52.70724 33.32118
# Shear Modulus (GPa) = 19.37479 39.64490 29.50985
#
# Velocity S-wave (km/s) = 2.78978 3.99066 3.44298
# Velocity P-wave (km/s) = 3.99686 6.51201 5.40283
#
# Compressibility (1/GPa) = 0.07176108
#
# Stress axis : x y z
#
# Youngs Moduli (GPa) = 131.07571 22.92843 71.77787
#
# Poissons Ratio (x) = 0.10641 0.22100
# Poissons Ratio (y) = 0.60834 -0.79050
# Poissons Ratio (z) = 0.40358 -0.25251
#
# Static dielectric constant tensor:
#      x y z
#    x 5.454460 0.394860 -0.373150 
#    y 0.394860 4.231580 -0.077540 
#    z -0.373150 -0.077540 5.402490 
# 
# 
# High freq. dielectric constant tensor:
#      x y z
#    x 2.014900 0.021240 -0.008710 
#    y 0.021240 1.975570 0.000830 
#    z -0.008710 0.000830 2.001260 
# 
# From -- ./inp_files/488565.got.cif
#   From: 2010.06.25/outbox.cif.g09.slc.cpg/sg2_245_cif.got.tgz:488565.got - 2010.06.27 13:26:56.
