data_PCOD8020211
_publ_section_title
;
Structure prediction by ZEFSAII (Michael W. Deem and Ramdas Pophale) SiO2 
 PCOD8020211
Probable space group: P -1
;
_chemical_formula_sum "Si O2"
_cell_formula_units_Z 16
_cell_length_a 11.029739
_cell_length_b 13.825698
_cell_length_c 14.195154
_cell_angle_alpha 31.525663
_cell_angle_beta 129.052957
_cell_angle_gamma 141.040508
_cell_volume 708.136662
_symmetry_space_group_name_H-M "P -1"
_symmetry_group_IT_number 2
_symmetry_cell_setting 'triclinic'
loop_
_space_group_symop_operation_xyz
x,y,z
-x,-y,-z
loop_
_atom_site_type_symbol
_atom_site_label
_atom_site_fract_x
_atom_site_fract_y
_atom_site_fract_z
Si Si1 0.519413 0.027691 0.375435
Si Si2 0.830287 0.614553 0.387870
Si Si3 0.902658 0.068808 0.073513
Si Si4 0.799025 0.583778 0.820569
Si Si5 0.398025 0.225364 0.501149
Si Si6 0.851526 0.220507 0.736376
Si Si7 0.678777 0.527981 0.013302
Si Si8 0.229449 0.845500 0.876750
O O1 0.658763 0.294909 0.200333
O O2 0.500000 0.000000 0.500000
O O3 0.634705 0.929377 0.476912
O O4 0.314017 0.903398 0.322833
O O5 0.601755 0.469723 0.383765
O O6 0.875982 0.449155 0.597980
O O7 0.943214 0.697089 0.275122
O O8 0.891070 0.843528 0.282994
O O9 0.792033 0.112461 0.060578
O O10 0.801799 0.047541 0.941669
O O11 0.127027 0.278915 0.997954
O O12 0.757572 0.718023 0.613894
O O13 0.028756 0.727869 0.820507
O O14 0.698803 0.590577 0.861132
O O15 0.705917 0.323700 0.957343
O O16 0.388568 0.089140 0.702781
O O17 0.500000 0.500000 0.000000
#
# Coordination Sequence:
#
# PCOD8020211 Si02
#       8
#     2   2   2   2   2   2   2   2
#     4  11  24  42  68 103 137 170 230 285 338 411
#     4  10  24  41  65  97 138 175 224 271 345 403
#     4  11  25  43  69  96 138 182 226 274 340 408
#     4  10  22  42  66  95 140 176 223 287 338 387
#     4  11  23  41  69  97 135 178 224 281 339 396
#     4  10  24  45  67  97 142 180 215 283 349 403
#     4  11  23  39  68 104 134 174 232 282 338 400
#     4  10  23  45  63 100 135 183 230 276 330 407
#
# _framework density 22.594508999999999
#
# number of rings (size 3 to 8) (size 9 to 14) (size 15 to 20)
#    0.000    1.500    1.250    2.250    8.750    2.500 
#    0.000    4.375    0.000    0.000    0.000    0.000 
#    0.000    0.000    0.000    0.000    0.000    0.000 
#
# Total GULP energy -198354.613799 kJ/mol
# GULP energy per Si atom -12397.163362 kJ/mol
# Density = 2.254308 g / cm^3
# Si number density = 22.594509 Si / 1000 Ang^3
#
#
#
# Elastic Constant Matrix: (Units=GPa)
#
#
# Indices 1 2 3 4 5 6 
#
# 1 117.4830 34.8193 38.1872 0.1642 11.0242 -9.9711
# 2 34.8193 96.8711 51.7135 -15.0198 2.0710 -5.7791
# 3 38.1872 51.7135 120.6854 -17.1569 15.5708 -7.0183
# 4 0.1642 -15.0198 -17.1569 38.7530 -9.2641 -1.3851
# 5 11.0242 2.0710 15.5708 -9.2641 40.9999 -0.1039
# 6 -9.9711 -5.7791 -7.0183 -1.3851 -0.1039 19.2935
#
#
#
# Elastic Compliance Matrix: (Units=1/GPa)
#
#
# Indices 1 2 3 4 5 6 
#
# 1 0.010540 -0.002875 -0.001916 -0.002475 -0.002511 0.003698
# 2 -0.002875 0.014760 -0.005111 0.004219 0.002926 0.001394
# 3 -0.001916 -0.005111 0.011985 0.002646 -0.003175 0.002012
# 4 -0.002475 0.004219 0.002646 0.030237 0.006288 0.003152
# 5 -0.002511 0.002926 -0.003175 0.006288 0.027542 -0.000977
# 6 0.003698 0.001394 0.002012 0.003152 -0.000977 0.055112
#
#
# Mechanical properties :
#
#
# Convention : Reuss Voigt Hill
#
# Bulk Modulus (GPa) = 57.20810 64.94219 61.07515
# Shear Modulus (GPa) = 28.44010 33.83056 31.13533
#
# Velocity S-wave (km/s) = 3.55169 3.87368 3.71618
# Velocity P-wave (km/s) = 6.49567 6.98656 6.74559
#
# Compressibility (1/GPa) = 0.01748004
#
# Stress axis : x y z
#
# Youngs Moduli (GPa) = 94.87984 67.75103 83.43566
#
# Poissons Ratio (x) = 0.19479 0.15985
# Poissons Ratio (y) = 0.27279 0.42647
# Poissons Ratio (z) = 0.18178 0.34630
#
# Static dielectric constant tensor:
#      x y z
#    x 4.253080 -0.292710 -0.099990 
#    y -0.292710 4.677910 0.370080 
#    z -0.099990 0.370080 4.776230 
# 
# 
# High freq. dielectric constant tensor:
#      x y z
#    x 1.899590 0.003560 0.007910 
#    y 0.003560 1.868170 -0.023560 
#    z 0.007910 -0.023560 1.900220 
# 
# From -- ./inp_files/522190.got.cif
#   From: 2010.06.25/outbox.cif.g09.slc.cpg/sg2_262_cif.got.tgz:522190.got - 2010.06.27 13:26:56.
