data_PCOD8020793
_publ_section_title
;
Structure prediction by ZEFSAII (Michael W. Deem and Ramdas Pophale) SiO2 
 PCOD8020793
Probable space group: P -1
;
_chemical_formula_sum "Si O2"
_cell_formula_units_Z 12
_cell_length_a 9.626586
_cell_length_b 6.406448
_cell_length_c 14.853146
_cell_angle_alpha 70.457590
_cell_angle_beta 139.668590
_cell_angle_gamma 110.083544
_cell_volume 552.808950
_symmetry_space_group_name_H-M "P -1"
_symmetry_group_IT_number 2
_symmetry_cell_setting 'triclinic'
loop_
_space_group_symop_operation_xyz
x,y,z
-x,-y,-z
loop_
_atom_site_type_symbol
_atom_site_label
_atom_site_fract_x
_atom_site_fract_y
_atom_site_fract_z
Si Si1 0.574670 0.709993 0.123649
Si Si2 0.537453 0.256910 0.463522
Si Si3 0.217649 0.345198 0.945316
Si Si4 0.725485 0.379399 0.727762
Si Si5 0.502888 0.010053 0.200135
Si Si6 0.234044 0.627347 0.616724
O O1 0.767229 0.734195 0.140389
O O2 0.544540 0.941563 0.126199
O O3 0.625883 0.556104 0.253368
O O4 0.350841 0.595850 0.982925
O O5 0.654841 0.369344 0.591696
O O6 0.326710 0.370304 0.310324
O O7 0.703776 0.279614 0.462532
O O8 0.500000 0.000000 0.500000
O O9 0.977519 0.356229 0.861589
O O10 0.317388 0.170242 0.083579
O O11 0.582661 0.197220 0.746954
O O12 0.726557 0.155942 0.327197
O O13 0.000000 0.500000 0.500000
#
# Coordination Sequence:
#
# PCOD8020793 Si02
#       6
#     2   2   2   2   2   2
#     4  10  22  43  62  97 136 169 225 270 320 398
#     4  11  23  43  66  95 136 171 219 277 324 394
#     4  10  23  41  66  95 136 175 214 273 332 389
#     4  11  23  41  67  98 131 174 221 267 334 390
#     4  11  22  41  68  99 130 174 223 275 320 397
#     4  11  23  42  66  94 135 174 221 275 329 386
#
# _framework density 21.707318000000001
#
# number of rings (size 3 to 8) (size 9 to 14) (size 15 to 20)
#    0.000    1.333    3.333    2.000    0.000    2.667 
#    0.000    6.667    0.000    0.000    0.000    0.000 
#    0.000    0.000    0.000    0.000    0.000    0.000 
#
# Total GULP energy -148657.692093 kJ/mol
# GULP energy per Si atom -12388.141008 kJ/mol
# Density = 2.165791 g / cm^3
# Si number density = 21.707318 Si / 1000 Ang^3
#
#
#
# Elastic Constant Matrix: (Units=GPa)
#
#
# Indices 1 2 3 4 5 6 
#
# 1 101.1438 53.8732 43.2423 22.4618 -0.8706 -8.4166
# 2 53.8732 140.2167 55.4842 -1.6872 19.3965 -7.7794
# 3 43.2423 55.4842 95.7284 7.5750 9.8920 -4.2810
# 4 22.4618 -1.6872 7.5750 35.5929 2.4170 -7.9897
# 5 -0.8706 19.3965 9.8920 2.4170 37.2454 0.4616
# 6 -8.4166 -7.7794 -4.2810 -7.9897 0.4616 33.0766
#
#
#
# Elastic Compliance Matrix: (Units=1/GPa)
#
#
# Indices 1 2 3 4 5 6 
#
# 1 0.017109 -0.005824 -0.004059 -0.010602 0.005201 -0.000175
# 2 -0.005824 0.011983 -0.004097 0.006029 -0.005709 0.002342
# 3 -0.004059 -0.004097 0.014895 -0.000725 -0.001868 -0.000218
# 4 -0.010602 0.006029 -0.000725 0.037349 -0.005714 0.007728
# 5 0.005201 -0.005709 -0.001868 -0.005714 0.030836 -0.002072
# 6 -0.000175 0.002342 -0.000218 0.007728 -0.002072 0.032607
#
#
# Mechanical properties :
#
#
# Convention : Reuss Voigt Hill
#
# Bulk Modulus (GPa) = 62.39619 71.36539 66.88079
# Shear Modulus (GPa) = 28.07718 33.48226 30.77972
#
# Velocity S-wave (km/s) = 3.60035 3.93165 3.76964
# Velocity P-wave (km/s) = 6.78897 7.31834 7.05862
#
# Compressibility (1/GPa) = 0.01602662
#
# Stress axis : x y z
#
# Youngs Moduli (GPa) = 58.44828 83.45302 67.13686
#
# Poissons Ratio (x) = 0.48604 0.27253
# Poissons Ratio (y) = 0.34041 0.27505
# Poissons Ratio (z) = 0.23726 0.34189
#
# Static dielectric constant tensor:
#      x y z
#    x 3.809830 -0.029080 -0.254280 
#    y -0.029080 3.840550 0.088110 
#    z -0.254280 0.088110 4.079030 
# 
# 
# High freq. dielectric constant tensor:
#      x y z
#    x 1.854260 -0.002330 -0.026420 
#    y -0.002330 1.862090 -0.011530 
#    z -0.026420 -0.011530 1.847720 
# 
# From -- ./inp_files/22983.got.cif
#   From: 2010.06.25/outbox.cif.g09.slc.cpg/sg2_12_cif.got.tgz:22983.got - 2010.06.27 13:26:56.
