data_PCOD8020028
_publ_section_title
;
Structure prediction by ZEFSAII (Michael W. Deem and Ramdas Pophale) SiO2 
 PCOD8020028
Probable space group: P -1
;
_chemical_formula_sum "Si O2"
_cell_formula_units_Z 14
_cell_length_a 10.888761
_cell_length_b 8.463980
_cell_length_c 8.771756
_cell_angle_alpha 58.086817
_cell_angle_beta 103.967767
_cell_angle_gamma 114.109408
_cell_volume 626.031801
_symmetry_space_group_name_H-M "P -1"
_symmetry_group_IT_number 2
_symmetry_cell_setting 'triclinic'
loop_
_space_group_symop_operation_xyz
x,y,z
-x,-y,-z
loop_
_atom_site_type_symbol
_atom_site_label
_atom_site_fract_x
_atom_site_fract_y
_atom_site_fract_z
Si Si1 0.912210 0.641265 0.169511
Si Si2 0.723568 0.845467 0.152874
Si Si3 0.225790 0.413034 0.156962
Si Si4 0.502102 0.436081 0.273100
Si Si5 0.721380 0.262783 0.434183
Si Si6 0.775956 0.236800 0.805631
Si Si7 0.281165 0.134859 0.517051
O O1 0.844391 0.786571 0.149934
O O2 0.862368 0.425785 0.343265
O O3 0.069845 0.738524 0.191056
O O4 0.880823 0.616979 0.992883
O O5 0.585348 0.662985 0.217903
O O6 0.766817 0.926219 0.295110
O O7 0.699318 0.016762 0.958067
O O8 0.375932 0.430001 0.126484
O O9 0.239045 0.608655 0.155446
O O10 0.176764 0.222158 0.353713
O O11 0.601486 0.327534 0.291338
O O12 0.428051 0.311299 0.464748
O O13 0.708110 0.261759 0.613682
O O14 0.710597 0.051547 0.477359
#
# Coordination Sequence:
#
# PCOD8020028 Si02
#       7
#     2   2   2   2   2   2   2
#     4  11  24  45  64  92 128 168 216 257 308 373
#     4  11  23  41  67  93 129 167 207 262 315 372
#     4  10  23  42  67  91 130 163 209 263 312 369
#     4   9  23  43  66  92 131 158 213 259 321 369
#     4  11  23  42  67  94 126 169 207 262 316 371
#     4  12  25  42  64  96 128 169 212 256 311 377
#     4  10  22  42  64  98 127 161 207 257 322 376
#
# _framework density 22.363081000000001
#
# number of rings (size 3 to 8) (size 9 to 14) (size 15 to 20)
#    0.857    0.571    0.000    5.571    2.000    2.857 
#    2.571    2.143    0.000    0.000    0.000    0.000 
#    0.000    0.000    0.000    0.000    0.000    0.000 
#
# Total GULP energy -173532.699209 kJ/mol
# GULP energy per Si atom -12395.192801 kJ/mol
# Density = 2.231218 g / cm^3
# Si number density = 22.363081 Si / 1000 Ang^3
#
#
#
# Elastic Constant Matrix: (Units=GPa)
#
#
# Indices 1 2 3 4 5 6 
#
# 1 53.6775 25.6654 8.7840 -1.2381 6.8847 -9.8041
# 2 25.6654 50.5363 42.7880 1.8553 -12.6656 -9.6122
# 3 8.7840 42.7880 113.6523 -15.6492 -2.7989 -0.8392
# 4 -1.2381 1.8553 -15.6492 35.8834 2.7577 -3.2094
# 5 6.8847 -12.6656 -2.7989 2.7577 24.3660 0.1552
# 6 -9.8041 -9.6122 -0.8392 -3.2094 0.1552 22.6549
#
#
#
# Elastic Compliance Matrix: (Units=1/GPa)
#
#
# Indices 1 2 3 4 5 6 
#
# 1 0.039390 -0.037467 0.011865 0.011118 -0.030522 0.003373
# 2 -0.037467 0.078371 -0.028073 -0.020312 0.050317 0.012775
# 3 0.011865 -0.028073 0.019558 0.011305 -0.016950 -0.004334
# 4 0.011118 -0.020312 0.011305 0.035655 -0.016448 0.001776
# 5 -0.030522 0.050317 -0.016950 -0.016448 0.075705 0.004663
# 6 0.003373 0.012775 -0.004334 0.001776 0.004663 0.051080
#
#
# Mechanical properties :
#
#
# Convention : Reuss Voigt Hill
#
# Bulk Modulus (GPa) = 33.36692 41.37123 37.36908
# Shear Modulus (GPa) = 11.98760 25.95611 18.97185
#
# Velocity S-wave (km/s) = 2.31777 3.41055 2.91582
# Velocity P-wave (km/s) = 4.70273 5.83516 5.29928
#
# Compressibility (1/GPa) = 0.02996980
#
# Stress axis : x y z
#
# Youngs Moduli (GPa) = 25.38710 12.75983 51.13040
#
# Poissons Ratio (x) = 0.47808 -0.60669
# Poissons Ratio (y) = 0.95118 1.43537
# Poissons Ratio (z) = -0.30123 0.35820
#
# Static dielectric constant tensor:
#      x y z
#    x 3.906100 -0.009610 0.055840 
#    y -0.009610 3.845850 -0.213890 
#    z 0.055840 -0.213890 4.166850 
# 
# 
# High freq. dielectric constant tensor:
#      x y z
#    x 1.872960 -0.009640 0.001740 
#    y -0.009640 1.879050 -0.015140 
#    z 0.001740 -0.015140 1.887330 
# 
# From -- ./inp_files/237282.got.cif
#   From: 2010.06.25/outbox.cif.g09.slc.cpg/sg2_119_cif.got.tgz:237282.got - 2010.06.27 13:26:56.
