data_PCOD8020498
_publ_section_title
;
Structure prediction by ZEFSAII (Michael W. Deem and Ramdas Pophale) SiO2 
 PCOD8020498
Probable space group: P -1
;
_chemical_formula_sum "Si O2"
_cell_formula_units_Z 16
_cell_length_a 8.730771
_cell_length_b 8.328925
_cell_length_c 20.746901
_cell_angle_alpha 65.957243
_cell_angle_beta 149.225913
_cell_angle_gamma 110.309959
_cell_volume 704.934064
_symmetry_space_group_name_H-M "P -1"
_symmetry_group_IT_number 2
_symmetry_cell_setting 'triclinic'
loop_
_space_group_symop_operation_xyz
x,y,z
-x,-y,-z
loop_
_atom_site_type_symbol
_atom_site_label
_atom_site_fract_x
_atom_site_fract_y
_atom_site_fract_z
Si Si1 0.618093 0.588569 0.152555
Si Si2 0.702328 0.964562 0.480747
Si Si3 0.727332 0.713740 0.862886
Si Si4 0.641207 0.950222 0.319790
Si Si5 0.363792 0.856123 0.110595
Si Si6 0.774477 0.742871 0.726817
Si Si7 0.437164 0.857145 0.946905
Si Si8 0.239224 0.407970 0.382010
O O1 0.344190 0.459815 0.093313
O O2 0.606309 0.743604 0.175924
O O3 0.932563 0.489407 0.284757
O O4 0.570279 0.669504 0.050263
O O5 0.747402 0.801565 0.570528
O O6 0.010988 0.069985 0.567963
O O7 0.587037 0.883975 0.383858
O O8 0.467861 0.105281 0.399746
O O9 0.449921 0.845022 0.749423
O O10 0.761714 0.665993 0.807317
O O11 0.027201 0.801223 0.983704
O O12 0.440626 0.835112 0.217300
O O13 0.405404 0.064962 0.073303
O O14 0.730706 0.579727 0.687270
O O15 0.088701 0.835806 0.811456
O O16 0.500000 0.000000 0.000000
O O17 0.500000 0.500000 0.500000
#
# Coordination Sequence:
#
# PCOD8020498 Si02
#       8
#     2   2   2   2   2   2   2   2
#     4  11  25  44  67  98 147 164 223 283 342 394
#     4  10  23  45  68  94 133 178 229 273 327 398
#     4  11  22  45  66 103 134 173 222 284 341 396
#     4  10  22  42  70  98 128 175 229 279 325 400
#     4  11  23  41  71 100 134 179 224 273 339 411
#     4  11  24  44  72  93 138 180 227 274 340 399
#     4  10  22  42  69 101 129 180 222 275 335 414
#     4  12  28  44  64 103 134 184 224 278 335 402
#
# _framework density 22.697158000000002
#
# number of rings (size 3 to 8) (size 9 to 14) (size 15 to 20)
#    0.000    1.250    3.750    1.875    5.250    1.500 
#    0.000    1.250    0.000    0.000    0.000    0.000 
#    0.000    0.000    0.000    0.000    0.000    0.000 
#
# Total GULP energy -198366.493203 kJ/mol
# GULP energy per Si atom -12397.905825 kJ/mol
# Density = 2.264550 g / cm^3
# Si number density = 22.697158 Si / 1000 Ang^3
#
#
#
# Elastic Constant Matrix: (Units=GPa)
#
#
# Indices 1 2 3 4 5 6 
#
# 1 94.7372 41.9188 62.4256 16.0835 -1.5221 -1.9309
# 2 41.9188 83.4599 48.2576 1.6908 3.8922 11.1397
# 3 62.4256 48.2576 136.6374 15.2843 2.1178 -4.3371
# 4 16.0835 1.6908 15.2843 39.3350 -5.8099 -7.7556
# 5 -1.5221 3.8922 2.1178 -5.8099 35.4741 6.5163
# 6 -1.9309 11.1397 -4.3371 -7.7556 6.5163 29.5675
#
#
#
# Elastic Compliance Matrix: (Units=1/GPa)
#
#
# Indices 1 2 3 4 5 6 
#
# 1 0.017460 -0.005731 -0.005431 -0.004439 0.000760 0.001171
# 2 -0.005731 0.018288 -0.004260 0.001707 -0.000366 -0.007361
# 3 -0.005431 -0.004260 0.011607 -0.001745 -0.001253 0.002771
# 4 -0.004439 0.001707 -0.001745 0.029498 0.003496 0.005778
# 5 0.000760 -0.000366 -0.001253 0.003496 0.029953 -0.005680
# 6 0.001171 -0.007361 0.002771 0.005778 -0.005680 0.039844
#
#
# Mechanical properties :
#
#
# Convention : Reuss Voigt Hill
#
# Bulk Modulus (GPa) = 60.56224 68.89316 64.72770
# Shear Modulus (GPa) = 27.32285 31.69082 29.50683
#
# Velocity S-wave (km/s) = 3.47335 3.74069 3.60950
# Velocity P-wave (km/s) = 6.54417 7.00544 6.77873
#
# Compressibility (1/GPa) = 0.01651194
#
# Stress axis : x y z
#
# Youngs Moduli (GPa) = 57.27526 54.68016 86.15633
#
# Poissons Ratio (x) = 0.31337 0.46789
# Poissons Ratio (y) = 0.32824 0.36699
# Poissons Ratio (z) = 0.31105 0.23292
#
# Static dielectric constant tensor:
#      x y z
#    x 4.325410 0.121400 -0.227310 
#    y 0.121400 3.902900 -0.232990 
#    z -0.227310 -0.232990 4.255620 
# 
# 
# High freq. dielectric constant tensor:
#      x y z
#    x 1.902340 -0.002780 -0.004980 
#    y -0.002780 1.875250 -0.005020 
#    z -0.004980 -0.005020 1.909840 
# 
# From -- ./inp_files/587953.got.cif
#   From: 2010.06.25/outbox.cif.g09.slc.cpg/sg2_294_cif.got.tgz:587953.got - 2010.06.27 13:26:56.
