data_PCOD8020071
_publ_section_title
;
Structure prediction by ZEFSAII (Michael W. Deem and Ramdas Pophale) SiO2 
 PCOD8020071
Probable space group: P -1
;
_chemical_formula_sum "Si O2"
_cell_formula_units_Z 16
_cell_length_a 13.998353
_cell_length_b 9.312074
_cell_length_c 11.075628
_cell_angle_alpha 96.892599
_cell_angle_beta 147.010484
_cell_angle_gamma 75.181684
_cell_volume 747.606002
_symmetry_space_group_name_H-M "P -1"
_symmetry_group_IT_number 2
_symmetry_cell_setting 'triclinic'
loop_
_space_group_symop_operation_xyz
x,y,z
-x,-y,-z
loop_
_atom_site_type_symbol
_atom_site_label
_atom_site_fract_x
_atom_site_fract_y
_atom_site_fract_z
Si Si1 0.960824 0.353428 0.157138
Si Si2 0.852848 0.188560 0.447374
Si Si3 0.575737 0.393734 0.682803
Si Si4 0.172044 0.323794 0.847406
Si Si5 0.090109 0.895093 0.761455
Si Si6 0.513077 0.570441 0.889421
Si Si7 0.344036 0.049191 0.169651
Si Si8 0.664361 0.823634 0.574630
O O1 0.933958 0.528334 0.175116
O O2 0.966173 0.251610 0.271483
O O3 0.156986 0.295354 0.298000
O O4 0.796281 0.338076 0.894355
O O5 0.809155 0.137849 0.263819
O O6 0.672880 0.300736 0.324270
O O7 0.019314 0.263270 0.614784
O O8 0.912794 0.041810 0.582028
O O9 0.500000 0.500000 0.500000
O O10 0.540735 0.462038 0.790087
O O11 0.488807 0.257952 0.563074
O O12 0.311429 0.365136 0.904803
O O13 0.301289 0.195125 0.055018
O O14 0.236480 0.929099 0.009840
O O15 0.500000 0.500000 0.000000
O O16 0.276985 0.103321 0.237802
O O17 0.562404 0.960094 0.389047
#
# Coordination Sequence:
#
# PCOD8020071 Si02
#       8
#     2   2   2   2   2   2   2   2
#     4  11  23  40  67  95 128 169 215 274 327 388
#     4  10  22  42  65  91 130 177 211 271 331 389
#     4  11  24  43  66 101 135 171 222 275 324 394
#     4  10  23  42  64  96 128 165 219 272 321 396
#     4  10  22  43  62  93 134 165 221 275 324 390
#     4  11  24  40  69  98 133 173 220 270 332 391
#     4  10  23  44  62  93 135 166 223 273 321 394
#     4  11  23  40  68  92 128 179 215 268 334 387
#
# _framework density 21.401647000000001
#
# number of rings (size 3 to 8) (size 9 to 14) (size 15 to 20)
#    0.000    1.500    1.250    3.750    1.750    7.500 
#    0.000    1.875    0.000    0.000    0.000    0.000 
#    0.000    0.000    0.000    0.000    0.000    0.000 
#
# Total GULP energy -198326.666295 kJ/mol
# GULP energy per Si atom -12395.416643 kJ/mol
# Density = 2.135294 g / cm^3
# Si number density = 21.401647 Si / 1000 Ang^3
#
#
#
# Elastic Constant Matrix: (Units=GPa)
#
#
# Indices 1 2 3 4 5 6 
#
# 1 65.1959 28.7888 38.9356 -11.3070 -0.8772 -6.1363
# 2 28.7888 103.6951 43.2892 -1.4116 6.2097 -0.8583
# 3 38.9356 43.2892 99.4283 -18.1426 -0.7838 -12.6521
# 4 -11.3070 -1.4116 -18.1426 35.1739 -12.9614 -3.8316
# 5 -0.8772 6.2097 -0.7838 -12.9614 36.5459 -4.6690
# 6 -6.1363 -0.8583 -12.6521 -3.8316 -4.6690 24.2219
#
#
#
# Elastic Compliance Matrix: (Units=1/GPa)
#
#
# Indices 1 2 3 4 5 6 
#
# 1 0.021634 -0.004021 -0.005017 0.006095 0.003821 0.004419
# 2 -0.004021 0.013650 -0.006440 -0.006854 -0.005763 -0.006094
# 3 -0.005017 -0.006440 0.018375 0.011342 0.006822 0.011208
# 4 0.006095 -0.006854 0.011342 0.045303 0.019951 0.018238
# 5 0.003821 -0.005763 0.006822 0.019951 0.037537 0.014719
# 6 0.004419 -0.006094 0.011208 0.018238 0.014719 0.053765
#
#
# Mechanical properties :
#
#
# Convention : Reuss Voigt Hill
#
# Bulk Modulus (GPa) = 44.04462 54.48296 49.26379
# Shear Modulus (GPa) = 21.85435 29.67539 25.76487
#
# Velocity S-wave (km/s) = 3.19902 3.72774 3.47345
# Velocity P-wave (km/s) = 5.85403 6.63632 6.25741
#
# Compressibility (1/GPa) = 0.02270425
#
# Stress axis : x y z
#
# Youngs Moduli (GPa) = 46.22263 73.26083 54.42129
#
# Poissons Ratio (x) = 0.29461 0.27301
# Poissons Ratio (y) = 0.18588 0.35045
# Poissons Ratio (z) = 0.23188 0.47178
#
# Static dielectric constant tensor:
#      x y z
#    x 3.546620 -0.018280 0.028150 
#    y -0.018280 4.103850 -0.173290 
#    z 0.028150 -0.173290 4.144820 
# 
# 
# High freq. dielectric constant tensor:
#      x y z
#    x 1.812520 -0.000750 -0.002310 
#    y -0.000750 1.858170 -0.012410 
#    z -0.002310 -0.012410 1.859270 
# 
# From -- ./inp_files/447557.got.cif
#   From: 2010.06.25/outbox.cif.g09.slc.cpg/sg2_224_cif.got.tgz:447557.got - 2010.06.27 13:26:56.
