data_PCOD8020866
_publ_section_title
;
Structure prediction by ZEFSAII (Michael W. Deem and Ramdas Pophale) SiO2 
 PCOD8020866
Probable space group: P -1
;
_chemical_formula_sum "Si O2"
_cell_formula_units_Z 16
_cell_length_a 14.758748
_cell_length_b 14.549579
_cell_length_c 5.677560
_cell_angle_alpha 73.183543
_cell_angle_beta 119.634071
_cell_angle_gamma 136.881330
_cell_volume 719.033597
_symmetry_space_group_name_H-M "P -1"
_symmetry_group_IT_number 2
_symmetry_cell_setting 'triclinic'
loop_
_space_group_symop_operation_xyz
x,y,z
-x,-y,-z
loop_
_atom_site_type_symbol
_atom_site_label
_atom_site_fract_x
_atom_site_fract_y
_atom_site_fract_z
Si Si1 0.754237 0.788935 0.342287
Si Si2 0.270354 0.419766 0.284824
Si Si3 0.452057 0.673904 0.037061
Si Si4 0.967497 0.052756 0.717299
Si Si5 0.783249 0.265380 0.704362
Si Si6 0.994721 0.265879 0.772760
Si Si7 0.830216 0.506382 0.514299
Si Si8 0.385779 0.841818 0.938214
O O1 0.687202 0.655096 0.497378
O O2 0.610740 0.747521 0.075302
O O3 0.875481 0.826204 0.294557
O O4 0.836414 0.924857 0.491263
O O5 0.413276 0.569076 0.263988
O O6 0.177871 0.429303 0.325050
O O7 0.151103 0.321370 0.003156
O O8 0.328735 0.591592 0.741205
O O9 0.461071 0.785573 0.080745
O O10 0.905237 0.115568 0.673000
O O11 0.000000 0.000000 0.000000
O O12 0.865142 0.420621 0.696132
O O13 0.692386 0.194930 0.391588
O O14 0.900878 0.255165 0.865840
O O15 0.706342 0.208668 0.901113
O O16 0.029212 0.370741 0.548846
O O17 0.500000 0.000000 0.000000
#
# Coordination Sequence:
#
# PCOD8020866 Si02
#       8
#     2   2   2   2   2   2   2   2
#     4  11  24  41  68  91 131 174 219 274 334 396
#     4  11  21  42  67  93 132 165 225 277 328 401
#     4  10  24  42  65  97 128 176 217 278 339 391
#     4  11  24  43  60  96 131 168 224 272 323 408
#     4  11  25  44  71 100 135 180 225 279 343 395
#     4  11  24  40  67  97 131 176 218 277 340 395
#     4  10  22  43  64  97 134 166 224 279 325 408
#     4  11  25  46  66 100 138 177 232 276 329 415
#
# _framework density 22.252091
#
# number of rings (size 3 to 8) (size 9 to 14) (size 15 to 20)
#    0.000    1.250    3.750    1.125    3.500    3.000 
#    0.000    0.000    0.000    0.000    0.000    0.000 
#    0.000    0.000    0.000    0.000    0.000    0.000 
#
# Total GULP energy -198238.376622 kJ/mol
# GULP energy per Si atom -12389.898539 kJ/mol
# Density = 2.220144 g / cm^3
# Si number density = 22.252091 Si / 1000 Ang^3
#
#
#
# Elastic Constant Matrix: (Units=GPa)
#
#
# Indices 1 2 3 4 5 6 
#
# 1 97.8598 31.6051 12.6107 2.6416 8.1007 -29.6179
# 2 31.6051 117.8743 19.9011 -14.5736 8.1452 -29.9401
# 3 12.6107 19.9011 63.2007 -5.6510 -5.1183 -0.2472
# 4 2.6416 -14.5736 -5.6510 26.7560 -0.0448 -0.9292
# 5 8.1007 8.1452 -5.1183 -0.0448 37.3881 0.3906
# 6 -29.6179 -29.9401 -0.2472 -0.9292 0.3906 21.6330
#
#
#
# Elastic Compliance Matrix: (Units=1/GPa)
#
#
# Indices 1 2 3 4 5 6 
#
# 1 0.020545 0.004950 -0.006011 0.000604 -0.006718 0.035056
# 2 0.004950 0.017837 -0.006169 0.009021 -0.006125 0.031890
# 3 -0.006011 -0.006169 0.019412 0.000766 0.005478 -0.016611
# 4 0.000604 0.009021 0.000766 0.042915 -0.002099 0.015202
# 5 -0.006718 -0.006125 0.005478 -0.002099 0.030474 -0.018252
# 6 0.035056 0.031890 -0.016611 0.015202 -0.018252 0.139149
#
#
# Mechanical properties :
#
#
# Convention : Reuss Voigt Hill
#
# Bulk Modulus (GPa) = 23.07733 45.24098 34.15915
# Shear Modulus (GPa) = 16.70923 31.47663 24.09293
#
# Velocity S-wave (km/s) = 2.74324 3.76513 3.29405
# Velocity P-wave (km/s) = 4.51965 6.26712 5.46370
#
# Compressibility (1/GPa) = 0.04333257
#
# Stress axis : x y z
#
# Youngs Moduli (GPa) = 48.67465 56.06458 51.51568
#
# Poissons Ratio (x) = -0.27749 0.30965
# Poissons Ratio (y) = -0.24092 0.31779
# Poissons Ratio (z) = 0.29257 0.34585
#
# Static dielectric constant tensor:
#      x y z
#    x 3.988160 -0.201000 -0.176350 
#    y -0.201000 3.811100 -0.181810 
#    z -0.176350 -0.181810 3.922390 
# 
# 
# High freq. dielectric constant tensor:
#      x y z
#    x 1.882730 -0.017220 -0.004060 
#    y -0.017220 1.889190 -0.003940 
#    z -0.004060 -0.003940 1.866140 
# 
# From -- ./inp_files/69277.got.cif
#   From: 2010.06.25/outbox.cif.g09.slc.cpg/sg2_35_cif.got.tgz:69277.got - 2010.06.27 13:26:56.
