data_PCOD8020156
_publ_section_title
;
Structure prediction by ZEFSAII (Michael W. Deem and Ramdas Pophale) SiO2 
 PCOD8020156
Probable space group: P -1
;
_chemical_formula_sum "Si O2"
_cell_formula_units_Z 14
_cell_length_a 12.143673
_cell_length_b 13.675584
_cell_length_c 5.006808
_cell_angle_alpha 89.704041
_cell_angle_beta 90.814348
_cell_angle_gamma 48.028838
_cell_volume 618.014428
_symmetry_space_group_name_H-M "P -1"
_symmetry_group_IT_number 2
_symmetry_cell_setting 'triclinic'
loop_
_space_group_symop_operation_xyz
x,y,z
-x,-y,-z
loop_
_atom_site_type_symbol
_atom_site_label
_atom_site_fract_x
_atom_site_fract_y
_atom_site_fract_z
Si Si1 0.542511 0.135578 0.015262
Si Si2 0.189094 0.914998 0.728931
Si Si3 0.870239 0.172264 0.768739
Si Si4 0.312679 0.126543 0.239984
Si Si5 0.288644 0.404670 0.762510
Si Si6 0.143674 0.286561 0.736508
Si Si7 0.813180 0.427746 0.730446
O O1 0.664031 0.111915 0.207930
O O2 0.433701 0.139588 0.204006
O O3 0.451918 0.271629 0.849753
O O4 0.615956 0.021911 0.797855
O O5 0.202656 0.862718 0.434061
O O6 0.167364 0.838313 0.933224
O O7 0.048013 0.071578 0.736593
O O8 0.800096 0.319218 0.711835
O O9 0.253856 0.166006 0.538170
O O10 0.176459 0.223707 0.030995
O O11 0.173204 0.384433 0.729920
O O12 0.301288 0.454515 0.481827
O O13 0.225294 0.517437 0.974368
O O14 0.975643 0.367198 0.651456
#
# Coordination Sequence:
#
# PCOD8020156 Si02
#       7
#     2   2   2   2   2   2   2
#     4  10  23  42  62  92 128 161 196 250 311 362
#     4  10  22  42  66  88 118 152 199 265 306 344
#     4  10  23  41  64  92 113 153 212 252 301 352
#     4  10  23  38  65  95 121 155 207 251 303 369
#     4  11  24  38  60  91 127 167 200 237 301 379
#     4  11  22  40  63  92 122 162 205 253 303 347
#     4  12  23  41  62  88 128 164 203 251 292 358
#
# _framework density 22.653196000000001
#
# number of rings (size 3 to 8) (size 9 to 14) (size 15 to 20)
#    0.000    1.429    0.000    5.143    0.000   14.286 
#    0.000    4.286    0.000    0.000    0.000    0.000 
#    0.000    0.000    0.000    0.000    0.000    0.000 
#
# Total GULP energy -173718.174833 kJ/mol
# GULP energy per Si atom -12408.441059 kJ/mol
# Density = 2.260164 g / cm^3
# Si number density = 22.653196 Si / 1000 Ang^3
#
#
#
# Elastic Constant Matrix: (Units=GPa)
#
#
# Indices 1 2 3 4 5 6 
#
# 1 77.5582 33.2750 14.3434 -7.7355 31.1253 -10.4208
# 2 33.2750 112.5358 16.3429 -8.2034 7.9652 8.1845
# 3 14.3434 16.3429 77.8974 3.8774 11.6529 2.3948
# 4 -7.7355 -8.2034 3.8774 32.9019 -1.8737 1.2372
# 5 31.1253 7.9652 11.6529 -1.8737 22.7575 -7.7062
# 6 -10.4208 8.1845 2.3948 1.2372 -7.7062 22.6943
#
#
#
# Elastic Compliance Matrix: (Units=1/GPa)
#
#
# Indices 1 2 3 4 5 6 
#
# 1 0.033686 -0.007104 0.001456 0.003412 -0.043005 0.003087
# 2 -0.007104 0.011445 -0.001736 0.001876 0.004834 -0.005667
# 3 0.001456 -0.001736 0.014705 -0.002275 -0.010334 -0.003642
# 4 0.003412 0.001876 -0.002275 0.031867 -0.001966 -0.001275
# 5 -0.043005 0.004834 -0.010334 -0.001966 0.112230 0.017817
# 6 0.003087 -0.005667 -0.003642 -0.001275 0.017817 0.054029
#
#
# Mechanical properties :
#
#
# Convention : Reuss Voigt Hill
#
# Bulk Modulus (GPa) = 22.18797 43.99045 33.08921
# Shear Modulus (GPa) = 17.37610 29.27273 23.32442
#
# Velocity S-wave (km/s) = 2.77257 3.59863 3.21227
# Velocity P-wave (km/s) = 4.47944 6.06038 5.32886
#
# Compressibility (1/GPa) = 0.04506947
#
# Stress axis : x y z
#
# Youngs Moduli (GPa) = 29.68631 87.37146 68.00631
#
# Poissons Ratio (x) = 0.62067 -0.09904
# Poissons Ratio (y) = 0.21088 0.11803
# Poissons Ratio (z) = -0.04323 0.15164
#
# Static dielectric constant tensor:
#      x y z
#    x 3.806690 -0.055820 0.155540 
#    y -0.055820 4.129600 -0.044150 
#    z 0.155540 -0.044150 4.035210 
# 
# 
# High freq. dielectric constant tensor:
#      x y z
#    x 1.874210 0.001060 0.011440 
#    y 0.001060 1.901610 -0.003050 
#    z 0.011440 -0.003050 1.904340 
# 
# From -- ./inp_files/64219.got.cif
#   From: 2010.06.25/outbox.cif.g09.slc.cpg/sg2_33_cif.got.tgz:64219.got - 2010.06.27 13:26:56.
