data_PCOD8020547
_publ_section_title
;
Structure prediction by ZEFSAII (Michael W. Deem and Ramdas Pophale) SiO2 
 PCOD8020547
Probable space group: P -1
;
_chemical_formula_sum "Si O2"
_cell_formula_units_Z 16
_cell_length_a 7.958496
_cell_length_b 8.923721
_cell_length_c 22.626542
_cell_angle_alpha 53.124657
_cell_angle_beta 53.672972
_cell_angle_gamma 33.691792
_cell_volume 697.196140
_symmetry_space_group_name_H-M "P -1"
_symmetry_group_IT_number 2
_symmetry_cell_setting 'triclinic'
loop_
_space_group_symop_operation_xyz
x,y,z
-x,-y,-z
loop_
_atom_site_type_symbol
_atom_site_label
_atom_site_fract_x
_atom_site_fract_y
_atom_site_fract_z
Si Si1 0.247370 0.216533 0.296093
Si Si2 0.666280 0.214113 0.793378
Si Si3 0.150798 0.286692 0.436654
Si Si4 0.533092 0.699406 0.532889
Si Si5 0.789989 0.375403 0.006315
Si Si6 0.686069 0.256761 0.179681
Si Si7 0.477432 0.959041 0.946936
Si Si8 0.559641 0.639167 0.322732
O O1 0.209639 0.287681 0.355978
O O2 0.458536 0.235770 0.218219
O O3 0.914642 0.453129 0.277816
O O4 0.393988 0.915878 0.326778
O O5 0.469091 0.477536 0.813660
O O6 0.567382 0.065898 0.859227
O O7 0.619532 0.290683 0.716443
O O8 0.024349 0.013861 0.780010
O O9 0.355270 0.300708 0.426594
O O10 0.792260 0.557245 0.462399
O O11 0.235417 0.017326 0.500307
O O12 0.439432 0.544756 0.592356
O O13 0.802840 0.262377 0.092624
O O14 0.500000 0.500000 0.000000
O O15 0.127671 0.118883 0.966475
O O16 0.741150 0.629021 0.962242
O O17 0.500000 0.000000 0.000000
#
# Coordination Sequence:
#
# PCOD8020547 Si02
#       8
#     2   2   2   2   2   2   2   2
#     4  12  27  43  66  98 140 170 216 270 336 382
#     4  12  26  44  71  92 132 177 223 272 317 393
#     4  10  22  42  69  97 127 175 212 270 315 394
#     4  10  22  42  69  96 129 169 226 255 321 388
#     4  12  26  42  69 100 133 171 212 278 336 388
#     4  12  25  46  66  95 131 180 218 265 330 395
#     4  12  23  45  69  99 127 170 229 268 324 389
#     4  12  27  43  65 101 133 175 214 276 324 384
#
# _framework density 22.949066999999999
#
# number of rings (size 3 to 8) (size 9 to 14) (size 15 to 20)
#    0.000    0.500    2.500    5.250    3.500    6.000 
#    0.000    0.000    0.000    0.000    0.000    0.000 
#    0.000    0.000    0.000    0.000    0.000    0.000 
#
# Total GULP energy -198520.065151 kJ/mol
# GULP energy per Si atom -12407.504072 kJ/mol
# Density = 2.289683 g / cm^3
# Si number density = 22.949067 Si / 1000 Ang^3
#
#
#
# Elastic Constant Matrix: (Units=GPa)
#
#
# Indices 1 2 3 4 5 6 
#
# 1 76.0175 23.9900 5.1744 -5.6364 -9.8761 -20.8756
# 2 23.9900 113.4322 14.3425 -6.0131 -4.2507 -12.4527
# 3 5.1744 14.3425 59.2490 -5.2229 -7.3175 5.3314
# 4 -5.6364 -6.0131 -5.2229 30.0848 1.2910 -1.4541
# 5 -9.8761 -4.2507 -7.3175 1.2910 31.7730 2.1257
# 6 -20.8756 -12.4527 5.3314 -1.4541 2.1257 48.8369
#
#
#
# Elastic Compliance Matrix: (Units=1/GPa)
#
#
# Indices 1 2 3 4 5 6 
#
# 1 0.016439 -0.002395 -0.000695 0.002614 0.004096 0.006392
# 2 -0.002395 0.009862 -0.002244 0.001223 -0.000110 0.001777
# 3 -0.000695 -0.002244 0.018427 0.002312 0.003833 -0.002979
# 4 0.002614 0.001223 0.002312 0.034483 -0.000040 0.002205
# 5 0.004096 -0.000110 0.003833 -0.000040 0.033627 -0.000161
# 6 0.006392 0.001777 -0.002979 0.002205 -0.000161 0.024059
#
#
# Mechanical properties :
#
#
# Convention : Reuss Voigt Hill
#
# Bulk Modulus (GPa) = 29.35949 37.30139 33.33044
# Shear Modulus (GPa) = 31.46264 35.81839 33.64051
#
# Velocity S-wave (km/s) = 3.70669 3.95495 3.83283
# Velocity P-wave (km/s) = 5.58037 6.09465 5.84317
#
# Compressibility (1/GPa) = 0.03406053
#
# Stress axis : x y z
#
# Youngs Moduli (GPa) = 60.83021 101.40031 54.26820
#
# Poissons Ratio (x) = 0.24287 0.03771
# Poissons Ratio (y) = 0.14570 0.12177
# Poissons Ratio (z) = 0.04226 0.22752
#
# Static dielectric constant tensor:
#      x y z
#    x 4.241960 -0.029330 -0.078140 
#    y -0.029330 4.389620 -0.034920 
#    z -0.078140 -0.034920 3.943230 
# 
# 
# High freq. dielectric constant tensor:
#      x y z
#    x 1.913300 -0.002410 -0.004230 
#    y -0.002410 1.926370 -0.005720 
#    z -0.004230 -0.005720 1.903000 
# 
# From -- ./inp_files/588057.got.cif
#   From: 2010.06.25/outbox.cif.g09.slc.cpg/sg2_295_cif.got.tgz:588057.got - 2010.06.27 13:26:56.
