data_PCOD8020251
_publ_section_title
;
Structure prediction by ZEFSAII (Michael W. Deem and Ramdas Pophale) SiO2 
 PCOD8020251
Probable space group: P -1
;
_chemical_formula_sum "Si O2"
_cell_formula_units_Z 10
_cell_length_a 7.666963
_cell_length_b 10.175396
_cell_length_c 11.480840
_cell_angle_alpha 49.093769
_cell_angle_beta 39.150899
_cell_angle_gamma 56.933640
_cell_volume 426.047762
_symmetry_space_group_name_H-M "P -1"
_symmetry_group_IT_number 2
_symmetry_cell_setting 'triclinic'
loop_
_space_group_symop_operation_xyz
x,y,z
-x,-y,-z
loop_
_atom_site_type_symbol
_atom_site_label
_atom_site_fract_x
_atom_site_fract_y
_atom_site_fract_z
Si Si1 0.197857 0.460998 0.726309
Si Si2 0.171322 0.754257 0.105857
Si Si3 0.650940 0.979890 0.309604
Si Si4 0.478002 0.793128 0.142961
Si Si5 0.191351 0.824563 0.499127
O O1 0.500000 0.500000 0.500000
O O2 0.239023 0.313601 0.892213
O O3 0.070328 0.655190 0.722844
O O4 0.992114 0.404137 0.764840
O O5 0.965041 0.895029 0.200788
O O6 0.597437 0.300386 0.884643
O O7 0.334205 0.832534 0.867581
O O8 0.487890 0.855272 0.383289
O O9 0.500000 0.000000 0.500000
O O10 0.230562 0.772820 0.373938
O O11 0.500000 0.000000 0.000000
O O12 0.000000 0.000000 0.500000
#
# Coordination Sequence:
#
# PCOD8020251 Si02
#       5
#     2   2   2   2   2
#     4  10  22  42  67 100 135 176 229 274 335 410
#     4  11  21  42  73  96 132 183 224 275 344 398
#     4  11  22  41  66 102 137 172 229 280 334 406
#     4  11  20  40  71  95 130 176 224 272 333 408
#     4  11  23  43  64  98 139 173 223 286 338 394
#
# _framework density 23.471546
#
# number of rings (size 3 to 8) (size 9 to 14) (size 15 to 20)
#    0.000    1.200    6.000    2.400    0.000    3.200 
#    3.600    5.000    0.000    0.000    0.000    0.000 
#    0.000    0.000    0.000    0.000    0.000    0.000 
#
# Total GULP energy -123889.806076 kJ/mol
# GULP energy per Si atom -12388.980608 kJ/mol
# Density = 2.341812 g / cm^3
# Si number density = 23.471546 Si / 1000 Ang^3
#
#
#
# Elastic Constant Matrix: (Units=GPa)
#
#
# Indices 1 2 3 4 5 6 
#
# 1 155.6294 49.1839 36.0056 -25.0602 5.5109 19.2413
# 2 49.1839 133.6807 41.5833 -44.3857 11.3851 -12.2539
# 3 36.0056 41.5833 110.5082 -6.0848 15.1212 14.2729
# 4 -25.0602 -44.3857 -6.0848 51.1121 6.9411 -0.9021
# 5 5.5109 11.3851 15.1212 6.9411 30.0403 -14.9955
# 6 19.2413 -12.2539 14.2729 -0.9021 -14.9955 39.4325
#
#
#
# Elastic Compliance Matrix: (Units=1/GPa)
#
#
# Indices 1 2 3 4 5 6 
#
# 1 0.008631 -0.002458 -0.000334 0.002524 -0.004272 -0.006422
# 2 -0.002458 0.014236 -0.004606 0.010964 -0.001721 0.006887
# 3 -0.000334 -0.004606 0.013357 -0.001465 -0.009432 -0.009723
# 4 0.002524 0.010964 -0.001465 0.031723 -0.011724 -0.001027
# 5 -0.004272 -0.001721 -0.009432 -0.011724 0.054958 0.025595
# 6 -0.006422 0.006887 -0.009723 -0.001027 0.025595 0.043863
#
#
# Mechanical properties :
#
#
# Convention : Reuss Voigt Hill
#
# Bulk Modulus (GPa) = 46.67024 72.59599 59.63311
# Shear Modulus (GPa) = 26.49591 42.32002 34.40797
#
# Velocity S-wave (km/s) = 3.36348 4.25082 3.83292
# Velocity P-wave (km/s) = 5.91701 7.42221 6.71193
#
# Compressibility (1/GPa) = 0.02142693
#
# Stress axis : x y z
#
# Youngs Moduli (GPa) = 115.85498 70.24349 74.86716
#
# Poissons Ratio (x) = 0.17269 0.02502
# Poissons Ratio (y) = 0.28482 0.34485
# Poissons Ratio (z) = 0.03872 0.32356
#
# Static dielectric constant tensor:
#      x y z
#    x 4.510050 -0.289030 0.237830 
#    y -0.289030 5.298550 -0.983780 
#    z 0.237830 -0.983780 4.547930 
# 
# 
# High freq. dielectric constant tensor:
#      x y z
#    x 1.936620 0.000420 0.002630 
#    y 0.000420 1.917990 -0.022910 
#    z 0.002630 -0.022910 1.916620 
# 
# From -- ./inp_files/377536.got.cif
#   From: 2010.06.25/outbox.cif.g09.slc.cpg/sg2_189_cif.got.tgz:377536.got - 2010.06.27 13:26:56.
