data_PCOD8020138
_publ_section_title
;
Structure prediction by ZEFSAII (Michael W. Deem and Ramdas Pophale) SiO2 
 PCOD8020138
Probable space group: P -1
;
_chemical_formula_sum "Si O2"
_cell_formula_units_Z 12
_cell_length_a 8.297673
_cell_length_b 21.259657
_cell_length_c 23.578301
_cell_angle_alpha 168.358956
_cell_angle_beta 144.959299
_cell_angle_gamma 37.127069
_cell_volume 481.493652
_symmetry_space_group_name_H-M "P -1"
_symmetry_group_IT_number 2
_symmetry_cell_setting 'triclinic'
loop_
_space_group_symop_operation_xyz
x,y,z
-x,-y,-z
loop_
_atom_site_type_symbol
_atom_site_label
_atom_site_fract_x
_atom_site_fract_y
_atom_site_fract_z
Si Si1 0.062831 0.339607 0.760855
Si Si2 0.377570 0.790060 0.328447
Si Si3 0.321738 0.289337 0.219703
Si Si4 0.143893 0.612871 0.901807
Si Si5 0.828019 0.166348 0.049768
Si Si6 0.417799 0.183851 0.425424
O O1 0.735684 0.259814 0.601038
O O2 0.156310 0.530986 0.899724
O O3 0.227801 0.016508 0.529519
O O4 0.141623 0.546943 0.021070
O O5 0.642906 0.601972 0.263023
O O6 0.500000 0.000000 0.500000
O O7 0.500000 0.500000 0.500000
O O8 0.188457 0.450671 0.267913
O O9 0.033019 0.183075 0.070624
O O10 0.500000 0.000000 0.000000
O O11 0.260962 0.968260 0.238171
O O12 0.738204 0.491158 0.335668
O O13 0.578053 0.959447 0.764621
O O14 0.000000 0.000000 0.000000
#
# Coordination Sequence:
#
# PCOD8020138 Si02
#       6
#     2   2   2   2   2   2
#     4  11  24  41  70  98 131 176 224 264 334 404
#     4  10  22  42  66 100 130 176 220 269 335 391
#     4  11  25  41  65  99 123 174 226 262 336 395
#     4  10  24  43  67  92 141 168 218 287 319 392
#     4  11  25  44  67  92 140 171 221 287 326 389
#     4  11  25  43  65 102 128 178 222 268 343 390
#
# _framework density 24.922449
#
# number of rings (size 3 to 8) (size 9 to 14) (size 15 to 20)
#    0.000    1.333    0.000    5.500    4.667   13.333 
#    0.000    0.000    0.000    0.000    0.000    0.000 
#    0.000    0.000    0.000    0.000    0.000    0.000 
#
# Total GULP energy -148695.183294 kJ/mol
# GULP energy per Si atom -12391.265274 kJ/mol
# Density = 2.486572 g / cm^3
# Si number density = 24.922449 Si / 1000 Ang^3
#
#
#
# Elastic Constant Matrix: (Units=GPa)
#
#
# Indices 1 2 3 4 5 6 
#
# 1 41.2792 15.0597 28.3138 7.1686 -8.2664 -7.7701
# 2 15.0597 172.8137 66.9925 9.1497 -6.2054 -13.9652
# 3 28.3138 66.9925 163.1139 5.7381 -21.3052 -4.1934
# 4 7.1686 9.1497 5.7381 56.3730 -8.0759 -7.3051
# 5 -8.2664 -6.2054 -21.3052 -8.0759 36.4120 -0.7253
# 6 -7.7701 -13.9652 -4.1934 -7.3051 -0.7253 42.8762
#
#
#
# Elastic Compliance Matrix: (Units=1/GPa)
#
#
# Indices 1 2 3 4 5 6 
#
# 1 0.029219 -0.000277 -0.004285 -0.002123 0.003697 0.004486
# 2 -0.000277 0.007088 -0.002877 -0.000676 -0.000651 0.001851
# 3 -0.004285 -0.002877 0.008490 0.000572 0.003617 -0.000725
# 4 -0.002123 -0.000676 0.000572 0.018991 0.004004 0.002754
# 5 0.003697 -0.000651 0.003617 0.004004 0.031236 0.002022
# 6 0.004486 0.001851 -0.000725 0.002754 0.002022 0.025171
#
#
# Mechanical properties :
#
#
# Convention : Reuss Voigt Hill
#
# Bulk Modulus (GPa) = 33.42396 66.43762 49.93079
# Shear Modulus (GPa) = 34.47162 44.92164 39.69663
#
# Velocity S-wave (km/s) = 3.72311 4.25014 3.99533
# Velocity P-wave (km/s) = 5.64999 7.12745 6.43129
#
# Compressibility (1/GPa) = 0.02991865
#
# Stress axis : x y z
#
# Youngs Moduli (GPa) = 34.22388 141.08646 117.79109
#
# Poissons Ratio (x) = 0.03914 0.50474
# Poissons Ratio (y) = 0.00949 0.33884
# Poissons Ratio (z) = 0.14665 0.40585
#
# Static dielectric constant tensor:
#      x y z
#    x 4.853920 -0.115360 -0.469240 
#    y -0.115360 6.231560 -0.162220 
#    z -0.469240 -0.162220 5.137060 
# 
# 
# High freq. dielectric constant tensor:
#      x y z
#    x 1.980340 0.001750 -0.006190 
#    y 0.001750 2.023520 -0.002070 
#    z -0.006190 -0.002070 2.001230 
# 
# From -- ./inp_files/504829.got.cif
#   From: 2010.06.25/outbox.cif.g09.slc.cpg/sg2_253_cif.got.tgz:504829.got - 2010.06.27 13:26:56.
