data_PCOD8020057
_publ_section_title
;
Structure prediction by ZEFSAII (Michael W. Deem and Ramdas Pophale) SiO2 
 PCOD8020057
Probable space group: P -1
;
_chemical_formula_sum "Si O2"
_cell_formula_units_Z 14
_cell_length_a 12.067677
_cell_length_b 13.781811
_cell_length_c 8.961051
_cell_angle_alpha 143.306679
_cell_angle_beta 124.580216
_cell_angle_gamma 45.950237
_cell_volume 639.882778
_symmetry_space_group_name_H-M "P -1"
_symmetry_group_IT_number 2
_symmetry_cell_setting 'triclinic'
loop_
_space_group_symop_operation_xyz
x,y,z
-x,-y,-z
loop_
_atom_site_type_symbol
_atom_site_label
_atom_site_fract_x
_atom_site_fract_y
_atom_site_fract_z
Si Si1 0.184210 0.549491 0.141891
Si Si2 0.751484 0.592067 0.503497
Si Si3 0.686330 0.026018 0.603050
Si Si4 0.572006 0.000007 0.788752
Si Si5 0.679101 0.383739 0.952905
Si Si6 0.448285 0.346506 0.298004
Si Si7 0.016899 0.355280 0.634909
O O1 0.272025 0.624967 0.194335
O O2 0.314732 0.373189 0.112756
O O3 0.079814 0.688996 0.367365
O O4 0.071019 0.498900 0.906288
O O5 0.606967 0.629334 0.544241
O O6 0.914214 0.460503 0.543079
O O7 0.719609 0.797232 0.684310
O O8 0.759821 0.480227 0.223488
O O9 0.584027 0.016005 0.374921
O O10 0.835722 0.836377 0.528336
O O11 0.586976 0.092320 0.760447
O O12 0.743531 0.171739 0.787202
O O13 0.569976 0.131088 0.086666
O O14 0.500000 0.500000 0.000000
O O15 0.500000 0.500000 0.500000
#
# Coordination Sequence:
#
# PCOD8020057 Si02
#       7
#     2   2   2   2   2   2   2
#     4  10  22  42  65  89 132 174 208 255 331 381
#     4  11  24  40  66  94 130 167 216 263 320 376
#     4  11  23  39  67  93 128 169 219 257 321 379
#     4  11  22  40  65  97 124 170 216 265 310 387
#     4  12  23  40  66  99 130 167 214 274 316 372
#     4  11  22  40  65  98 128 162 212 276 319 369
#     4  10  23  44  64  93 129 179 208 259 318 396
#
# _framework density 21.879007000000001
#
# number of rings (size 3 to 8) (size 9 to 14) (size 15 to 20)
#    0.000    1.143    2.857    3.857    0.000    3.429 
#    0.000    2.857    0.000    0.000    0.000    0.000 
#    0.000    0.000    0.000    0.000    0.000    0.000 
#
# Total GULP energy -173501.851001 kJ/mol
# GULP energy per Si atom -12392.989357 kJ/mol
# Density = 2.182921 g / cm^3
# Si number density = 21.879007 Si / 1000 Ang^3
#
#
#
# Elastic Constant Matrix: (Units=GPa)
#
#
# Indices 1 2 3 4 5 6 
#
# 1 78.0459 19.4744 -5.0821 -3.1481 -4.1680 13.6212
# 2 19.4744 105.0785 24.1760 9.4537 -1.0279 -7.9171
# 3 -5.0821 24.1760 81.3112 13.3176 -2.5801 -3.6712
# 4 -3.1481 9.4537 13.3176 32.9769 3.4143 -0.1055
# 5 -4.1680 -1.0279 -2.5801 3.4143 23.8556 0.1969
# 6 13.6212 -7.9171 -3.6712 -0.1055 0.1969 44.2219
#
#
#
# Elastic Compliance Matrix: (Units=1/GPa)
#
#
# Indices 1 2 3 4 5 6 
#
# 1 0.014910 -0.003634 0.001605 0.001547 0.002443 -0.005117
# 2 -0.003634 0.011325 -0.003090 -0.002319 -0.000173 0.002886
# 3 0.001605 -0.003090 0.014208 -0.004946 0.002391 0.000109
# 4 0.001547 -0.002319 -0.004946 0.033666 -0.005173 -0.001199
# 5 0.002443 -0.000173 0.002391 -0.005173 0.043344 -0.000790
# 6 -0.005117 0.002886 0.000109 -0.001199 -0.000790 0.024716
#
#
# Mechanical properties :
#
#
# Convention : Reuss Voigt Hill
#
# Bulk Modulus (GPa) = 33.10424 37.95246 35.52835
# Shear Modulus (GPa) = 30.77406 35.26872 33.02139
#
# Velocity S-wave (km/s) = 3.75448 4.01931 3.88915
# Velocity P-wave (km/s) = 5.82737 6.23891 6.03665
#
# Compressibility (1/GPa) = 0.03020761
#
# Stress axis : x y z
#
# Youngs Moduli (GPa) = 67.06861 88.29774 70.38089
#
# Poissons Ratio (x) = 0.32083 -0.11298
# Poissons Ratio (y) = 0.24369 0.21747
# Poissons Ratio (z) = -0.10766 0.27283
#
# Static dielectric constant tensor:
#      x y z
#    x 4.222200 0.046670 -0.083150 
#    y 0.046670 3.895980 -0.078090 
#    z -0.083150 -0.078090 3.895430 
# 
# 
# High freq. dielectric constant tensor:
#      x y z
#    x 1.863850 0.009310 -0.010660 
#    y 0.009310 1.860490 -0.005470 
#    z -0.010660 -0.005470 1.848080 
# 
# From -- ./inp_files/177573.got.cif
#   From: 2010.06.25/outbox.cif.g09.slc.cpg/sg2_89_cif.got.tgz:177573.got - 2010.06.27 13:26:56.
