data_PCOD8020591
_publ_section_title
;
Structure prediction by ZEFSAII (Michael W. Deem and Ramdas Pophale) SiO2 
 PCOD8020591
Probable space group: P -1
;
_chemical_formula_sum "Si O2"
_cell_formula_units_Z 16
_cell_length_a 29.855836
_cell_length_b 5.220223
_cell_length_c 11.741404
_cell_angle_alpha 105.560876
_cell_angle_beta 20.248269
_cell_angle_gamma 100.050500
_cell_volume 593.542696
_symmetry_space_group_name_H-M "P -1"
_symmetry_group_IT_number 2
_symmetry_cell_setting 'triclinic'
loop_
_space_group_symop_operation_xyz
x,y,z
-x,-y,-z
loop_
_atom_site_type_symbol
_atom_site_label
_atom_site_fract_x
_atom_site_fract_y
_atom_site_fract_z
Si Si1 0.916314 0.076133 0.389354
Si Si2 0.265126 0.379285 0.863438
Si Si3 0.473013 0.914874 0.179616
Si Si4 0.920574 0.536014 0.052243
Si Si5 0.410214 0.302487 0.734895
Si Si6 0.719614 0.784987 0.741860
Si Si7 0.968842 0.828201 0.657173
Si Si8 0.252502 0.682259 0.720772
O O1 0.766688 0.061751 0.704061
O O2 0.911478 0.236061 0.542288
O O3 0.982580 0.758483 0.212668
O O4 0.997014 0.227679 0.128757
O O5 0.296008 0.340800 0.917654
O O6 0.274746 0.650316 0.802366
O O7 0.363187 0.137078 0.534569
O O8 0.102859 0.412650 0.241969
O O9 0.400908 0.659141 0.312081
O O10 0.606182 0.867045 0.928706
O O11 0.500000 0.000000 0.000000
O O12 0.845329 0.581743 0.358478
O O13 0.812025 0.553033 0.210432
O O14 0.500000 0.500000 0.500000
O O15 0.500000 0.000000 0.500000
O O16 0.332184 0.375680 0.049382
O O17 0.844045 0.026777 0.043902
O O18 0.000000 0.000000 0.500000
#
# Coordination Sequence:
#
# PCOD8020591 Si02
#       8
#     2   2   2   2   2   2   2   2
#     4  11  25  49  70 112 144 190 241 305 364 433
#     4  11  22  45  70  97 146 183 235 300 352 422
#     4  11  25  43  73 106 139 188 243 290 367 432
#     4  11  25  47  76 104 149 185 245 302 366 427
#     4  12  28  48  69 105 149 193 242 295 358 434
#     4  12  26  47  74 105 148 197 240 301 369 440
#     4  10  22  42  70 102 139 187 241 289 360 426
#     4  10  23  44  72 103 145 182 239 310 351 425
#
# _framework density 26.956780999999999
#
# number of rings (size 3 to 8) (size 9 to 14) (size 15 to 20)
#    0.000    1.000    2.500    3.000    5.250    5.500 
#    4.500    0.000    0.000    0.000    0.000    0.000 
#    0.000    0.000    0.000    0.000    0.000    0.000 
#
# Total GULP energy -198251.591298 kJ/mol
# GULP energy per Si atom -12390.724456 kJ/mol
# Density = 2.689543 g / cm^3
# Si number density = 26.956781 Si / 1000 Ang^3
#
#
#
# Elastic Constant Matrix: (Units=GPa)
#
#
# Indices 1 2 3 4 5 6 
#
# 1 200.4299 36.8479 59.9992 -39.9447 -2.5309 -9.5711
# 2 36.8479 100.6128 43.3984 -44.4068 -10.9592 -12.5226
# 3 59.9992 43.3984 140.8893 -50.6703 -0.9387 -5.0113
# 4 -39.9447 -44.4068 -50.6703 52.3167 2.5540 1.4031
# 5 -2.5309 -10.9592 -0.9387 2.5540 57.3406 -15.1879
# 6 -9.5711 -12.5226 -5.0113 1.4031 -15.1879 43.1129
#
#
#
# Elastic Compliance Matrix: (Units=1/GPa)
#
#
# Indices 1 2 3 4 5 6 
#
# 1 0.006121 0.000007 -0.001379 0.003290 0.000432 0.001246
# 2 0.000007 0.017614 0.000097 0.014672 0.004353 0.006185
# 3 -0.001379 0.000097 0.011240 0.009904 -0.000124 0.000663
# 4 0.003290 0.014672 0.009904 0.043389 0.002682 0.005676
# 5 0.000432 0.004353 -0.000124 0.002682 0.020407 0.008448
# 6 0.001246 0.006185 0.000663 0.005676 0.008448 0.028136
#
#
# Mechanical properties :
#
#
# Convention : Reuss Voigt Hill
#
# Bulk Modulus (GPa) = 30.83906 80.26920 55.55413
# Shear Modulus (GPa) = 35.64663 50.66647 43.15655
#
# Velocity S-wave (km/s) = 3.64037 4.34007 4.00553
# Velocity P-wave (km/s) = 5.39767 7.41327 6.48427
#
# Compressibility (1/GPa) = 0.03242641
#
# Stress axis : x y z
#
# Youngs Moduli (GPa) = 163.36410 56.77154 88.97083
#
# Poissons Ratio (x) = -0.00040 0.12265
# Poissons Ratio (y) = -0.00116 -0.00863
# Poissons Ratio (z) = 0.22521 -0.00551
#
# Static dielectric constant tensor:
#      x y z
#    x 5.583250 0.322290 -0.427020 
#    y 0.322290 5.211660 -0.079330 
#    z -0.427020 -0.079330 5.742620 
# 
# 
# High freq. dielectric constant tensor:
#      x y z
#    x 2.101520 0.000280 -0.007430 
#    y 0.000280 2.082330 0.001830 
#    z -0.007430 0.001830 2.114450 
# 
# From -- ./inp_files/477390.got.cif
#   From: 2010.06.25/outbox.cif.g09.slc.cpg/sg2_239_cif.got.tgz:477390.got - 2010.06.27 13:26:56.
