data_PCOD8020527
_publ_section_title
;
Structure prediction by ZEFSAII (Michael W. Deem and Ramdas Pophale) SiO2 
 PCOD8020527
Probable space group: P -1
;
_chemical_formula_sum "Si O2"
_cell_formula_units_Z 14
_cell_length_a 9.128435
_cell_length_b 6.904180
_cell_length_c 21.766517
_cell_angle_alpha 96.416916
_cell_angle_beta 141.563467
_cell_angle_gamma 107.241901
_cell_volume 663.883362
_symmetry_space_group_name_H-M "P -1"
_symmetry_group_IT_number 2
_symmetry_cell_setting 'triclinic'
loop_
_space_group_symop_operation_xyz
x,y,z
-x,-y,-z
loop_
_atom_site_type_symbol
_atom_site_label
_atom_site_fract_x
_atom_site_fract_y
_atom_site_fract_z
Si Si1 0.227535 0.960293 0.875524
Si Si2 0.304031 0.739962 0.583871
Si Si3 0.625185 0.740603 0.189050
Si Si4 0.731818 0.010932 0.534014
Si Si5 0.648452 0.244246 0.778493
Si Si6 0.745446 0.656979 0.033945
Si Si7 0.396074 0.509266 0.339519
O O1 0.957763 0.667530 0.765574
O O2 0.339516 0.097801 0.851689
O O3 0.107731 0.060607 0.889500
O O4 0.500000 0.000000 0.000000
O O5 0.515156 0.670217 0.631972
O O6 0.000000 0.500000 0.500000
O O7 0.217437 0.830975 0.502318
O O8 0.459733 0.952021 0.693955
O O9 0.421474 0.735248 0.173991
O O10 0.440921 0.453013 0.095463
O O11 0.952647 0.852026 0.323923
O O12 0.591985 0.729843 0.460775
O O13 0.500000 0.000000 0.500000
O O14 0.551307 0.371853 0.706531
O O15 0.998932 0.378274 0.886354
O O16 0.500000 0.500000 0.000000
#
# Coordination Sequence:
#
# PCOD8020527 Si02
#       7
#     2   2   2   2   2   2   2
#     4  11  24  43  68  98 128 177 225 272 333 396
#     4  11  23  42  67  95 138 174 218 269 331 396
#     4  11  24  43  66  96 138 171 222 279 329 391
#     4  11  26  41  67 100 134 179 220 272 330 389
#     4  11  23  44  69 101 132 176 219 275 337 388
#     4  10  22  42  69  92 131 176 217 271 335 388
#     4  11  23  43  68  95 136 173 223 269 327 398
#
# _framework density 21.088039999999999
#
# number of rings (size 3 to 8) (size 9 to 14) (size 15 to 20)
#    0.000    1.143    1.429    4.714    8.000    5.714 
#    2.571    1.429    0.000    0.000    0.000    0.000 
#    0.000    0.000    0.000    0.000    0.000    0.000 
#
# Total GULP energy -173549.533577 kJ/mol
# GULP energy per Si atom -12396.395256 kJ/mol
# Density = 2.104004 g / cm^3
# Si number density = 21.088040 Si / 1000 Ang^3
#
#
#
# Elastic Constant Matrix: (Units=GPa)
#
#
# Indices 1 2 3 4 5 6 
#
# 1 133.9037 24.5730 51.0313 -2.8971 -6.4536 -4.7679
# 2 24.5730 82.8146 35.6408 1.7689 -9.2412 -3.4122
# 3 51.0313 35.6408 150.0910 2.5254 -1.7579 -5.9126
# 4 -2.8971 1.7689 2.5254 37.0573 -3.4539 7.8328
# 5 -6.4536 -9.2412 -1.7579 -3.4539 44.8143 2.7057
# 6 -4.7679 -3.4122 -5.9126 7.8328 2.7057 30.2665
#
#
#
# Elastic Compliance Matrix: (Units=1/GPa)
#
#
# Indices 1 2 3 4 5 6 
#
# 1 0.008812 -0.001370 -0.002661 0.000941 0.000931 0.000387
# 2 -0.001370 0.014003 -0.002793 -0.000506 0.002498 0.000725
# 3 -0.002661 -0.002793 0.008285 -0.000967 -0.000781 0.001205
# 4 0.000941 -0.000506 -0.000967 0.029063 0.002708 -0.007861
# 5 0.000931 0.002498 -0.000781 0.002708 0.023293 -0.002507
# 6 0.000387 0.000725 0.001205 -0.007861 -0.002507 0.035676
#
#
# Mechanical properties :
#
#
# Convention : Reuss Voigt Hill
#
# Bulk Modulus (GPa) = 57.29589 65.47773 61.38681
# Shear Modulus (GPa) = 36.07556 39.46522 37.77039
#
# Velocity S-wave (km/s) = 4.14056 4.33072 4.23671
# Velocity P-wave (km/s) = 7.07728 7.49159 7.28738
#
# Compressibility (1/GPa) = 0.01745326
#
# Stress axis : x y z
#
# Youngs Moduli (GPa) = 113.47574 71.41248 120.69946
#
# Poissons Ratio (x) = 0.09784 0.32113
# Poissons Ratio (y) = 0.15547 0.33712
# Poissons Ratio (z) = 0.30191 0.19946
#
# Static dielectric constant tensor:
#      x y z
#    x 4.356220 -0.663810 0.115290 
#    y -0.663810 4.334120 0.119860 
#    z 0.115290 0.119860 4.536440 
# 
# 
# High freq. dielectric constant tensor:
#      x y z
#    x 1.828840 -0.005430 0.006030 
#    y -0.005430 1.821750 0.012390 
#    z 0.006030 0.012390 1.851280 
# 
# From -- ./inp_files/117165.got.cif
#   From: 2010.06.25/outbox.cif.g09.slc.cpg/sg2_59_cif.got.tgz:117165.got - 2010.06.27 13:26:56.
