data_PCOD8020741
_publ_section_title
;
Structure prediction by ZEFSAII (Michael W. Deem and Ramdas Pophale) SiO2 
 PCOD8020741
Probable space group: P -1
;
_chemical_formula_sum "Si O2"
_cell_formula_units_Z 16
_cell_length_a 12.328459
_cell_length_b 8.248875
_cell_length_c 8.935803
_cell_angle_alpha 64.461005
_cell_angle_beta 59.019094
_cell_angle_gamma 87.328600
_cell_volume 684.679179
_symmetry_space_group_name_H-M "P -1"
_symmetry_group_IT_number 2
_symmetry_cell_setting 'triclinic'
loop_
_space_group_symop_operation_xyz
x,y,z
-x,-y,-z
loop_
_atom_site_type_symbol
_atom_site_label
_atom_site_fract_x
_atom_site_fract_y
_atom_site_fract_z
Si Si1 0.183920 0.756516 0.615405
Si Si2 0.063605 0.373770 0.296673
Si Si3 0.627556 0.136666 0.295058
Si Si4 0.751998 0.605158 0.404222
Si Si5 0.732626 0.877915 0.754789
Si Si6 0.255685 0.072765 0.940380
Si Si7 0.455939 0.360619 0.218870
Si Si8 0.964492 0.262417 0.724460
O O1 0.247095 0.832145 0.698210
O O2 0.253631 0.599325 0.569742
O O3 0.027120 0.673065 0.770207
O O4 0.191149 0.920400 0.426200
O O5 0.182194 0.276435 0.249470
O O6 0.109801 0.597188 0.191576
O O7 0.963976 0.304202 0.531955
O O8 0.586585 0.329456 0.217634
O O9 0.500000 0.000000 0.500000
O O10 0.661014 0.050747 0.151455
O O11 0.733494 0.735000 0.228314
O O12 0.636250 0.578191 0.617130
O O13 0.886157 0.704890 0.346058
O O14 0.617670 0.826771 0.736431
O O15 0.681321 0.880612 0.959311
O O16 0.107635 0.950001 0.109278
O O17 0.500000 0.500000 0.000000
#
# Coordination Sequence:
#
# PCOD8020741 Si02
#       8
#     2   2   2   2   2   2   2   2
#     4  11  25  45  75 101 143 194 232 298 354 424
#     4  10  22  42  73 110 146 186 237 296 354 419
#     4  12  27  51  68 100 148 190 238 294 357 418
#     4  11  25  48  70 108 146 185 238 303 361 413
#     4  12  25  44  74 109 141 190 243 290 358 429
#     4  12  27  42  73 109 145 190 237 298 355 428
#     4  12  29  48  77  99 140 197 239 297 354 437
#     4  10  22  42  75 106 149 184 236 295 360 425
#
# _framework density 23.368608999999999
#
# number of rings (size 3 to 8) (size 9 to 14) (size 15 to 20)
#    0.000    0.750    5.000    0.750    5.250    3.000 
#    0.000    2.500    0.000    0.000    0.000    0.000 
#    0.000    0.000    0.000    0.000    0.000    0.000 
#
# Total GULP energy -198357.202089 kJ/mol
# GULP energy per Si atom -12397.325131 kJ/mol
# Density = 2.331542 g / cm^3
# Si number density = 23.368609 Si / 1000 Ang^3
#
#
#
# Elastic Constant Matrix: (Units=GPa)
#
#
# Indices 1 2 3 4 5 6 
#
# 1 81.7558 12.9015 -0.9076 8.4583 15.3519 -3.8759
# 2 12.9015 96.9559 20.4104 7.0007 9.0834 -9.6646
# 3 -0.9076 20.4104 73.7083 -1.0372 16.5933 -8.1281
# 4 8.4583 7.0007 -1.0372 40.6825 -2.1940 4.0685
# 5 15.3519 9.0834 16.5933 -2.1940 28.4339 -1.3367
# 6 -3.8759 -9.6646 -8.1281 4.0685 -1.3367 42.9920
#
#
#
# Elastic Compliance Matrix: (Units=1/GPa)
#
#
# Indices 1 2 3 4 5 6 
#
# 1 0.014633 -0.001249 0.002746 -0.003418 -0.009293 0.001592
# 2 -0.001249 0.011547 -0.002665 -0.002090 -0.001520 0.002130
# 3 0.002746 -0.002665 0.016969 -0.000501 -0.010451 0.002579
# 4 -0.003418 -0.002090 -0.000501 0.026211 0.004677 -0.003208
# 5 -0.009293 -0.001520 -0.010451 0.004677 0.047032 -0.002136
# 6 0.001592 0.002130 0.002579 -0.003208 -0.002136 0.024607
#
#
# Mechanical properties :
#
#
# Convention : Reuss Voigt Hill
#
# Bulk Modulus (GPa) = 24.50281 35.24762 29.87521
# Shear Modulus (GPa) = 31.85927 37.08939 34.47433
#
# Velocity S-wave (km/s) = 3.69634 3.98822 3.84505
# Velocity P-wave (km/s) = 5.35961 6.02694 5.70304
#
# Compressibility (1/GPa) = 0.04081164
#
# Stress axis : x y z
#
# Youngs Moduli (GPa) = 68.33787 86.60360 58.93131
#
# Poissons Ratio (x) = 0.10817 -0.16180
# Poissons Ratio (y) = 0.08536 0.15706
# Poissons Ratio (z) = -0.18762 0.23081
#
# Static dielectric constant tensor:
#      x y z
#    x 3.809810 0.142280 0.296560 
#    y 0.142280 4.463440 -0.132110 
#    z 0.296560 -0.132110 4.140180 
# 
# 
# High freq. dielectric constant tensor:
#      x y z
#    x 1.927880 0.004360 0.012420 
#    y 0.004360 1.935120 -0.007060 
#    z 0.012420 -0.007060 1.918960 
# 
# From -- ./inp_files/242451.got.cif
#   From: 2010.06.25/outbox.cif.g09.slc.cpg/sg2_122_cif.got.tgz:242451.got - 2010.06.27 13:26:56.
