data_PCOD8020672
_publ_section_title
;
Structure prediction by ZEFSAII (Michael W. Deem and Ramdas Pophale) SiO2 
 PCOD8020672
Probable space group: P -1
;
_chemical_formula_sum "Si O2"
_cell_formula_units_Z 16
_cell_length_a 11.865030
_cell_length_b 14.028741
_cell_length_c 11.205559
_cell_angle_alpha 89.715858
_cell_angle_beta 92.145426
_cell_angle_gamma 19.969334
_cell_volume 632.125716
_symmetry_space_group_name_H-M "P -1"
_symmetry_group_IT_number 2
_symmetry_cell_setting 'triclinic'
loop_
_space_group_symop_operation_xyz
x,y,z
-x,-y,-z
loop_
_atom_site_type_symbol
_atom_site_label
_atom_site_fract_x
_atom_site_fract_y
_atom_site_fract_z
Si Si1 0.714720 0.346604 0.726621
Si Si2 0.903040 0.362775 0.566198
Si Si3 0.678417 0.132418 0.908764
Si Si4 0.665749 0.777681 0.061041
Si Si5 0.210203 0.583537 0.695946
Si Si6 0.672251 0.745468 0.579912
Si Si7 0.752753 0.205332 0.128609
Si Si8 0.481161 0.940968 0.315963
O O1 0.746443 0.395100 0.620742
O O2 0.386860 0.544656 0.686544
O O3 0.617415 0.484277 0.839263
O O4 0.045411 0.024841 0.771804
O O5 0.742030 0.506236 0.429146
O O6 0.849863 0.506001 0.633102
O O7 0.283324 0.033644 0.567531
O O8 0.595276 0.101051 0.974407
O O9 0.383778 0.378793 0.800944
O O10 0.681979 0.220189 0.996044
O O11 0.048257 0.849929 0.867696
O O12 0.705121 0.762968 0.205922
O O13 0.000000 0.500000 0.000000
O O14 0.500000 0.000000 0.000000
O O15 0.812482 0.905218 0.711753
O O16 0.741177 0.714993 0.439176
O O17 0.722689 0.797706 0.667581
#
# Coordination Sequence:
#
# PCOD8020672 Si02
#       8
#     2   2   2   2   2   2   2   2
#     4  11  23  41  64  99 133 168 211 266 330 388
#     4  11  23  41  65 103 136 168 212 267 336 390
#     4  10  23  45  66  93 126 169 227 266 318 391
#     4  12  27  42  64  95 130 170 210 271 333 381
#     4  10  22  42  71  96 131 176 216 272 322 387
#     4  10  24  42  70  95 130 179 219 270 319 386
#     4  10  24  42  69  91 124 175 219 269 316 379
#     4  10  23  45  67  96 131 173 229 266 321 396
#
# _framework density 25.311420999999999
#
# number of rings (size 3 to 8) (size 9 to 14) (size 15 to 20)
#    0.000    1.500    0.000    3.375    0.000   21.000 
#    0.000    6.250    0.000    0.000    0.000    0.000 
#    0.000    0.000    0.000    0.000    0.000    0.000 
#
# Total GULP energy -198317.418930 kJ/mol
# GULP energy per Si atom -12394.838683 kJ/mol
# Density = 2.525381 g / cm^3
# Si number density = 25.311421 Si / 1000 Ang^3
#
#
#
# Elastic Constant Matrix: (Units=GPa)
#
#
# Indices 1 2 3 4 5 6 
#
# 1 158.5602 41.4757 41.8287 1.8930 -34.3946 -8.9989
# 2 41.4757 64.6445 36.4883 12.1462 -18.5693 10.9072
# 3 41.8287 36.4883 103.4021 17.3369 -7.4285 -16.0797
# 4 1.8930 12.1462 17.3369 39.0593 -3.6948 4.0791
# 5 -34.3946 -18.5693 -7.4285 -3.6948 31.7270 -6.5295
# 6 -8.9989 10.9072 -16.0797 4.0791 -6.5295 33.7707
#
#
#
# Elastic Compliance Matrix: (Units=1/GPa)
#
#
# Indices 1 2 3 4 5 6 
#
# 1 0.010060 -0.004074 -0.001506 0.001827 0.009385 0.004873
# 2 -0.004074 0.027941 -0.009344 -0.002346 0.006808 -0.012959
# 3 -0.001506 -0.009344 0.015988 -0.005389 -0.001819 0.010528
# 4 0.001827 -0.002346 -0.005389 0.029279 0.001828 -0.004504
# 5 0.009385 0.006808 -0.001819 0.001828 0.047180 0.008337
# 6 0.004873 -0.012959 0.010528 -0.004504 0.008337 0.042265
#
#
# Mechanical properties :
#
#
# Convention : Reuss Voigt Hill
#
# Bulk Modulus (GPa) = 41.42616 62.91024 52.16820
# Shear Modulus (GPa) = 23.74085 34.69902 29.21993
#
# Velocity S-wave (km/s) = 3.06592 3.70656 3.40136
# Velocity P-wave (km/s) = 5.37915 6.57469 6.00674
#
# Compressibility (1/GPa) = 0.02413934
#
# Stress axis : x y z
#
# Youngs Moduli (GPa) = 99.40097 35.79010 62.54798
#
# Poissons Ratio (x) = 0.14582 0.09421
# Poissons Ratio (y) = 0.40498 0.58447
# Poissons Ratio (z) = 0.14971 0.33443
#
# Static dielectric constant tensor:
#      x y z
#    x 4.741320 -0.156960 0.149280 
#    y -0.156960 4.511880 0.226330 
#    z 0.149280 0.226330 4.808880 
# 
# 
# High freq. dielectric constant tensor:
#      x y z
#    x 2.026700 -0.008120 0.010070 
#    y -0.008120 2.019450 0.011640 
#    z 0.010070 0.011640 2.004760 
# 
# From -- ./inp_files/434047.got.cif
#   From: 2010.06.25/outbox.cif.g09.slc.cpg/sg2_218_cif.got.tgz:434047.got - 2010.06.27 13:26:56.
