data_PCOD8020111
_publ_section_title
;
Structure prediction by ZEFSAII (Michael W. Deem and Ramdas Pophale) SiO2 
 PCOD8020111
Probable space group: P -1
;
_chemical_formula_sum "Si O2"
_cell_formula_units_Z 16
_cell_length_a 8.488529
_cell_length_b 17.243005
_cell_length_c 6.440582
_cell_angle_alpha 126.623911
_cell_angle_beta 98.232556
_cell_angle_gamma 97.441688
_cell_volume 720.843526
_symmetry_space_group_name_H-M "P -1"
_symmetry_group_IT_number 2
_symmetry_cell_setting 'triclinic'
loop_
_space_group_symop_operation_xyz
x,y,z
-x,-y,-z
loop_
_atom_site_type_symbol
_atom_site_label
_atom_site_fract_x
_atom_site_fract_y
_atom_site_fract_z
Si Si1 0.483557 0.385553 0.326485
Si Si2 0.780794 0.428834 0.731241
Si Si3 0.609142 0.053890 0.794770
Si Si4 0.062764 0.348041 0.813217
Si Si5 0.608972 0.308669 0.859779
Si Si6 0.576971 0.866787 0.762362
Si Si7 0.879776 0.227835 0.956671
Si Si8 0.193283 0.264781 0.341999
O O1 0.500000 0.500000 0.500000
O O2 0.646105 0.370949 0.448004
O O3 0.315941 0.343266 0.347429
O O4 0.466326 0.331699 0.012465
O O5 0.692640 0.409928 0.909987
O O6 0.928981 0.375308 0.676302
O O7 0.845012 0.548285 0.884777
O O8 0.776856 0.113637 0.804675
O O9 0.500000 0.000000 0.500000
O O10 0.644100 0.972956 0.831396
O O11 0.521610 0.124353 0.028295
O O12 0.196465 0.310563 0.645686
O O13 0.980662 0.254498 0.801086
O O14 0.540848 0.214126 0.543276
O O15 0.745851 0.291255 0.019467
O O16 0.742697 0.835037 0.800275
O O17 0.008595 0.250423 0.204023
#
# Coordination Sequence:
#
# PCOD8020111 Si02
#       8
#     2   2   2   2   2   2   2   2
#     4  12  25  38  66 100 138 180 229 269 326 384
#     4  10  22  42  65  95 134 189 225 267 319 396
#     4  11  25  48  76  98 126 170 229 274 337 413
#     4  10  24  42  65  97 140 180 224 270 330 388
#     4  11  23  43  71  95 133 183 226 266 325 401
#     4  11  26  44  74 101 127 173 223 279 339 396
#     4  11  25  42  71  97 132 175 218 277 335 397
#     4  12  26  40  66 101 143 168 219 282 335 385
#
# _framework density 22.196217000000001
#
# number of rings (size 3 to 8) (size 9 to 14) (size 15 to 20)
#    0.000    1.000    2.500    3.000    7.000    1.500 
#    0.000    6.250    0.000    0.000    0.000    0.000 
#    0.000    0.000    0.000    0.000    0.000    0.000 
#
# Total GULP energy -198263.684310 kJ/mol
# GULP energy per Si atom -12391.480269 kJ/mol
# Density = 2.214570 g / cm^3
# Si number density = 22.196217 Si / 1000 Ang^3
#
#
#
# Elastic Constant Matrix: (Units=GPa)
#
#
# Indices 1 2 3 4 5 6 
#
# 1 79.5340 44.0415 72.2457 -2.9795 0.1393 21.5037
# 2 44.0415 144.6533 44.2446 2.8742 -14.0433 26.1079
# 3 72.2457 44.2446 120.4172 1.3611 -14.5354 4.5962
# 4 -2.9795 2.8742 1.3611 20.9840 1.5481 4.8612
# 5 0.1393 -14.0433 -14.5354 1.5481 51.4544 -7.6476
# 6 21.5037 26.1079 4.5962 4.8612 -7.6476 48.9185
#
#
#
# Elastic Compliance Matrix: (Units=1/GPa)
#
#
# Indices 1 2 3 4 5 6 
#
# 1 0.042449 -0.003451 -0.025021 0.012996 -0.011116 -0.017497
# 2 -0.003451 0.008930 -0.000872 -0.001150 0.001823 -0.002768
# 3 -0.025021 -0.000872 0.024340 -0.008279 0.008642 0.011351
# 4 0.012996 -0.001150 -0.008279 0.053061 -0.005846 -0.010508
# 5 -0.011116 0.001823 0.008642 -0.005846 0.023677 0.007384
# 6 -0.017497 -0.002768 0.011351 -0.010508 0.007384 0.030743
#
#
# Mechanical properties :
#
#
# Convention : Reuss Voigt Hill
#
# Bulk Modulus (GPa) = 58.71438 73.96313 66.33876
# Shear Modulus (GPa) = 20.19693 36.54289 28.36991
#
# Velocity S-wave (km/s) = 3.01977 4.06193 3.57899
# Velocity P-wave (km/s) = 6.21840 7.44270 6.85793
#
# Compressibility (1/GPa) = 0.01703160
#
# Stress axis : x y z
#
# Youngs Moduli (GPa) = 23.55785 111.98436 41.08502
#
# Poissons Ratio (x) = 0.38641 1.02797
# Poissons Ratio (y) = 0.08129 0.03583
# Poissons Ratio (z) = 0.58943 0.09766
#
# Static dielectric constant tensor:
#      x y z
#    x 4.921720 -3.670280 -0.634590 
#    y -3.670280 23.055630 4.675800 
#    z -0.634590 4.675800 5.344980 
# 
# 
# High freq. dielectric constant tensor:
#      x y z
#    x 1.878670 0.002540 0.002010 
#    y 0.002540 1.888010 -0.013740 
#    z 0.002010 -0.013740 1.861890 
# 
# From -- ./inp_files/49354.got.cif
#   From: 2010.06.25/outbox.cif.g09.slc.cpg/sg2_25_cif.got.tgz:49354.got - 2010.06.27 13:26:56.
