data_PCOD8020694
_publ_section_title
;
Structure prediction by ZEFSAII (Michael W. Deem and Ramdas Pophale) SiO2 
 PCOD8020694
Probable space group: P -1
;
_chemical_formula_sum "Si O2"
_cell_formula_units_Z 16
_cell_length_a 11.944358
_cell_length_b 17.280775
_cell_length_c 9.153702
_cell_angle_alpha 28.732057
_cell_angle_beta 61.364709
_cell_angle_gamma 51.994197
_cell_volume 706.413044
_symmetry_space_group_name_H-M "P -1"
_symmetry_group_IT_number 2
_symmetry_cell_setting 'triclinic'
loop_
_space_group_symop_operation_xyz
x,y,z
-x,-y,-z
loop_
_atom_site_type_symbol
_atom_site_label
_atom_site_fract_x
_atom_site_fract_y
_atom_site_fract_z
Si Si1 0.749284 0.351448 0.329725
Si Si2 0.672664 0.562671 0.746675
Si Si3 0.511026 0.267769 0.685258
Si Si4 0.020753 0.993746 0.668425
Si Si5 0.071289 0.616018 0.328636
Si Si6 0.246466 0.413903 0.811153
Si Si7 0.407058 0.090114 0.628293
Si Si8 0.298468 0.029844 0.497988
O O1 0.654181 0.286927 0.593844
O O2 0.760578 0.512016 0.144433
O O3 0.668686 0.430990 0.094166
O O4 0.908093 0.185512 0.488229
O O5 0.530351 0.670248 0.559801
O O6 0.791916 0.433648 0.774845
O O7 0.702137 0.717489 0.550444
O O8 0.391124 0.385369 0.684801
O O9 0.546645 0.058804 0.026214
O O10 0.183438 0.954216 0.672284
O O11 0.984574 0.835538 0.015194
O O12 0.000000 0.000000 0.500000
O O13 0.109592 0.557099 0.569747
O O14 0.000000 0.500000 0.500000
O O15 0.236733 0.227367 0.135810
O O16 0.325880 0.037835 0.639629
O O17 0.547625 0.102056 0.455363
#
# Coordination Sequence:
#
# PCOD8020694 Si02
#       8
#     2   2   2   2   2   2   2   2
#     4  12  25  42  68 101 137 182 224 277 342 404
#     4  11  23  43  67 100 128 185 226 279 343 394
#     4  10  24  41  67 103 138 171 233 286 331 397
#     4  12  27  44  66 102 137 181 224 279 340 408
#     4  11  26  46  68  95 138 178 222 281 342 404
#     4  10  23  45  67  97 134 182 220 282 336 395
#     4  10  22  42  72 100 130 184 223 288 335 391
#     4  10  23  44  68  99 142 173 228 278 339 402
#
# _framework density 22.649637999999999
#
# number of rings (size 3 to 8) (size 9 to 14) (size 15 to 20)
#    0.000    1.250    2.500    1.875    5.250    4.000 
#    0.000    0.000    0.000    0.000    0.000    0.000 
#    0.000    0.000    0.000    0.000    0.000    0.000 
#
# Total GULP energy -198363.155168 kJ/mol
# GULP energy per Si atom -12397.697198 kJ/mol
# Density = 2.259809 g / cm^3
# Si number density = 22.649638 Si / 1000 Ang^3
#
#
#
# Elastic Constant Matrix: (Units=GPa)
#
#
# Indices 1 2 3 4 5 6 
#
# 1 102.9088 16.0927 26.2158 10.1582 -3.3562 0.0979
# 2 16.0927 63.2968 21.0734 -7.2199 5.2654 18.6851
# 3 26.2158 21.0734 108.2331 -0.6202 11.5846 -0.4561
# 4 10.1582 -7.2199 -0.6202 30.4376 4.5526 0.0896
# 5 -3.3562 5.2654 11.5846 4.5526 39.9759 2.3314
# 6 0.0979 18.6851 -0.4561 0.0896 2.3314 24.5541
#
#
#
# Elastic Compliance Matrix: (Units=1/GPa)
#
#
# Indices 1 2 3 4 5 6 
#
# 1 0.011481 -0.003662 -0.002362 -0.005140 0.002572 0.002472
# 2 -0.003662 0.024417 -0.003665 0.007326 -0.002220 -0.018450
# 3 -0.002362 -0.003665 0.010877 0.000599 -0.003128 0.003295
# 4 -0.005140 0.007326 0.000599 0.037157 -0.005501 -0.005156
# 5 0.002572 -0.002220 -0.003128 -0.005501 0.027111 -0.000933
# 6 0.002472 -0.018450 0.003295 -0.005156 -0.000933 0.054925
#
#
# Mechanical properties :
#
#
# Convention : Reuss Voigt Hill
#
# Bulk Modulus (GPa) = 36.50272 44.57805 40.54039
# Shear Modulus (GPa) = 25.70979 33.06399 29.38689
#
# Velocity S-wave (km/s) = 3.37279 3.82488 3.60593
# Velocity P-wave (km/s) = 5.59633 6.26343 5.93925
#
# Compressibility (1/GPa) = 0.02739522
#
# Stress axis : x y z
#
# Youngs Moduli (GPa) = 87.10236 40.95590 91.93573
#
# Poissons Ratio (x) = 0.15000 0.21716
# Poissons Ratio (y) = 0.31901 0.33695
# Poissons Ratio (z) = 0.20574 0.15011
#
# Static dielectric constant tensor:
#      x y z
#    x 3.977160 -0.103510 0.202320 
#    y -0.103510 4.144310 -0.038680 
#    z 0.202320 -0.038680 4.229990 
# 
# 
# High freq. dielectric constant tensor:
#      x y z
#    x 1.880590 0.009760 0.009610 
#    y 0.009760 1.887770 -0.001320 
#    z 0.009610 -0.001320 1.907070 
# 
# From -- ./inp_files/278663.got.cif
#   From: 2010.06.25/outbox.cif.g09.slc.cpg/sg2_140_cif.got.tgz:278663.got - 2010.06.27 13:26:56.
