data_PCOD8020956
_publ_section_title
;
Structure prediction by ZEFSAII (Michael W. Deem and Ramdas Pophale) SiO2 
 PCOD8020956
Probable space group: P -1
;
_chemical_formula_sum "Si O2"
_cell_formula_units_Z 16
_cell_length_a 9.220759
_cell_length_b 10.181099
_cell_length_c 17.493022
_cell_angle_alpha 33.386635
_cell_angle_beta 119.838894
_cell_angle_gamma 112.255848
_cell_volume 781.555547
_symmetry_space_group_name_H-M "P -1"
_symmetry_group_IT_number 2
_symmetry_cell_setting 'triclinic'
loop_
_space_group_symop_operation_xyz
x,y,z
-x,-y,-z
loop_
_atom_site_type_symbol
_atom_site_label
_atom_site_fract_x
_atom_site_fract_y
_atom_site_fract_z
Si Si1 0.071813 0.419284 0.639749
Si Si2 0.180777 0.494908 0.088148
Si Si3 0.653292 0.014505 0.092062
Si Si4 0.507103 0.665929 0.848384
Si Si5 0.808111 0.262417 0.356206
Si Si6 0.137317 0.280185 0.342862
Si Si7 0.452723 0.123079 0.705847
Si Si8 0.251036 0.562418 0.369764
O O1 0.220634 0.216488 0.773357
O O2 0.137058 0.646296 0.591031
O O3 0.000000 0.500000 0.500000
O O4 0.923319 0.321848 0.698555
O O5 0.311339 0.359771 0.130046
O O6 0.163698 0.334767 0.235555
O O7 0.000000 0.500000 0.000000
O O8 0.243179 0.751793 0.003887
O O9 0.582736 0.017367 0.157936
O O10 0.500000 0.000000 0.000000
O O11 0.367185 0.597868 0.783203
O O12 0.457725 0.939177 0.726633
O O13 0.500000 0.500000 0.000000
O O14 0.942381 0.304114 0.304524
O O15 0.782122 0.984554 0.492347
O O16 0.236951 0.464631 0.328198
O O17 0.315141 0.343621 0.548683
O O18 0.633390 0.221971 0.709927
#
# Coordination Sequence:
#
# PCOD8020956 Si02
#       8
#     2   2   2   2   2   2   2   2
#     4  11  24  41  71 101 133 179 231 279 341 407
#     4  12  28  43  68  99 136 177 231 286 341 411
#     4  12  26  47  67  98 144 184 227 281 349 414
#     4  12  24  44  68  99 136 180 221 272 354 410
#     4  10  23  42  71  97 134 176 222 276 344 411
#     4  10  22  44  67  94 135 169 224 277 341 395
#     4  11  23  42  70  92 138 174 226 275 347 402
#     4  10  22  43  66 102 127 177 224 285 329 411
#
# _framework density 20.471993000000001
#
# number of rings (size 3 to 8) (size 9 to 14) (size 15 to 20)
#    0.000    1.000    3.750    2.250    3.500    0.500 
#    0.000    1.875    0.000    0.000    0.000    0.000 
#    0.000    0.000    0.000    0.000    0.000    0.000 
#
# Total GULP energy -198436.280056 kJ/mol
# GULP energy per Si atom -12402.267504 kJ/mol
# Density = 2.042540 g / cm^3
# Si number density = 20.471993 Si / 1000 Ang^3
#
#
#
# Elastic Constant Matrix: (Units=GPa)
#
#
# Indices 1 2 3 4 5 6 
#
# 1 117.7901 63.4277 61.0101 14.8147 8.1112 -0.0237
# 2 63.4277 107.5009 37.4390 13.3800 0.7156 2.0791
# 3 61.0101 37.4390 89.5022 16.6038 -0.3721 2.5798
# 4 14.8147 13.3800 16.6038 41.5677 0.4311 1.5715
# 5 8.1112 0.7156 -0.3721 0.4311 41.8836 2.6225
# 6 -0.0237 2.0791 2.5798 1.5715 2.6225 42.7265
#
#
#
# Elastic Compliance Matrix: (Units=1/GPa)
#
#
# Indices 1 2 3 4 5 6 
#
# 1 0.016996 -0.006970 -0.008647 -0.000367 -0.003314 0.001088
# 2 -0.006970 0.013879 -0.000719 -0.001684 0.001164 -0.000645
# 3 -0.008647 -0.000719 0.018132 -0.003910 0.001953 -0.001041
# 4 -0.000367 -0.001684 -0.003910 0.026318 -0.000166 -0.000640
# 5 -0.003314 0.001164 0.001953 -0.000166 0.024622 -0.001682
# 6 0.001088 -0.000645 -0.001041 -0.000640 -0.001682 0.023626
#
#
# Mechanical properties :
#
#
# Convention : Reuss Voigt Hill
#
# Bulk Modulus (GPa) = 61.21739 70.94964 66.08351
# Shear Modulus (GPa) = 30.92341 35.42999 33.17670
#
# Velocity S-wave (km/s) = 3.89076 4.16463 4.03002
# Velocity P-wave (km/s) = 7.08180 7.60642 7.34880
#
# Compressibility (1/GPa) = 0.01633523
#
# Stress axis : x y z
#
# Youngs Moduli (GPa) = 58.83658 72.04981 55.15244
#
# Poissons Ratio (x) = 0.50218 0.47692
# Poissons Ratio (y) = 0.41009 0.03964
# Poissons Ratio (z) = 0.50877 0.05179
#
# Static dielectric constant tensor:
#      x y z
#    x 3.915520 0.050010 0.091330 
#    y 0.050010 3.911260 0.093960 
#    z 0.091330 0.093960 3.665460 
# 
# 
# High freq. dielectric constant tensor:
#      x y z
#    x 1.809640 0.002170 0.005170 
#    y 0.002170 1.815790 0.005380 
#    z 0.005170 0.005380 1.799280 
# 
# From -- ./inp_files/299171.got.cif
#   From: 2010.06.25/outbox.cif.g09.slc.cpg/sg2_150_cif.got.tgz:299171.got - 2010.06.27 13:26:56.
