data_PCOD8020768
_publ_section_title
;
Structure prediction by ZEFSAII (Michael W. Deem and Ramdas Pophale) SiO2 
 PCOD8020768
Probable space group: P -1
;
_chemical_formula_sum "Si O2"
_cell_formula_units_Z 12
_cell_length_a 11.625729
_cell_length_b 5.354680
_cell_length_c 11.807949
_cell_angle_alpha 118.904909
_cell_angle_beta 50.806351
_cell_angle_gamma 108.784404
_cell_volume 498.570692
_symmetry_space_group_name_H-M "P -1"
_symmetry_group_IT_number 2
_symmetry_cell_setting 'triclinic'
loop_
_space_group_symop_operation_xyz
x,y,z
-x,-y,-z
loop_
_atom_site_type_symbol
_atom_site_label
_atom_site_fract_x
_atom_site_fract_y
_atom_site_fract_z
Si Si1 0.082394 0.710416 0.409354
Si Si2 0.598829 0.320545 0.740802
Si Si3 0.546615 0.671272 0.395485
Si Si4 0.599794 0.864446 0.000710
Si Si5 0.901033 0.802193 0.868261
Si Si6 0.124705 0.264614 0.873583
O O1 0.237620 0.810161 0.395012
O O2 0.088833 0.526255 0.249580
O O3 0.000000 0.500000 0.500000
O O4 0.000000 0.000000 0.500000
O O5 0.541870 0.454166 0.686923
O O6 0.475108 0.096785 0.819342
O O7 0.616636 0.540576 0.880570
O O8 0.500000 0.500000 0.500000
O O9 0.724084 0.643216 0.265044
O O10 0.500000 0.000000 0.500000
O O11 0.771207 0.978297 0.922340
O O12 0.500000 0.000000 0.000000
O O13 0.839994 0.800417 0.033291
O O14 0.056545 0.975177 0.794422
O O15 0.000000 0.500000 0.000000
#
# Coordination Sequence:
#
# PCOD8020768 Si02
#       6
#     2   2   2   2   2   2
#     4  11  28  47  75 109 155 198 250 321 391 469
#     4  10  25  45  69 110 138 201 248 314 385 458
#     4  12  31  51  76 112 162 210 258 323 397 471
#     4  10  22  42  78 103 144 182 255 327 373 451
#     4  10  25  47  74 115 145 200 267 318 393 463
#     4  11  27  46  81 109 156 210 265 325 382 481
#
# _framework density 24.068804
#
# number of rings (size 3 to 8) (size 9 to 14) (size 15 to 20)
#    0.000    1.333    1.667    0.000   18.667    0.000 
#    0.000    0.000    0.000    0.000    0.000    0.000 
#    0.000    0.000    0.000    0.000    0.000    0.000 
#
# Total GULP energy -148663.839356 kJ/mol
# GULP energy per Si atom -12388.653280 kJ/mol
# Density = 2.401402 g / cm^3
# Si number density = 24.068804 Si / 1000 Ang^3
#
#
#
# Elastic Constant Matrix: (Units=GPa)
#
#
# Indices 1 2 3 4 5 6 
#
# 1 195.1135 67.5342 83.2189 -13.1754 -22.5955 -4.3228
# 2 67.5342 113.1544 61.9874 -14.6290 -13.4509 -11.2443
# 3 83.2189 61.9874 117.7824 -21.3682 -20.3952 4.6633
# 4 -13.1754 -14.6290 -21.3682 43.9382 -4.1477 -1.9380
# 5 -22.5955 -13.4509 -20.3952 -4.1477 50.6551 -0.0282
# 6 -4.3228 -11.2443 4.6633 -1.9380 -0.0282 44.3163
#
#
#
# Elastic Compliance Matrix: (Units=1/GPa)
#
#
# Indices 1 2 3 4 5 6 
#
# 1 0.007825 -0.002170 -0.004266 -0.000312 0.001171 0.000649
# 2 -0.002170 0.013810 -0.005515 0.001496 0.000603 0.003939
# 3 -0.004266 -0.005515 0.016021 0.004859 0.003479 -0.003287
# 4 -0.000312 0.001496 0.004859 0.025980 0.004343 0.000977
# 5 0.001171 0.000603 0.003479 0.004343 0.022181 0.000105
# 6 0.000649 0.003939 -0.003287 0.000977 0.000105 0.024016
#
#
# Mechanical properties :
#
#
# Convention : Reuss Voigt Hill
#
# Bulk Modulus (GPa) = 72.70454 94.61460 83.65957
# Shear Modulus (GPa) = 36.14807 42.00256 39.07532
#
# Velocity S-wave (km/s) = 3.87959 4.18198 4.03362
# Velocity P-wave (km/s) = 7.09513 7.91921 7.51847
#
# Compressibility (1/GPa) = 0.01375430
#
# Stress axis : x y z
#
# Youngs Moduli (GPa) = 127.80011 72.41011 62.41711
#
# Poissons Ratio (x) = 0.15710 0.26628
# Poissons Ratio (y) = 0.27727 0.34425
# Poissons Ratio (z) = 0.54520 0.39936
#
# Static dielectric constant tensor:
#      x y z
#    x 4.790340 0.355020 0.021220 
#    y 0.355020 4.147400 -0.261080 
#    z 0.021220 -0.261080 4.373710 
# 
# 
# High freq. dielectric constant tensor:
#      x y z
#    x 1.979290 0.006230 -0.005020 
#    y 0.006230 1.936770 -0.003760 
#    z -0.005020 -0.003760 1.961920 
# 
# From -- ./inp_files/409630.got.cif
#   From: 2010.06.25/outbox.cif.g09.slc.cpg/sg2_205_cif.got.tgz:409630.got - 2010.06.27 13:26:56.
