data_PCOD8020415
_publ_section_title
;
Structure prediction by ZEFSAII (Michael W. Deem and Ramdas Pophale) SiO2 
 PCOD8020415
Probable space group: P -1
;
_chemical_formula_sum "Si O2"
_cell_formula_units_Z 16
_cell_length_a 18.082724
_cell_length_b 21.786521
_cell_length_c 5.193381
_cell_angle_alpha 73.434575
_cell_angle_beta 72.125874
_cell_angle_gamma 22.436825
_cell_volume 743.182685
_symmetry_space_group_name_H-M "P -1"
_symmetry_group_IT_number 2
_symmetry_cell_setting 'triclinic'
loop_
_space_group_symop_operation_xyz
x,y,z
-x,-y,-z
loop_
_atom_site_type_symbol
_atom_site_label
_atom_site_fract_x
_atom_site_fract_y
_atom_site_fract_z
Si Si1 0.399567 0.258922 0.667178
Si Si2 0.944631 0.395284 0.987397
Si Si3 0.938895 0.973200 0.107709
Si Si4 0.035259 0.364281 0.424761
Si Si5 0.692541 0.146606 0.663349
Si Si6 0.695291 0.392411 0.937289
Si Si7 0.717192 0.698509 0.762507
Si Si8 0.658981 0.500812 0.347641
O O1 0.562189 0.185631 0.668249
O O2 0.440757 0.193104 0.428827
O O3 0.189940 0.452042 0.638675
O O4 0.392623 0.210057 0.957614
O O5 0.051293 0.298944 0.715511
O O6 0.853067 0.533038 0.833209
O O7 0.108292 0.278033 0.179198
O O8 0.784531 0.465748 0.159772
O O9 0.125053 0.789662 0.077542
O O10 0.861782 0.022249 0.420514
O O11 0.779536 0.073131 0.944655
O O12 0.000000 0.000000 0.000000
O O13 0.152471 0.339163 0.401173
O O14 0.565672 0.307447 0.618745
O O15 0.714191 0.433706 0.652480
O O16 0.500000 0.500000 0.000000
O O17 0.693415 0.420649 0.194719
#
# Coordination Sequence:
#
# PCOD8020415 Si02
#       8
#     2   2   2   2   2   2   2   2
#     4  10  18  29  48  82 122 164 204 242 319 367
#     4  10  18  29  48  82 122 164 204 242 319 367
#     4  12  27  47  67  93 126 164 215 260 328 395
#     4  10  17  28  47  79 136 171 198 250 317 373
#     4  12  23  40  68  95 129 168 207 267 322 381
#     4  12  27  47  67  93 126 164 215 260 328 395
#     4  10  17  28  47  79 136 171 198 250 317 373
#     4  12  23  40  68  95 129 168 207 267 322 381
#
# _framework density 21.529026000000002
#
# number of rings (size 3 to 8) (size 9 to 14) (size 15 to 20)
#    0.000    1.000    2.500    9.000    3.500    0.000 
#    0.000    0.000    0.000    0.000    0.000    0.000 
#    0.000  116.000    0.000    0.000    0.000    0.000 
#
# Total GULP energy -198221.572095 kJ/mol
# GULP energy per Si atom -12388.848256 kJ/mol
# Density = 2.148003 g / cm^3
# Si number density = 21.529026 Si / 1000 Ang^3
#
#
#
# Elastic Constant Matrix: (Units=GPa)
#
#
# Indices 1 2 3 4 5 6 
#
# 1 100.7737 28.0917 39.9509 6.4283 6.7159 -16.9850
# 2 28.0917 86.4053 15.9902 0.3255 1.3495 9.5516
# 3 39.9509 15.9902 162.5294 7.4942 24.2210 -7.3825
# 4 6.4283 0.3255 7.4942 25.5175 -2.9245 4.4370
# 5 6.7159 1.3495 24.2210 -2.9245 45.0392 6.1956
# 6 -16.9850 9.5516 -7.3825 4.4370 6.1956 21.5914
#
#
#
# Elastic Compliance Matrix: (Units=1/GPa)
#
#
# Indices 1 2 3 4 5 6 
#
# 1 0.016232 -0.006895 -0.001514 -0.007189 -0.004346 0.018026
# 2 -0.006895 0.015613 -0.001277 0.004900 0.003602 -0.014808
# 3 -0.001514 -0.001277 0.007655 -0.003062 -0.004593 0.003939
# 4 -0.007189 0.004900 -0.003062 0.046428 0.008453 -0.020836
# 5 -0.004346 0.003602 -0.004593 0.008453 0.028012 -0.016358
# 6 0.018026 -0.014808 0.003939 -0.020836 -0.016358 0.077368
#
#
# Mechanical properties :
#
#
# Convention : Reuss Voigt Hill
#
# Bulk Modulus (GPa) = 49.67687 57.53046 53.60367
# Shear Modulus (GPa) = 23.00025 36.14131 29.57078
#
# Velocity S-wave (km/s) = 3.27209 4.10167 3.71014
# Velocity P-wave (km/s) = 6.11554 7.01512 6.58072
#
# Compressibility (1/GPa) = 0.02013009
#
# Stress axis : x y z
#
# Youngs Moduli (GPa) = 61.60796 64.04741 130.63343
#
# Poissons Ratio (x) = 0.44159 0.19772
# Poissons Ratio (y) = 0.42477 0.16678
# Poissons Ratio (z) = 0.09325 0.08177
#
# Static dielectric constant tensor:
#      x y z
#    x 4.174600 -0.115400 0.661040 
#    y -0.115400 3.246910 0.364060 
#    z 0.661040 0.364060 5.373740 
# 
# 
# High freq. dielectric constant tensor:
#      x y z
#    x 1.858680 -0.013890 0.015950 
#    y -0.013890 1.782040 0.015700 
#    z 0.015950 0.015700 1.887060 
# 
# From -- ./inp_files/112344.got.cif
#   From: 2010.06.25/outbox.cif.g09.slc.cpg/sg2_57_cif.got.tgz:112344.got - 2010.06.27 13:26:56.
