data_PCOD8020033
_publ_section_title
;
Structure prediction by ZEFSAII (Michael W. Deem and Ramdas Pophale) SiO2 
 PCOD8020033
Probable space group: P -1
;
_chemical_formula_sum "Si O2"
_cell_formula_units_Z 16
_cell_length_a 14.882528
_cell_length_b 14.882012
_cell_length_c 11.612353
_cell_angle_alpha 56.420257
_cell_angle_beta 38.440333
_cell_angle_gamma 29.149139
_cell_volume 702.228485
_symmetry_space_group_name_H-M "P -1"
_symmetry_group_IT_number 2
_symmetry_cell_setting 'triclinic'
loop_
_space_group_symop_operation_xyz
x,y,z
-x,-y,-z
loop_
_atom_site_type_symbol
_atom_site_label
_atom_site_fract_x
_atom_site_fract_y
_atom_site_fract_z
Si Si1 0.167136 0.652981 0.281487
Si Si2 0.608964 0.588171 0.171580
Si Si3 0.779804 0.772775 0.246816
Si Si4 0.260098 0.389132 0.760491
Si Si5 0.744055 0.759413 0.553198
Si Si6 0.585813 0.520321 0.592964
Si Si7 0.979833 0.004821 0.151880
Si Si8 0.476457 0.302511 0.073043
O O1 0.322971 0.554298 0.315548
O O2 0.388566 0.478221 0.083074
O O3 0.923364 0.721175 0.482139
O O4 0.017229 0.858985 0.258715
O O5 0.532682 0.713385 0.268561
O O6 0.458833 0.568928 0.354337
O O7 0.509214 0.710605 0.069520
O O8 0.938524 0.363419 0.996105
O O9 0.636101 0.764058 0.328751
O O10 0.851795 0.689887 0.363070
O O11 0.571788 0.003527 0.294705
O O12 0.194480 0.545907 0.651368
O O13 0.000000 0.500000 0.000000
O O14 0.749549 0.635740 0.689838
O O15 0.310752 0.765367 0.680537
O O16 0.223902 0.919584 0.024069
O O17 0.000000 0.000000 0.000000
#
# Coordination Sequence:
#
# PCOD8020033 Si02
#       8
#     2   2   2   2   2   2   2   2
#     4  12  24  40  64 105 139 172 220 276 341 405
#     4  11  23  43  68  93 134 178 231 269 326 402
#     4  10  22  42  64  99 129 177 226 272 334 404
#     4  10  24  44  72  93 127 183 231 271 330 396
#     4  11  24  37  67  98 139 169 218 281 342 393
#     4  12  24  44  71  97 134 177 223 280 339 391
#     4  12  25  40  67 102 143 174 213 276 343 405
#     4  12  23  40  61 101 136 179 220 274 335 398
#
# _framework density 22.784606
#
# number of rings (size 3 to 8) (size 9 to 14) (size 15 to 20)
#    0.000    0.750    3.750    4.125    7.000    0.000 
#    0.000    1.250    8.250    0.000    0.000    0.000 
#    0.000    0.000    0.000    0.000    0.000    0.000 
#
# Total GULP energy -198379.464706 kJ/mol
# GULP energy per Si atom -12398.716544 kJ/mol
# Density = 2.273275 g / cm^3
# Si number density = 22.784606 Si / 1000 Ang^3
#
#
#
# Elastic Constant Matrix: (Units=GPa)
#
#
# Indices 1 2 3 4 5 6 
#
# 1 160.1818 35.6310 28.2606 -20.8729 -2.2237 -3.0057
# 2 35.6310 96.6562 25.8247 -18.0568 -6.0890 -9.2504
# 3 28.2606 25.8247 80.8249 -28.3983 -11.8342 3.4013
# 4 -20.8729 -18.0568 -28.3983 41.3958 -2.4166 -8.1311
# 5 -2.2237 -6.0890 -11.8342 -2.4166 31.4315 -4.7343
# 6 -3.0057 -9.2504 3.4013 -8.1311 -4.7343 35.4121
#
#
#
# Elastic Compliance Matrix: (Units=1/GPa)
#
#
# Indices 1 2 3 4 5 6 
#
# 1 0.007156 -0.001855 -0.001202 0.002113 -0.000035 0.000719
# 2 -0.001855 0.012996 -0.001620 0.004746 0.002874 0.004867
# 3 -0.001202 -0.001620 0.018705 0.012278 0.007820 0.001543
# 4 0.002113 0.004746 0.012278 0.038357 0.010209 0.010412
# 5 -0.000035 0.002874 0.007820 0.010209 0.037200 0.007314
# 6 0.000719 0.004867 0.001543 0.010412 0.007314 0.032792
#
#
# Mechanical properties :
#
#
# Convention : Reuss Voigt Hill
#
# Bulk Modulus (GPa) = 33.89691 57.45506 45.67598
# Shear Modulus (GPa) = 30.04893 38.17765 34.11329
#
# Velocity S-wave (km/s) = 3.63550 4.09784 3.87357
# Velocity P-wave (km/s) = 5.70368 6.90370 6.33218
#
# Compressibility (1/GPa) = 0.02950122
#
# Stress axis : x y z
#
# Youngs Moduli (GPa) = 139.74058 76.94539 53.46287
#
# Poissons Ratio (x) = 0.14277 0.06427
# Poissons Ratio (y) = 0.25928 0.08663
# Poissons Ratio (z) = 0.16798 0.12468
#
# Static dielectric constant tensor:
#      x y z
#    x 4.579210 0.024670 -0.186150 
#    y 0.024670 3.991120 -0.114270 
#    z -0.186150 -0.114270 4.172000 
# 
# 
# High freq. dielectric constant tensor:
#      x y z
#    x 1.916600 -0.005180 -0.018410 
#    y -0.005180 1.887660 -0.018710 
#    z -0.018410 -0.018710 1.900520 
# 
# From -- ./inp_files/419193.got.cif
#   From: 2010.06.25/outbox.cif.g09.slc.cpg/sg2_210_cif.got.tgz:419193.got - 2010.06.27 13:26:56.
