data_PCOD8020789
_publ_section_title
;
Structure prediction by ZEFSAII (Michael W. Deem and Ramdas Pophale) SiO2 
 PCOD8020789
Probable space group: P -1
;
_chemical_formula_sum "Si O2"
_cell_formula_units_Z 14
_cell_length_a 11.658894
_cell_length_b 16.961226
_cell_length_c 9.448609
_cell_angle_alpha 69.135950
_cell_angle_beta 108.575587
_cell_angle_gamma 158.166855
_cell_volume 648.931768
_symmetry_space_group_name_H-M "P -1"
_symmetry_group_IT_number 2
_symmetry_cell_setting 'triclinic'
loop_
_space_group_symop_operation_xyz
x,y,z
-x,-y,-z
loop_
_atom_site_type_symbol
_atom_site_label
_atom_site_fract_x
_atom_site_fract_y
_atom_site_fract_z
Si Si1 0.141397 0.638352 0.333537
Si Si2 0.319552 0.909932 0.624791
Si Si3 0.634019 0.498354 0.511042
Si Si4 0.289196 0.478446 0.803578
Si Si5 0.645201 0.768015 0.184989
Si Si6 0.041786 0.456456 0.155547
Si Si7 0.864143 0.803157 0.001007
O O1 0.175087 0.586302 0.265905
O O2 0.000000 0.500000 0.500000
O O3 0.922011 0.573643 0.231023
O O4 0.483076 0.893249 0.340057
O O5 0.979901 0.720771 0.566645
O O6 0.275379 0.798019 0.776611
O O7 0.500000 0.000000 0.500000
O O8 0.500000 0.500000 0.500000
O O9 0.629768 0.480280 0.355030
O O10 0.400345 0.282211 0.634054
O O11 0.125247 0.291037 0.927195
O O12 0.606854 0.686773 0.881043
O O13 0.294641 0.554231 0.127780
O O14 0.823535 0.809016 0.143026
O O15 0.818804 0.967388 0.096763
O O16 0.000000 0.500000 0.000000
#
# Coordination Sequence:
#
# PCOD8020789 Si02
#       7
#     2   2   2   2   2   2   2
#     4  12  24  44  71 100 133 184 229 271 339 412
#     4  11  23  44  69  95 133 180 221 277 334 400
#     4  11  22  40  66  96 131 168 224 280 328 388
#     4  11  23  41  67  96 130 173 227 273 330 409
#     4  10  22  43  62  94 132 171 217 276 332 400
#     4  11  25  42  66 102 135 167 228 280 331 400
#     4  10  23  42  67  92 133 177 217 268 348 404
#
# _framework density 21.573917000000002
#
# number of rings (size 3 to 8) (size 9 to 14) (size 15 to 20)
#    0.000    1.143    4.286    1.714    2.000    3.429 
#    2.571    0.000    0.000    0.000    0.000    0.000 
#    0.000    0.000    0.000    0.000    0.000    0.000 
#
# Total GULP energy -173464.288298 kJ/mol
# GULP energy per Si atom -12390.306307 kJ/mol
# Density = 2.152481 g / cm^3
# Si number density = 21.573917 Si / 1000 Ang^3
#
#
#
# Elastic Constant Matrix: (Units=GPa)
#
#
# Indices 1 2 3 4 5 6 
#
# 1 65.9657 22.7582 7.6267 -13.6303 15.7488 4.2352
# 2 22.7582 127.1582 53.6450 -34.5128 -0.1342 -14.7886
# 3 7.6267 53.6450 112.5817 -20.7287 16.7753 -0.0459
# 4 -13.6303 -34.5128 -20.7287 39.6087 -6.4097 0.1259
# 5 15.7488 -0.1342 16.7753 -6.4097 37.7637 2.4082
# 6 4.2352 -14.7886 -0.0459 0.1259 2.4082 38.1839
#
#
#
# Elastic Compliance Matrix: (Units=1/GPa)
#
#
# Indices 1 2 3 4 5 6 
#
# 1 0.019065 -0.003980 0.002398 0.003011 -0.008319 -0.003139
# 2 -0.003980 0.013918 -0.005549 0.008694 0.005302 0.005462
# 3 0.002398 -0.005549 0.012579 0.001574 -0.006212 -0.002014
# 4 0.003011 0.008694 0.001574 0.035305 0.003898 0.002673
# 5 -0.008319 0.005302 -0.006212 0.003898 0.033335 0.000853
# 6 -0.003139 0.005462 -0.002014 0.002673 0.000853 0.028588
#
#
# Mechanical properties :
#
#
# Convention : Reuss Voigt Hill
#
# Bulk Modulus (GPa) = 31.95037 52.64059 42.29548
# Shear Modulus (GPa) = 29.85309 37.88966 33.87137
#
# Velocity S-wave (km/s) = 3.72393 4.19534 3.96664
# Velocity P-wave (km/s) = 5.77339 6.92249 6.37389
#
# Compressibility (1/GPa) = 0.03129854
#
# Stress axis : x y z
#
# Youngs Moduli (GPa) = 52.45182 71.84716 79.49851
#
# Poissons Ratio (x) = 0.28597 -0.19062
# Poissons Ratio (y) = 0.20877 0.44117
# Poissons Ratio (z) = -0.12577 0.39871
#
# Static dielectric constant tensor:
#      x y z
#    x 3.836570 0.095590 0.252760 
#    y 0.095590 4.114900 -0.254930 
#    z 0.252760 -0.254930 3.880120 
# 
# 
# High freq. dielectric constant tensor:
#      x y z
#    x 1.849250 0.002240 0.008300 
#    y 0.002240 1.843730 -0.019670 
#    z 0.008300 -0.019670 1.863370 
# 
# From -- ./inp_files/279324.got.cif
#   From: 2010.06.25/outbox.cif.g09.slc.cpg/sg2_140_cif.got.tgz:279324.got - 2010.06.27 13:26:56.
