data_PCOD8020638
_publ_section_title
;
Structure prediction by ZEFSAII (Michael W. Deem and Ramdas Pophale) SiO2 
 PCOD8020638
Probable space group: P -1
;
_chemical_formula_sum "Si O2"
_cell_formula_units_Z 14
_cell_length_a 11.887960
_cell_length_b 11.543627
_cell_length_c 14.833000
_cell_angle_alpha 127.335537
_cell_angle_beta 150.936345
_cell_angle_gamma 38.974064
_cell_volume 603.899728
_symmetry_space_group_name_H-M "P -1"
_symmetry_group_IT_number 2
_symmetry_cell_setting 'triclinic'
loop_
_space_group_symop_operation_xyz
x,y,z
-x,-y,-z
loop_
_atom_site_type_symbol
_atom_site_label
_atom_site_fract_x
_atom_site_fract_y
_atom_site_fract_z
Si Si1 0.378286 0.608774 0.611502
Si Si2 0.090001 0.785901 0.028405
Si Si3 0.880271 0.262000 0.693118
Si Si4 0.158200 0.155720 0.307888
Si Si5 0.203058 0.923367 0.885008
Si Si6 0.225317 0.431010 0.543905
Si Si7 0.256480 0.391847 0.989117
O O1 0.600154 0.391818 0.626484
O O2 0.206891 0.751568 0.475481
O O3 0.165505 0.605938 0.531378
O O4 0.537585 0.673145 0.808339
O O5 0.424394 0.718762 0.246902
O O6 0.096342 0.609020 0.958210
O O7 0.849375 0.946011 0.006725
O O8 0.956666 0.877837 0.879543
O O9 0.093965 0.048342 0.776830
O O10 0.014433 0.369500 0.834253
O O11 0.123339 0.343164 0.363534
O O12 0.967709 0.160906 0.258478
O O13 0.500000 0.000000 0.500000
O O14 0.551003 0.741836 0.025451
O O15 0.000000 0.500000 0.500000
#
# Coordination Sequence:
#
# PCOD8020638 Si02
#       7
#     2   2   2   2   2   2   2
#     4  10  22  42  70  99 132 181 223 274 338 403
#     4  11  25  47  67  98 141 175 230 285 331 411
#     4  11  22  44  67  97 140 173 226 279 330 406
#     4  12  24  44  68  98 134 184 223 276 353 397
#     4  12  25  44  66 102 136 173 234 278 330 419
#     4  11  23  44  71 102 136 178 229 278 339 407
#     4  11  24  44  69  98 130 179 224 276 348 389
#
# _framework density 23.182656000000001
#
# number of rings (size 3 to 8) (size 9 to 14) (size 15 to 20)
#    0.000    0.857    4.286    3.857    0.000    5.143 
#    2.571    0.000    0.000    0.000    0.000    0.000 
#    0.000    0.000    0.000    0.000    0.000    0.000 
#
# Total GULP energy -173554.061904 kJ/mol
# GULP energy per Si atom -12396.718707 kJ/mol
# Density = 2.312989 g / cm^3
# Si number density = 23.182656 Si / 1000 Ang^3
#
#
#
# Elastic Constant Matrix: (Units=GPa)
#
#
# Indices 1 2 3 4 5 6 
#
# 1 114.6577 19.8306 34.3343 -5.9578 -1.2488 -10.2114
# 2 19.8306 56.7597 21.4469 0.9067 -11.3317 -2.7624
# 3 34.3343 21.4469 95.7230 15.8589 -8.9378 -4.6999
# 4 -5.9578 0.9067 15.8589 19.6264 1.6737 -2.5269
# 5 -1.2488 -11.3317 -8.9378 1.6737 32.3886 14.5992
# 6 -10.2114 -2.7624 -4.6999 -2.5269 14.5992 32.6229
#
#
#
# Elastic Compliance Matrix: (Units=1/GPa)
#
#
# Indices 1 2 3 4 5 6 
#
# 1 0.011725 -0.002998 -0.005233 0.009081 -0.005045 0.005623
# 2 -0.002998 0.021242 -0.003008 -0.000547 0.007944 -0.003170
# 3 -0.005233 -0.003008 0.015844 -0.015113 0.005325 -0.003164
# 4 0.009081 -0.000547 -0.015113 0.068539 -0.012810 0.011660
# 5 -0.005045 0.007944 0.005325 -0.012810 0.045224 -0.021370
# 6 0.005623 -0.003170 -0.003164 0.011660 -0.021370 0.042156
#
#
# Mechanical properties :
#
#
# Convention : Reuss Voigt Hill
#
# Bulk Modulus (GPa) = 37.97397 46.48488 42.22943
# Shear Modulus (GPa) = 21.18785 29.69614 25.44200
#
# Velocity S-wave (km/s) = 3.02644 3.58294 3.31638
# Velocity P-wave (km/s) = 5.35055 6.10014 5.73760
#
# Compressibility (1/GPa) = 0.02633383
#
# Stress axis : x y z
#
# Youngs Moduli (GPa) = 85.28865 47.07618 63.11706
#
# Poissons Ratio (x) = 0.14111 0.33031
# Poissons Ratio (y) = 0.25566 0.18983
# Poissons Ratio (z) = 0.44634 0.14158
#
# Static dielectric constant tensor:
#      x y z
#    x 4.210670 -0.252560 -0.334150 
#    y -0.252560 3.648770 -0.215200 
#    z -0.334150 -0.215200 3.940690 
# 
# 
# High freq. dielectric constant tensor:
#      x y z
#    x 1.930830 0.007330 -0.002390 
#    y 0.007330 1.910490 0.014090 
#    z -0.002390 0.014090 1.911400 
# 
# From -- ./inp_files/182023.got.cif
#   From: 2010.06.25/outbox.cif.g09.slc.cpg/sg2_92_cif.got.tgz:182023.got - 2010.06.27 13:26:56.
