data_PCOD8020131
_publ_section_title
;
Structure prediction by ZEFSAII (Michael W. Deem and Ramdas Pophale) SiO2 
 PCOD8020131
Probable space group: P -1
;
_chemical_formula_sum "Si O2"
_cell_formula_units_Z 12
_cell_length_a 9.882783
_cell_length_b 13.547485
_cell_length_c 5.403617
_cell_angle_alpha 119.652864
_cell_angle_beta 89.735690
_cell_angle_gamma 61.653111
_cell_volume 525.500978
_symmetry_space_group_name_H-M "P -1"
_symmetry_group_IT_number 2
_symmetry_cell_setting 'triclinic'
loop_
_space_group_symop_operation_xyz
x,y,z
-x,-y,-z
loop_
_atom_site_type_symbol
_atom_site_label
_atom_site_fract_x
_atom_site_fract_y
_atom_site_fract_z
Si Si1 0.391049 0.798773 0.584936
Si Si2 0.288980 0.413614 0.848941
Si Si3 0.349749 0.568911 0.398918
Si Si4 0.378159 0.939231 0.243625
Si Si5 0.950989 0.398635 0.287646
Si Si6 0.263539 0.193734 0.828703
O O1 0.585595 0.692682 0.490821
O O2 0.307317 0.714296 0.483477
O O3 0.360574 0.870560 0.406822
O O4 0.322096 0.902624 0.947205
O O5 0.132793 0.548164 0.912137
O O6 0.229551 0.337054 0.919002
O O7 0.397770 0.457653 0.046182
O O8 0.500000 0.500000 0.500000
O O9 0.178915 0.600658 0.536109
O O10 0.563744 0.894984 0.144392
O O11 0.265714 0.101759 0.488783
O O12 0.000000 0.500000 0.500000
O O13 0.109226 0.243549 0.070968
#
# Coordination Sequence:
#
# PCOD8020131 Si02
#       6
#     2   2   2   2   2   2
#     4  11  23  42  68  96 130 178 229 269 330 407
#     4  11  23  40  68 101 135 171 225 285 344 397
#     4  12  24  42  67 102 136 178 220 278 347 408
#     4  10  24  44  68  95 132 184 231 270 325 406
#     4  12  24  40  66 104 139 168 224 282 351 393
#     4  10  22  42  65  98 132 178 223 281 332 397
#
# _framework density 22.835352
#
# number of rings (size 3 to 8) (size 9 to 14) (size 15 to 20)
#    0.000    1.000    3.333    4.000    2.333    7.333 
#    0.000    1.667    0.000    0.000    0.000    0.000 
#    0.000    0.000    0.000    0.000    0.000    0.000 
#
# Total GULP energy -148722.597074 kJ/mol
# GULP energy per Si atom -12393.549756 kJ/mol
# Density = 2.278338 g / cm^3
# Si number density = 22.835352 Si / 1000 Ang^3
#
#
#
# Elastic Constant Matrix: (Units=GPa)
#
#
# Indices 1 2 3 4 5 6 
#
# 1 114.6963 10.7244 35.9152 7.2791 5.6349 4.2875
# 2 10.7244 28.8546 17.2006 -1.7733 17.2298 -10.7023
# 3 35.9152 17.2006 147.7541 8.8284 19.5841 -4.8611
# 4 7.2791 -1.7733 8.8284 37.8074 -2.8949 0.6679
# 5 5.6349 17.2298 19.5841 -2.8949 34.3816 12.2368
# 6 4.2875 -10.7023 -4.8611 0.6679 12.2368 18.9154
#
#
#
# Elastic Compliance Matrix: (Units=1/GPa)
#
#
# Indices 1 2 3 4 5 6 
#
# 1 -0.002743 0.107086 0.006638 -0.006260 -0.103922 0.130367
# 2 0.107086 -0.924489 -0.079090 0.044240 0.905632 -1.155106
# 3 0.006638 -0.079090 0.002008 0.001506 0.069927 -0.091028
# 4 -0.006260 0.044240 0.001506 0.025596 -0.037774 0.050370
# 5 -0.103922 0.905632 0.069927 -0.037774 -0.842298 1.100165
# 6 0.130367 -1.155106 -0.091028 0.050370 1.100165 -1.367130
#
#
# Mechanical properties :
#
#
# Convention : Reuss Voigt Hill
#
# Bulk Modulus (GPa) = -1.16829 46.55392 22.69282
# Shear Modulus (GPa) = -1.44357 33.38520 15.97082
#
# Velocity S-wave (km/s) = -0.79595 3.82775 2.64747
# Velocity P-wave (km/s) = 1.16509 6.32192 4.39370
#
# Compressibility (1/GPa) = -0.85595512
#
# Stress axis : x y z
#
# Youngs Moduli (GPa) = -364.54562 -1.08168 497.92882
#
# Poissons Ratio (x) = 0.11583 -3.30522
# Poissons Ratio (y) = 39.03788 39.38117
# Poissons Ratio (z) = 2.41983 -0.08555
#
# Static dielectric constant tensor:
#      x y z
#    x 4.565610 0.139250 -0.045400 
#    y 0.139250 4.006710 0.221530 
#    z -0.045400 0.221530 4.336930 
# 
# 
# High freq. dielectric constant tensor:
#      x y z
#    x 1.895270 0.019050 -0.003380 
#    y 0.019050 1.876400 0.008420 
#    z -0.003380 0.008420 1.917150 
# 
# From -- ./inp_files/23309.got.cif
#   From: 2010.06.25/outbox.cif.g09.slc.cpg/sg2_12_cif.got.tgz:23309.got - 2010.06.27 13:26:56.
