data_PCOD8020147
_publ_section_title
;
Structure prediction by ZEFSAII (Michael W. Deem and Ramdas Pophale) SiO2 
 PCOD8020147
Probable space group: P -1
;
_chemical_formula_sum "Si O2"
_cell_formula_units_Z 16
_cell_length_a 23.393078
_cell_length_b 9.977741
_cell_length_c 8.692019
_cell_angle_alpha 87.972849
_cell_angle_beta 48.154738
_cell_angle_gamma 47.547244
_cell_volume 731.366426
_symmetry_space_group_name_H-M "P -1"
_symmetry_group_IT_number 2
_symmetry_cell_setting 'triclinic'
loop_
_space_group_symop_operation_xyz
x,y,z
-x,-y,-z
loop_
_atom_site_type_symbol
_atom_site_label
_atom_site_fract_x
_atom_site_fract_y
_atom_site_fract_z
Si Si1 0.161327 0.704642 0.142103
Si Si2 0.196199 0.112613 0.067024
Si Si3 0.642667 0.372497 0.061813
Si Si4 0.841501 0.569835 0.698071
Si Si5 0.681622 0.266786 0.665226
Si Si6 0.825029 0.295285 0.245801
Si Si7 0.301637 0.984598 0.558868
Si Si8 0.678463 0.769682 0.657505
O O1 0.304851 0.572015 0.954120
O O2 0.204332 0.486067 0.112554
O O3 0.162045 0.722770 0.958892
O O4 0.000000 0.000000 0.500000
O O5 0.234318 0.178884 0.107772
O O6 0.029773 0.295043 0.384240
O O7 0.331677 0.795449 0.868311
O O8 0.191803 0.170487 0.896960
O O9 0.745388 0.195358 0.726465
O O10 0.459226 0.668173 0.343540
O O11 0.778292 0.642161 0.637456
O O12 0.703379 0.367037 0.519663
O O13 0.777683 0.996486 0.423899
O O14 0.500000 0.500000 0.000000
O O15 0.766559 0.526025 0.406007
O O16 0.000000 0.000000 0.000000
O O17 0.334211 0.076121 0.422046
O O18 0.500000 0.000000 0.000000
#
# Coordination Sequence:
#
# PCOD8020147 Si02
#       8
#     2   2   2   2   2   2   2   2
#     4  12  23  43  68  99 140 179 235 290 347 415
#     4  11  24  42  66 100 137 177 232 285 349 410
#     4  11  22  42  69  98 136 182 223 286 345 413
#     4  11  25  44  67  97 139 184 224 288 353 408
#     4  10  22  42  66 102 142 181 230 283 348 416
#     4  12  27  44  73 107 139 187 239 289 357 426
#     4  11  24  42  68 101 136 180 235 279 344 418
#     4  12  26  48  71 100 146 187 235 295 355 424
#
# _framework density 21.876857999999999
#
# number of rings (size 3 to 8) (size 9 to 14) (size 15 to 20)
#    0.000    0.750    1.250    7.125    1.750    3.500 
#    0.000    2.500    0.000    0.000    0.000    0.000 
#    0.000    0.000    0.000    0.000    0.000    0.000 
#
# Total GULP energy -198417.350917 kJ/mol
# GULP energy per Si atom -12401.084432 kJ/mol
# Density = 2.182707 g / cm^3
# Si number density = 21.876858 Si / 1000 Ang^3
#
#
#
# Elastic Constant Matrix: (Units=GPa)
#
#
# Indices 1 2 3 4 5 6 
#
# 1 163.0415 50.3623 46.3551 -14.9718 22.3156 9.5244
# 2 50.3623 138.3679 41.2656 -26.1934 -4.9651 14.4332
# 3 46.3551 41.2656 69.5238 -18.5356 17.8267 0.5061
# 4 -14.9718 -26.1934 -18.5356 47.5573 -5.5828 2.0479
# 5 22.3156 -4.9651 17.8267 -5.5828 36.3933 -6.7959
# 6 9.5244 14.4332 0.5061 2.0479 -6.7959 39.8911
#
#
#
# Elastic Compliance Matrix: (Units=1/GPa)
#
#
# Indices 1 2 3 4 5 6 
#
# 1 0.008379 -0.002037 -0.003348 -0.000195 -0.004164 -0.001920
# 2 -0.002037 0.010791 -0.005374 0.003963 0.005473 -0.002621
# 3 -0.003348 -0.005374 0.023241 0.003919 -0.009341 0.000656
# 4 -0.000195 0.003963 0.003919 0.025029 0.002140 -0.002357
# 5 -0.004164 0.005473 -0.009341 0.002140 0.036665 0.005269
# 6 -0.001920 -0.002621 0.000656 -0.002357 0.005269 0.027485
#
#
# Mechanical properties :
#
#
# Convention : Reuss Voigt Hill
#
# Bulk Modulus (GPa) = 47.86456 71.87770 59.87113
# Shear Modulus (GPa) = 31.23569 40.29834 35.76701
#
# Velocity S-wave (km/s) = 3.78272 4.29657 4.04781
# Velocity P-wave (km/s) = 6.40353 7.58557 7.01948
#
# Compressibility (1/GPa) = 0.02089228
#
# Stress axis : x y z
#
# Youngs Moduli (GPa) = 119.34978 92.66611 43.02788
#
# Poissons Ratio (x) = 0.18880 0.14404
# Poissons Ratio (y) = 0.24316 0.23125
# Poissons Ratio (z) = 0.39952 0.49803
#
# Static dielectric constant tensor:
#      x y z
#    x 4.690970 0.170530 0.345790 
#    y 0.170530 4.393870 -0.153220 
#    z 0.345790 -0.153220 3.993380 
# 
# 
# High freq. dielectric constant tensor:
#      x y z
#    x 1.885500 0.007300 0.009990 
#    y 0.007300 1.866760 -0.015250 
#    z 0.009990 -0.015250 1.857770 
# 
# From -- ./inp_files/207776.got.cif
#   From: 2010.06.25/outbox.cif.g09.slc.cpg/sg2_104_cif.got.tgz:207776.got - 2010.06.27 13:26:56.
