data_PCOD8020433
_publ_section_title
;
Structure prediction by ZEFSAII (Michael W. Deem and Ramdas Pophale) SiO2 
 PCOD8020433
Probable space group: P -1
;
_chemical_formula_sum "Si O2"
_cell_formula_units_Z 16
_cell_length_a 8.009493
_cell_length_b 14.734388
_cell_length_c 15.200969
_cell_angle_alpha 26.743023
_cell_angle_beta 66.424663
_cell_angle_gamma 71.653108
_cell_volume 735.956956
_symmetry_space_group_name_H-M "P -1"
_symmetry_group_IT_number 2
_symmetry_cell_setting 'triclinic'
loop_
_space_group_symop_operation_xyz
x,y,z
-x,-y,-z
loop_
_atom_site_type_symbol
_atom_site_label
_atom_site_fract_x
_atom_site_fract_y
_atom_site_fract_z
Si Si1 0.473578 0.730505 0.809053
Si Si2 0.592382 0.324287 0.325614
Si Si3 0.132978 0.705447 0.031971
Si Si4 0.214502 0.274319 0.010436
Si Si5 0.734748 0.541628 0.620392
Si Si6 0.852975 0.937167 0.160786
Si Si7 0.185826 0.011027 0.400277
Si Si8 0.542037 0.127177 0.968235
O O1 0.443707 0.789879 0.661739
O O2 0.653497 0.854568 0.699966
O O3 0.500000 0.500000 0.000000
O O4 0.301547 0.751812 0.889876
O O5 0.670450 0.558986 0.096811
O O6 0.414317 0.320108 0.428278
O O7 0.745249 0.207627 0.443097
O O8 0.163354 0.546183 0.241160
O O9 0.947400 0.621432 0.093815
O O10 0.090709 0.923038 0.888943
O O11 0.345723 0.168965 0.008856
O O12 0.129310 0.099480 0.243240
O O13 0.656669 0.350597 0.741137
O O14 0.857445 0.700469 0.393731
O O15 0.650372 0.985744 0.131328
O O16 0.000000 0.000000 0.000000
O O17 0.000000 0.000000 0.500000
O O18 0.500000 0.000000 0.000000
#
# Coordination Sequence:
#
# PCOD8020433 Si02
#       8
#     2   2   2   2   2   2   2   2
#     4  12  22  43  67  91 137 178 215 276 329 387
#     4  11  23  41  68  93 132 175 224 267 333 396
#     4  11  24  41  67  95 132 176 223 272 331 399
#     4  11  24  43  63  98 134 172 216 281 329 388
#     4  10  22  42  68  94 126 175 221 264 336 401
#     4  11  24  44  68  95 131 173 221 276 330 402
#     4  12  26  40  63  98 133 174 225 271 328 394
#     4  10  22  43  68  96 130 163 215 280 339 393
#
# _framework density 21.740400999999999
#
# number of rings (size 3 to 8) (size 9 to 14) (size 15 to 20)
#    0.000    1.000    2.500    4.875    1.750    5.500 
#    0.000    3.750    0.000    0.000    0.000    0.000 
#    0.000    0.000    0.000    0.000    0.000    0.000 
#
# Total GULP energy -198321.910900 kJ/mol
# GULP energy per Si atom -12395.119431 kJ/mol
# Density = 2.169092 g / cm^3
# Si number density = 21.740401 Si / 1000 Ang^3
#
#
#
# Elastic Constant Matrix: (Units=GPa)
#
#
# Indices 1 2 3 4 5 6 
#
# 1 125.9621 42.0713 44.0250 10.4836 -1.9165 -12.4988
# 2 42.0713 135.6611 52.6115 2.3323 -8.7067 1.2122
# 3 44.0250 52.6115 138.6783 10.2573 5.1626 -5.8574
# 4 10.4836 2.3323 10.2573 29.7843 -8.6177 2.0158
# 5 -1.9165 -8.7067 5.1626 -8.6177 33.1729 1.3168
# 6 -12.4988 1.2122 -5.8574 2.0158 1.3168 34.7837
#
#
#
# Elastic Compliance Matrix: (Units=1/GPa)
#
#
# Indices 1 2 3 4 5 6 
#
# 1 0.009994 -0.002407 -0.001849 -0.003144 -0.000725 0.003573
# 2 -0.002407 0.009594 -0.003273 0.002399 0.003592 -0.002025
# 3 -0.001849 -0.003273 0.009477 -0.003429 -0.003386 0.001372
# 4 -0.003144 0.002399 -0.003429 0.039266 0.011361 -0.004496
# 5 -0.000725 0.003592 -0.003386 0.011361 0.034640 -0.002926
# 6 0.003573 -0.002025 0.001372 -0.004496 -0.002926 0.030706
#
#
# Mechanical properties :
#
#
# Convention : Reuss Voigt Hill
#
# Bulk Modulus (GPa) = 71.38414 75.30192 73.34303
# Shear Modulus (GPa) = 32.59355 36.98775 34.79065
#
# Velocity S-wave (km/s) = 3.87617 4.12920 4.00469
# Velocity P-wave (km/s) = 7.27592 7.57930 7.42916
#
# Compressibility (1/GPa) = 0.01400871
#
# Stress axis : x y z
#
# Youngs Moduli (GPa) = 100.05715 104.22976 105.51651
#
# Poissons Ratio (x) = 0.25085 0.19513
# Poissons Ratio (y) = 0.24080 0.34531
# Poissons Ratio (z) = 0.18503 0.34109
#
# Static dielectric constant tensor:
#      x y z
#    x 2.371970 2.828270 -1.096320 
#    y 2.828270 -0.415550 1.757150 
#    z -1.096320 1.757150 2.999880 
# 
# 
# High freq. dielectric constant tensor:
#      x y z
#    x 1.858090 -0.006660 0.006890 
#    y -0.006660 1.863240 -0.007180 
#    z 0.006890 -0.007180 1.856610 
# 
# From -- ./inp_files/503556.got.cif
#   From: 2010.06.25/outbox.cif.g09.slc.cpg/sg2_252_cif.got.tgz:503556.got - 2010.06.27 13:26:56.
