data_PCOD8020250
_publ_section_title
;
Structure prediction by ZEFSAII (Michael W. Deem and Ramdas Pophale) SiO2 
 PCOD8020250
Probable space group: P -1
;
_chemical_formula_sum "Si O2"
_cell_formula_units_Z 16
_cell_length_a 15.868334
_cell_length_b 7.738291
_cell_length_c 18.358100
_cell_angle_alpha 43.531317
_cell_angle_beta 146.584463
_cell_angle_gamma 144.137327
_cell_volume 719.011230
_symmetry_space_group_name_H-M "P -1"
_symmetry_group_IT_number 2
_symmetry_cell_setting 'triclinic'
loop_
_space_group_symop_operation_xyz
x,y,z
-x,-y,-z
loop_
_atom_site_type_symbol
_atom_site_label
_atom_site_fract_x
_atom_site_fract_y
_atom_site_fract_z
Si Si1 0.554440 0.093086 0.427490
Si Si2 0.043608 0.708137 0.900148
Si Si3 0.096943 0.866967 0.303158
Si Si4 0.074031 0.064490 0.453763
Si Si5 0.687144 0.602129 0.266920
Si Si6 0.551941 0.791846 0.992725
Si Si7 0.833388 0.344164 0.725021
Si Si8 0.251944 0.726785 0.710221
O O1 0.722266 0.053918 0.545539
O O2 0.616622 0.434645 0.345426
O O3 0.500000 0.000000 0.500000
O O4 0.366498 0.869534 0.317025
O O5 0.980924 0.500254 0.847003
O O6 0.257870 0.937484 0.981885
O O7 0.937035 0.874875 0.781337
O O8 0.000000 0.500000 0.000000
O O9 0.117157 0.840393 0.238372
O O10 0.936716 0.550843 0.313246
O O11 0.174807 0.412077 0.403945
O O12 0.899067 0.870659 0.334610
O O13 0.000000 0.000000 0.500000
O O14 0.222434 0.977363 0.580573
O O15 0.569038 0.731826 0.109669
O O16 0.661476 0.349094 0.270278
O O17 0.500000 0.500000 0.000000
O O18 0.393212 0.854432 0.842184
#
# Coordination Sequence:
#
# PCOD8020250 Si02
#       8
#     2   2   2   2   2   2   2   2
#     4  10  23  41  65 102 139 179 225 281 345 408
#     4  12  27  45  69  99 139 182 233 280 339 417
#     4  11  22  46  68  97 142 175 227 286 339 406
#     4  12  21  39  67 100 131 171 228 286 330 400
#     4  11  21  40  71  95 130 181 226 280 341 399
#     4  10  22  42  67 100 135 175 230 281 338 411
#     4  11  25  43  68 102 138 177 227 286 346 400
#     4  11  22  38  71 101 129 178 229 276 342 396
#
# _framework density 22.252780999999999
#
# number of rings (size 3 to 8) (size 9 to 14) (size 15 to 20)
#    0.000    1.000    6.250    1.125    5.250    2.000 
#    0.000    3.750    0.000    0.000    0.000    0.000 
#    0.000    0.000    0.000    0.000    0.000    0.000 
#
# Total GULP energy -198316.511348 kJ/mol
# GULP energy per Si atom -12394.781959 kJ/mol
# Density = 2.220213 g / cm^3
# Si number density = 22.252781 Si / 1000 Ang^3
#
#
#
# Elastic Constant Matrix: (Units=GPa)
#
#
# Indices 1 2 3 4 5 6 
#
# 1 55.5692 9.2398 0.5251 7.6977 -11.5517 5.7439
# 2 9.2398 84.3848 9.7158 16.4517 3.9619 26.2945
# 3 0.5251 9.7158 82.7982 15.9439 -7.8629 13.1329
# 4 7.6977 16.4517 15.9439 38.3930 8.1162 -3.4668
# 5 -11.5517 3.9619 -7.8629 8.1162 28.7392 2.1462
# 6 5.7439 26.2945 13.1329 -3.4668 2.1462 42.5415
#
#
#
# Elastic Compliance Matrix: (Units=1/GPa)
#
#
# Indices 1 2 3 4 5 6 
#
# 1 0.022598 0.000099 0.003836 -0.009480 0.013225 -0.005736
# 2 0.000099 0.017193 0.001943 -0.009677 0.001839 -0.012121
# 3 0.003836 0.001943 0.016117 -0.011009 0.009395 -0.008065
# 4 -0.009480 -0.009677 -0.011009 0.041921 -0.018448 0.015007
# 5 0.013225 0.001839 0.009395 -0.018448 0.048367 -0.009766
# 6 -0.005736 -0.012121 -0.008065 0.015007 -0.009766 0.035979
#
#
# Mechanical properties :
#
#
# Convention : Reuss Voigt Hill
#
# Bulk Modulus (GPa) = 14.77907 29.07930 21.92918
# Shear Modulus (GPa) = 25.91021 35.48617 30.69819
#
# Velocity S-wave (km/s) = 3.41597 3.99768 3.71822
# Velocity P-wave (km/s) = 4.71321 5.86555 5.32067
#
# Compressibility (1/GPa) = 0.06766326
#
# Stress axis : x y z
#
# Youngs Moduli (GPa) = 44.25122 58.16169 62.04797
#
# Poissons Ratio (x) = -0.00573 -0.23804
# Poissons Ratio (y) = -0.00436 -0.12053
# Poissons Ratio (z) = -0.16976 -0.11298
#
# Static dielectric constant tensor:
#      x y z
#    x 3.938270 0.172390 -0.403100 
#    y 0.172390 4.389260 0.788850 
#    z -0.403100 0.788850 2.678800 
# 
# 
# High freq. dielectric constant tensor:
#      x y z
#    x 1.855820 0.011000 -0.013880 
#    y 0.011000 1.879260 0.009670 
#    z -0.013880 0.009670 1.888900 
# 
# From -- ./inp_files/599391.got.cif
#   From: 2010.06.25/outbox.cif.g09.slc.cpg/sg2_300_cif.got.tgz:599391.got - 2010.06.27 13:26:56.
