data_PCOD8020860
_publ_section_title
;
Structure prediction by ZEFSAII (Michael W. Deem and Ramdas Pophale) SiO2 
 PCOD8020860
Probable space group: P -1
;
_chemical_formula_sum "Si O2"
_cell_formula_units_Z 16
_cell_length_a 18.863590
_cell_length_b 12.965913
_cell_length_c 8.609132
_cell_angle_alpha 96.620399
_cell_angle_beta 119.634052
_cell_angle_gamma 31.718705
_cell_volume 715.969127
_symmetry_space_group_name_H-M "P -1"
_symmetry_group_IT_number 2
_symmetry_cell_setting 'triclinic'
loop_
_space_group_symop_operation_xyz
x,y,z
-x,-y,-z
loop_
_atom_site_type_symbol
_atom_site_label
_atom_site_fract_x
_atom_site_fract_y
_atom_site_fract_z
Si Si1 0.639040 0.280791 0.985824
Si Si2 0.447144 0.756727 0.385245
Si Si3 0.732794 0.025879 0.288773
Si Si4 0.007620 0.614730 0.007680
Si Si5 0.117121 0.610875 0.842961
Si Si6 0.339335 0.549358 0.135153
Si Si7 0.613052 0.773588 0.497438
Si Si8 0.511218 0.872999 0.051152
O O1 0.797355 0.021913 0.209424
O O2 0.500000 0.500000 0.000000
O O3 0.505315 0.360965 0.742669
O O4 0.752335 0.231912 0.986006
O O5 0.530290 0.589218 0.588269
O O6 0.573863 0.713822 0.537345
O O7 0.205230 0.073026 0.181580
O O8 0.890431 0.858928 0.569520
O O9 0.503357 0.324893 0.144139
O O10 0.699611 0.943735 0.189475
O O11 0.139465 0.497171 0.280281
O O12 0.142346 0.490794 0.979343
O O13 0.000000 0.500000 0.000000
O O14 0.280717 0.415015 0.847902
O O15 0.150100 0.687714 0.966437
O O16 0.525211 0.858640 0.247521
O O17 0.500000 0.000000 0.500000
O O18 0.500000 0.000000 0.000000
#
# Coordination Sequence:
#
# PCOD8020860 Si02
#       8
#     2   2   2   2   2   2   2   2
#     4  10  23  44  71  97 132 182 230 280 344 398
#     4  12  23  44  71  98 142 173 229 282 335 402
#     4  10  22  43  64  96 136 170 220 278 337 405
#     4  12  26  41  70 103 137 182 223 274 340 407
#     4  11  24  43  66  98 137 173 225 280 336 408
#     4  10  22  43  69  96 127 178 224 280 338 395
#     4  12  25  44  68  99 138 178 226 277 335 407
#     4  11  26  40  66  97 135 181 222 275 340 402
#
# _framework density 22.347331000000001
#
# number of rings (size 3 to 8) (size 9 to 14) (size 15 to 20)
#    0.000    1.000    5.000    1.125    5.250    1.000 
#    0.000    3.125    0.000    0.000    0.000    0.000 
#    0.000    0.000    0.000    0.000    0.000    0.000 
#
# Total GULP energy -198217.984897 kJ/mol
# GULP energy per Si atom -12388.624056 kJ/mol
# Density = 2.229647 g / cm^3
# Si number density = 22.347331 Si / 1000 Ang^3
#
#
#
# Elastic Constant Matrix: (Units=GPa)
#
#
# Indices 1 2 3 4 5 6 
#
# 1 139.0697 29.1794 51.3411 5.6014 -2.2138 31.3979
# 2 29.1794 61.7131 28.1843 19.4808 5.9679 6.8761
# 3 51.3411 28.1843 150.4156 8.6077 13.9957 15.3748
# 4 5.6014 19.4808 8.6077 33.3169 -2.6663 0.4530
# 5 -2.2138 5.9679 13.9957 -2.6663 41.9953 2.4961
# 6 31.3979 6.8761 15.3748 0.4530 2.4961 33.8637
#
#
#
# Elastic Compliance Matrix: (Units=1/GPa)
#
#
# Indices 1 2 3 4 5 6 
#
# 1 0.010717 -0.003682 -0.002424 0.001288 0.002471 -0.008287
# 2 -0.003682 0.023240 -0.002037 -0.012734 -0.003630 0.000058
# 3 -0.002424 -0.002037 0.008228 -0.000721 -0.002574 -0.000875
# 4 0.001288 -0.012734 -0.000721 0.037776 0.004464 0.000885
# 5 0.002471 -0.003630 -0.002574 0.004464 0.025739 -0.002342
# 6 -0.008287 0.000058 -0.000875 0.000885 -0.002342 0.037760
#
#
# Mechanical properties :
#
#
# Convention : Reuss Voigt Hill
#
# Bulk Modulus (GPa) = 38.61484 63.17865 50.89674
# Shear Modulus (GPa) = 29.69503 38.00142 33.84823
#
# Velocity S-wave (km/s) = 3.64922 4.12817 3.89606
# Velocity P-wave (km/s) = 5.92222 7.14528 6.56230
#
# Compressibility (1/GPa) = 0.02589678
#
# Stress axis : x y z
#
# Youngs Moduli (GPa) = 93.31208 43.02975 121.54075
#
# Poissons Ratio (x) = 0.15843 0.29468
# Poissons Ratio (y) = 0.34357 0.24761
# Poissons Ratio (z) = 0.22623 0.08766
#
# Static dielectric constant tensor:
#      x y z
#    x 4.407370 0.489520 0.076700 
#    y 0.489520 4.392530 0.267200 
#    z 0.076700 0.267200 4.114490 
# 
# 
# High freq. dielectric constant tensor:
#      x y z
#    x 1.901730 0.015450 -0.007640 
#    y 0.015450 1.851530 0.021780 
#    z -0.007640 0.021780 1.887690 
# 
# From -- ./inp_files/271015.got.cif
#   From: 2010.06.25/outbox.cif.g09.slc.cpg/sg2_136_cif.got.tgz:271015.got - 2010.06.27 13:26:56.
