data_PCOD8020515
_publ_section_title
;
Structure prediction by ZEFSAII (Michael W. Deem and Ramdas Pophale) SiO2 
 PCOD8020515
Probable space group: P -1
;
_chemical_formula_sum "Si O2"
_cell_formula_units_Z 12
_cell_length_a 15.550908
_cell_length_b 8.062023
_cell_length_c 9.989532
_cell_angle_alpha 85.087928
_cell_angle_beta 139.653753
_cell_angle_gamma 123.738189
_cell_volume 525.151476
_symmetry_space_group_name_H-M "P -1"
_symmetry_group_IT_number 2
_symmetry_cell_setting 'triclinic'
loop_
_space_group_symop_operation_xyz
x,y,z
-x,-y,-z
loop_
_atom_site_type_symbol
_atom_site_label
_atom_site_fract_x
_atom_site_fract_y
_atom_site_fract_z
Si Si1 0.933968 0.020853 0.559445
Si Si2 0.706389 0.498882 0.418904
Si Si3 0.464970 0.162531 0.412606
Si Si4 0.545435 0.854223 0.095132
Si Si5 0.068925 0.641322 0.931504
Si Si6 0.702690 0.441853 0.920684
O O1 0.811395 0.779420 0.528577
O O2 0.785674 0.037689 0.354220
O O3 0.000000 0.000000 0.500000
O O4 0.135992 0.266451 0.862415
O O5 0.552620 0.317359 0.368816
O O6 0.878462 0.520951 0.627283
O O7 0.584932 0.381710 0.144373
O O8 0.500000 0.000000 0.500000
O O9 0.572358 0.375602 0.640453
O O10 0.219133 0.940915 0.123097
O O11 0.470007 0.749256 0.161510
O O12 0.500000 0.000000 0.000000
O O13 0.179015 0.615206 0.967732
O O14 0.000000 0.500000 0.000000
#
# Coordination Sequence:
#
# PCOD8020515 Si02
#       6
#     2   2   2   2   2   2
#     4  12  29  48  70 108 154 188 241 297 364 429
#     4  12  25  44  74 102 148 194 230 302 365 417
#     4  10  22  42  69 106 143 188 240 299 354 426
#     4  12  27  45  76 104 141 194 250 295 356 428
#     4  11  23  44  76 107 144 184 246 297 356 431
#     4  11  25  44  73 105 145 189 244 298 352 434
#
# _framework density 22.850549000000001
#
# number of rings (size 3 to 8) (size 9 to 14) (size 15 to 20)
#    0.000    0.667    5.000    3.500    7.000    2.000 
#    0.000    1.667    0.000    0.000    0.000    0.000 
#    0.000    0.000    0.000    0.000    0.000    0.000 
#
# Total GULP energy -148768.906206 kJ/mol
# GULP energy per Si atom -12397.408850 kJ/mol
# Density = 2.279854 g / cm^3
# Si number density = 22.850549 Si / 1000 Ang^3
#
#
#
# Elastic Constant Matrix: (Units=GPa)
#
#
# Indices 1 2 3 4 5 6 
#
# 1 121.2015 36.2432 52.4660 2.9178 0.6360 21.2111
# 2 36.2432 103.4474 15.0466 17.6761 4.7528 13.5154
# 3 52.4660 15.0466 113.5702 25.7475 -17.0855 14.2851
# 4 2.9178 17.6761 25.7475 42.7173 -2.3147 0.2785
# 5 0.6360 4.7528 -17.0855 -2.3147 40.9606 3.8460
# 6 21.2111 13.5154 14.2851 0.2785 3.8460 34.6878
#
#
#
# Elastic Compliance Matrix: (Units=1/GPa)
#
#
# Indices 1 2 3 4 5 6 
#
# 1 0.012507 -0.003683 -0.006067 0.004256 -0.001723 -0.003558
# 2 -0.003683 0.012133 0.001690 -0.005805 -0.000688 -0.003048
# 3 -0.006067 0.001690 0.014718 -0.008814 0.005876 -0.003591
# 4 0.004256 -0.005805 -0.008814 0.030724 -0.001636 0.003224
# 5 -0.001723 -0.000688 0.005876 -0.001636 0.027265 -0.004108
# 6 -0.003558 -0.003048 -0.003591 0.003224 -0.004108 0.034100
#
#
# Mechanical properties :
#
#
# Convention : Reuss Voigt Hill
#
# Bulk Modulus (GPa) = 43.03105 60.63675 51.83390
# Shear Modulus (GPa) = 32.19312 39.30401 35.74857
#
# Velocity S-wave (km/s) = 3.75754 4.15184 3.95961
# Velocity P-wave (km/s) = 6.13986 7.04114 6.60589
#
# Compressibility (1/GPa) = 0.02323904
#
# Stress axis : x y z
#
# Youngs Moduli (GPa) = 79.95260 82.41967 67.94526
#
# Poissons Ratio (x) = 0.30354 0.41220
# Poissons Ratio (y) = 0.29445 -0.11482
# Poissons Ratio (z) = 0.48505 -0.13928
#
# Static dielectric constant tensor:
#      x y z
#    x 4.507430 -0.190490 -0.241110 
#    y -0.190490 3.974560 0.629500 
#    z -0.241110 0.629500 4.793320 
# 
# 
# High freq. dielectric constant tensor:
#      x y z
#    x 1.893340 0.015650 0.000450 
#    y 0.015650 1.899540 0.007540 
#    z 0.000450 0.007540 1.928630 
# 
# From -- ./inp_files/90838.got.cif
#   From: 2010.06.25/outbox.cif.g09.slc.cpg/sg2_46_cif.got.tgz:90838.got - 2010.06.27 13:26:56.
