data_PCOD8020869
_publ_section_title
;
Structure prediction by ZEFSAII (Michael W. Deem and Ramdas Pophale) SiO2 
 PCOD8020869
Probable space group: P -1
;
_chemical_formula_sum "Si O2"
_cell_formula_units_Z 16
_cell_length_a 8.814976
_cell_length_b 15.103410
_cell_length_c 21.224348
_cell_angle_alpha 161.360584
_cell_angle_beta 122.075048
_cell_angle_gamma 66.766774
_cell_volume 700.925472
_symmetry_space_group_name_H-M "P -1"
_symmetry_group_IT_number 2
_symmetry_cell_setting 'triclinic'
loop_
_space_group_symop_operation_xyz
x,y,z
-x,-y,-z
loop_
_atom_site_type_symbol
_atom_site_label
_atom_site_fract_x
_atom_site_fract_y
_atom_site_fract_z
Si Si1 0.470519 0.293978 0.968840
Si Si2 0.169477 0.103973 0.382919
Si Si3 0.173220 0.611416 0.966706
Si Si4 0.831357 0.463701 0.711993
Si Si5 0.646279 0.390064 0.494584
Si Si6 0.861389 0.239930 0.337610
Si Si7 0.550725 0.613149 0.831457
Si Si8 0.920604 0.901665 0.311462
O O1 0.276218 0.316322 0.914451
O O2 0.466869 0.957762 0.745882
O O3 0.654660 0.460811 0.076572
O O4 0.492707 0.445825 0.144135
O O5 0.332712 0.448574 0.642554
O O6 0.974244 0.055566 0.269267
O O7 0.107060 0.024397 0.388467
O O8 0.252576 0.876248 0.215237
O O9 0.035877 0.296905 0.758773
O O10 0.043594 0.693884 0.940490
O O11 0.754528 0.575229 0.706585
O O12 0.674297 0.429968 0.709245
O O13 0.864010 0.161709 0.503007
O O14 0.500000 0.500000 0.500000
O O15 0.815741 0.429098 0.509405
O O16 0.000000 0.500000 0.500000
O O17 0.664947 0.976170 0.085825
#
# Coordination Sequence:
#
# PCOD8020869 Si02
#       8
#     2   2   2   2   2   2   2   2
#     4  10  22  43  64  97 142 176 233 290 335 412
#     4  12  23  45  69  99 147 184 224 296 338 410
#     4  12  24  40  71 102 141 188 232 286 346 405
#     4  11  22  43  67  99 141 176 232 290 335 416
#     4  10  23  44  68  96 133 176 226 283 351 410
#     4  11  25  47  71 100 138 175 234 285 348 419
#     4  11  24  44  69  98 139 186 224 283 352 402
#     4  11  22  44  67 103 140 187 235 285 343 407
#
# _framework density 22.826962999999999
#
# number of rings (size 3 to 8) (size 9 to 14) (size 15 to 20)
#    0.000    1.000    5.000    3.375    3.500    0.500 
#    2.250    3.125    0.000    0.000    0.000    0.000 
#    0.000    0.000    0.000    0.000    0.000    0.000 
#
# Total GULP energy -198226.962103 kJ/mol
# GULP energy per Si atom -12389.185131 kJ/mol
# Density = 2.277501 g / cm^3
# Si number density = 22.826963 Si / 1000 Ang^3
#
#
#
# Elastic Constant Matrix: (Units=GPa)
#
#
# Indices 1 2 3 4 5 6 
#
# 1 153.8832 31.9791 56.5670 -9.2153 -7.7352 27.6382
# 2 31.9791 91.1806 41.4358 -3.9366 4.0102 6.2418
# 3 56.5670 41.4358 101.1870 -12.9982 8.5361 18.6500
# 4 -9.2153 -3.9366 -12.9982 29.6493 5.0434 8.7168
# 5 -7.7352 4.0102 8.5361 5.0434 48.9530 -4.8916
# 6 27.6382 6.2418 18.6500 8.7168 -4.8916 38.4309
#
#
#
# Elastic Compliance Matrix: (Units=1/GPa)
#
#
# Indices 1 2 3 4 5 6 
#
# 1 0.009163 -0.001238 -0.003493 0.002400 0.001406 -0.005059
# 2 -0.001238 0.013678 -0.005368 -0.001371 -0.000081 0.001575
# 3 -0.003493 -0.005368 0.016880 0.008555 -0.004671 -0.007343
# 4 0.002400 -0.001371 0.008555 0.044143 -0.007205 -0.016585
# 5 0.001406 -0.000081 -0.004671 -0.007205 0.022793 0.005804
# 6 -0.005059 0.001575 -0.007343 -0.016585 0.005804 0.037467
#
#
# Mechanical properties :
#
#
# Convention : Reuss Voigt Hill
#
# Bulk Modulus (GPa) = 51.22625 67.35718 59.29171
# Shear Modulus (GPa) = 29.26880 37.82457 33.54668
#
# Velocity S-wave (km/s) = 3.58467 4.07506 3.83771
# Velocity P-wave (km/s) = 6.29468 7.19119 6.75782
#
# Compressibility (1/GPa) = 0.01952124
#
# Stress axis : x y z
#
# Youngs Moduli (GPa) = 109.13720 73.11217 59.24134
#
# Poissons Ratio (x) = 0.09052 0.20694
# Poissons Ratio (y) = 0.13512 0.31803
# Poissons Ratio (z) = 0.38123 0.39250
#
# Static dielectric constant tensor:
#      x y z
#    x 4.279340 0.139210 -0.059070 
#    y 0.139210 4.250380 -0.461890 
#    z -0.059070 -0.461890 4.032420 
# 
# 
# High freq. dielectric constant tensor:
#      x y z
#    x 1.920330 0.010720 -0.005780 
#    y 0.010720 1.882050 -0.025210 
#    z -0.005780 -0.025210 1.889770 
# 
# From -- ./inp_files/297525.got.cif
#   From: 2010.06.25/outbox.cif.g09.slc.cpg/sg2_149_cif.got.tgz:297525.got - 2010.06.27 13:26:56.
