data_PCOD8020706
_publ_section_title
;
Structure prediction by ZEFSAII (Michael W. Deem and Ramdas Pophale) SiO2 
 PCOD8020706
Probable space group: P -1
;
_chemical_formula_sum "Si O2"
_cell_formula_units_Z 16
_cell_length_a 9.789818
_cell_length_b 8.906292
_cell_length_c 24.436125
_cell_angle_alpha 133.385024
_cell_angle_beta 151.137472
_cell_angle_gamma 46.956010
_cell_volume 727.251375
_symmetry_space_group_name_H-M "P -1"
_symmetry_group_IT_number 2
_symmetry_cell_setting 'triclinic'
loop_
_space_group_symop_operation_xyz
x,y,z
-x,-y,-z
loop_
_atom_site_type_symbol
_atom_site_label
_atom_site_fract_x
_atom_site_fract_y
_atom_site_fract_z
Si Si1 0.089793 0.609462 0.691795
Si Si2 0.201797 0.160188 0.099921
Si Si3 0.413099 0.979585 0.902456
Si Si4 0.795265 0.555904 0.097650
Si Si5 0.734318 0.820882 0.396095
Si Si6 0.827599 0.470188 0.671070
Si Si7 0.366541 0.849011 0.648116
Si Si8 0.492013 0.125868 0.473789
O O1 0.210419 0.816164 0.791616
O O2 0.299270 0.421668 0.683425
O O3 0.033489 0.509056 0.704499
O O4 0.786938 0.681944 0.572579
O O5 0.324326 0.111394 0.069624
O O6 0.464541 0.139312 0.231896
O O7 0.979685 0.390509 0.077532
O O8 0.000000 0.000000 0.000000
O O9 0.245481 0.210983 0.882478
O O10 0.500000 0.000000 0.000000
O O11 0.995247 0.533257 0.213727
O O12 0.500000 0.500000 0.000000
O O13 0.045192 0.807108 0.531971
O O14 0.688278 0.927059 0.346620
O O15 0.483241 0.953899 0.380161
O O16 0.542900 0.663819 0.623579
O O17 0.757214 0.238443 0.582876
O O18 0.500000 0.000000 0.500000
#
# Coordination Sequence:
#
# PCOD8020706 Si02
#       8
#     2   2   2   2   2   2   2   2
#     4  12  26  44  69 103 146 184 235 295 358 429
#     4  11  26  46  77 108 141 188 247 302 355 436
#     4  12  29  48  71 109 146 186 239 302 366 429
#     4  11  24  46  77 105 137 189 238 297 365 421
#     4  11  24  41  71 104 142 190 231 292 361 422
#     4  11  22  45  70 101 144 186 239 290 351 431
#     4  10  22  42  72 107 140 183 246 291 352 428
#     4  12  26  42  67 103 143 189 236 290 351 423
#
# _framework density 22.000647000000001
#
# number of rings (size 3 to 8) (size 9 to 14) (size 15 to 20)
#    0.000    0.750    3.750    3.375    7.000    5.000 
#    0.000    0.000    0.000    0.000    0.000    0.000 
#    0.000    0.000    0.000    0.000    0.000    0.000 
#
# Total GULP energy -198322.678919 kJ/mol
# GULP energy per Si atom -12395.167432 kJ/mol
# Density = 2.195057 g / cm^3
# Si number density = 22.000647 Si / 1000 Ang^3
#
#
#
# Elastic Constant Matrix: (Units=GPa)
#
#
# Indices 1 2 3 4 5 6 
#
# 1 127.8694 58.1817 22.5388 11.2629 1.1766 -2.4346
# 2 58.1817 174.6622 35.1382 21.6478 6.6014 -9.8126
# 3 22.5388 35.1382 64.3561 15.4556 12.7586 -2.8570
# 4 11.2629 21.6478 15.4556 39.4227 2.5332 8.0057
# 5 1.1766 6.6014 12.7586 2.5332 24.9759 13.8064
# 6 -2.4346 -9.8126 -2.8570 8.0057 13.8064 36.3058
#
#
#
# Elastic Compliance Matrix: (Units=1/GPa)
#
#
# Indices 1 2 3 4 5 6 
#
# 1 0.009468 -0.002822 -0.002154 -0.000235 0.001975 -0.000997
# 2 -0.002822 0.007720 -0.001775 -0.003274 -0.002582 0.003462
# 3 -0.002154 -0.001775 0.022512 -0.008020 -0.014850 0.008563
# 4 -0.000235 -0.003274 -0.008020 0.032237 0.008205 -0.011761
# 5 0.001975 -0.002582 -0.014850 0.008205 0.062473 -0.027301
# 6 -0.000997 0.003462 0.008563 -0.011761 -0.027301 0.042062
#
#
# Mechanical properties :
#
#
# Convention : Reuss Voigt Hill
#
# Bulk Modulus (GPa) = 38.17073 66.51167 52.34120
# Shear Modulus (GPa) = 25.16261 36.87616 31.01939
#
# Velocity S-wave (km/s) = 3.38556 4.09851 3.75898
# Velocity P-wave (km/s) = 5.71579 7.25909 6.53317
#
# Compressibility (1/GPa) = 0.02619809
#
# Stress axis : x y z
#
# Youngs Moduli (GPa) = 105.62155 129.52801 44.41997
#
# Poissons Ratio (x) = 0.36551 0.09570
# Poissons Ratio (y) = 0.29805 0.07884
# Poissons Ratio (z) = 0.22755 0.22991
#
# Static dielectric constant tensor:
#      x y z
#    x 3.767070 0.010850 -0.166440 
#    y 0.010850 4.512690 0.097130 
#    z -0.166440 0.097130 3.907770 
# 
# 
# High freq. dielectric constant tensor:
#      x y z
#    x 1.862050 -0.008420 -0.005470 
#    y -0.008420 1.894190 0.003890 
#    z -0.005470 0.003890 1.858920 
# 
# From -- ./inp_files/606835.got.cif
#   From: 2010.06.25/outbox.cif.g09.slc.cpg/sg2_304_cif.got.tgz:606835.got - 2010.06.27 13:26:56.
