data_PCOD8020976
_publ_section_title
;
Structure prediction by ZEFSAII (Michael W. Deem and Ramdas Pophale) SiO2 
 PCOD8020976
Probable space group: P -1
;
_chemical_formula_sum "Si O2"
_cell_formula_units_Z 16
_cell_length_a 8.934357
_cell_length_b 21.953643
_cell_length_c 8.906258
_cell_angle_alpha 49.909929
_cell_angle_beta 79.746479
_cell_angle_gamma 119.704833
_cell_volume 770.275908
_symmetry_space_group_name_H-M "P -1"
_symmetry_group_IT_number 2
_symmetry_cell_setting 'triclinic'
loop_
_space_group_symop_operation_xyz
x,y,z
-x,-y,-z
loop_
_atom_site_type_symbol
_atom_site_label
_atom_site_fract_x
_atom_site_fract_y
_atom_site_fract_z
Si Si1 0.964297 0.899169 0.586188
Si Si2 0.918511 0.301416 0.136394
Si Si3 0.758287 0.560555 0.847798
Si Si4 0.166936 0.138080 0.672722
Si Si5 0.759592 0.663297 0.183938
Si Si6 0.738997 0.381835 0.136765
Si Si7 0.565400 0.014302 0.638772
Si Si8 0.980244 0.210951 0.758108
O O1 0.841397 0.867091 0.498201
O O2 0.253592 0.986495 0.377415
O O3 0.779412 0.752935 0.934782
O O4 0.000000 0.000000 0.500000
O O5 0.783410 0.330215 0.089419
O O6 0.702178 0.148700 0.475705
O O7 0.143168 0.405154 0.054388
O O8 0.028724 0.311914 0.946230
O O9 0.967078 0.685467 0.501831
O O10 0.500000 0.500000 0.000000
O O11 0.696414 0.449045 0.960031
O O12 0.470431 0.253453 0.482326
O O13 0.038674 0.165552 0.704460
O O14 0.000000 0.000000 0.000000
O O15 0.500000 0.500000 0.500000
O O16 0.828021 0.722034 0.243581
O O17 0.000000 0.500000 0.000000
O O18 0.500000 0.000000 0.500000
O O19 0.311835 0.900145 0.964349
#
# Coordination Sequence:
#
# PCOD8020976 Si02
#       8
#     2   2   2   2   2   2   2   2
#     4  11  26  47  71 101 142 183 227 295 347 411
#     4  10  22  43  66  91 134 177 219 283 345 400
#     4  11  22  41  66  98 133 170 225 279 343 410
#     4  12  26  42  73 105 135 178 237 290 344 419
#     4  11  24  41  68  98 135 185 229 274 344 418
#     4  10  24  42  67  96 139 175 218 285 354 402
#     4  11  23  44  67  96 136 180 228 281 345 408
#     4  12  23  40  70  98 133 179 229 281 343 416
#
# _framework density 20.771778000000001
#
# number of rings (size 3 to 8) (size 9 to 14) (size 15 to 20)
#    0.000    1.000    3.750    3.750    5.250    4.000 
#    2.250    0.625    0.000    0.000    0.000    0.000 
#    0.000    0.000    0.000    0.000    0.000    0.000 
#
# Total GULP energy -198223.819640 kJ/mol
# GULP energy per Si atom -12388.988728 kJ/mol
# Density = 2.072450 g / cm^3
# Si number density = 20.771778 Si / 1000 Ang^3
#
#
#
# Elastic Constant Matrix: (Units=GPa)
#
#
# Indices 1 2 3 4 5 6 
#
# 1 143.3752 48.1269 59.7979 -14.6048 -1.5812 -35.2806
# 2 48.1269 92.0955 40.3887 -3.6934 3.2513 -18.2595
# 3 59.7979 40.3887 155.7264 -23.6674 -5.8484 -19.2985
# 4 -14.6048 -3.6934 -23.6674 36.6988 2.2253 1.7219
# 5 -1.5812 3.2513 -5.8484 2.2253 38.7980 -8.2945
# 6 -35.2806 -18.2595 -19.2985 1.7219 -8.2945 46.9046
#
#
#
# Elastic Compliance Matrix: (Units=1/GPa)
#
#
# Indices 1 2 3 4 5 6 
#
# 1 0.010742 -0.003465 -0.002079 0.002204 0.001587 0.006075
# 2 -0.003465 0.014032 -0.002370 -0.001502 -0.001220 0.001721
# 3 -0.002079 -0.002370 0.008704 0.004406 0.001427 0.001186
# 4 0.002204 -0.001502 0.004406 0.030770 -0.000530 0.001663
# 5 0.001587 -0.001220 0.001427 -0.000530 0.027510 0.006190
# 6 0.006075 0.001721 0.001186 0.001663 0.006190 0.028081
#
#
# Mechanical properties :
#
#
# Convention : Reuss Voigt Hill
#
# Bulk Modulus (GPa) = 56.65057 76.42488 66.53773
# Shear Modulus (GPa) = 35.32313 40.67252 37.99783
#
# Velocity S-wave (km/s) = 4.12823 4.42981 4.28167
# Velocity P-wave (km/s) = 7.07496 7.93957 7.51970
#
# Compressibility (1/GPa) = 0.01765207
#
# Stress axis : x y z
#
# Youngs Moduli (GPa) = 93.09494 71.26467 114.88427
#
# Poissons Ratio (x) = 0.24692 0.23880
# Poissons Ratio (y) = 0.32256 0.27224
# Poissons Ratio (z) = 0.19351 0.16887
#
# Static dielectric constant tensor:
#      x y z
#    x 3.881120 -0.340080 0.389340 
#    y -0.340080 4.013490 -0.424150 
#    z 0.389340 -0.424150 4.628570 
# 
# 
# High freq. dielectric constant tensor:
#      x y z
#    x 1.818980 -0.015240 -0.006530 
#    y -0.015240 1.817690 -0.019900 
#    z -0.006530 -0.019900 1.820460 
# 
# From -- ./inp_files/226138.got.cif
#   From: 2010.06.25/outbox.cif.g09.slc.cpg/sg2_114_cif.got.tgz:226138.got - 2010.06.27 13:26:56.
