data_PCOD8020919
_publ_section_title
;
Structure prediction by ZEFSAII (Michael W. Deem and Ramdas Pophale) SiO2 
 PCOD8020919
Probable space group: P -1
;
_chemical_formula_sum "Si O2"
_cell_formula_units_Z 16
_cell_length_a 17.863773
_cell_length_b 11.967175
_cell_length_c 9.444999
_cell_angle_alpha 105.178304
_cell_angle_beta 132.360032
_cell_angle_gamma 38.569666
_cell_volume 760.942542
_symmetry_space_group_name_H-M "P -1"
_symmetry_group_IT_number 2
_symmetry_cell_setting 'triclinic'
loop_
_space_group_symop_operation_xyz
x,y,z
-x,-y,-z
loop_
_atom_site_type_symbol
_atom_site_label
_atom_site_fract_x
_atom_site_fract_y
_atom_site_fract_z
Si Si1 0.439538 0.097498 0.303027
Si Si2 0.755227 0.967422 0.633330
Si Si3 0.340240 0.628478 0.728360
Si Si4 0.791325 0.995102 0.374916
Si Si5 0.509362 0.881419 0.076058
Si Si6 0.134477 0.570840 0.159719
Si Si7 0.543417 0.565509 0.481006
Si Si8 0.860079 0.413457 0.495359
O O1 0.621551 0.988149 0.430995
O O2 0.246922 0.358176 0.156309
O O3 0.500000 0.000000 0.500000
O O4 0.398789 0.026844 0.127231
O O5 0.625275 0.180181 0.628415
O O6 0.836353 0.940309 0.581304
O O7 0.927157 0.770057 0.891799
O O8 0.463660 0.471574 0.698984
O O9 0.209702 0.650838 0.623035
O O10 0.208357 0.868765 0.613074
O O11 0.500000 0.500000 0.000000
O O12 0.941433 0.777890 0.400065
O O13 0.586079 0.137936 0.124025
O O14 0.723243 0.635280 0.310969
O O15 0.500000 0.000000 0.000000
O O16 0.247711 0.580160 0.271734
O O17 0.116981 0.568874 0.306119
O O18 0.500000 0.500000 0.500000
#
# Coordination Sequence:
#
# PCOD8020919 Si02
#       8
#     2   2   2   2   2   2   2   2
#     4  11  24  45  68  92 130 174 224 271 327 389
#     4  11  25  43  66  98 131 174 219 268 332 390
#     4  11  23  44  70  96 133 179 217 271 332 388
#     4  12  26  43  68  99 138 175 219 273 331 395
#     4  12  26  46  67  98 135 174 222 276 333 391
#     4  10  25  42  66  97 130 170 220 269 322 391
#     4  10  22  43  65  94 132 169 217 266 320 387
#     4  11  26  44  67 102 133 172 225 270 329 397
#
# _framework density 21.026555999999999
#
# number of rings (size 3 to 8) (size 9 to 14) (size 15 to 20)
#    0.000    1.000    5.000    0.375    5.250    3.500 
#    0.000    0.000    0.000    0.000    0.000    0.000 
#    0.000    0.000    0.000    0.000    0.000    0.000 
#
# Total GULP energy -198406.142850 kJ/mol
# GULP energy per Si atom -12400.383928 kJ/mol
# Density = 2.097870 g / cm^3
# Si number density = 21.026556 Si / 1000 Ang^3
#
#
#
# Elastic Constant Matrix: (Units=GPa)
#
#
# Indices 1 2 3 4 5 6 
#
# 1 70.8892 26.3503 15.6225 -14.1339 -15.8993 -2.7359
# 2 26.3503 113.5590 42.8244 -3.7128 -3.3010 -7.0656
# 3 15.6225 42.8244 114.8629 -12.7293 -12.7570 -6.8477
# 4 -14.1339 -3.7128 -12.7293 38.5229 -1.6919 -3.2327
# 5 -15.8993 -3.3010 -12.7570 -1.6919 29.0001 -3.2603
# 6 -2.7359 -7.0656 -6.8477 -3.2327 -3.2603 41.5389
#
#
#
# Elastic Compliance Matrix: (Units=1/GPa)
#
#
# Indices 1 2 3 4 5 6 
#
# 1 0.019693 -0.004292 0.001220 0.007915 0.011564 0.002292
# 2 -0.004292 0.011240 -0.004112 -0.001931 -0.002931 0.000571
# 3 0.001220 -0.004112 0.011284 0.004196 0.005635 0.002010
# 4 0.007915 -0.001931 0.004196 0.030752 0.008200 0.003921
# 5 0.011564 -0.002931 0.005635 0.008200 0.044041 0.005287
# 6 0.002292 0.000571 0.002010 0.003921 0.005287 0.025373
#
#
# Mechanical properties :
#
#
# Convention : Reuss Voigt Hill
#
# Bulk Modulus (GPa) = 35.90907 52.10059 44.00483
# Shear Modulus (GPa) = 30.11402 36.11332 33.11367
#
# Velocity S-wave (km/s) = 3.78853 4.14878 3.97274
# Velocity P-wave (km/s) = 6.02099 6.91246 6.48207
#
# Compressibility (1/GPa) = 0.02784812
#
# Stress axis : x y z
#
# Youngs Moduli (GPa) = 50.77847 88.96845 88.62094
#
# Poissons Ratio (x) = 0.38187 -0.10811
# Poissons Ratio (y) = 0.21795 0.36444
# Poissons Ratio (z) = -0.06194 0.36587
#
# Static dielectric constant tensor:
#      x y z
#    x 3.606770 0.223850 -0.113730 
#    y 0.223850 3.402690 0.058220 
#    z -0.113730 0.058220 3.691860 
# 
# 
# High freq. dielectric constant tensor:
#      x y z
#    x 1.827600 -0.000400 -0.009100 
#    y -0.000400 1.841600 0.007970 
#    z -0.009100 0.007970 1.821900 
# 
# From -- ./inp_files/68532.got.cif
#   From: 2010.06.25/outbox.cif.g09.slc.cpg/sg2_35_cif.got.tgz:68532.got - 2010.06.27 13:26:56.
