data_PCOD8020370
_publ_section_title
;
Structure prediction by ZEFSAII (Michael W. Deem and Ramdas Pophale) SiO2 
 PCOD8020370
Probable space group: P -1
;
_chemical_formula_sum "Si O2"
_cell_formula_units_Z 14
_cell_length_a 9.125778
_cell_length_b 5.455824
_cell_length_c 14.644546
_cell_angle_alpha 60.474661
_cell_angle_beta 64.895431
_cell_angle_gamma 84.195358
_cell_volume 569.095406
_symmetry_space_group_name_H-M "P -1"
_symmetry_group_IT_number 2
_symmetry_cell_setting 'triclinic'
loop_
_space_group_symop_operation_xyz
x,y,z
-x,-y,-z
loop_
_atom_site_type_symbol
_atom_site_label
_atom_site_fract_x
_atom_site_fract_y
_atom_site_fract_z
Si Si1 0.366368 0.728897 0.079256
Si Si2 0.559948 0.240620 0.635111
Si Si3 0.004566 0.717323 0.222987
Si Si4 0.128139 0.826950 0.544645
Si Si5 0.417655 0.723111 0.862628
Si Si6 0.906360 0.347379 0.137563
Si Si7 0.643098 0.836096 0.463846
O O1 0.439022 0.468198 0.154178
O O2 0.201136 0.774815 0.165715
O O3 0.327956 0.664807 0.994058
O O4 0.500000 0.000000 0.000000
O O5 0.705867 0.114329 0.567736
O O6 0.632100 0.560792 0.583867
O O7 0.393786 0.252911 0.615626
O O8 0.505831 0.050070 0.772760
O O9 0.938066 0.508415 0.363370
O O10 0.949809 0.547588 0.176417
O O11 0.944094 0.022126 0.194059
O O12 0.180343 0.970318 0.604236
O O13 0.000000 0.000000 0.500000
O O14 0.287351 0.660138 0.826985
O O15 0.000000 0.500000 0.000000
O O16 0.500000 0.000000 0.500000
#
# Coordination Sequence:
#
# PCOD8020370 Si02
#       7
#     2   2   2   2   2   2   2
#     4  11  26  47  68 102 142 186 242 293 364 429
#     4  10  22  42  67  98 132 179 232 282 348 414
#     4  12  28  47  77 106 148 190 241 301 358 430
#     4  11  25  44  66 102 142 185 229 288 358 425
#     4  11  25  42  73 101 139 190 237 299 354 427
#     4  12  26  49  75 110 143 189 247 300 362 419
#     4   9  21  40  64  93 134 173 227 281 335 420
#
# _framework density 24.600446000000002
#
# number of rings (size 3 to 8) (size 9 to 14) (size 15 to 20)
#    0.000    1.143    1.429    3.000   12.000    4.000 
#    0.000    0.000    0.000    0.000    0.000    0.000 
#    0.000    0.000    0.000    0.000    0.000    0.000 
#
# Total GULP energy -173539.271278 kJ/mol
# GULP energy per Si atom -12395.662234 kJ/mol
# Density = 2.454445 g / cm^3
# Si number density = 24.600446 Si / 1000 Ang^3
#
#
#
# Elastic Constant Matrix: (Units=GPa)
#
#
# Indices 1 2 3 4 5 6 
#
# 1 144.3927 37.1753 25.1109 -13.9395 -8.1293 -19.1921
# 2 37.1753 104.4573 16.7137 -30.2998 12.8349 -6.0935
# 3 25.1109 16.7137 125.3602 -33.3628 -2.1241 -18.4500
# 4 -13.9395 -30.2998 -33.3628 47.2839 -6.1285 2.7802
# 5 -8.1293 12.8349 -2.1241 -6.1285 32.0760 -14.0905
# 6 -19.1921 -6.0935 -18.4500 2.7802 -14.0905 32.1666
#
#
#
# Elastic Compliance Matrix: (Units=1/GPa)
#
#
# Indices 1 2 3 4 5 6 
#
# 1 0.009459 -0.003512 0.000277 0.001244 0.007761 0.008429
# 2 -0.003512 0.013442 0.000338 0.007190 -0.006021 -0.002614
# 3 0.000277 0.000338 0.011635 0.008801 0.006297 0.008900
# 4 0.001244 0.007190 0.008801 0.032876 0.007672 0.007671
# 5 0.007761 -0.006021 0.006297 0.007672 0.049857 0.028279
# 6 0.008429 -0.002614 0.008900 0.007671 0.028279 0.052452
#
#
# Mechanical properties :
#
#
# Convention : Reuss Voigt Hill
#
# Bulk Modulus (GPa) = 34.79191 59.13445 46.96318
# Shear Modulus (GPa) = 27.01291 41.98598 34.49944
#
# Velocity S-wave (km/s) = 3.31730 4.13572 3.74891
# Velocity P-wave (km/s) = 5.37086 6.84805 6.15394
#
# Compressibility (1/GPa) = 0.02874231
#
# Stress axis : x y z
#
# Youngs Moduli (GPa) = 105.71888 74.39365 85.94512
#
# Poissons Ratio (x) = 0.26126 -0.02377
# Poissons Ratio (y) = 0.37127 -0.02907
# Poissons Ratio (z) = -0.02924 -0.02516
#
# Static dielectric constant tensor:
#      x y z
#    x 5.538230 0.622470 0.136920 
#    y 0.622470 4.257850 -0.445060 
#    z 0.136920 -0.445060 4.533970 
# 
# 
# High freq. dielectric constant tensor:
#      x y z
#    x 1.983480 -0.006060 -0.006660 
#    y -0.006060 1.975890 -0.019770 
#    z -0.006660 -0.019770 1.989000 
# 
# From -- ./inp_files/46706.got.cif
#   From: 2010.06.25/outbox.cif.g09.slc.cpg/sg2_24_cif.got.tgz:46706.got - 2010.06.27 13:26:56.
