data_PCOD8020378
_publ_section_title
;
Structure prediction by ZEFSAII (Michael W. Deem and Ramdas Pophale) SiO2 
 PCOD8020378
Probable space group: P -1
;
_chemical_formula_sum "Si O2"
_cell_formula_units_Z 16
_cell_length_a 18.146585
_cell_length_b 11.402481
_cell_length_c 9.278252
_cell_angle_alpha 125.886513
_cell_angle_beta 136.257325
_cell_angle_gamma 30.218440
_cell_volume 664.063421
_symmetry_space_group_name_H-M "P -1"
_symmetry_group_IT_number 2
_symmetry_cell_setting 'triclinic'
loop_
_space_group_symop_operation_xyz
x,y,z
-x,-y,-z
loop_
_atom_site_type_symbol
_atom_site_label
_atom_site_fract_x
_atom_site_fract_y
_atom_site_fract_z
Si Si1 0.377245 0.931515 0.478822
Si Si2 0.252969 0.351116 0.694899
Si Si3 0.416323 0.922315 0.203051
Si Si4 0.077724 0.739757 0.538224
Si Si5 0.270662 0.805786 0.759803
Si Si6 0.411540 0.583606 0.282802
Si Si7 0.696563 0.591089 0.898425
Si Si8 0.847857 0.550166 0.823307
O O1 0.300408 0.850512 0.301515
O O2 0.516340 0.794109 0.704938
O O3 0.230697 0.209598 0.503047
O O4 0.462544 0.869772 0.399274
O O5 0.090680 0.626592 0.619549
O O6 0.411581 0.263528 0.780375
O O7 0.283813 0.307213 0.878110
O O8 0.326504 0.170639 0.220601
O O9 0.298769 0.911753 0.981388
O O10 0.204563 0.744107 0.722404
O O11 0.143542 0.569136 0.379925
O O12 0.878570 0.998606 0.426621
O O13 0.445510 0.578113 0.758733
O O14 0.500000 0.500000 0.500000
O O15 0.287010 0.577276 0.109981
O O16 0.851341 0.448864 0.900963
O O17 0.000000 0.500000 0.000000
#
# Coordination Sequence:
#
# PCOD8020378 Si02
#       8
#     2   2   2   2   2   2   2   2
#     4  11  23  39  69 106 136 174 226 287 333 393
#     4  12  23  41  70 108 134 178 233 287 337 402
#     4  12  23  40  72 101 133 181 240 280 328 406
#     4  11  25  44  68 100 147 178 230 276 343 407
#     4  11  24  43  69 101 139 187 223 284 337 405
#     4  10  22  42  67  99 134 178 224 277 343 400
#     4  11  24  42  66 101 141 174 223 288 344 403
#     4  12  24  45  69  97 137 184 223 280 350 409
#
# _framework density 24.094083999999999
#
# number of rings (size 3 to 8) (size 9 to 14) (size 15 to 20)
#    0.000    0.750    5.000    3.750    1.750    1.000 
#    0.000    3.125    0.000    5.250    0.000    0.000 
#    0.000    0.000    0.000    0.000    0.000    0.000 
#
# Total GULP energy -198318.858494 kJ/mol
# GULP energy per Si atom -12394.928656 kJ/mol
# Density = 2.403925 g / cm^3
# Si number density = 24.094084 Si / 1000 Ang^3
#
#
#
# Elastic Constant Matrix: (Units=GPa)
#
#
# Indices 1 2 3 4 5 6 
#
# 1 96.5301 34.1524 31.1611 4.6920 6.9168 24.4885
# 2 34.1524 80.2539 22.5546 8.4210 12.2803 35.8134
# 3 31.1611 22.5546 86.6581 21.4396 -5.1229 4.2207
# 4 4.6920 8.4210 21.4396 35.5443 6.4683 1.4348
# 5 6.9168 12.2803 -5.1229 6.4683 48.9507 7.9047
# 6 24.4885 35.8134 4.2207 1.4348 7.9047 33.5436
#
#
#
# Elastic Compliance Matrix: (Units=1/GPa)
#
#
# Indices 1 2 3 4 5 6 
#
# 1 0.014560 -0.000770 -0.005154 0.001952 -0.001215 -0.008956
# 2 -0.000770 0.026647 -0.005132 -0.001568 -0.002617 -0.026559
# 3 -0.005154 -0.005132 0.016946 -0.009311 0.003958 0.006575
# 4 0.001952 -0.001568 -0.009311 0.034844 -0.005665 0.001265
# 5 -0.001215 -0.002617 0.003958 -0.005665 0.022732 -0.001931
# 6 -0.008956 -0.026559 0.006575 0.001265 -0.001931 0.064280
#
#
# Mechanical properties :
#
#
# Convention : Reuss Voigt Hill
#
# Bulk Modulus (GPa) = 27.74549 48.79762 38.27155
# Shear Modulus (GPa) = 23.34999 35.31265 29.33132
#
# Velocity S-wave (km/s) = 3.11644 3.83249 3.49286
# Velocity P-wave (km/s) = 4.94875 6.31513 5.67322
#
# Compressibility (1/GPa) = 0.03604190
#
# Stress axis : x y z
#
# Youngs Moduli (GPa) = 68.68260 37.52731 59.01178
#
# Poissons Ratio (x) = 0.02889 0.30412
# Poissons Ratio (y) = 0.05287 0.30285
# Poissons Ratio (z) = 0.35396 0.19259
#
# Static dielectric constant tensor:
#      x y z
#    x 4.824790 0.609290 0.090430 
#    y 0.609290 4.481380 0.064330 
#    z 0.090430 0.064330 4.377990 
# 
# 
# High freq. dielectric constant tensor:
#      x y z
#    x 1.959400 0.028810 -0.002720 
#    y 0.028810 1.940200 0.024140 
#    z -0.002720 0.024140 1.958970 
# 
# From -- ./inp_files/333641.got.cif
#   From: 2010.06.25/outbox.cif.g09.slc.cpg/sg2_167_cif.got.tgz:333641.got - 2010.06.27 13:26:56.
