data_PCOD8020534
_publ_section_title
;
Structure prediction by ZEFSAII (Michael W. Deem and Ramdas Pophale) SiO2 
 PCOD8020534
Probable space group: P -1
;
_chemical_formula_sum "Si O2"
_cell_formula_units_Z 14
_cell_length_a 8.321489
_cell_length_b 11.574937
_cell_length_c 10.604225
_cell_angle_alpha 103.931439
_cell_angle_beta 138.553859
_cell_angle_gamma 65.010958
_cell_volume 607.872812
_symmetry_space_group_name_H-M "P -1"
_symmetry_group_IT_number 2
_symmetry_cell_setting 'triclinic'
loop_
_space_group_symop_operation_xyz
x,y,z
-x,-y,-z
loop_
_atom_site_type_symbol
_atom_site_label
_atom_site_fract_x
_atom_site_fract_y
_atom_site_fract_z
Si Si1 0.044292 0.770233 0.278788
Si Si2 0.420353 0.266351 0.111011
Si Si3 0.509068 0.711641 0.350313
Si Si4 0.671385 0.985689 0.275555
Si Si5 0.618505 0.441551 0.422028
Si Si6 0.769959 0.901404 0.581025
Si Si7 0.693491 0.165019 0.995119
O O1 0.863829 0.913499 0.255027
O O2 0.303998 0.767397 0.359824
O O3 0.112241 0.678488 0.419920
O O4 0.881314 0.717695 0.072710
O O5 0.424296 0.389691 0.219312
O O6 0.543142 0.261662 0.043390
O O7 0.588285 0.137168 0.251531
O O8 0.651414 0.556628 0.392247
O O9 0.743032 0.763489 0.517249
O O10 0.352065 0.755598 0.139590
O O11 0.826996 0.945906 0.488284
O O12 0.414005 0.949626 0.111938
O O13 0.500000 0.500000 0.500000
O O14 0.997218 0.895692 0.810099
O O15 0.500000 0.000000 0.500000
#
# Coordination Sequence:
#
# PCOD8020534 Si02
#       7
#     2   2   2   2   2   2   2
#     4  10  22  42  69  94 130 165 214 267 309 377
#     4  11  24  41  70  94 126 174 209 262 322 371
#     4  10  25  42  63  96 131 167 213 262 312 378
#     4  10  24  42  66  99 127 165 215 261 319 377
#     4  10  24  42  63  96 128 167 219 259 310 378
#     4  11  26  39  65  93 129 172 205 259 327 371
#     4  10  23  44  62  97 130 163 212 264 318 379
#
# _framework density 23.031134000000002
#
# number of rings (size 3 to 8) (size 9 to 14) (size 15 to 20)
#    0.000    1.714    0.000    2.571   10.000    6.286 
#    0.000   10.000    0.000    0.000    0.000    0.000 
#    0.000    0.000    0.000    0.000    0.000    0.000 
#
# Total GULP energy -173635.083212 kJ/mol
# GULP energy per Si atom -12402.505944 kJ/mol
# Density = 2.297871 g / cm^3
# Si number density = 23.031134 Si / 1000 Ang^3
#
#
#
# Elastic Constant Matrix: (Units=GPa)
#
#
# Indices 1 2 3 4 5 6 
#
# 1 75.4472 21.2212 18.8384 -7.3797 -17.0344 11.6899
# 2 21.2212 96.4628 32.0878 12.2938 -11.9743 23.8259
# 3 18.8384 32.0878 127.1641 0.6092 -1.6992 18.8134
# 4 -7.3797 12.2938 0.6092 37.9893 -0.9154 -7.1912
# 5 -17.0344 -11.9743 -1.6992 -0.9154 36.9265 -4.3346
# 6 11.6899 23.8259 18.8134 -7.1912 -4.3346 33.8911
#
#
#
# Elastic Compliance Matrix: (Units=1/GPa)
#
#
# Indices 1 2 3 4 5 6 
#
# 1 0.016422 -0.002415 -0.001541 0.003885 0.006649 -0.001437
# 2 -0.002415 0.015233 -0.001936 -0.007208 0.002381 -0.010026
# 3 -0.001541 -0.001936 0.009071 -0.000498 -0.001335 -0.003419
# 4 0.003885 -0.007208 -0.000498 0.031514 0.001490 0.010881
# 5 0.006649 0.002381 -0.001335 0.001490 0.031020 0.001057
# 6 -0.001437 -0.010026 -0.003419 0.010881 0.001057 0.041392
#
#
# Mechanical properties :
#
#
# Convention : Reuss Voigt Hill
#
# Bulk Modulus (GPa) = 34.55222 49.26320 41.90771
# Shear Modulus (GPa) = 30.10546 36.88984 33.49765
#
# Velocity S-wave (km/s) = 3.61939 4.00651 3.81786
# Velocity P-wave (km/s) = 5.70102 6.54516 6.13762
#
# Compressibility (1/GPa) = 0.02894170
#
# Stress axis : x y z
#
# Youngs Moduli (GPa) = 60.89356 65.64878 110.24065
#
# Poissons Ratio (x) = 0.15855 0.16984
# Poissons Ratio (y) = 0.14706 0.21346
# Poissons Ratio (z) = 0.09381 0.12712
#
# Static dielectric constant tensor:
#      x y z
#    x 4.094140 0.270340 -0.201960 
#    y 0.270340 4.479680 -0.116120 
#    z -0.201960 -0.116120 4.561080 
# 
# 
# High freq. dielectric constant tensor:
#      x y z
#    x 1.902000 0.008530 -0.008610 
#    y 0.008530 1.904400 0.006410 
#    z -0.008610 0.006410 1.925250 
# 
# From -- ./inp_files/308818.got.cif
#   From: 2010.06.25/outbox.cif.g09.slc.cpg/sg2_155_cif.got.tgz:308818.got - 2010.06.27 13:26:56.
