data_PCOD8020644
_publ_section_title
;
Structure prediction by ZEFSAII (Michael W. Deem and Ramdas Pophale) SiO2 
 PCOD8020644
Probable space group: P -1
;
_chemical_formula_sum "Si O2"
_cell_formula_units_Z 16
_cell_length_a 10.658232
_cell_length_b 12.769159
_cell_length_c 20.797370
_cell_angle_alpha 158.821726
_cell_angle_beta 133.399729
_cell_angle_gamma 56.227578
_cell_volume 703.147205
_symmetry_space_group_name_H-M "P -1"
_symmetry_group_IT_number 2
_symmetry_cell_setting 'triclinic'
loop_
_space_group_symop_operation_xyz
x,y,z
-x,-y,-z
loop_
_atom_site_type_symbol
_atom_site_label
_atom_site_fract_x
_atom_site_fract_y
_atom_site_fract_z
Si Si1 0.209450 0.230845 0.031499
Si Si2 0.751892 0.659941 0.691183
Si Si3 0.746245 0.389151 0.281227
Si Si4 0.863599 0.334563 0.150796
Si Si5 0.184921 0.180751 0.336237
Si Si6 0.419806 0.734757 0.490958
Si Si7 0.546037 0.360447 0.737585
Si Si8 0.389076 0.346554 0.810953
O O1 0.310706 0.431341 0.241475
O O2 0.250165 0.441718 0.101467
O O3 0.289832 0.947554 0.894280
O O4 0.991095 0.121919 0.905103
O O5 0.778834 0.619258 0.601785
O O6 0.580886 0.381414 0.501129
O O7 0.928734 0.624165 0.770545
O O8 0.735160 0.989976 0.892103
O O9 0.860030 0.416514 0.271639
O O10 0.860176 0.626959 0.511219
O O11 0.568106 0.483670 0.259022
O O12 0.788845 0.554328 0.206096
O O13 0.372646 0.102709 0.368407
O O14 0.316788 0.982873 0.588701
O O15 0.519787 0.428184 0.841102
O O16 0.500000 0.000000 0.500000
O O17 0.500000 0.500000 0.000000
#
# Coordination Sequence:
#
# PCOD8020644 Si02
#       8
#     2   2   2   2   2   2   2   2
#     4  12  23  43  72 101 140 188 222 294 352 403
#     4  11  22  43  70 101 139 181 230 289 347 414
#     4  11  22  43  69 106 141 173 237 294 336 421
#     4  10  22  42  70  99 137 182 230 282 354 413
#     4  12  25  41  72 111 142 172 245 287 345 417
#     4  12  25  45  71 101 142 191 229 286 357 407
#     4  11  23  44  73  98 141 189 228 281 360 414
#     4  11  25  45  68 101 141 179 236 291 337 425
#
# _framework density 22.754836000000001
#
# number of rings (size 3 to 8) (size 9 to 14) (size 15 to 20)
#    0.000    0.750    5.000    2.625    0.000    1.500 
#    0.000    2.500    0.000    0.000    0.000    0.000 
#    0.000    0.000    0.000    0.000    0.000    0.000 
#
# Total GULP energy -198331.670740 kJ/mol
# GULP energy per Si atom -12395.729421 kJ/mol
# Density = 2.270305 g / cm^3
# Si number density = 22.754836 Si / 1000 Ang^3
#
#
#
# Elastic Constant Matrix: (Units=GPa)
#
#
# Indices 1 2 3 4 5 6 
#
# 1 90.7621 38.5728 45.0815 -1.2949 1.0223 6.0914
# 2 38.5728 95.2453 52.8700 11.9927 -14.8023 6.4853
# 3 45.0815 52.8700 105.5364 10.3764 2.9763 -8.4471
# 4 -1.2949 11.9927 10.3764 46.0109 3.8330 -10.5066
# 5 1.0223 -14.8023 2.9763 3.8330 40.5300 2.1928
# 6 6.0914 6.4853 -8.4471 -10.5066 2.1928 48.0241
#
#
#
# Elastic Compliance Matrix: (Units=1/GPa)
#
#
# Indices 1 2 3 4 5 6 
#
# 1 0.015261 -0.003881 -0.004891 0.002287 -0.001567 -0.001700
# 2 -0.003881 0.018647 -0.007813 -0.005004 0.008219 -0.004870
# 3 -0.004891 -0.007813 0.015995 -0.000312 -0.004125 0.004609
# 4 0.002287 -0.005004 -0.000312 0.024919 -0.004543 0.005990
# 5 -0.001567 0.008219 -0.004125 -0.004543 0.028660 -0.003939
# 6 -0.001700 -0.004870 0.004609 0.005990 -0.003939 0.023997
#
#
# Mechanical properties :
#
#
# Convention : Reuss Voigt Hill
#
# Bulk Modulus (GPa) = 59.76688 62.73249 61.24968
# Shear Modulus (GPa) = 30.07907 37.24765 33.66336
#
# Velocity S-wave (km/s) = 3.63971 4.05027 3.85046
# Velocity P-wave (km/s) = 6.63218 7.03574 6.83694
#
# Compressibility (1/GPa) = 0.01673167
#
# Stress axis : x y z
#
# Youngs Moduli (GPa) = 65.52566 53.62775 62.51977
#
# Poissons Ratio (x) = 0.20813 0.30581
# Poissons Ratio (y) = 0.25431 0.48848
# Poissons Ratio (z) = 0.32052 0.41901
#
# Static dielectric constant tensor:
#      x y z
#    x 4.449100 -0.014720 -0.100830 
#    y -0.014720 4.288110 0.103770 
#    z -0.100830 0.103770 4.030810 
# 
# 
# High freq. dielectric constant tensor:
#      x y z
#    x 1.907890 0.006890 -0.010830 
#    y 0.006890 1.905950 -0.000050 
#    z -0.010830 -0.000050 1.883950 
# 
# From -- ./inp_files/595177.got.cif
#   From: 2010.06.25/outbox.cif.g09.slc.cpg/sg2_298_cif.got.tgz:595177.got - 2010.06.27 13:26:56.
