data_PCOD8020764
_publ_section_title
;
Structure prediction by ZEFSAII (Michael W. Deem and Ramdas Pophale) SiO2 
 PCOD8020764
Probable space group: P -1
;
_chemical_formula_sum "Si O2"
_cell_formula_units_Z 12
_cell_length_a 9.122700
_cell_length_b 6.166976
_cell_length_c 9.015253
_cell_angle_alpha 92.598999
_cell_angle_beta 119.701215
_cell_angle_gamma 73.319816
_cell_volume 419.151126
_symmetry_space_group_name_H-M "P -1"
_symmetry_group_IT_number 2
_symmetry_cell_setting 'triclinic'
loop_
_space_group_symop_operation_xyz
x,y,z
-x,-y,-z
loop_
_atom_site_type_symbol
_atom_site_label
_atom_site_fract_x
_atom_site_fract_y
_atom_site_fract_z
Si Si1 0.376611 0.663388 0.599160
Si Si2 0.156771 0.061704 0.010432
Si Si3 0.432231 0.766687 0.949358
Si Si4 0.322029 0.208499 0.684285
Si Si5 0.970571 0.362893 0.680269
Si Si6 0.319369 0.206049 0.369859
O O1 0.385758 0.421512 0.670605
O O2 0.551568 0.635287 0.583690
O O3 0.182164 0.762425 0.426762
O O4 0.391653 0.828598 0.753993
O O5 0.079122 0.291511 0.885114
O O6 0.299127 0.078451 0.205853
O O7 0.246039 0.853264 0.940519
O O8 0.000000 0.000000 0.000000
O O9 0.575486 0.876035 0.108190
O O10 0.500000 0.500000 0.000000
O O11 0.110842 0.302657 0.612209
O O12 0.377016 0.047053 0.548339
O O13 0.871036 0.630946 0.662823
#
# Coordination Sequence:
#
# PCOD8020764 Si02
#       6
#     2   2   2   2   2   2
#     4  10  22  42  76 102 142 187 231 278 359 417
#     4  12  30  44  71 107 142 185 243 290 349 411
#     4  10  25  46  71  96 144 187 232 286 355 407
#     4  10  22  42  76 102 142 187 231 278 359 417
#     4  11  24  44  73 107 144 183 233 288 353 418
#     4  11  24  44  73 107 144 183 233 288 353 418
#
# _framework density 28.629296
#
# number of rings (size 3 to 8) (size 9 to 14) (size 15 to 20)
#    0.000    1.333    0.000    5.500   14.000    4.000 
#    0.000    0.000    0.000    0.000    0.000    0.000 
#    0.000    0.000    0.000    0.000    0.000    0.000 
#
# Total GULP energy -148773.385474 kJ/mol
# GULP energy per Si atom -12397.782123 kJ/mol
# Density = 2.856413 g / cm^3
# Si number density = 28.629296 Si / 1000 Ang^3
#
#
#
# Elastic Constant Matrix: (Units=GPa)
#
#
# Indices 1 2 3 4 5 6 
#
# 1 199.9819 9.5706 59.0561 -10.4787 -15.9891 -6.6767
# 2 9.5706 51.7189 46.8557 -3.5484 -4.4974 6.2905
# 3 59.0561 46.8557 248.7430 -16.4135 -21.6241 3.4376
# 4 -10.4787 -3.5484 -16.4135 42.8035 -3.6087 6.7138
# 5 -15.9891 -4.4974 -21.6241 -3.6087 51.7922 4.7202
# 6 -6.6767 6.2905 3.4376 6.7138 4.7202 15.0588
#
#
#
# Elastic Compliance Matrix: (Units=1/GPa)
#
#
# Indices 1 2 3 4 5 6 
#
# 1 0.005548 -0.000063 -0.001200 0.000646 0.001056 0.002141
# 2 -0.000063 0.024785 -0.004222 0.002258 0.001521 -0.010901
# 3 -0.001200 -0.004222 0.005390 0.001782 0.001760 -0.001345
# 4 0.000646 0.002258 0.001782 0.027028 0.004342 -0.014475
# 5 0.001056 0.001521 0.001760 0.004342 0.021650 -0.009291
# 6 0.002141 -0.010901 -0.001345 -0.014475 -0.009291 0.081582
#
#
# Mechanical properties :
#
#
# Convention : Reuss Voigt Hill
#
# Bulk Modulus (GPa) = 40.40220 81.26761 60.83490
# Shear Modulus (GPa) = 26.99725 47.59499 37.29612
#
# Velocity S-wave (km/s) = 3.07415 4.08175 3.61324
# Velocity P-wave (km/s) = 5.17140 7.11773 6.22115
#
# Compressibility (1/GPa) = 0.02475113
#
# Stress axis : x y z
#
# Youngs Moduli (GPa) = 180.25448 40.34699 185.54080
#
# Poissons Ratio (x) = 0.00256 0.22272
# Poissons Ratio (y) = 0.01144 0.78332
# Poissons Ratio (z) = 0.21637 0.17034
#
# Static dielectric constant tensor:
#      x y z
#    x 5.140440 -0.170340 0.035560 
#    y -0.170340 5.766390 0.989880 
#    z 0.035560 0.989880 7.938740 
# 
# 
# High freq. dielectric constant tensor:
#      x y z
#    x 2.181060 -0.002000 -0.019580 
#    y -0.002000 2.194220 -0.004060 
#    z -0.019580 -0.004060 2.208050 
# 
# From -- ./inp_files/155692.got.cif
#   From: 2010.06.25/outbox.cif.g09.slc.cpg/sg2_78_cif.got.tgz:155692.got - 2010.06.27 13:26:56.
