data_PCOD8020726
_publ_section_title
;
Structure prediction by ZEFSAII (Michael W. Deem and Ramdas Pophale) SiO2 
 PCOD8020726
Probable space group: P -1
;
_chemical_formula_sum "Si O2"
_cell_formula_units_Z 16
_cell_length_a 14.961509
_cell_length_b 8.846872
_cell_length_c 15.156227
_cell_angle_alpha 92.919146
_cell_angle_beta 151.638291
_cell_angle_gamma 68.550280
_cell_volume 701.039755
_symmetry_space_group_name_H-M "P -1"
_symmetry_group_IT_number 2
_symmetry_cell_setting 'triclinic'
loop_
_space_group_symop_operation_xyz
x,y,z
-x,-y,-z
loop_
_atom_site_type_symbol
_atom_site_label
_atom_site_fract_x
_atom_site_fract_y
_atom_site_fract_z
Si Si1 0.342905 0.376136 0.518181
Si Si2 0.752017 0.745203 0.384555
Si Si3 0.543738 0.144730 0.281595
Si Si4 0.999356 0.967771 0.796342
Si Si5 0.925638 0.750549 0.056387
Si Si6 0.515210 0.502025 0.800542
Si Si7 0.274425 0.016469 0.271700
Si Si8 0.705986 0.488611 0.229636
O O1 0.255448 0.319073 0.523545
O O2 0.414003 0.505878 0.616933
O O3 0.598727 0.173100 0.690223
O O4 0.129000 0.516074 0.260899
O O5 0.633739 0.699847 0.205193
O O6 0.041921 0.635199 0.612327
O O7 0.596740 0.986321 0.250435
O O8 0.349571 0.179770 0.183511
O O9 0.409057 0.363004 0.126109
O O10 0.802902 0.059389 0.548828
O O11 0.867060 0.984912 0.771298
O O12 0.240852 0.734847 0.970970
O O13 0.080924 0.098005 0.881919
O O14 0.951705 0.778090 0.975875
O O15 0.278036 0.606586 0.665509
O O16 0.500000 0.000000 0.500000
O O17 0.500000 0.500000 0.000000
#
# Coordination Sequence:
#
# PCOD8020726 Si02
#       8
#     2   2   2   2   2   2   2   2
#     4  11  24  45  68  99 137 181 228 278 339 402
#     4  10  22  45  68  98 144 168 221 286 325 405
#     4  12  25  43  71 104 133 183 228 271 344 399
#     4  12  25  47  69  97 141 182 224 287 335 395
#     4  12  25  42  69  97 135 180 228 275 337 400
#     4  11  25  45  72  99 136 178 227 280 340 404
#     4  12  25  44  67 100 138 181 232 281 335 395
#     4  10  22  42  73 100 131 181 218 272 345 398
#
# _framework density 22.823240999999999
#
# number of rings (size 3 to 8) (size 9 to 14) (size 15 to 20)
#    0.000    0.750    5.000    1.875    5.250    2.500 
#    0.000    0.625    0.000    0.000    0.000    0.000 
#    0.000    0.000    0.000    0.000    0.000    0.000 
#
# Total GULP energy -198230.164170 kJ/mol
# GULP energy per Si atom -12389.385261 kJ/mol
# Density = 2.277129 g / cm^3
# Si number density = 22.823241 Si / 1000 Ang^3
#
#
#
# Elastic Constant Matrix: (Units=GPa)
#
#
# Indices 1 2 3 4 5 6 
#
# 1 95.9515 37.9029 8.4213 -10.4348 17.9605 -2.4338
# 2 37.9029 110.8128 15.1620 10.2915 6.6445 14.2274
# 3 8.4213 15.1620 89.0213 8.1876 -0.7362 5.4391
# 4 -10.4348 10.2915 8.1876 40.4338 1.0986 2.3486
# 5 17.9605 6.6445 -0.7362 1.0986 29.9264 7.8050
# 6 -2.4338 14.2274 5.4391 2.3486 7.8050 30.7113
#
#
#
# Elastic Compliance Matrix: (Units=1/GPa)
#
#
# Indices 1 2 3 4 5 6 
#
# 1 0.015479 -0.005835 -0.001457 0.005679 -0.009872 0.006262
# 2 -0.005835 0.012161 -0.000730 -0.004157 0.002581 -0.006305
# 3 -0.001457 -0.000730 0.011878 -0.002522 0.001994 -0.002195
# 4 0.005679 -0.004157 -0.002522 0.027775 -0.004015 0.001719
# 5 -0.009872 0.002581 0.001994 -0.004015 0.042295 -0.012773
# 6 0.006262 -0.006305 -0.002195 0.001719 -0.012773 0.039481
#
#
# Mechanical properties :
#
#
# Convention : Reuss Voigt Hill
#
# Bulk Modulus (GPa) = 42.60150 46.52867 44.56509
# Shear Modulus (GPa) = 28.91212 35.83427 32.37319
#
# Velocity S-wave (km/s) = 3.56305 3.96672 3.77029
# Velocity P-wave (km/s) = 5.96938 6.43511 6.20661
#
# Compressibility (1/GPa) = 0.02347335
#
# Stress axis : x y z
#
# Youngs Moduli (GPa) = 64.60386 82.23242 84.18897
#
# Poissons Ratio (x) = 0.47980 0.12267
# Poissons Ratio (y) = 0.37694 0.06149
# Poissons Ratio (z) = 0.09414 0.06006
#
# Static dielectric constant tensor:
#      x y z
#    x 4.257560 -0.070980 0.141910 
#    y -0.070980 4.509730 0.178340 
#    z 0.141910 0.178340 4.078670 
# 
# 
# High freq. dielectric constant tensor:
#      x y z
#    x 1.899650 0.002770 0.011240 
#    y 0.002770 1.916000 0.019130 
#    z 0.011240 0.019130 1.889940 
# 
# From -- ./inp_files/529829.got.cif
#   From: 2010.06.25/outbox.cif.g09.slc.cpg/sg2_265_cif.got.tgz:529829.got - 2010.06.27 13:26:56.
