data_PCOD8020245
_publ_section_title
;
Structure prediction by ZEFSAII (Michael W. Deem and Ramdas Pophale) SiO2 
 PCOD8020245
Probable space group: P -1
;
_chemical_formula_sum "Si O2"
_cell_formula_units_Z 16
_cell_length_a 28.372212
_cell_length_b 14.212214
_cell_length_c 6.291194
_cell_angle_alpha 90.947478
_cell_angle_beta 108.560261
_cell_angle_gamma 149.113953
_cell_volume 991.910773
_symmetry_space_group_name_H-M "P -1"
_symmetry_group_IT_number 2
_symmetry_cell_setting 'triclinic'
loop_
_space_group_symop_operation_xyz
x,y,z
-x,-y,-z
loop_
_atom_site_type_symbol
_atom_site_label
_atom_site_fract_x
_atom_site_fract_y
_atom_site_fract_z
Si Si1 0.092137 0.642349 0.825379
Si Si2 0.219439 0.734522 0.732261
Si Si3 0.654733 0.327274 0.086522
Si Si4 0.252185 0.639911 0.113361
Si Si5 0.994147 0.631699 0.927929
Si Si6 0.394547 0.937227 0.720208
Si Si7 0.017897 0.180409 0.999455
Si Si8 0.088489 0.158830 0.437111
O O1 0.213748 0.817167 0.882573
O O2 0.000000 0.500000 0.500000
O O3 0.103077 0.757641 0.983204
O O4 0.044566 0.478228 0.906090
O O5 0.119677 0.564825 0.399233
O O6 0.348530 0.942283 0.809682
O O7 0.194326 0.602358 0.842035
O O8 0.644087 0.232005 0.254921
O O9 0.771725 0.593915 0.290754
O O10 0.660188 0.286581 0.862956
O O11 0.538238 0.194236 0.917197
O O12 0.330859 0.838297 0.395977
O O13 0.142248 0.398906 0.058918
O O14 0.039499 0.815730 0.040201
O O15 0.047439 0.183301 0.264634
O O16 0.921670 0.951644 0.726448
O O17 0.000000 0.000000 0.500000
#
# Coordination Sequence:
#
# PCOD8020245 Si02
#       8
#     2   2   2   2   2   2   2   2
#     4   9  18  28  47  72  98 128 152 197 245 300
#     4  10  17  28  47  71  95 127 154 190 248 288
#     4  10  20  32  44  67  93 129 168 201 242 278
#     4  11  17  30  48  67  95 128 162 195 240 284
#     4  10  18  31  46  69 103 125 160 195 241 300
#     4  10  19  30  48  66  95 126 162 207 239 289
#     4  11  20  31  49  68  95 136 162 196 235 286
#     4  11  22  33  47  67  97 135 169 199 232 279
#
# _framework density 16.130485
#
# number of rings (size 3 to 8) (size 9 to 14) (size 15 to 20)
#    0.000    1.750    5.000    1.125    0.000    0.000 
#    0.000    0.000    0.000    0.000    0.000    0.875 
#    0.000   15.000    0.000    1.875    0.000    0.125 
#
# Total GULP energy -198268.037297 kJ/mol
# GULP energy per Si atom -12391.752331 kJ/mol
# Density = 1.609377 g / cm^3
# Si number density = 16.130485 Si / 1000 Ang^3
#
#
#
# Elastic Constant Matrix: (Units=GPa)
#
#
# Indices 1 2 3 4 5 6 
#
# 1 149.0854 42.6463 31.1686 2.2610 -9.3040 18.9467
# 2 42.6463 78.6905 43.3601 -3.1909 2.6606 10.6047
# 3 31.1686 43.3601 75.2739 -7.3815 0.4133 5.7482
# 4 2.2610 -3.1909 -7.3815 31.6176 0.2831 3.3224
# 5 -9.3040 2.6606 0.4133 0.2831 19.5451 -2.1207
# 6 18.9467 10.6047 5.7482 3.3224 -2.1207 31.6368
#
#
#
# Elastic Compliance Matrix: (Units=1/GPa)
#
#
# Indices 1 2 3 4 5 6 
#
# 1 0.008776 -0.003756 -0.001337 -0.001005 0.004367 -0.003355
# 2 -0.003756 0.020999 -0.010225 0.000390 -0.004793 -0.003294
# 3 -0.001337 -0.010225 0.020076 0.003726 0.000300 0.000209
# 4 -0.001005 0.000390 0.003726 0.033019 -0.001498 -0.003774
# 5 0.004367 -0.004793 0.000300 -0.001498 0.054207 0.002728
# 6 -0.003355 -0.003294 0.000209 -0.003774 0.002728 0.035264
#
#
# Mechanical properties :
#
#
# Convention : Reuss Voigt Hill
#
# Bulk Modulus (GPa) = 52.03934 59.71109 55.87522
# Shear Modulus (GPa) = 23.87997 28.95157 26.41577
#
# Velocity S-wave (km/s) = 3.85180 4.24115 4.05115
# Velocity P-wave (km/s) = 7.21896 7.81543 7.52311
#
# Compressibility (1/GPa) = 0.01921623
#
# Stress axis : x y z
#
# Youngs Moduli (GPa) = 113.95309 47.62026 49.81053
#
# Poissons Ratio (x) = 0.17884 0.06658
# Poissons Ratio (y) = 0.42796 0.50932
# Poissons Ratio (z) = 0.15232 0.48693
#
# Static dielectric constant tensor:
#      x y z
#    x 3.573010 0.227270 -0.065180 
#    y 0.227270 2.951250 -0.291350 
#    z -0.065180 -0.291350 3.094190 
# 
# 
# High freq. dielectric constant tensor:
#      x y z
#    x 1.625510 0.021770 -0.004140 
#    y 0.021770 1.590730 -0.038020 
#    z -0.004140 -0.038020 1.615240 
# 
# From -- ./inp_files/73953.got.cif
#   From: 2010.06.25/outbox.cif.g09.slc.cpg/sg2_37_cif.got.tgz:73953.got - 2010.06.27 13:26:56.
