data_PCOD8020448
_publ_section_title
;
Structure prediction by ZEFSAII (Michael W. Deem and Ramdas Pophale) SiO2 
 PCOD8020448
Probable space group: P -1
;
_chemical_formula_sum "Si O2"
_cell_formula_units_Z 16
_cell_length_a 11.636100
_cell_length_b 8.575701
_cell_length_c 9.390423
_cell_angle_alpha 76.265299
_cell_angle_beta 88.842904
_cell_angle_gamma 127.174222
_cell_volume 708.894608
_symmetry_space_group_name_H-M "P -1"
_symmetry_group_IT_number 2
_symmetry_cell_setting 'triclinic'
loop_
_space_group_symop_operation_xyz
x,y,z
-x,-y,-z
loop_
_atom_site_type_symbol
_atom_site_label
_atom_site_fract_x
_atom_site_fract_y
_atom_site_fract_z
Si Si1 0.974459 0.168024 0.110259
Si Si2 0.579680 0.312439 0.250207
Si Si3 0.656871 0.856711 0.495947
Si Si4 0.159670 0.699798 0.722750
Si Si5 0.676766 0.749290 0.215761
Si Si6 0.107130 0.071003 0.347826
Si Si7 0.934365 0.245822 0.795957
Si Si8 0.397962 0.052762 0.046428
O O1 0.909512 0.280999 0.139345
O O2 0.103661 0.216273 0.202405
O O3 0.852784 0.921271 0.175421
O O4 0.019728 0.235812 0.930394
O O5 0.494493 0.204420 0.424360
O O6 0.708270 0.297207 0.229804
O O7 0.643240 0.546163 0.200260
O O8 0.464666 0.194578 0.151924
O O9 0.616873 0.726432 0.381691
O O10 0.727039 0.794175 0.622947
O O11 0.777283 0.104246 0.421311
O O12 0.030240 0.485298 0.695007
O O13 0.601906 0.816265 0.105136
O O14 0.064827 0.870314 0.312636
O O15 0.000000 0.000000 0.500000
O O16 0.768431 0.150252 0.867648
O O17 0.500000 0.000000 0.000000
#
# Coordination Sequence:
#
# PCOD8020448 Si02
#       8
#     2   2   2   2   2   2   2   2
#     4  10  22  44  69  97 133 174 219 286 336 393
#     4  12  23  44  68  99 132 180 234 273 332 407
#     4  11  24  45  65  98 137 182 223 282 339 395
#     4  11  24  42  72  97 137 177 228 275 340 399
#     4  10  22  42  68  95 133 178 225 271 339 398
#     4  12  22  43  66  94 141 172 223 278 336 395
#     4  11  24  44  69 102 129 180 230 268 342 401
#     4  11  24  46  69 101 141 174 221 287 333 399
#
# _framework density 22.570350000000001
#
# number of rings (size 3 to 8) (size 9 to 14) (size 15 to 20)
#    0.000    1.000    3.750    4.875    0.000    1.500 
#    4.500    0.000    0.000    0.000    0.000    0.000 
#    0.000    0.000    0.000    0.000    0.000    0.000 
#
# Total GULP energy -198389.258237 kJ/mol
# GULP energy per Si atom -12399.328640 kJ/mol
# Density = 2.251898 g / cm^3
# Si number density = 22.570350 Si / 1000 Ang^3
#
#
#
# Elastic Constant Matrix: (Units=GPa)
#
#
# Indices 1 2 3 4 5 6 
#
# 1 109.3475 22.6131 25.9269 2.5753 13.4627 -2.8106
# 2 22.6131 62.8733 -1.5829 -3.3855 -0.5209 -2.3573
# 3 25.9269 -1.5829 60.1861 8.7459 6.4725 -1.0863
# 4 2.5753 -3.3855 8.7459 27.7647 1.6253 -1.2681
# 5 13.4627 -0.5209 6.4725 1.6253 38.2593 5.3379
# 6 -2.8106 -2.3573 -1.0863 -1.2681 5.3379 28.0432
#
#
#
# Elastic Compliance Matrix: (Units=1/GPa)
#
#
# Indices 1 2 3 4 5 6 
#
# 1 0.011615 -0.004269 -0.004736 0.000160 -0.003533 0.001302
# 2 -0.004269 0.017639 0.001913 0.001919 0.001199 0.000987
# 3 -0.004736 0.001913 0.019659 -0.005412 -0.001471 0.000483
# 4 0.000160 0.001919 -0.005412 0.038085 -0.000995 0.001879
# 5 -0.003533 0.001199 -0.001471 -0.000995 0.028494 -0.005779
# 6 0.001302 0.000987 0.000483 0.001879 -0.005779 0.037076
#
#
# Mechanical properties :
#
#
# Convention : Reuss Voigt Hill
#
# Bulk Modulus (GPa) = 28.79402 36.25789 32.52596
# Shear Modulus (GPa) = 28.03815 31.17676 29.60745
#
# Velocity S-wave (km/s) = 3.52839 3.72064 3.62579
# Velocity P-wave (km/s) = 5.42075 5.87850 5.65426
#
# Compressibility (1/GPa) = 0.03472943
#
# Stress axis : x y z
#
# Youngs Moduli (GPa) = 86.09246 56.69341 50.86772
#
# Poissons Ratio (x) = 0.24201 0.24090
# Poissons Ratio (y) = 0.36750 -0.09730
# Poissons Ratio (z) = 0.40772 -0.10844
#
# Static dielectric constant tensor:
#      x y z
#    x 4.290010 0.017990 0.051370 
#    y 0.017990 4.067440 0.153580 
#    z 0.051370 0.153580 4.148820 
# 
# 
# High freq. dielectric constant tensor:
#      x y z
#    x 1.898860 -0.004730 -0.006750 
#    y -0.004730 1.883510 0.016170 
#    z -0.006750 0.016170 1.893080 
# 
# From -- ./inp_files/243559.got.cif
#   From: 2010.06.25/outbox.cif.g09.slc.cpg/sg2_122_cif.got.tgz:243559.got - 2010.06.27 13:26:56.
