data_PCOD8020264
_publ_section_title
;
Structure prediction by ZEFSAII (Michael W. Deem and Ramdas Pophale) SiO2 
 PCOD8020264
Probable space group: P -1
;
_chemical_formula_sum "Si O2"
_cell_formula_units_Z 16
_cell_length_a 12.253073
_cell_length_b 11.639861
_cell_length_c 23.206698
_cell_angle_alpha 37.818109
_cell_angle_beta 20.978296
_cell_angle_gamma 37.900636
_cell_volume 706.310910
_symmetry_space_group_name_H-M "P -1"
_symmetry_group_IT_number 2
_symmetry_cell_setting 'triclinic'
loop_
_space_group_symop_operation_xyz
x,y,z
-x,-y,-z
loop_
_atom_site_type_symbol
_atom_site_label
_atom_site_fract_x
_atom_site_fract_y
_atom_site_fract_z
Si Si1 0.898812 0.316042 0.781353
Si Si2 0.142691 0.501633 0.689141
Si Si3 0.264621 0.896692 0.760733
Si Si4 0.245302 0.225805 0.142655
Si Si5 0.405335 0.806633 0.246371
Si Si6 0.080680 0.163122 0.935578
Si Si7 0.763478 0.810832 0.961633
Si Si8 0.102529 0.403197 0.428029
O O1 0.817420 0.427266 0.717089
O O2 0.966305 0.478762 0.726222
O O3 0.599374 0.237381 0.980154
O O4 0.198289 0.130887 0.706767
O O5 0.500000 0.500000 0.500000
O O6 0.058856 0.347290 0.834569
O O7 0.990882 0.697478 0.719428
O O8 0.626088 0.789295 0.618751
O O9 0.079303 0.862768 0.808182
O O10 0.164009 0.799564 0.906277
O O11 0.158646 0.319319 0.083778
O O12 0.207398 0.008649 0.239228
O O13 0.574683 0.874669 0.191383
O O14 0.189279 0.666732 0.428682
O O15 0.632692 0.703866 0.122161
O O16 0.000000 0.000000 0.000000
O O17 0.500000 0.000000 0.000000
O O18 0.000000 0.500000 0.500000
#
# Coordination Sequence:
#
# PCOD8020264 Si02
#       8
#     2   2   2   2   2   2   2   2
#     4  12  24  49  71 100 143 186 246 286 350 427
#     4  12  27  42  66 108 142 181 239 296 354 426
#     4  11  24  45  78 101 138 193 235 292 351 427
#     4  11  22  43  73  95 138 189 231 291 352 417
#     4  10  22  42  67 102 143 177 232 302 353 410
#     4  11  21  45  73  99 136 187 248 285 346 428
#     4   9  18  41  73 100 128 182 240 283 347 421
#     4  12  29  45  68 112 150 184 233 295 368 426
#
# _framework density 22.652913999999999
#
# number of rings (size 3 to 8) (size 9 to 14) (size 15 to 20)
#    0.000    1.000    5.000    2.625    3.500    3.500 
#    0.000    5.000    0.000    0.000    0.000    0.000 
#    0.000    0.000    0.000    0.000    0.000    0.000 
#
# Total GULP energy -198254.026553 kJ/mol
# GULP energy per Si atom -12390.876660 kJ/mol
# Density = 2.260135 g / cm^3
# Si number density = 22.652914 Si / 1000 Ang^3
#
#
#
# Elastic Constant Matrix: (Units=GPa)
#
#
# Indices 1 2 3 4 5 6 
#
# 1 126.5378 26.0204 32.1163 14.9334 -3.9728 17.3692
# 2 26.0204 77.5844 31.0742 11.8681 10.9595 11.4301
# 3 32.1163 31.0742 92.7949 2.8592 -9.3620 13.3723
# 4 14.9334 11.8681 2.8592 35.9386 4.3100 6.6659
# 5 -3.9728 10.9595 -9.3620 4.3100 30.8915 -3.0073
# 6 17.3692 11.4301 13.3723 6.6659 -3.0073 39.2253
#
#
#
# Elastic Compliance Matrix: (Units=1/GPa)
#
#
# Indices 1 2 3 4 5 6 
#
# 1 0.009518 -0.001726 -0.002145 -0.002937 0.001365 -0.002376
# 2 -0.001726 0.017756 -0.005694 -0.003260 -0.008039 -0.002531
# 3 -0.002145 -0.005694 0.014252 0.001336 0.005678 -0.002041
# 4 -0.002937 -0.003260 0.001336 0.031138 -0.003527 -0.003767
# 5 0.001365 -0.008039 0.005678 -0.003527 0.037934 0.003310
# 6 -0.002376 -0.002531 -0.002041 -0.003767 0.003310 0.028873
#
#
# Mechanical properties :
#
#
# Convention : Reuss Voigt Hill
#
# Bulk Modulus (GPa) = 44.65589 52.81542 48.73566
# Shear Modulus (GPa) = 30.10838 35.05816 32.58327
#
# Velocity S-wave (km/s) = 3.64966 3.93825 3.79670
# Velocity P-wave (km/s) = 6.12502 6.63667 6.38598
#
# Compressibility (1/GPa) = 0.02239346
#
# Stress axis : x y z
#
# Youngs Moduli (GPa) = 105.06463 56.31951 70.16716
#
# Poissons Ratio (x) = 0.09722 0.15054
# Poissons Ratio (y) = 0.18137 0.39955
# Poissons Ratio (z) = 0.22541 0.32070
#
# Static dielectric constant tensor:
#      x y z
#    x 4.449710 -0.312820 0.138140 
#    y -0.312820 4.014700 -0.498720 
#    z 0.138140 -0.498720 4.166260 
# 
# 
# High freq. dielectric constant tensor:
#      x y z
#    x 1.914010 0.006030 0.001320 
#    y 0.006030 1.876240 -0.009000 
#    z 0.001320 -0.009000 1.884150 
# 
# From -- ./inp_files/610342.got.cif
#   From: 2010.06.25/outbox.cif.g09.slc.cpg/sg2_306_cif.got.tgz:610342.got - 2010.06.27 13:26:56.
