data_PCOD8020323
_publ_section_title
;
Structure prediction by ZEFSAII (Michael W. Deem and Ramdas Pophale) SiO2 
 PCOD8020323
Probable space group: P -1
;
_chemical_formula_sum "Si O2"
_cell_formula_units_Z 14
_cell_length_a 6.910054
_cell_length_b 19.171589
_cell_length_c 9.884526
_cell_angle_alpha 49.389863
_cell_angle_beta 47.185536
_cell_angle_gamma 52.023659
_cell_volume 693.160537
_symmetry_space_group_name_H-M "P -1"
_symmetry_group_IT_number 2
_symmetry_cell_setting 'triclinic'
loop_
_space_group_symop_operation_xyz
x,y,z
-x,-y,-z
loop_
_atom_site_type_symbol
_atom_site_label
_atom_site_fract_x
_atom_site_fract_y
_atom_site_fract_z
Si Si1 0.482289 0.768910 0.276856
Si Si2 0.808079 0.109854 0.969493
Si Si3 0.250361 0.862792 0.528916
Si Si4 0.726820 0.456041 0.832229
Si Si5 0.082862 0.770328 0.985846
Si Si6 0.340637 0.450512 0.541049
Si Si7 0.360929 0.035447 0.379462
O O1 0.225779 0.837305 0.226133
O O2 0.443145 0.784521 0.436288
O O3 0.490899 0.660863 0.382882
O O4 0.766083 0.787309 0.074761
O O5 0.914457 0.171757 0.950116
O O6 0.503098 0.109548 0.156680
O O7 0.000000 0.000000 0.000000
O O8 0.220871 0.814031 0.746120
O O9 0.965031 0.910296 0.523644
O O10 0.405369 0.942468 0.379421
O O11 0.627519 0.514973 0.668557
O O12 0.021844 0.469692 0.715042
O O13 0.500000 0.500000 0.000000
O O14 0.755718 0.343785 0.932020
O O15 0.500000 0.500000 0.500000
O O16 0.500000 0.000000 0.500000
#
# Coordination Sequence:
#
# PCOD8020323 Si02
#       7
#     2   2   2   2   2   2   2
#     4  11  24  41  62  93 121 166 209 249 314 368
#     4  12  24  39  62  90 128 165 210 252 304 365
#     4  11  23  39  62  84 124 162 203 252 302 355
#     4  10  22  42  67  95 125 163 209 262 323 375
#     4  11  23  42  63  91 126 162 205 258 307 373
#     4  10  22  43  65  92 131 161 207 265 315 380
#     4  11  22  39  57  85 122 160 204 252 293 353
#
# _framework density 20.197341999999999
#
# number of rings (size 3 to 8) (size 9 to 14) (size 15 to 20)
#    0.000    1.143    2.857    3.429    2.000    1.714 
#    2.571    0.000    0.000    0.000    0.000    0.000 
#    0.000    0.000    0.000    0.000    0.000    0.000 
#
# Total GULP energy -173602.460606 kJ/mol
# GULP energy per Si atom -12400.175758 kJ/mol
# Density = 2.015137 g / cm^3
# Si number density = 20.197342 Si / 1000 Ang^3
#
#
#
# Elastic Constant Matrix: (Units=GPa)
#
#
# Indices 1 2 3 4 5 6 
#
# 1 107.7303 60.2091 30.4000 -12.4306 6.0022 5.6371
# 2 60.2091 139.9617 44.2956 -4.4617 0.0366 9.9667
# 3 30.4000 44.2956 86.1790 -1.4051 12.8342 3.3621
# 4 -12.4306 -4.4617 -1.4051 37.2232 4.1771 2.7077
# 5 6.0022 0.0366 12.8342 4.1771 28.0545 -10.8191
# 6 5.6371 9.9667 3.3621 2.7077 -10.8191 33.8870
#
#
#
# Elastic Compliance Matrix: (Units=1/GPa)
#
#
# Indices 1 2 3 4 5 6 
#
# 1 0.013279 -0.004968 -0.001435 0.004347 -0.003641 -0.002115
# 2 -0.004968 0.010616 -0.004072 -0.000766 0.002646 -0.000986
# 3 -0.001435 -0.004072 0.015498 0.000702 -0.007918 -0.002685
# 4 0.004347 -0.000766 0.000702 0.029510 -0.007723 -0.005391
# 5 -0.003641 0.002646 -0.007918 -0.007723 0.047518 0.016401
# 6 -0.002115 -0.000986 -0.002685 -0.005391 0.016401 0.036085
#
#
# Mechanical properties :
#
#
# Convention : Reuss Voigt Hill
#
# Bulk Modulus (GPa) = 54.22100 67.07561 60.64831
# Shear Modulus (GPa) = 27.83893 33.09736 30.46814
#
# Velocity S-wave (km/s) = 3.71664 4.05248 3.88818
# Velocity P-wave (km/s) = 6.73214 7.42825 7.08875
#
# Compressibility (1/GPa) = 0.01844304
#
# Stress axis : x y z
#
# Youngs Moduli (GPa) = 75.30570 94.19869 64.52329
#
# Poissons Ratio (x) = 0.46799 0.09259
# Poissons Ratio (y) = 0.37413 0.26274
# Poissons Ratio (z) = 0.10807 0.38358
#
# Static dielectric constant tensor:
#      x y z
#    x 3.643610 0.041170 -0.102790 
#    y 0.041170 3.699190 -0.116480 
#    z -0.102790 -0.116480 3.856040 
# 
# 
# High freq. dielectric constant tensor:
#      x y z
#    x 1.797210 0.002760 0.001860 
#    y 0.002760 1.792650 -0.009640 
#    z 0.001860 -0.009640 1.796840 
# 
# From -- ./inp_files/46462.got.cif
#   From: 2010.06.25/outbox.cif.g09.slc.cpg/sg2_24_cif.got.tgz:46462.got - 2010.06.27 13:26:56.
