data_PCOD8020899
_publ_section_title
;
Structure prediction by ZEFSAII (Michael W. Deem and Ramdas Pophale) SiO2 
 PCOD8020899
Probable space group: P -1
;
_chemical_formula_sum "Si O2"
_cell_formula_units_Z 16
_cell_length_a 14.648774
_cell_length_b 15.373403
_cell_length_c 15.262358
_cell_angle_alpha 44.761055
_cell_angle_beta 28.313813
_cell_angle_gamma 27.889281
_cell_volume 725.789585
_symmetry_space_group_name_H-M "P -1"
_symmetry_group_IT_number 2
_symmetry_cell_setting 'triclinic'
loop_
_space_group_symop_operation_xyz
x,y,z
-x,-y,-z
loop_
_atom_site_type_symbol
_atom_site_label
_atom_site_fract_x
_atom_site_fract_y
_atom_site_fract_z
Si Si1 0.195135 0.405311 0.023014
Si Si2 0.385283 0.795967 0.035750
Si Si3 0.795509 0.414508 0.267293
Si Si4 0.206842 0.775940 0.728223
Si Si5 0.296209 0.313769 0.434848
Si Si6 0.319232 0.255554 0.659777
Si Si7 0.682026 0.835694 0.637493
Si Si8 0.389430 0.520727 0.258013
O O1 0.039410 0.348222 0.177546
O O2 0.975598 0.594506 0.137090
O O3 0.509278 0.229548 0.935524
O O4 0.283003 0.430800 0.840673
O O5 0.406923 0.639500 0.104774
O O6 0.610837 0.746872 0.813101
O O7 0.043453 0.018923 0.154962
O O8 0.500000 0.500000 0.500000
O O9 0.946007 0.227994 0.217466
O O10 0.457425 0.745177 0.500330
O O11 0.385791 0.585373 0.772621
O O12 0.237732 0.301074 0.592917
O O13 0.420863 0.138114 0.396193
O O14 0.497181 0.341209 0.244805
O O15 0.000000 0.500000 0.500000
O O16 0.485607 0.044874 0.691420
O O17 0.036138 0.682544 0.467341
#
# Coordination Sequence:
#
# PCOD8020899 Si02
#       8
#     2   2   2   2   2   2   2   2
#     4  11  24  41  69  98 127 176 214 268 325 393
#     4  12  24  41  69  97 131 175 223 260 328 393
#     4  11  23  42  69  96 133 164 217 272 328 381
#     4  11  22  43  67  94 130 177 210 272 329 381
#     4   9  20  39  66  94 130 177 217 271 324 373
#     4  11  21  42  69  94 134 177 218 264 331 389
#     4  11  23  40  67  98 130 176 222 268 322 390
#     4  10  22  43  65  90 135 170 217 269 327 380
#
# _framework density 22.044955000000002
#
# number of rings (size 3 to 8) (size 9 to 14) (size 15 to 20)
#    0.000    1.250    3.750    3.375    0.000    1.000 
#    0.000    3.125    0.000    0.000    0.000    0.000 
#    0.000    0.000    0.000    0.000    0.000    0.000 
#
# Total GULP energy -198255.664477 kJ/mol
# GULP energy per Si atom -12390.979030 kJ/mol
# Density = 2.199478 g / cm^3
# Si number density = 22.044955 Si / 1000 Ang^3
#
#
#
# Elastic Constant Matrix: (Units=GPa)
#
#
# Indices 1 2 3 4 5 6 
#
# 1 91.2501 21.3228 22.7699 3.7481 -2.9248 1.5035
# 2 21.3228 105.4281 31.2709 -2.9076 -3.1906 0.9969
# 3 22.7699 31.2709 100.0479 -25.2202 -8.9699 -9.4632
# 4 3.7481 -2.9076 -25.2202 31.2680 -0.8160 1.4396
# 5 -2.9248 -3.1906 -8.9699 -0.8160 27.9367 -0.5359
# 6 1.5035 0.9969 -9.4632 1.4396 -0.5359 29.3203
#
#
#
# Elastic Compliance Matrix: (Units=1/GPa)
#
#
# Indices 1 2 3 4 5 6 
#
# 1 0.012435 -0.001549 -0.003648 -0.004511 -0.000208 -0.001545
# 2 -0.001549 0.010826 -0.003588 -0.001643 -0.000152 -0.001369
# 3 -0.003648 -0.003588 0.016134 0.013015 0.004864 0.004966
# 4 -0.004511 -0.001643 0.013015 0.042879 0.004819 0.002471
# 5 -0.000208 -0.000152 0.004864 0.004819 0.037498 0.002034
# 6 -0.001545 -0.001369 0.004966 0.002471 0.002034 0.035751
#
#
# Mechanical properties :
#
#
# Convention : Reuss Voigt Hill
#
# Bulk Modulus (GPa) = 45.82133 49.71701 47.76917
# Shear Modulus (GPa) = 27.72118 32.46250 30.09184
#
# Velocity S-wave (km/s) = 3.54995 3.84156 3.69863
# Velocity P-wave (km/s) = 6.13460 6.50217 6.32106
#
# Compressibility (1/GPa) = 0.02182390
#
# Stress axis : x y z
#
# Youngs Moduli (GPa) = 80.41663 92.37167 61.98224
#
# Poissons Ratio (x) = 0.14310 0.22610
# Poissons Ratio (y) = 0.12458 0.22242
# Poissons Ratio (z) = 0.29335 0.33147
#
# Static dielectric constant tensor:
#      x y z
#    x 4.832220 0.467220 -0.131130 
#    y 0.467220 4.110460 -0.137750 
#    z -0.131130 -0.137750 3.813190 
# 
# 
# High freq. dielectric constant tensor:
#      x y z
#    x 1.871950 0.012580 -0.016000 
#    y 0.012580 1.866650 -0.017440 
#    z -0.016000 -0.017440 1.856180 
# 
# From -- ./inp_files/534326.got.cif
#   From: 2010.06.25/outbox.cif.g09.slc.cpg/sg2_268_cif.got.tgz:534326.got - 2010.06.27 13:26:56.
