data_PCOD8020090
_publ_section_title
;
Structure prediction by ZEFSAII (Michael W. Deem and Ramdas Pophale) SiO2 
 PCOD8020090
Probable space group: P -1
;
_chemical_formula_sum "Si O2"
_cell_formula_units_Z 16
_cell_length_a 14.081567
_cell_length_b 12.345056
_cell_length_c 6.282324
_cell_angle_alpha 110.312815
_cell_angle_beta 92.093978
_cell_angle_gamma 132.373767
_cell_volume 696.579601
_symmetry_space_group_name_H-M "P -1"
_symmetry_group_IT_number 2
_symmetry_cell_setting 'triclinic'
loop_
_space_group_symop_operation_xyz
x,y,z
-x,-y,-z
loop_
_atom_site_type_symbol
_atom_site_label
_atom_site_fract_x
_atom_site_fract_y
_atom_site_fract_z
Si Si1 0.860351 0.858682 0.029784
Si Si2 0.984291 0.743758 0.975972
Si Si3 0.823713 0.382223 0.713374
Si Si4 0.343542 0.858779 0.081186
Si Si5 0.426243 0.770359 0.678598
Si Si6 0.828816 0.171731 0.301792
Si Si7 0.599536 0.697779 0.624806
Si Si8 0.200558 0.044613 0.529807
O O1 0.849346 0.708917 0.942359
O O2 0.875266 0.925859 0.312484
O O3 0.725624 0.796070 0.868550
O O4 0.000000 0.000000 0.000000
O O5 0.097003 0.900781 0.247854
O O6 0.943214 0.577624 0.934728
O O7 0.044211 0.785886 0.768291
O O8 0.765823 0.262534 0.827786
O O9 0.709073 0.360278 0.571450
O O10 0.885035 0.339783 0.530151
O O11 0.479570 0.047588 0.306959
O O12 0.383699 0.775148 0.913973
O O13 0.280890 0.894916 0.934366
O O14 0.502629 0.718719 0.688386
O O15 0.752474 0.021062 0.363357
O O16 0.500000 0.500000 0.500000
O O17 0.664750 0.776734 0.449151
#
# Coordination Sequence:
#
# PCOD8020090 Si02
#       8
#     2   2   2   2   2   2   2   2
#     4  12  25  48  72 102 137 183 238 282 342 415
#     4  12  25  42  66 102 138 179 234 285 342 411
#     4  11  24  40  66 101 137 181 226 284 350 405
#     4  10  22  42  67  96 133 180 230 280 342 415
#     4  10  22  42  65  93 137 177 225 283 342 409
#     4  11  23  42  67 101 138 179 228 285 343 416
#     4  12  27  46  71 106 140 176 232 291 346 410
#     4  12  25  44  74  97 139 188 230 282 351 407
#
# _framework density 22.969377999999999
#
# number of rings (size 3 to 8) (size 9 to 14) (size 15 to 20)
#    0.000    0.750    2.500    4.875    0.000    8.500 
#    0.000    0.000    0.000    0.000    0.000    0.000 
#    0.000    0.000    0.000    0.000    0.000    0.000 
#
# Total GULP energy -198373.648104 kJ/mol
# GULP energy per Si atom -12398.353006 kJ/mol
# Density = 2.291710 g / cm^3
# Si number density = 22.969378 Si / 1000 Ang^3
#
#
#
# Elastic Constant Matrix: (Units=GPa)
#
#
# Indices 1 2 3 4 5 6 
#
# 1 156.0407 34.2000 63.7024 -4.4169 -21.6690 -15.2564
# 2 34.2000 125.0196 65.9634 3.5202 -15.9592 -1.3696
# 3 63.7024 65.9634 110.2125 2.1485 -22.8606 -5.0676
# 4 -4.4169 3.5202 2.1485 30.0320 -0.6696 1.1220
# 5 -21.6690 -15.9592 -22.8606 -0.6696 39.4194 2.7673
# 6 -15.2564 -1.3696 -5.0676 1.1220 2.7673 29.2961
#
#
#
# Elastic Compliance Matrix: (Units=1/GPa)
#
#
# Indices 1 2 3 4 5 6 
#
# 1 0.008991 0.000357 -0.004850 0.001538 0.002047 0.003608
# 2 0.000357 0.011761 -0.007072 -0.000780 0.000881 -0.000541
# 3 -0.004850 -0.007072 0.017016 -0.000994 0.004342 -0.000285
# 4 0.001538 -0.000780 -0.000994 0.033728 0.000579 -0.000754
# 5 0.002047 0.000881 0.004342 0.000579 0.029445 -0.000945
# 6 0.003608 -0.000541 -0.000285 -0.000754 -0.000945 0.036057
#
#
# Mechanical properties :
#
#
# Convention : Reuss Voigt Hill
#
# Bulk Modulus (GPa) = 68.31608 79.88937 74.10272
# Shear Modulus (GPa) = 30.30176 34.90997 32.60586
#
# Velocity S-wave (km/s) = 3.63605 3.90275 3.77176
# Velocity P-wave (km/s) = 6.88728 7.42731 7.16239
#
# Compressibility (1/GPa) = 0.01463784
#
# Stress axis : x y z
#
# Youngs Moduli (GPa) = 111.22524 85.02544 58.76700
#
# Poissons Ratio (x) = -0.03034 0.28500
# Poissons Ratio (y) = -0.03969 0.41562
# Poissons Ratio (z) = 0.53941 0.60133
#
# Static dielectric constant tensor:
#      x y z
#    x 4.577250 -0.173130 -0.231220 
#    y -0.173130 4.180970 -0.005420 
#    z -0.231220 -0.005420 4.255430 
# 
# 
# High freq. dielectric constant tensor:
#      x y z
#    x 1.921550 -0.012380 -0.013480 
#    y -0.012380 1.901410 -0.000900 
#    z -0.013480 -0.000900 1.907040 
# 
# From -- ./inp_files/95347.got.cif
#   From: 2010.06.25/outbox.cif.g09.slc.cpg/sg2_48_cif.got.tgz:95347.got - 2010.06.27 13:26:56.
