data_PCOD8020328
_publ_section_title
;
Structure prediction by ZEFSAII (Michael W. Deem and Ramdas Pophale) SiO2 
 PCOD8020328
Probable space group: P -1
;
_chemical_formula_sum "Si O2"
_cell_formula_units_Z 16
_cell_length_a 15.912070
_cell_length_b 10.072915
_cell_length_c 15.912081
_cell_angle_alpha 43.934057
_cell_angle_beta 27.209943
_cell_angle_gamma 43.934169
_cell_volume 783.186581
_symmetry_space_group_name_H-M "P -1"
_symmetry_group_IT_number 2
_symmetry_cell_setting 'triclinic'
loop_
_space_group_symop_operation_xyz
x,y,z
-x,-y,-z
loop_
_atom_site_type_symbol
_atom_site_label
_atom_site_fract_x
_atom_site_fract_y
_atom_site_fract_z
Si Si1 0.984376 0.729928 0.401799
Si Si2 0.852905 0.445510 0.271935
Si Si3 0.598201 0.270072 0.015624
Si Si4 0.455273 0.299553 0.455274
Si Si5 0.598684 0.976758 0.012622
Si Si6 0.728064 0.554490 0.147096
Si Si7 0.012622 0.976758 0.598684
Si Si8 0.403593 0.136514 0.403592
O O1 0.000000 0.500000 0.500000
O O2 0.811954 0.828986 0.450112
O O3 0.938993 0.832922 0.487256
O O4 0.175169 0.767433 0.175169
O O5 0.738715 0.592116 0.376040
O O6 0.748721 0.500001 0.251278
O O7 0.839915 0.225828 0.411221
O O8 0.067476 0.469166 0.067476
O O9 0.549888 0.171014 0.188045
O O10 0.512744 0.167078 0.061006
O O11 0.500000 0.500000 0.000000
O O12 0.623959 0.407883 0.261287
O O13 0.405733 0.290662 0.405731
O O14 0.527446 0.085582 0.527448
O O15 0.588778 0.774172 0.160086
O O16 0.816401 0.959978 0.816401
O O17 0.500000 0.000000 0.000000
O O18 0.000000 0.000000 0.500000
#
# Coordination Sequence:
#
# PCOD8020328 Si02
#       8
#     2   2   2   2   2   2   2   2
#     4  11  24  43  66  93 133 175 215 268 329 392
#     4  10  22  42  67  95 130 171 220 275 332 385
#     4  11  24  43  66  93 133 175 215 268 329 392
#     4  11  25  42  68  94 133 176 223 272 315 403
#     4  10  24  39  63  98 128 164 216 273 328 388
#     4  10  22  42  67  95 130 171 220 275 332 385
#     4  10  24  39  63  98 128 164 216 273 328 388
#     4  11  26  44  64  98 130 178 225 259 335 391
#
# _framework density 20.429359000000002
#
# number of rings (size 3 to 8) (size 9 to 14) (size 15 to 20)
#    0.000    1.500    1.250    1.875    7.000    4.000 
#    0.000    2.500    0.000    0.000    0.000    0.000 
#    0.000    0.000    0.000    0.000    0.000    0.000 
#
# Total GULP energy -198402.358165 kJ/mol
# GULP energy per Si atom -12400.147385 kJ/mol
# Density = 2.038286 g / cm^3
# Si number density = 20.429359 Si / 1000 Ang^3
#
#
#
# Elastic Constant Matrix: (Units=GPa)
#
#
# Indices 1 2 3 4 5 6 
#
# 1 170.1910 88.5081 55.9983 -3.9007 10.9284 18.7762
# 2 88.5081 151.8744 44.6668 -4.1659 8.4284 21.8609
# 3 55.9983 44.6668 103.4823 3.1218 0.0582 14.6998
# 4 -3.9007 -4.1659 3.1218 35.4869 -1.5267 1.1684
# 5 10.9284 8.4284 0.0582 -1.5267 35.1706 -1.8174
# 6 18.7762 21.8609 14.6998 1.1684 -1.8174 41.7913
#
#
#
# Elastic Compliance Matrix: (Units=1/GPa)
#
#
# Indices 1 2 3 4 5 6 
#
# 1 0.009371 -0.004281 -0.003106 0.000751 -0.001899 -0.000982
# 2 -0.004281 0.010063 -0.001651 0.000898 -0.001186 -0.002837
# 3 -0.003106 -0.001651 0.012386 -0.001508 0.001171 -0.002005
# 4 0.000751 0.000898 -0.001508 0.028566 0.000740 -0.001043
# 5 -0.001899 -0.001186 0.001171 0.000740 0.029457 0.002322
# 6 -0.000982 -0.002837 -0.002005 -0.001043 0.002322 0.026689
#
#
# Mechanical properties :
#
#
# Convention : Reuss Voigt Hill
#
# Bulk Modulus (GPa) = 72.74296 89.32157 81.03227
# Shear Modulus (GPa) = 35.92218 38.24805 37.08511
#
# Velocity S-wave (km/s) = 4.19783 4.33160 4.26524
# Velocity P-wave (km/s) = 7.69286 8.29663 8.00044
#
# Compressibility (1/GPa) = 0.01374703
#
# Stress axis : x y z
#
# Youngs Moduli (GPa) = 106.70973 99.37109 80.73497
#
# Poissons Ratio (x) = 0.42536 0.25073
# Poissons Ratio (y) = 0.45677 0.13328
# Poissons Ratio (z) = 0.33139 0.16404
#
# Static dielectric constant tensor:
#      x y z
#    x 3.821850 0.090520 -0.255050 
#    y 0.090520 4.166460 0.141860 
#    z -0.255050 0.141860 4.570510 
# 
# 
# High freq. dielectric constant tensor:
#      x y z
#    x 1.802950 0.002080 -0.001760 
#    y 0.002080 1.816510 -0.001480 
#    z -0.001760 -0.001480 1.807460 
# 
# From -- ./inp_files/306348.got.cif
#   From: 2010.06.25/outbox.cif.g09.slc.cpg/sg2_154_cif.got.tgz:306348.got - 2010.06.27 13:26:56.
