data_PCOD8020887
_publ_section_title
;
Structure prediction by ZEFSAII (Michael W. Deem and Ramdas Pophale) SiO2 
 PCOD8020887
Probable space group: P -1
;
_chemical_formula_sum "Si O2"
_cell_formula_units_Z 14
_cell_length_a 8.836608
_cell_length_b 14.193774
_cell_length_c 13.427002
_cell_angle_alpha 32.345214
_cell_angle_beta 103.202397
_cell_angle_gamma 81.335676
_cell_volume 659.276706
_symmetry_space_group_name_H-M "P -1"
_symmetry_group_IT_number 2
_symmetry_cell_setting 'triclinic'
loop_
_space_group_symop_operation_xyz
x,y,z
-x,-y,-z
loop_
_atom_site_type_symbol
_atom_site_label
_atom_site_fract_x
_atom_site_fract_y
_atom_site_fract_z
Si Si1 0.802390 0.205200 0.723101
Si Si2 0.117958 0.905309 0.879253
Si Si3 0.653800 0.557265 0.541250
Si Si4 0.590121 0.051234 0.380366
Si Si5 0.798578 0.797585 0.445151
Si Si6 0.165760 0.466161 0.922986
Si Si7 0.030547 0.206174 0.218762
O O1 0.724800 0.453878 0.531168
O O2 0.596118 0.237276 0.671398
O O3 0.894436 0.125869 0.696586
O O4 0.000000 0.000000 0.000000
O O5 0.074465 0.866419 0.796959
O O6 0.252245 0.983603 0.816255
O O7 0.257591 0.662916 0.177309
O O8 0.753979 0.668850 0.481209
O O9 0.500000 0.000000 0.500000
O O10 0.671556 0.868196 0.465603
O O11 0.780356 0.017984 0.487121
O O12 0.410139 0.309037 0.078565
O O13 0.040580 0.627978 0.663988
O O14 0.132163 0.593143 0.907562
O O15 0.109929 0.301127 0.073152
#
# Coordination Sequence:
#
# PCOD8020887 Si02
#       7
#     2   2   2   2   2   2   2
#     4   9  22  43  65  90 114 155 193 237 308 356
#     4  11  23  38  62  92 119 152 201 246 290 352
#     4  10  22  43  65  85 122 152 190 248 296 359
#     4   9  20  33  57  86 118 163 204 232 292 345
#     4  11  23  37  61  93 117 156 202 240 293 349
#     4   9  18  35  55  82 118 161 195 236 293 333
#     4   9  18  34  55  81 118 158 197 241 280 346
#
# _framework density 21.235392000000001
#
# number of rings (size 3 to 8) (size 9 to 14) (size 15 to 20)
#    0.000    2.286    1.429    0.857    4.000    4.000 
#    0.000    7.857    0.000    0.000    0.000    0.000 
#    0.000    0.000    0.000    0.000    0.000    0.000 
#
# Total GULP energy -173454.011054 kJ/mol
# GULP energy per Si atom -12389.572218 kJ/mol
# Density = 2.118706 g / cm^3
# Si number density = 21.235392 Si / 1000 Ang^3
#
#
#
# Elastic Constant Matrix: (Units=GPa)
#
#
# Indices 1 2 3 4 5 6 
#
# 1 60.4190 37.3397 42.3969 -14.8043 3.7040 11.0625
# 2 37.3397 108.7709 19.4013 -11.5164 3.1320 24.5715
# 3 42.3969 19.4013 91.1154 -6.8301 21.6764 13.8756
# 4 -14.8043 -11.5164 -6.8301 19.6354 2.7124 3.1084
# 5 3.7040 3.1320 21.6764 2.7124 43.2322 -8.7132
# 6 11.0625 24.5715 13.8756 3.1084 -8.7132 28.6731
#
#
#
# Elastic Compliance Matrix: (Units=1/GPa)
#
#
# Indices 1 2 3 4 5 6 
#
# 1 0.035413 -0.007706 -0.014231 0.016914 0.003402 -0.000973
# 2 -0.007706 0.015586 0.004842 0.008399 -0.006574 -0.015634
# 3 -0.014231 0.004842 0.022097 0.003806 -0.013228 -0.013784
# 4 0.016914 0.008399 0.003806 0.076398 -0.014450 -0.028238
# 5 0.003402 -0.006574 -0.013228 -0.014450 0.035506 0.023079
# 6 -0.000973 -0.015634 -0.013784 -0.028238 0.023079 0.065394
#
#
# Mechanical properties :
#
#
# Convention : Reuss Voigt Hill
#
# Bulk Modulus (GPa) = 25.70299 50.95347 38.32823
# Shear Modulus (GPa) = 16.80370 29.05262 22.92816
#
# Velocity S-wave (km/s) = 2.81607 3.70283 3.28947
# Velocity P-wave (km/s) = 4.76485 6.50599 5.70227
#
# Compressibility (1/GPa) = 0.03890598
#
# Stress axis : x y z
#
# Youngs Moduli (GPa) = 28.23789 64.16091 45.25452
#
# Poissons Ratio (x) = 0.49443 0.64400
# Poissons Ratio (y) = 0.21760 -0.21910
# Poissons Ratio (z) = 0.40184 -0.31064
#
# Static dielectric constant tensor:
#      x y z
#    x 3.665210 -0.141440 0.473490 
#    y -0.141440 4.073190 -0.046610 
#    z 0.473490 -0.046610 4.164120 
# 
# 
# High freq. dielectric constant tensor:
#      x y z
#    x 1.804780 -0.000870 0.026510 
#    y -0.000870 1.839340 -0.001130 
#    z 0.026510 -0.001130 1.828330 
# 
# From -- ./inp_files/207470.got.cif
#   From: 2010.06.25/outbox.cif.g09.slc.cpg/sg2_104_cif.got.tgz:207470.got - 2010.06.27 13:26:56.
