data_PCOD8020931
_publ_section_title
;
Structure prediction by ZEFSAII (Michael W. Deem and Ramdas Pophale) SiO2 
 PCOD8020931
Probable space group: P -1
;
_chemical_formula_sum "Si O2"
_cell_formula_units_Z 14
_cell_length_a 8.533831
_cell_length_b 17.420287
_cell_length_c 12.005904
_cell_angle_alpha 150.073721
_cell_angle_beta 59.665792
_cell_angle_gamma 133.325181
_cell_volume 627.698906
_symmetry_space_group_name_H-M "P -1"
_symmetry_group_IT_number 2
_symmetry_cell_setting 'triclinic'
loop_
_space_group_symop_operation_xyz
x,y,z
-x,-y,-z
loop_
_atom_site_type_symbol
_atom_site_label
_atom_site_fract_x
_atom_site_fract_y
_atom_site_fract_z
Si Si1 0.626999 0.517207 0.144761
Si Si2 0.362170 0.637413 0.483430
Si Si3 0.841704 0.023547 0.843058
Si Si4 0.008800 0.822965 0.250322
Si Si5 0.047952 0.246144 0.490734
Si Si6 0.698134 0.203167 0.709872
Si Si7 0.998997 0.689553 0.653585
O O1 0.408556 0.518507 0.230734
O O2 0.767291 0.641146 0.142927
O O3 0.726522 0.594831 0.329653
O O4 0.589249 0.317611 0.902495
O O5 0.226688 0.505012 0.471459
O O6 0.190221 0.664073 0.515099
O O7 0.583822 0.841187 0.696790
O O8 0.920323 0.165034 0.887994
O O9 0.003146 0.953509 0.702524
O O10 0.883253 0.144040 0.088953
O O11 0.182260 0.803313 0.231623
O O12 0.000000 0.000000 0.500000
O O13 0.864548 0.277234 0.638689
O O14 0.072249 0.252893 0.358083
O O15 0.500000 0.000000 0.500000
#
# Coordination Sequence:
#
# PCOD8020931 Si02
#       7
#     2   2   2   2   2   2   2
#     4  10  23  44  70  94 138 177 219 275 352 396
#     4  10  24  43  65  96 133 182 226 271 335 396
#     4  11  23  44  69  97 138 180 218 277 339 398
#     4  11  20  43  70  96 138 173 219 277 338 406
#     4  10  22  43  65  95 137 173 221 277 331 404
#     4  11  25  41  66 106 130 169 225 277 344 402
#     4  11  25  43  65  99 135 177 236 274 320 399
#
# _framework density 22.303687
#
# number of rings (size 3 to 8) (size 9 to 14) (size 15 to 20)
#    0.000    1.429    4.286    2.571    4.000    6.857 
#    2.571    2.143    0.000    0.000    0.000    0.000 
#    0.000    0.000    0.000    0.000    0.000    0.000 
#
# Total GULP energy -173461.690960 kJ/mol
# GULP energy per Si atom -12390.120783 kJ/mol
# Density = 2.225292 g / cm^3
# Si number density = 22.303687 Si / 1000 Ang^3
#
#
#
# Elastic Constant Matrix: (Units=GPa)
#
#
# Indices 1 2 3 4 5 6 
#
# 1 45.8188 73.5332 42.4145 -4.6749 -19.1024 10.3694
# 2 73.5332 126.7572 55.8129 -6.0454 12.7016 -16.8468
# 3 42.4145 55.8129 117.1465 0.5730 -26.8420 -0.8530
# 4 -4.6749 -6.0454 0.5730 32.3721 -2.1896 -2.5922
# 5 -19.1024 12.7016 -26.8420 -2.1896 36.9463 -6.5130
# 6 10.3694 -16.8468 -0.8530 -2.5922 -6.5130 36.2402
#
#
#
# Elastic Compliance Matrix: (Units=1/GPa)
#
#
# Indices 1 2 3 4 5 6 
#
# 1 -0.035292 0.029754 -0.008472 -0.000070 -0.031449 0.018073
# 2 0.029754 -0.011696 -0.001500 0.002390 0.016545 -0.010841
# 3 -0.008472 -0.001500 0.013888 -0.001039 0.006726 0.003188
# 4 -0.000070 0.002390 -0.001039 0.031688 0.000888 0.003533
# 5 -0.031449 0.016545 0.006726 0.000888 0.013465 0.019331
# 6 0.018073 -0.010841 0.003188 0.003533 0.019331 0.021185
#
#
# Mechanical properties :
#
#
# Convention : Reuss Voigt Hill
#
# Bulk Modulus (GPa) = 154.71814 70.36039 112.53927
# Shear Modulus (GPa) = -1198.51457 28.97586 -584.76935
#
# Velocity S-wave (km/s) = -23.20621 3.60828 -16.20970
# Velocity P-wave (km/s) = 25.46602 6.99819 17.31392
#
# Compressibility (1/GPa) = 0.00646337
#
# Stress axis : x y z
#
# Youngs Moduli (GPa) = -28.33467 -85.50227 72.00614
#
# Poissons Ratio (x) = 2.54402 0.61002
# Poissons Ratio (y) = 0.84306 0.10802
# Poissons Ratio (z) = -0.24004 -0.12827
#
# Static dielectric constant tensor:
#      x y z
#    x 3.060450 -0.352050 0.384180 
#    y -0.352050 4.005240 0.136860 
#    z 0.384180 0.136860 3.722130 
# 
# 
# High freq. dielectric constant tensor:
#      x y z
#    x 1.882780 -0.000640 -0.014930 
#    y -0.000640 1.876080 0.000270 
#    z -0.014930 0.000270 1.881390 
# 
# From -- ./inp_files/403530.got.cif
#   From: 2010.06.25/outbox.cif.g09.slc.cpg/sg2_202_cif.got.tgz:403530.got - 2010.06.27 13:26:56.
