data_PCOD8020373
_publ_section_title
;
Structure prediction by ZEFSAII (Michael W. Deem and Ramdas Pophale) SiO2 
 PCOD8020373
Probable space group: P -1
;
_chemical_formula_sum "Si O2"
_cell_formula_units_Z 16
_cell_length_a 20.990157
_cell_length_b 17.782774
_cell_length_c 9.376757
_cell_angle_alpha 149.357822
_cell_angle_beta 28.400645
_cell_angle_gamma 152.089439
_cell_volume 723.006523
_symmetry_space_group_name_H-M "P -1"
_symmetry_group_IT_number 2
_symmetry_cell_setting 'triclinic'
loop_
_space_group_symop_operation_xyz
x,y,z
-x,-y,-z
loop_
_atom_site_type_symbol
_atom_site_label
_atom_site_fract_x
_atom_site_fract_y
_atom_site_fract_z
Si Si1 0.343303 0.306503 0.830231
Si Si2 0.234525 0.503282 0.176510
Si Si3 0.972081 0.420714 0.769598
Si Si4 0.111937 0.955578 0.295051
Si Si5 0.877442 0.616083 0.107934
Si Si6 0.114724 0.958268 0.622685
Si Si7 0.351913 0.347869 0.194342
Si Si8 0.460727 0.150994 0.831732
O O1 0.528429 0.443750 0.700890
O O2 0.293858 0.113529 0.561862
O O3 0.273697 0.369309 0.947764
O O4 0.269497 0.296183 0.116753
O O5 0.130002 0.527634 0.538467
O O6 0.389220 0.685077 0.122291
O O7 0.137944 0.414635 0.079458
O O8 0.904411 0.218223 0.573460
O O9 0.000000 0.500000 0.000000
O O10 0.841075 0.445231 0.987788
O O11 0.070336 0.947652 0.528666
O O12 0.059092 0.764595 0.028010
O O13 0.000000 0.000000 0.500000
O O14 0.299720 0.080364 0.119156
O O15 0.769538 0.687658 0.497465
O O16 0.000000 0.000000 0.000000
O O17 0.434485 0.233873 0.872879
O O18 0.500000 0.000000 0.500000
#
# Coordination Sequence:
#
# PCOD8020373 Si02
#       8
#     2   2   2   2   2   2   2   2
#     4  10  22  42  67  98 135 183 233 282 355 419
#     4  11  25  44  70 102 141 189 233 296 358 427
#     4  12  25  45  70 102 146 187 235 295 362 423
#     4  12  25  44  73 106 140 188 240 296 353 425
#     4  12  24  43  69 103 138 183 241 289 358 421
#     4  12  25  43  72 102 138 183 243 295 349 423
#     4  10  23  43  69  97 140 187 232 290 355 425
#     4  11  26  44  70 102 147 185 235 295 364 423
#
# _framework density 22.129814
#
# number of rings (size 3 to 8) (size 9 to 14) (size 15 to 20)
#    0.000    0.750    3.750    3.375    1.750    2.000 
#    0.000    0.625    0.000    0.000    0.000    0.000 
#    0.000    0.000    0.000    0.000    0.000    0.000 
#
# Total GULP energy -198250.267116 kJ/mol
# GULP energy per Si atom -12390.641695 kJ/mol
# Density = 2.207945 g / cm^3
# Si number density = 22.129814 Si / 1000 Ang^3
#
#
#
# Elastic Constant Matrix: (Units=GPa)
#
#
# Indices 1 2 3 4 5 6 
#
# 1 148.1381 58.2014 57.3917 13.4570 23.8483 -6.0746
# 2 58.2014 154.6118 64.1194 17.0932 8.8017 5.9628
# 3 57.3917 64.1194 104.7583 8.6212 3.1947 -5.5961
# 4 13.4570 17.0932 8.6212 46.4506 -8.3425 -1.3801
# 5 23.8483 8.8017 3.1947 -8.3425 45.9975 8.9128
# 6 -6.0746 5.9628 -5.5961 -1.3801 8.9128 33.1762
#
#
#
# Elastic Compliance Matrix: (Units=1/GPa)
#
#
# Indices 1 2 3 4 5 6 
#
# 1 0.010257 -0.001689 -0.004044 -0.002544 -0.005744 0.002937
# 2 -0.001689 0.009495 -0.004834 -0.002276 -0.000476 -0.002798
# 3 -0.004044 -0.004834 0.014738 0.000582 0.001680 0.002187
# 4 -0.002544 -0.002276 0.000582 0.024091 0.006204 -0.000623
# 5 -0.005744 -0.000476 0.001680 0.006204 0.027323 -0.007765
# 6 0.002937 -0.002798 0.002187 -0.000623 -0.007765 0.033612
#
#
# Mechanical properties :
#
#
# Convention : Reuss Voigt Hill
#
# Bulk Modulus (GPa) = 74.87397 85.21478 80.04437
# Shear Modulus (GPa) = 34.45876 40.31125 37.38501
#
# Velocity S-wave (km/s) = 3.95032 4.27263 4.11463
# Velocity P-wave (km/s) = 7.39690 7.93290 7.66958
#
# Compressibility (1/GPa) = 0.01335578
#
# Stress axis : x y z
#
# Youngs Moduli (GPa) = 97.49335 105.31935 67.85298
#
# Poissons Ratio (x) = 0.17788 0.27441
# Poissons Ratio (y) = 0.16467 0.32799
# Poissons Ratio (z) = 0.39428 0.50910
#
# Static dielectric constant tensor:
#      x y z
#    x 4.024920 -0.132680 -0.203090 
#    y -0.132680 4.300290 -0.151530 
#    z -0.203090 -0.151530 3.623150 
# 
# 
# High freq. dielectric constant tensor:
#      x y z
#    x 1.877210 -0.008570 0.000870 
#    y -0.008570 1.894180 0.010390 
#    z 0.000870 0.010390 1.851190 
# 
# From -- ./inp_files/348981.got.cif
#   From: 2010.06.25/outbox.cif.g09.slc.cpg/sg2_175_cif.got.tgz:348981.got - 2010.06.27 13:26:56.
