data_PCOD8020607
_publ_section_title
;
Structure prediction by ZEFSAII (Michael W. Deem and Ramdas Pophale) SiO2 
 PCOD8020607
Probable space group: P -1
;
_chemical_formula_sum "Si O2"
_cell_formula_units_Z 16
_cell_length_a 15.419251
_cell_length_b 8.522366
_cell_length_c 15.116173
_cell_angle_alpha 68.923200
_cell_angle_beta 26.657549
_cell_angle_gamma 85.284044
_cell_volume 682.507869
_symmetry_space_group_name_H-M "P -1"
_symmetry_group_IT_number 2
_symmetry_cell_setting 'triclinic'
loop_
_space_group_symop_operation_xyz
x,y,z
-x,-y,-z
loop_
_atom_site_type_symbol
_atom_site_label
_atom_site_fract_x
_atom_site_fract_y
_atom_site_fract_z
Si Si1 0.510716 0.365720 0.385516
Si Si2 0.759485 0.699642 0.726825
Si Si3 0.565615 0.852821 0.008031
Si Si4 0.948083 0.445522 0.423439
Si Si5 0.023974 0.384529 0.171131
Si Si6 0.815401 0.578707 0.226140
Si Si7 0.110270 0.960691 0.758920
Si Si8 0.937739 0.127967 0.746982
O O1 0.646632 0.397212 0.347536
O O2 0.331649 0.429879 0.553663
O O3 0.366203 0.131003 0.531542
O O4 0.696429 0.519269 0.109887
O O5 0.847696 0.808823 0.529096
O O6 0.942453 0.641157 0.595182
O O7 0.500000 0.500000 0.000000
O O8 0.748721 0.846611 0.777775
O O9 0.317255 0.633698 0.290803
O O10 0.500000 0.000000 0.000000
O O11 0.694517 0.935713 0.968015
O O12 0.098175 0.690702 0.240421
O O13 0.943107 0.362388 0.348451
O O14 0.004533 0.543206 0.098119
O O15 0.862078 0.159529 0.321362
O O16 0.942880 0.801869 0.019833
O O17 0.990541 0.068320 0.805284
#
# Coordination Sequence:
#
# PCOD8020607 Si02
#       8
#     2   2   2   2   2   2   2   2
#     4  10  22  42  70  90 136 174 219 277 345 389
#     4  12  25  46  75  98 142 182 226 285 343 404
#     4  12  26  46  73  99 139 182 230 283 339 407
#     4  12  27  47  68 104 139 182 232 281 344 404
#     4  11  26  43  67 101 136 174 229 279 337 409
#     4  10  23  45  68  97 135 176 225 278 340 408
#     4  11  24  41  69 103 132 177 230 275 341 408
#     4  12  26  45  71 103 138 183 232 280 343 405
#
# _framework density 23.442954
#
# number of rings (size 3 to 8) (size 9 to 14) (size 15 to 20)
#    0.000    0.750    2.500    4.875    3.500    9.000 
#    0.000    0.000    0.000    0.000    0.000    0.000 
#    0.000    0.000    0.000    0.000    0.000    0.000 
#
# Total GULP energy -198432.214516 kJ/mol
# GULP energy per Si atom -12402.013407 kJ/mol
# Density = 2.338960 g / cm^3
# Si number density = 23.442954 Si / 1000 Ang^3
#
#
#
# Elastic Constant Matrix: (Units=GPa)
#
#
# Indices 1 2 3 4 5 6 
#
# 1 75.6501 12.6668 32.3986 -12.7826 -1.1726 -5.9085
# 2 12.6668 98.5080 36.4015 2.2148 3.9965 1.7318
# 3 32.3986 36.4015 105.9997 -4.9678 -18.4719 8.0531
# 4 -12.7826 2.2148 -4.9678 42.0564 8.4371 -1.3618
# 5 -1.1726 3.9965 -18.4719 8.4371 28.4411 -6.6248
# 6 -5.9085 1.7318 8.0531 -1.3618 -6.6248 42.2420
#
#
#
# Elastic Compliance Matrix: (Units=1/GPa)
#
#
# Indices 1 2 3 4 5 6 
#
# 1 0.016768 -0.000033 -0.005778 0.005301 -0.003930 0.003003
# 2 -0.000033 0.012237 -0.005050 -0.000258 -0.005003 -0.000336
# 3 -0.005778 -0.005050 0.014763 -0.001848 0.010170 -0.001880
# 4 0.005301 -0.000258 -0.001848 0.026970 -0.008808 0.000592
# 5 -0.003930 -0.005003 0.010170 -0.008808 0.046002 0.004647
# 6 0.003003 -0.000336 -0.001880 0.000592 0.004647 0.025213
#
#
# Mechanical properties :
#
#
# Convention : Reuss Voigt Hill
#
# Bulk Modulus (GPa) = 45.36412 49.23241 47.29826
# Shear Modulus (GPa) = 29.23539 35.79396 32.51467
#
# Velocity S-wave (km/s) = 3.53524 3.91174 3.72824
# Velocity P-wave (km/s) = 6.00473 6.43807 6.22517
#
# Compressibility (1/GPa) = 0.02204386
#
# Stress axis : x y z
#
# Youngs Moduli (GPa) = 59.63589 81.72150 67.73728
#
# Poissons Ratio (x) = 0.00274 0.39141
# Poissons Ratio (y) = 0.00200 0.34209
# Poissons Ratio (z) = 0.34459 0.41272
#
# Static dielectric constant tensor:
#      x y z
#    x 4.134940 0.170070 -0.155150 
#    y 0.170070 4.392030 0.085610 
#    z -0.155150 0.085610 4.361310 
# 
# 
# High freq. dielectric constant tensor:
#      x y z
#    x 1.923930 0.013990 -0.005940 
#    y 0.013990 1.937890 -0.000510 
#    z -0.005940 -0.000510 1.927290 
# 
# From -- ./inp_files/529531.got.cif
#   From: 2010.06.25/outbox.cif.g09.slc.cpg/sg2_265_cif.got.tgz:529531.got - 2010.06.27 13:26:56.
