data_PCOD8020478
_publ_section_title
;
Structure prediction by ZEFSAII (Michael W. Deem and Ramdas Pophale) SiO2 
 PCOD8020478
Probable space group: P -1
;
_chemical_formula_sum "Si O2"
_cell_formula_units_Z 16
_cell_length_a 11.869781
_cell_length_b 14.199049
_cell_length_c 7.689714
_cell_angle_alpha 63.913975
_cell_angle_beta 100.024802
_cell_angle_gamma 140.321806
_cell_volume 712.007361
_symmetry_space_group_name_H-M "P -1"
_symmetry_group_IT_number 2
_symmetry_cell_setting 'triclinic'
loop_
_space_group_symop_operation_xyz
x,y,z
-x,-y,-z
loop_
_atom_site_type_symbol
_atom_site_label
_atom_site_fract_x
_atom_site_fract_y
_atom_site_fract_z
Si Si1 0.133447 0.500334 0.538363
Si Si2 0.227775 0.596598 0.117617
Si Si3 0.405421 0.217604 0.048828
Si Si4 0.016253 0.932489 0.290541
Si Si5 0.633615 0.600207 0.294043
Si Si6 0.116280 0.957616 0.680599
Si Si7 0.506743 0.289340 0.408451
Si Si8 0.029036 0.671849 0.026166
O O1 0.151771 0.474990 0.363149
O O2 0.339555 0.683471 0.506592
O O3 0.000000 0.500000 0.500000
O O4 0.043667 0.357930 0.772865
O O5 0.145676 0.483939 0.014743
O O6 0.451697 0.749697 0.051426
O O7 0.175872 0.682104 0.047973
O O8 0.450093 0.225151 0.252155
O O9 0.188353 0.032882 0.124435
O O10 0.431966 0.357423 0.890396
O O11 0.038005 0.893524 0.515944
O O12 0.841238 0.762259 0.283254
O O13 0.006062 0.051277 0.227786
O O14 0.500000 0.500000 0.500000
O O15 0.614082 0.476542 0.291875
O O16 0.122957 0.845777 0.848289
O O17 0.323826 0.153397 0.588046
#
# Coordination Sequence:
#
# PCOD8020478 Si02
#       8
#     2   2   2   2   2   2   2   2
#     4  10  22  42  68  98 130 173 227 278 326 398
#     4  10  22  42  70 101 130 173 226 275 330 406
#     4  11  24  42  65  95 139 175 219 279 341 396
#     4  10  24  43  63 100 137 174 223 277 334 399
#     4  12  24  40  66  96 129 180 224 274 328 398
#     4  10  23  43  66  96 137 175 217 280 338 391
#     4  11  23  42  65  97 135 175 223 272 339 401
#     4  10  22  43  73  95 131 176 222 278 337 390
#
# _framework density 22.471679000000002
#
# number of rings (size 3 to 8) (size 9 to 14) (size 15 to 20)
#    0.000    1.500    2.500    1.500    5.250    0.000 
#    0.000    6.250    0.000    0.000    0.000    0.000 
#    0.000    0.000    0.000    0.000    0.000    0.000 
#
# Total GULP energy -198281.315538 kJ/mol
# GULP energy per Si atom -12392.582221 kJ/mol
# Density = 2.242053 g / cm^3
# Si number density = 22.471679 Si / 1000 Ang^3
#
#
#
# Elastic Constant Matrix: (Units=GPa)
#
#
# Indices 1 2 3 4 5 6 
#
# 1 127.2721 44.4796 59.0637 -14.8465 -10.3827 30.0478
# 2 44.4796 66.8233 26.6409 -10.8516 8.9630 18.2511
# 3 59.0637 26.6409 122.9095 -1.5490 2.9638 4.8045
# 4 -14.8465 -10.8516 -1.5490 26.9478 3.9944 1.6212
# 5 -10.3827 8.9630 2.9638 3.9944 39.5844 -4.6648
# 6 30.0478 18.2511 4.8045 1.6212 -4.6648 37.8872
#
#
#
# Elastic Compliance Matrix: (Units=1/GPa)
#
#
# Indices 1 2 3 4 5 6 
#
# 1 0.015595 -0.005065 -0.006067 0.006145 0.004020 -0.008927
# 2 -0.005065 0.024115 -0.002137 0.008588 -0.008526 -0.008746
# 3 -0.006067 -0.002137 0.011321 -0.003661 -0.001063 0.004431
# 4 0.006145 0.008588 -0.003661 0.045299 -0.005951 -0.011217
# 5 0.004020 -0.008526 -0.001063 -0.005951 0.029510 0.004942
# 6 -0.008927 -0.008746 0.004431 -0.011217 0.004942 0.038214
#
#
# Mechanical properties :
#
#
# Convention : Reuss Voigt Hill
#
# Bulk Modulus (GPa) = 40.82790 64.15257 52.49023
# Shear Modulus (GPa) = 25.15642 33.33860 29.24751
#
# Velocity S-wave (km/s) = 3.34948 3.85591 3.61158
# Velocity P-wave (km/s) = 5.75906 6.95947 6.38753
#
# Compressibility (1/GPa) = 0.02449306
#
# Stress axis : x y z
#
# Youngs Moduli (GPa) = 64.12303 41.46749 88.33118
#
# Poissons Ratio (x) = 0.21003 0.53589
# Poissons Ratio (y) = 0.32478 0.18880
# Poissons Ratio (z) = 0.38902 0.08863
#
# Static dielectric constant tensor:
#      x y z
#    x 4.251990 0.677170 0.027630 
#    y 0.677170 3.239130 -0.442080 
#    z 0.027630 -0.442080 4.897500 
# 
# 
# High freq. dielectric constant tensor:
#      x y z
#    x 1.892110 0.031610 -0.010840 
#    y 0.031610 1.866040 0.018470 
#    z -0.010840 0.018470 1.901860 
# 
# From -- ./inp_files/269827.got.cif
#   From: 2010.06.25/outbox.cif.g09.slc.cpg/sg2_135_cif.got.tgz:269827.got - 2010.06.27 13:26:56.
