data_PCOD8020465
_publ_section_title
;
Structure prediction by ZEFSAII (Michael W. Deem and Ramdas Pophale) SiO2 
 PCOD8020465
Probable space group: P -1
;
_chemical_formula_sum "Si O2"
_cell_formula_units_Z 16
_cell_length_a 9.626089
_cell_length_b 6.730341
_cell_length_c 22.813539
_cell_angle_alpha 138.589210
_cell_angle_beta 52.893787
_cell_angle_gamma 129.017400
_cell_volume 734.436973
_symmetry_space_group_name_H-M "P -1"
_symmetry_group_IT_number 2
_symmetry_cell_setting 'triclinic'
loop_
_space_group_symop_operation_xyz
x,y,z
-x,-y,-z
loop_
_atom_site_type_symbol
_atom_site_label
_atom_site_fract_x
_atom_site_fract_y
_atom_site_fract_z
Si Si1 0.627591 0.337795 0.671679
Si Si2 0.543309 0.170193 0.213094
Si Si3 0.356563 0.689699 0.582265
Si Si4 0.794141 0.473774 0.538675
Si Si5 0.023818 0.174697 0.944267
Si Si6 0.778927 0.172033 0.707887
Si Si7 0.296916 0.225575 0.987049
Si Si8 0.147631 0.652663 0.738919
O O1 0.573426 0.651994 0.752982
O O2 0.695629 0.275640 0.576482
O O3 0.775169 0.368991 0.692886
O O4 0.452515 0.032546 0.663101
O O5 0.684025 0.382446 0.272927
O O6 0.397328 0.858770 0.212581
O O7 0.665795 0.084915 0.114392
O O8 0.500000 0.500000 0.500000
O O9 0.283147 0.722576 0.543713
O O10 0.185703 0.559785 0.642029
O O11 0.000000 0.500000 0.500000
O O12 0.771090 0.817108 0.615302
O O13 0.161408 0.308973 0.993798
O O14 0.118325 0.996540 0.833820
O O15 0.000000 0.500000 0.000000
O O16 0.824793 0.904144 0.951841
O O17 0.961174 0.367210 0.740846
O O18 0.500000 0.500000 0.000000
#
# Coordination Sequence:
#
# PCOD8020465 Si02
#       8
#     2   2   2   2   2   2   2   2
#     4  11  23  41  62  88 127 164 213 259 312 378
#     4  10  23  42  64  94 126 166 209 258 317 378
#     4  12  23  41  64  89 126 169 212 259 318 367
#     4  11  25  39  59  90 120 169 213 263 313 371
#     4  10  24  43  66  99 133 166 217 264 323 389
#     4  11  23  43  61  92 130 160 219 260 310 379
#     4  10  22  42  68  97 131 168 211 267 322 386
#     4  11  24  42  67  92 128 171 204 267 316 373
#
# _framework density 21.785395000000001
#
# number of rings (size 3 to 8) (size 9 to 14) (size 15 to 20)
#    0.000    1.250    2.500    2.625    5.250    2.500 
#    0.000    0.000    0.000    0.000    0.000    0.000 
#    0.000    0.000    0.000    0.000    0.000    0.000 
#
# Total GULP energy -198286.308736 kJ/mol
# GULP energy per Si atom -12392.894296 kJ/mol
# Density = 2.173581 g / cm^3
# Si number density = 21.785395 Si / 1000 Ang^3
#
#
#
# Elastic Constant Matrix: (Units=GPa)
#
#
# Indices 1 2 3 4 5 6 
#
# 1 111.7066 53.6113 7.4471 -9.9657 -10.6517 10.0904
# 2 53.6113 93.7177 21.9222 -2.0678 -3.1824 4.7086
# 3 7.4471 21.9222 80.4608 -17.6485 -19.4147 -9.1898
# 4 -9.9657 -2.0678 -17.6485 29.4671 5.1269 1.4334
# 5 -10.6517 -3.1824 -19.4147 5.1269 24.8240 3.7910
# 6 10.0904 4.7086 -9.1898 1.4334 3.7910 44.6842
#
#
#
# Elastic Compliance Matrix: (Units=1/GPa)
#
#
# Indices 1 2 3 4 5 6 
#
# 1 0.014108 -0.008434 0.003567 0.005204 0.007043 -0.002328
# 2 -0.008434 0.016658 -0.006034 -0.004363 -0.005223 -0.000509
# 3 0.003567 -0.006034 0.019472 0.009970 0.013566 0.002364
# 4 0.005204 -0.004363 0.009970 0.041195 0.000973 -0.000069
# 5 0.007043 -0.005223 0.013566 0.000973 0.053475 -0.002818
# 6 -0.002328 -0.000509 0.002364 -0.000069 -0.002818 0.023686
#
#
# Mechanical properties :
#
#
# Convention : Reuss Voigt Hill
#
# Bulk Modulus (GPa) = 35.16459 50.20514 42.68487
# Shear Modulus (GPa) = 25.01557 33.32203 29.16880
#
# Velocity S-wave (km/s) = 3.39229 3.91520 3.66309
# Velocity P-wave (km/s) = 5.61426 6.59801 6.12591
#
# Compressibility (1/GPa) = 0.02843770
#
# Stress axis : x y z
#
# Youngs Moduli (GPa) = 70.88180 60.03030 51.35452
#
# Poissons Ratio (x) = 0.50629 -0.18318
# Poissons Ratio (y) = 0.59781 0.30985
# Poissons Ratio (z) = -0.25284 0.36220
#
# Static dielectric constant tensor:
#      x y z
#    x 3.982700 0.176240 -0.198950 
#    y 0.176240 3.789240 -0.176590 
#    z -0.198950 -0.176590 3.814190 
# 
# 
# High freq. dielectric constant tensor:
#      x y z
#    x 1.865130 0.011190 -0.009220 
#    y 0.011190 1.847420 -0.013060 
#    z -0.009220 -0.013060 1.857770 
# 
# From -- ./inp_files/56404.got.cif
#   From: 2010.06.25/outbox.cif.g09.slc.cpg/sg2_29_cif.got.tgz:56404.got - 2010.06.27 13:26:56.
