data_PCOD8020647
_publ_section_title
;
Structure prediction by ZEFSAII (Michael W. Deem and Ramdas Pophale) SiO2 
 PCOD8020647
Probable space group: P -1
;
_chemical_formula_sum "Si O2"
_cell_formula_units_Z 16
_cell_length_a 15.587267
_cell_length_b 9.227124
_cell_length_c 11.209045
_cell_angle_alpha 120.368660
_cell_angle_beta 75.193783
_cell_angle_gamma 55.075583
_cell_volume 727.114760
_symmetry_space_group_name_H-M "P -1"
_symmetry_group_IT_number 2
_symmetry_cell_setting 'triclinic'
loop_
_space_group_symop_operation_xyz
x,y,z
-x,-y,-z
loop_
_atom_site_type_symbol
_atom_site_label
_atom_site_fract_x
_atom_site_fract_y
_atom_site_fract_z
Si Si1 0.243747 0.179248 0.596051
Si Si2 0.915072 0.097722 0.755688
Si Si3 0.995306 0.179060 0.144032
Si Si4 0.337298 0.776319 0.828625
Si Si5 0.431217 0.868527 0.627190
Si Si6 0.867164 0.992606 0.487421
Si Si7 0.492852 0.390028 0.071443
Si Si8 0.540944 0.796050 0.186389
O O1 0.171533 0.464976 0.687407
O O2 0.270117 0.141436 0.713760
O O3 0.117986 0.231171 0.626843
O O4 0.426145 0.867938 0.344943
O O5 0.922864 0.956971 0.584342
O O6 0.730420 0.446322 0.000121
O O7 0.001049 0.861319 0.733311
O O8 0.021525 0.093986 0.687120
O O9 0.000000 0.000000 0.000000
O O10 0.145358 0.054711 0.997052
O O11 0.386768 0.851013 0.758557
O O12 0.429944 0.457497 0.627382
O O13 0.364722 0.789702 0.961729
O O14 0.495648 0.950668 0.671794
O O15 0.675338 0.338096 0.679775
O O16 0.500000 0.500000 0.000000
O O17 0.506576 0.179550 0.923044
#
# Coordination Sequence:
#
# PCOD8020647 Si02
#       8
#     2   2   2   2   2   2   2   2
#     4  12  24  41  72  96 135 172 228 270 337 391
#     4  10  24  44  69  96 139 169 226 269 339 391
#     4  12  27  42  65  98 137 175 220 278 336 390
#     4  11  25  44  68  96 136 178 222 274 332 400
#     4  11  24  43  67  98 131 176 224 272 329 399
#     4  10  22  42  71 100 128 182 213 280 327 397
#     4  11  20  42  72  97 130 175 222 270 333 394
#     4  11  23  42  72  98 130 177 221 277 327 401
#
# _framework density 22.00478
#
# number of rings (size 3 to 8) (size 9 to 14) (size 15 to 20)
#    0.000    1.000    2.500    4.125    3.500    2.500 
#    0.000    0.000    0.000    0.000    0.000    0.000 
#    0.000    0.000    0.000    0.000    0.000    0.000 
#
# Total GULP energy -198412.974247 kJ/mol
# GULP energy per Si atom -12400.810890 kJ/mol
# Density = 2.195470 g / cm^3
# Si number density = 22.004780 Si / 1000 Ang^3
#
#
#
# Elastic Constant Matrix: (Units=GPa)
#
#
# Indices 1 2 3 4 5 6 
#
# 1 140.7949 35.2550 39.7352 -2.7201 8.6297 4.9177
# 2 35.2550 117.1490 42.7810 -2.0584 5.7177 -2.6775
# 3 39.7352 42.7810 75.6665 -2.9770 -10.0540 0.6797
# 4 -2.7201 -2.0584 -2.9770 25.7052 2.2662 -0.4120
# 5 8.6297 5.7177 -10.0540 2.2662 44.8847 -1.4805
# 6 4.9177 -2.6775 0.6797 -0.4120 -1.4805 30.1632
#
#
#
# Elastic Compliance Matrix: (Units=1/GPa)
#
#
# Indices 1 2 3 4 5 6 
#
# 1 0.008808 -0.000936 -0.004412 0.000554 -0.002641 -0.001542
# 2 -0.000936 0.011247 -0.006213 0.000332 -0.002623 0.001167
# 3 -0.004412 -0.006213 0.019881 0.000805 0.006053 0.000028
# 4 0.000554 0.000332 0.000805 0.039258 -0.001939 0.000362
# 5 -0.002641 -0.002623 0.006053 -0.001939 0.024616 0.001243
# 6 -0.001542 0.001167 0.000028 0.000362 0.001243 0.033573
#
#
# Mechanical properties :
#
#
# Convention : Reuss Voigt Hill
#
# Bulk Modulus (GPa) = 59.47210 63.23920 61.35565
# Shear Modulus (GPa) = 30.10021 34.53990 32.32006
#
# Velocity S-wave (km/s) = 3.70252 3.96618 3.83662
# Velocity P-wave (km/s) = 6.73526 7.05517 6.89707
#
# Compressibility (1/GPa) = 0.01681461
#
# Stress axis : x y z
#
# Youngs Moduli (GPa) = 113.52695 88.90880 50.29868
#
# Poissons Ratio (x) = 0.08325 0.22189
# Poissons Ratio (y) = 0.10631 0.31252
# Poissons Ratio (z) = 0.50083 0.55242
#
# Static dielectric constant tensor:
#      x y z
#    x 4.375890 -0.076680 0.018000 
#    y -0.076680 3.850580 -0.140240 
#    z 0.018000 -0.140240 3.940370 
# 
# 
# High freq. dielectric constant tensor:
#      x y z
#    x 1.890440 -0.002070 0.000860 
#    y -0.002070 1.850410 -0.013370 
#    z 0.000860 -0.013370 1.860320 
# 
# From -- ./inp_files/448046.got.cif
#   From: 2010.06.25/outbox.cif.g09.slc.cpg/sg2_225_cif.got.tgz:448046.got - 2010.06.27 13:26:56.
