data_PCOD8020883
_publ_section_title
;
Structure prediction by ZEFSAII (Michael W. Deem and Ramdas Pophale) SiO2 
 PCOD8020883
Probable space group: P -1
;
_chemical_formula_sum "Si O2"
_cell_formula_units_Z 16
_cell_length_a 5.272844
_cell_length_b 12.161636
_cell_length_c 13.767214
_cell_angle_alpha 91.372242
_cell_angle_beta 122.435790
_cell_angle_gamma 113.455138
_cell_volume 650.611515
_symmetry_space_group_name_H-M "P -1"
_symmetry_group_IT_number 2
_symmetry_cell_setting 'triclinic'
loop_
_space_group_symop_operation_xyz
x,y,z
-x,-y,-z
loop_
_atom_site_type_symbol
_atom_site_label
_atom_site_fract_x
_atom_site_fract_y
_atom_site_fract_z
Si Si1 0.637566 0.404201 0.184308
Si Si2 0.056020 0.849567 0.551534
Si Si3 0.540013 0.809158 0.160976
Si Si4 0.652050 0.997051 0.807499
Si Si5 0.145667 0.983878 0.390371
Si Si6 0.610385 0.847004 0.967156
Si Si7 0.803234 0.467007 0.859575
Si Si8 0.891691 0.578654 0.550006
O O1 0.364609 0.271268 0.076382
O O2 0.427291 0.464195 0.194499
O O3 0.917573 0.498684 0.167143
O O4 0.852644 0.374859 0.306172
O O5 0.918822 0.889593 0.429950
O O6 0.927055 0.703024 0.509059
O O7 0.481835 0.923767 0.666455
O O8 0.894587 0.889491 0.610722
O O9 0.389931 0.880158 0.196194
O O10 0.451140 0.681632 0.195082
O O11 0.964809 0.901153 0.253583
O O12 0.386951 0.789879 0.019165
O O13 0.447890 0.900421 0.854515
O O14 0.043809 0.037234 0.914609
O O15 0.500000 0.000000 0.500000
O O16 0.000000 0.500000 0.000000
O O17 0.500000 0.500000 0.500000
O O18 0.000000 0.500000 0.500000
#
# Coordination Sequence:
#
# PCOD8020883 Si02
#       8
#     2   2   2   2   2   2   2   2
#     4  12  27  48  73 106 143 195 241 303 357 433
#     4  10  23  45  67 100 138 181 240 297 357 425
#     4  11  24  39  67  99 138 183 232 292 350 432
#     4  10  22  43  65 102 134 179 231 290 362 420
#     4  10  23  42  68 100 134 184 236 296 360 419
#     4  11  22  41  69 100 139 178 235 285 364 425
#     4  12  26  46  72 105 147 190 242 291 364 431
#     4  12  29  51  75 106 143 196 249 303 362 430
#
# _framework density 24.592248999999999
#
# number of rings (size 3 to 8) (size 9 to 14) (size 15 to 20)
#    0.000    1.000    2.500    3.000    7.000    0.000 
#    0.000    0.000    0.000    0.000    0.000    0.000 
#    0.000    0.000    0.000    0.000    0.000    0.000 
#
# Total GULP energy -198223.482857 kJ/mol
# GULP energy per Si atom -12388.967679 kJ/mol
# Density = 2.453628 g / cm^3
# Si number density = 24.592249 Si / 1000 Ang^3
#
#
#
# Elastic Constant Matrix: (Units=GPa)
#
#
# Indices 1 2 3 4 5 6 
#
# 1 66.1415 15.7047 -0.2827 11.1593 9.9537 -18.0667
# 2 15.7047 136.4942 13.7986 12.5137 -1.9302 -29.6417
# 3 -0.2827 13.7986 104.8980 -5.3249 -6.8520 -5.4746
# 4 11.1593 12.5137 -5.3249 42.5325 0.0951 -1.1472
# 5 9.9537 -1.9302 -6.8520 0.0951 42.1267 1.6297
# 6 -18.0667 -29.6417 -5.4746 -1.1472 1.6297 34.7631
#
#
#
# Elastic Compliance Matrix: (Units=1/GPa)
#
#
# Indices 1 2 3 4 5 6 
#
# 1 0.019487 0.000439 -0.000031 -0.004950 -0.004987 0.010568
# 2 0.000439 0.009356 -0.000963 -0.002773 -0.000134 0.007969
# 3 -0.000031 -0.000963 0.009875 0.001543 0.001539 0.000697
# 4 -0.004950 -0.002773 0.001543 0.025711 0.001387 -0.003911
# 5 -0.004987 -0.000134 0.001539 0.001387 0.025297 -0.003604
# 6 0.010568 0.007969 0.000697 -0.003911 -0.003604 0.041203
#
#
# Mechanical properties :
#
#
# Convention : Reuss Voigt Hill
#
# Bulk Modulus (GPa) = 26.58984 40.66388 33.62686
# Shear Modulus (GPa) = 34.58445 42.43865 38.51155
#
# Velocity S-wave (km/s) = 3.75416 4.15865 3.96157
# Velocity P-wave (km/s) = 5.44310 6.29526 5.88463
#
# Compressibility (1/GPa) = 0.03760835
#
# Stress axis : x y z
#
# Youngs Moduli (GPa) = 51.31671 106.88188 101.26694
#
# Poissons Ratio (x) = -0.04694 0.00311
# Poissons Ratio (y) = -0.02254 0.09754
# Poissons Ratio (z) = 0.00158 0.10294
#
# Static dielectric constant tensor:
#      x y z
#    x 3.947020 -0.154690 0.641270 
#    y -0.154690 4.807150 0.335090 
#    z 0.641270 0.335090 3.517140 
# 
# 
# High freq. dielectric constant tensor:
#      x y z
#    x 1.967130 0.006040 -0.008220 
#    y 0.006040 1.983550 -0.006590 
#    z -0.008220 -0.006590 2.004610 
# 
# From -- ./inp_files/68669.got.cif
#   From: 2010.06.25/outbox.cif.g09.slc.cpg/sg2_35_cif.got.tgz:68669.got - 2010.06.27 13:26:56.
