data_PCOD8020807
_publ_section_title
;
Structure prediction by ZEFSAII (Michael W. Deem and Ramdas Pophale) SiO2 
 PCOD8020807
Probable space group: P -1
;
_chemical_formula_sum "Si O2"
_cell_formula_units_Z 16
_cell_length_a 23.858971
_cell_length_b 6.716675
_cell_length_c 16.347790
_cell_angle_alpha 108.953540
_cell_angle_beta 21.505591
_cell_angle_gamma 120.152279
_cell_volume 741.763136
_symmetry_space_group_name_H-M "P -1"
_symmetry_group_IT_number 2
_symmetry_cell_setting 'triclinic'
loop_
_space_group_symop_operation_xyz
x,y,z
-x,-y,-z
loop_
_atom_site_type_symbol
_atom_site_label
_atom_site_fract_x
_atom_site_fract_y
_atom_site_fract_z
Si Si1 0.193479 0.526361 0.738141
Si Si2 0.971722 0.795184 0.444896
Si Si3 0.330193 0.524529 0.717460
Si Si4 0.052474 0.977161 0.816248
Si Si5 0.018728 0.888541 0.669332
Si Si6 0.312021 0.768370 0.264876
Si Si7 0.273757 0.676469 0.984157
Si Si8 0.338393 0.850942 0.428534
O O1 0.329389 0.661218 0.651728
O O2 0.317404 0.667357 0.506910
O O3 0.134010 0.238266 0.787337
O O4 0.000000 0.500000 0.000000
O O5 0.773014 0.518139 0.694000
O O6 0.963079 0.900510 0.384847
O O7 0.141657 0.764856 0.202792
O O8 0.000000 0.000000 0.500000
O O9 0.500000 0.500000 0.500000
O O10 0.302867 0.677024 0.846706
O O11 0.162231 0.226898 0.899375
O O12 0.161989 0.859254 0.680966
O O13 0.072478 0.034431 0.701128
O O14 0.166374 0.825971 0.441498
O O15 0.813887 0.615974 0.906451
O O16 0.332788 0.747686 0.331468
O O17 0.500000 0.000000 0.000000
O O18 0.471082 0.865172 0.785285
#
# Coordination Sequence:
#
# PCOD8020807 Si02
#       8
#     2   2   2   2   2   2   2   2
#     4  12  25  39  70  96 135 183 231 285 343 417
#     4  11  25  43  69 101 136 180 234 285 358 424
#     4  11  24  43  69  99 136 183 231 284 353 415
#     4  10  22  43  63  92 134 175 227 283 345 414
#     4   9  22  43  68  91 134 181 219 291 349 412
#     4  10  24  44  71  99 137 178 228 291 354 421
#     4  10  25  43  66  97 142 177 227 287 349 417
#     4  11  24  44  67 100 133 181 231 286 349 419
#
# _framework density 21.570226999999999
#
# number of rings (size 3 to 8) (size 9 to 14) (size 15 to 20)
#    0.000    1.500    1.250    2.625    7.000    5.000 
#    2.250    0.000    0.000    0.000    0.000    0.000 
#    0.000    0.000    0.000    0.000    0.000    0.000 
#
# Total GULP energy -198266.706917 kJ/mol
# GULP energy per Si atom -12391.669182 kJ/mol
# Density = 2.152113 g / cm^3
# Si number density = 21.570227 Si / 1000 Ang^3
#
#
#
# Elastic Constant Matrix: (Units=GPa)
#
#
# Indices 1 2 3 4 5 6 
#
# 1 -1444.9522 1059.2315 -159.7918 789.7219-1005.6732 -77.3529
# 2 1059.2315 -585.3897 176.9904 -522.6559 666.9898 67.6171
# 3 -159.7918 176.9904 93.5968 92.0994 -143.8154 -4.8106
# 4 789.7219 -522.6559 92.0994 -362.9630 515.1313 37.1930
# 5 -1005.6732 666.9898 -143.8154 515.1313 -619.3713 -47.9386
# 6 -77.3529 67.6171 -4.8106 37.1930 -47.9386 39.0740
#
#
#
# Elastic Compliance Matrix: (Units=1/GPa)
#
#
# Indices 1 2 3 4 5 6 
#
# 1 0.007914 0.001272 -0.004113 0.003303 -0.007797 0.000249
# 2 0.001272 0.010167 -0.003568 -0.005723 0.005234 -0.003646
# 3 -0.004113 -0.003568 0.011696 0.003725 0.003227 -0.000115
# 4 0.003303 -0.005723 0.003725 0.022119 0.005778 0.002936
# 5 -0.007797 0.005234 0.003227 0.005778 0.021033 -0.003792
# 6 0.000249 -0.003646 -0.000115 0.002936 -0.003792 0.024934
#
#
# Mechanical properties :
#
#
# Convention : Reuss Voigt Hill
#
# Bulk Modulus (GPa) = 58.95762 24.01279 41.48520
# Shear Modulus (GPa) = 42.97974 -389.53042 -173.27534
#
# Velocity S-wave (km/s) = 4.46864 -13.45285 -8.97247
# Velocity P-wave (km/s) = 7.34964 15.17066 9.38434
#
# Compressibility (1/GPa) = 0.01696134
#
# Stress axis : x y z
#
# Youngs Moduli (GPa) = 126.35380 98.35385 85.49680
#
# Poissons Ratio (x) = -0.12513 0.35163
# Poissons Ratio (y) = -0.16076 0.30503
# Poissons Ratio (z) = 0.51967 0.35091
#
# Static dielectric constant tensor:
#      x y z
#    x 4.348350 0.093000 -0.101020 
#    y 0.093000 3.893510 -0.096800 
#    z -0.101020 -0.096800 4.114770 
# 
# 
# High freq. dielectric constant tensor:
#      x y z
#    x 1.864040 0.005390 0.000350 
#    y 0.005390 1.843750 -0.008630 
#    z 0.000350 -0.008630 1.846240 
# 
# From -- ./inp_files/578741.got.cif
#   From: 2010.06.25/outbox.cif.g09.slc.cpg/sg2_290_cif.got.tgz:578741.got - 2010.06.27 13:26:56.
