data_PCOD8020773
_publ_section_title
;
Structure prediction by ZEFSAII (Michael W. Deem and Ramdas Pophale) SiO2 
 PCOD8020773
Probable space group: P -1
;
_chemical_formula_sum "Si O2"
_cell_formula_units_Z 16
_cell_length_a 9.823363
_cell_length_b 17.232364
_cell_length_c 6.917774
_cell_angle_alpha 78.416826
_cell_angle_beta 134.710987
_cell_angle_gamma 91.509264
_cell_volume 804.082763
_symmetry_space_group_name_H-M "P -1"
_symmetry_group_IT_number 2
_symmetry_cell_setting 'triclinic'
loop_
_space_group_symop_operation_xyz
x,y,z
-x,-y,-z
loop_
_atom_site_type_symbol
_atom_site_label
_atom_site_fract_x
_atom_site_fract_y
_atom_site_fract_z
Si Si1 0.084875 0.839945 0.385306
Si Si2 0.317653 0.908746 0.882254
Si Si3 0.017996 0.338386 0.166650
Si Si4 0.749269 0.906881 0.276425
Si Si5 0.421980 0.387688 0.598268
Si Si6 0.037918 0.839419 0.898664
Si Si7 0.250426 0.662887 0.753978
Si Si8 0.291599 0.571586 0.447736
O O1 0.212090 0.901426 0.575637
O O2 0.198377 0.750206 0.564459
O O3 0.876678 0.849165 0.278757
O O4 0.049700 0.864489 0.117982
O O5 0.236573 0.852242 0.985925
O O6 0.277403 0.000957 0.865132
O O7 0.545032 0.876562 0.104035
O O8 0.246233 0.340216 0.402477
O O9 0.985953 0.252147 0.102506
O O10 0.923853 0.357100 0.274760
O O11 0.916122 0.403207 0.877313
O O12 0.855761 0.897869 0.594555
O O13 0.339484 0.476178 0.546327
O O14 0.544597 0.389909 0.522766
O O15 0.555271 0.341159 0.922352
O O16 0.283707 0.598669 0.647999
#
# Coordination Sequence:
#
# PCOD8020773 Si02
#       8
#     2   2   2   2   2   2   2   2
#     4  11  22  39  60  91 122 157 197 246 295 352
#     4  10  23  43  64  88 121 157 194 247 296 355
#     4  11  22  39  61  90 119 157 201 246 297 353
#     4  10  23  42  64  89 119 156 200 240 299 356
#     4  10  24  40  63  86 122 161 200 248 298 351
#     4  11  22  39  61  90 124 155 196 246 297 349
#     4  11  22  39  61  89 122 155 203 246 299 350
#     4  10  22  43  60  89 122 156 201 251 299 350
#
# _framework density 19.89845
#
# number of rings (size 3 to 8) (size 9 to 14) (size 15 to 20)
#    0.000    1.500    3.750    2.250    1.750    4.500 
#    2.250    2.500    0.000    0.000    0.000    0.000 
#    0.000    0.000    0.000    0.000    0.000    0.000 
#
# Total GULP energy -198464.445499 kJ/mol
# GULP energy per Si atom -12404.027844 kJ/mol
# Density = 1.985316 g / cm^3
# Si number density = 19.898450 Si / 1000 Ang^3
#
#
#
# Elastic Constant Matrix: (Units=GPa)
#
#
# Indices 1 2 3 4 5 6 
#
# 1 101.8868 29.5097 80.8618 16.4993 12.6419 2.6130
# 2 29.5097 68.3268 18.8137 -1.1939 3.0167 -2.1231
# 3 80.8618 18.8137 116.0482 11.0759 1.6633 -2.4086
# 4 16.4993 -1.1939 11.0759 23.2568 -7.5978 -1.6695
# 5 12.6419 3.0167 1.6633 -7.5978 43.7697 6.1788
# 6 2.6130 -2.1231 -2.4086 -1.6695 6.1788 24.2464
#
#
#
# Elastic Compliance Matrix: (Units=1/GPa)
#
#
# Indices 1 2 3 4 5 6 
#
# 1 0.031287 -0.008351 -0.018743 -0.017331 -0.010110 -0.004582
# 2 -0.008351 0.017708 0.002355 0.006509 0.001856 0.002660
# 3 -0.018743 0.002355 0.020783 0.005370 0.004912 0.003409
# 4 -0.017331 0.006509 0.005370 0.057861 0.013916 0.003409
# 5 -0.010110 0.001856 0.004912 0.013916 0.028513 -0.004568
# 6 -0.004582 0.002660 0.003409 0.003409 -0.004568 0.043707
#
#
# Mechanical properties :
#
#
# Convention : Reuss Voigt Hill
#
# Bulk Modulus (GPa) = 49.25750 60.51471 54.88610
# Shear Modulus (GPa) = 19.52335 28.72634 24.12485
#
# Velocity S-wave (km/s) = 3.13573 3.80366 3.48573
# Velocity P-wave (km/s) = 6.15781 7.05466 6.62143
#
# Compressibility (1/GPa) = 0.02030148
#
# Stress axis : x y z
#
# Youngs Moduli (GPa) = 31.96197 56.47167 48.11580
#
# Poissons Ratio (x) = 0.47157 0.90184
# Poissons Ratio (y) = 0.26690 -0.11332
# Poissons Ratio (z) = 0.59906 -0.13300
#
# Static dielectric constant tensor:
#      x y z
#    x 3.624820 -0.095560 0.069540 
#    y -0.095560 3.543630 -0.105430 
#    z 0.069540 -0.105430 3.782850 
# 
# 
# High freq. dielectric constant tensor:
#      x y z
#    x 1.771650 -0.005430 0.004180 
#    y -0.005430 1.780310 -0.010210 
#    z 0.004180 -0.010210 1.782750 
# 
# From -- ./inp_files/48016.got.cif
#   From: 2010.06.25/outbox.cif.g09.slc.cpg/sg2_25_cif.got.tgz:48016.got - 2010.06.27 13:26:56.
