data_PCOD8020133
_publ_section_title
;
Structure prediction by ZEFSAII (Michael W. Deem and Ramdas Pophale) SiO2 
 PCOD8020133
Probable space group: P -1
;
_chemical_formula_sum "Si O2"
_cell_formula_units_Z 16
_cell_length_a 7.756024
_cell_length_b 10.821864
_cell_length_c 9.145291
_cell_angle_alpha 90.819430
_cell_angle_beta 62.675719
_cell_angle_gamma 101.165673
_cell_volume 666.596445
_symmetry_space_group_name_H-M "P -1"
_symmetry_group_IT_number 2
_symmetry_cell_setting 'triclinic'
loop_
_space_group_symop_operation_xyz
x,y,z
-x,-y,-z
loop_
_atom_site_type_symbol
_atom_site_label
_atom_site_fract_x
_atom_site_fract_y
_atom_site_fract_z
Si Si1 0.034075 0.821224 0.674876
Si Si2 0.587683 0.781640 0.783979
Si Si3 0.011214 0.145884 0.985566
Si Si4 0.813441 0.374132 0.570894
Si Si5 0.273751 0.789334 0.144007
Si Si6 0.612945 0.028161 0.624300
Si Si7 0.656861 0.593117 0.539091
Si Si8 0.619201 0.776884 0.330387
O O1 0.813903 0.842766 0.738208
O O2 0.068280 0.803140 0.833877
O O3 0.054537 0.691469 0.587956
O O4 0.184201 0.941756 0.548791
O O5 0.557476 0.641508 0.721838
O O6 0.528659 0.880817 0.691142
O O7 0.458783 0.764099 0.979430
O O8 0.879350 0.167589 0.902093
O O9 0.239132 0.212203 0.865307
O O10 0.000000 0.000000 0.000000
O O11 0.837667 0.339636 0.731394
O O12 0.840267 0.525405 0.520511
O O13 0.580066 0.323435 0.628819
O O14 0.352376 0.897612 0.233703
O O15 0.441309 0.086666 0.606110
O O16 0.500000 0.500000 0.500000
O O17 0.734000 0.723030 0.419031
#
# Coordination Sequence:
#
# PCOD8020133 Si02
#       8
#     2   2   2   2   2   2   2   2
#     4  10  23  40  64  97 134 169 215 257 330 392
#     4  12  23  38  71  93 130 178 212 256 341 377
#     4  12  24  38  63 101 139 163 209 267 323 393
#     4   9  22  48  65  87 131 170 222 272 305 384
#     4  10  23  39  65  96 133 166 214 265 324 385
#     4  10  22  42  65  98 137 165 210 262 325 412
#     4  10  24  42  69  93 126 170 230 272 311 371
#     4   9  21  41  65  90 133 167 206 265 336 363
#
# _framework density 24.002527000000001
#
# number of rings (size 3 to 8) (size 9 to 14) (size 15 to 20)
#    0.000    2.000    0.000    3.750   10.500    1.500 
#    0.000    0.625    0.000    0.000    0.000    0.000 
#    0.000    0.000    0.000    0.000    0.000    0.000 
#
# Total GULP energy -198347.607355 kJ/mol
# GULP energy per Si atom -12396.725460 kJ/mol
# Density = 2.394790 g / cm^3
# Si number density = 24.002527 Si / 1000 Ang^3
#
#
#
# Elastic Constant Matrix: (Units=GPa)
#
#
# Indices 1 2 3 4 5 6 
#
# 1 75.1787 30.3702 36.1429 -7.3458 9.6307 -32.9360
# 2 30.3702 131.0911 47.5814 -13.4961 6.8611 -39.4574
# 3 36.1429 47.5814 145.0604 -13.7950 -26.8924 -31.4355
# 4 -7.3458 -13.4961 -13.7950 26.2852 -11.4719 5.3536
# 5 9.6307 6.8611 -26.8924 -11.4719 32.3339 -13.1776
# 6 -32.9360 -39.4574 -31.4355 5.3536 -13.1776 48.2159
#
#
#
# Elastic Compliance Matrix: (Units=1/GPa)
#
#
# Indices 1 2 3 4 5 6 
#
# 1 0.020137 -0.000122 -0.004148 -0.001145 -0.005979 0.009444
# 2 -0.000122 0.010797 -0.001158 0.003896 0.001404 0.007948
# 3 -0.004148 -0.001158 0.018343 0.017529 0.028692 0.014073
# 4 -0.001145 0.003896 0.017529 0.064589 0.044704 0.018880
# 5 -0.005979 0.001404 0.028692 0.044704 0.086132 0.034347
# 6 0.009444 0.007948 0.014073 0.018880 0.034347 0.050162
#
#
# Mechanical properties :
#
#
# Convention : Reuss Voigt Hill
#
# Bulk Modulus (GPa) = 26.02761 64.39101 45.20931
# Shear Modulus (GPa) = 18.26004 37.18272 27.72138
#
# Velocity S-wave (km/s) = 2.76117 3.94015 3.40212
# Velocity P-wave (km/s) = 4.58614 6.89817 5.85736
#
# Compressibility (1/GPa) = 0.03842074
#
# Stress axis : x y z
#
# Youngs Moduli (GPa) = 49.66079 92.61992 54.51725
#
# Poissons Ratio (x) = 0.01129 0.22613
# Poissons Ratio (y) = 0.00605 0.06313
# Poissons Ratio (z) = 0.20599 0.10725
#
# Static dielectric constant tensor:
#      x y z
#    x 4.944700 -0.679440 0.556570 
#    y -0.679440 4.992580 -0.506700 
#    z 0.556570 -0.506700 5.111600 
# 
# 
# High freq. dielectric constant tensor:
#      x y z
#    x 1.970510 -0.013770 0.005980 
#    y -0.013770 1.946420 -0.004570 
#    z 0.005980 -0.004570 1.961870 
# 
# From -- ./inp_files/187354.got.cif
#   From: 2010.06.25/outbox.cif.g09.slc.cpg/sg2_94_cif.got.tgz:187354.got - 2010.06.27 13:26:56.
