data_PCOD8020078
_publ_section_title
;
Structure prediction by ZEFSAII (Michael W. Deem and Ramdas Pophale) SiO2 
 PCOD8020078
Probable space group: P -1
;
_chemical_formula_sum "Si O2"
_cell_formula_units_Z 12
_cell_length_a 14.866935
_cell_length_b 11.644667
_cell_length_c 14.992999
_cell_angle_alpha 28.064997
_cell_angle_beta 38.087447
_cell_angle_gamma 26.717698
_cell_volume 549.018303
_symmetry_space_group_name_H-M "P -1"
_symmetry_group_IT_number 2
_symmetry_cell_setting 'triclinic'
loop_
_space_group_symop_operation_xyz
x,y,z
-x,-y,-z
loop_
_atom_site_type_symbol
_atom_site_label
_atom_site_fract_x
_atom_site_fract_y
_atom_site_fract_z
Si Si1 0.625986 0.930108 0.138617
Si Si2 0.304316 0.692135 0.280370
Si Si3 0.407392 0.753981 0.478629
Si Si4 0.074783 0.802608 0.667582
Si Si5 0.553696 0.167199 0.216126
Si Si6 0.219842 0.331398 0.471031
O O1 0.415225 0.022846 0.249954
O O2 0.792464 0.587371 0.189431
O O3 0.689973 0.902559 0.210774
O O4 0.579692 0.237475 0.915943
O O5 0.456350 0.415043 0.424129
O O6 0.222370 0.569688 0.366720
O O7 0.115879 0.049045 0.226251
O O8 0.500000 0.500000 0.500000
O O9 0.190786 0.885439 0.574826
O O10 0.000000 0.000000 0.500000
O O11 0.349986 0.240488 0.342685
O O12 0.680259 0.007488 0.319016
O O13 0.500000 0.500000 0.000000
O O14 0.000000 0.500000 0.500000
#
# Coordination Sequence:
#
# PCOD8020078 Si02
#       6
#     2   2   2   2   2   2
#     4  11  23  43  65  97 131 176 217 268 329 396
#     4  12  23  44  66  97 134 171 222 271 330 396
#     4  10  22  42  65  92 132 174 213 262 336 385
#     4  11  22  42  66  94 135 169 215 273 327 387
#     4  11  23  47  68  92 137 177 221 279 330 397
#     4  11  26  44  71 100 132 175 230 278 330 393
#
# _framework density 21.857194
#
# number of rings (size 3 to 8) (size 9 to 14) (size 15 to 20)
#    0.000    1.000    6.667    0.500    2.333    3.333 
#    3.000    0.000    0.000    0.000    0.000    0.000 
#    0.000    0.000    0.000    0.000    0.000    0.000 
#
# Total GULP energy -148664.589356 kJ/mol
# GULP energy per Si atom -12388.715780 kJ/mol
# Density = 2.180745 g / cm^3
# Si number density = 21.857194 Si / 1000 Ang^3
#
#
#
# Elastic Constant Matrix: (Units=GPa)
#
#
# Indices 1 2 3 4 5 6 
#
# 1 116.2843 38.2734 59.4909 8.6961 -11.9588 -14.2725
# 2 38.2734 90.5262 39.6510 12.4751 1.1326 -5.5022
# 3 59.4909 39.6510 180.1762 8.7720 -5.1517 -10.7312
# 4 8.6961 12.4751 8.7720 32.5752 4.9777 -0.1760
# 5 -11.9588 1.1326 -5.1517 4.9777 21.2374 6.0508
# 6 -14.2725 -5.5022 -10.7312 -0.1760 6.0508 44.3427
#
#
#
# Elastic Compliance Matrix: (Units=1/GPa)
#
#
# Indices 1 2 3 4 5 6 
#
# 1 0.012308 -0.003621 -0.002867 -0.002089 0.006364 0.001941
# 2 -0.003621 0.013878 -0.001732 -0.003495 -0.002513 0.000466
# 3 -0.002867 -0.001732 0.006935 -0.000454 0.000117 0.000523
# 4 -0.002089 -0.003495 -0.000454 0.034114 -0.009143 0.000167
# 5 0.006364 -0.002513 0.000117 -0.009143 0.054606 -0.005723
# 6 0.001941 0.000466 0.000523 0.000167 -0.005723 0.024142
#
#
# Mechanical properties :
#
#
# Convention : Reuss Voigt Hill
#
# Bulk Modulus (GPa) = 59.96008 73.53523 66.74766
# Shear Modulus (GPa) = 29.76467 36.26916 33.01691
#
# Velocity S-wave (km/s) = 3.69423 4.07796 3.89083
# Velocity P-wave (km/s) = 6.75934 7.47593 7.12665
#
# Compressibility (1/GPa) = 0.01667776
#
# Stress axis : x y z
#
# Youngs Moduli (GPa) = 81.25122 72.05786 144.20234
#
# Poissons Ratio (x) = 0.26094 0.41350
# Poissons Ratio (y) = 0.29423 0.24980
# Poissons Ratio (z) = 0.23299 0.12483
#
# Static dielectric constant tensor:
#      x y z
#    x 4.074230 0.511470 -0.174340 
#    y 0.511470 4.071380 0.163480 
#    z -0.174340 0.163480 4.173680 
# 
# 
# High freq. dielectric constant tensor:
#      x y z
#    x 1.855810 0.026470 -0.006760 
#    y 0.026470 1.852050 0.015430 
#    z -0.006760 0.015430 1.870390 
# 
# From -- ./inp_files/499583.got.cif
#   From: 2010.06.25/outbox.cif.g09.slc.cpg/sg2_250_cif.got.tgz:499583.got - 2010.06.27 13:26:56.
