data_PCOD8020408
_publ_section_title
;
Structure prediction by ZEFSAII (Michael W. Deem and Ramdas Pophale) SiO2 
 PCOD8020408
Probable space group: P -1
;
_chemical_formula_sum "Si O2"
_cell_formula_units_Z 16
_cell_length_a 8.517311
_cell_length_b 25.692961
_cell_length_c 25.445192
_cell_angle_alpha 168.807063
_cell_angle_beta 44.258547
_cell_angle_gamma 134.542247
_cell_volume 754.317369
_symmetry_space_group_name_H-M "P -1"
_symmetry_group_IT_number 2
_symmetry_cell_setting 'triclinic'
loop_
_space_group_symop_operation_xyz
x,y,z
-x,-y,-z
loop_
_atom_site_type_symbol
_atom_site_label
_atom_site_fract_x
_atom_site_fract_y
_atom_site_fract_z
Si Si1 0.458851 0.323235 0.118588
Si Si2 0.481524 0.561560 0.898949
Si Si3 0.542229 0.090647 0.137252
Si Si4 0.073437 0.464762 0.166757
Si Si5 0.992410 0.744841 0.784075
Si Si6 0.906135 0.002618 0.685572
Si Si7 0.365912 0.567370 0.711062
Si Si8 0.181748 0.066079 0.478627
O O1 0.447144 0.472606 0.213191
O O2 0.540507 0.526151 0.346271
O O3 0.207202 0.234154 0.104893
O O4 0.641181 0.077889 0.831824
O O5 0.685232 0.509014 0.838144
O O6 0.282825 0.355522 0.754113
O O7 0.389323 0.858701 0.225354
O O8 0.776780 0.244541 0.229017
O O9 0.369831 0.319149 0.424427
O O10 0.500000 0.000000 0.000000
O O11 0.521590 0.823452 0.913190
O O12 0.896864 0.350964 0.139820
O O13 0.985267 0.753648 0.455092
O O14 0.067155 0.254060 0.911117
O O15 0.000000 0.500000 0.500000
O O16 0.000000 0.000000 0.000000
O O17 0.944215 0.935077 0.548414
O O18 0.000000 0.000000 0.500000
#
# Coordination Sequence:
#
# PCOD8020408 Si02
#       8
#     2   2   2   2   2   2   2   2
#     4  10  22  42  68  90 127 169 228 264 323 380
#     4  11  25  42  69 103 129 166 223 267 311 380
#     4  12  25  41  57  87 124 164 214 268 341 386
#     4  11  23  42  66  96 133 167 218 266 317 379
#     4  12  24  41  63  89 123 166 224 276 323 380
#     4  10  22  42  68  93 131 177 212 255 331 386
#     4  11  22  41  62  84 121 172 209 265 327 385
#     4  11  23  45  71 101 135 172 211 259 314 387
#
# _framework density 21.211231000000002
#
# number of rings (size 3 to 8) (size 9 to 14) (size 15 to 20)
#    0.000    1.000    2.500    5.250    1.750    3.000 
#    2.250    3.750    0.000    0.000    0.000    0.000 
#    0.000    0.000    0.000    0.000    0.000    0.000 
#
# Total GULP energy -198318.908832 kJ/mol
# GULP energy per Si atom -12394.931802 kJ/mol
# Density = 2.116295 g / cm^3
# Si number density = 21.211231 Si / 1000 Ang^3
#
#
#
# Elastic Constant Matrix: (Units=GPa)
#
#
# Indices 1 2 3 4 5 6 
#
# 1 134.3123 44.9487 33.8424 -0.6264 12.8178 5.6017
# 2 44.9487 121.3693 14.7857 5.0071 5.8204 -2.8641
# 3 33.8424 14.7857 100.3959 12.1783 9.0090 -1.6496
# 4 -0.6264 5.0071 12.1783 28.8883 -1.8164 6.1981
# 5 12.8178 5.8204 9.0090 -1.8164 40.4230 2.6790
# 6 5.6017 -2.8641 -1.6496 6.1981 2.6790 21.3194
#
#
#
# Elastic Compliance Matrix: (Units=1/GPa)
#
#
# Indices 1 2 3 4 5 6 
#
# 1 0.009642 -0.003335 -0.003023 0.002789 -0.001524 -0.003834
# 2 -0.003335 0.009666 0.000110 -0.002477 -0.000668 0.002987
# 3 -0.003023 0.000110 0.011965 -0.006082 -0.002248 0.003786
# 4 0.002789 -0.002477 -0.006082 0.040871 0.003584 -0.013869
# 5 -0.001524 -0.000668 -0.002248 0.003584 0.026258 -0.004205
# 6 -0.003834 0.002987 0.003786 -0.013869 -0.004205 0.053168
#
#
# Mechanical properties :
#
#
# Convention : Reuss Voigt Hill
#
# Bulk Modulus (GPa) = 53.25898 60.35900 56.80899
# Shear Modulus (GPa) = 29.35572 35.62619 32.49095
#
# Velocity S-wave (km/s) = 3.72421 4.10273 3.91804
# Velocity P-wave (km/s) = 6.60730 7.13870 6.87813
#
# Compressibility (1/GPa) = 0.01877618
#
# Stress axis : x y z
#
# Youngs Moduli (GPa) = 103.71803 103.45898 83.57542
#
# Poissons Ratio (x) = 0.34502 0.25269
# Poissons Ratio (y) = 0.34588 -0.00921
# Poissons Ratio (z) = 0.31358 -0.01140
#
# Static dielectric constant tensor:
#      x y z
#    x 3.770110 -0.233370 -0.005720 
#    y -0.233370 3.650530 -0.151520 
#    z -0.005720 -0.151520 3.791730 
# 
# 
# High freq. dielectric constant tensor:
#      x y z
#    x 1.830420 -0.001230 0.011020 
#    y -0.001230 1.823800 0.002850 
#    z 0.011020 0.002850 1.840220 
# 
# From -- ./inp_files/617700.got.cif
#   From: 2010.06.25/outbox.cif.g09.slc.cpg/sg2_309_cif.got.tgz:617700.got - 2010.06.27 13:26:56.
