data_PCOD8020149
_publ_section_title
;
Structure prediction by ZEFSAII (Michael W. Deem and Ramdas Pophale) SiO2 
 PCOD8020149
Probable space group: P -1
;
_chemical_formula_sum "Si O2"
_cell_formula_units_Z 16
_cell_length_a 24.441278
_cell_length_b 11.261599
_cell_length_c 5.187149
_cell_angle_alpha 60.936633
_cell_angle_beta 121.386409
_cell_angle_gamma 147.124338
_cell_volume 657.990088
_symmetry_space_group_name_H-M "P -1"
_symmetry_group_IT_number 2
_symmetry_cell_setting 'triclinic'
loop_
_space_group_symop_operation_xyz
x,y,z
-x,-y,-z
loop_
_atom_site_type_symbol
_atom_site_label
_atom_site_fract_x
_atom_site_fract_y
_atom_site_fract_z
Si Si1 0.237187 0.415125 0.344204
Si Si2 0.139571 0.767736 0.810656
Si Si3 0.198880 0.522842 0.636751
Si Si4 0.558888 0.405575 0.337989
Si Si5 0.151876 0.042773 0.224855
Si Si6 0.666641 0.000894 0.676982
Si Si7 0.366095 0.331572 0.263781
Si Si8 0.009816 0.319524 0.114113
O O1 0.216332 0.436860 0.554040
O O2 0.358042 0.577021 0.450644
O O3 0.162814 0.160409 0.374616
O O4 0.208937 0.479702 0.991886
O O5 0.083915 0.746059 0.938633
O O6 0.138583 0.863322 0.462736
O O7 0.080153 0.525956 0.869836
O O8 0.259269 0.936621 0.987112
O O9 0.082287 0.384875 0.453459
O O10 0.284212 0.783214 0.555250
O O11 0.445028 0.148011 0.315454
O O12 0.562530 0.510943 0.484168
O O13 0.579263 0.533278 0.007958
O O14 0.256859 0.231541 0.115947
O O15 0.047525 0.898746 0.953794
O O16 0.652395 0.861003 0.573049
#
# Coordination Sequence:
#
# PCOD8020149 Si02
#       8
#     2   2   2   2   2   2   2   2
#     4  11  26  46  63  96 137 177 234 269 305 397
#     4  10  22  42  66 104 133 162 222 272 342 406
#     4  11  28  45  66  97 134 180 231 269 315 393
#     4  11  25  43  72  99 134 174 217 276 335 391
#     4  11  23  40  74  91 138 178 212 276 341 380
#     4  11  23  44  70 100 135 175 213 276 342 392
#     4  11  23  42  69 108 132 164 219 275 340 408
#     4  10  23  42  67  99 131 173 215 278 337 395
#
# _framework density 24.316478
#
# number of rings (size 3 to 8) (size 9 to 14) (size 15 to 20)
#    0.000    1.250    1.250    4.125    3.500    7.000 
#    0.000    0.000    0.000    0.000    0.000    0.000 
#    0.000    0.000    0.000    0.000    0.000    0.000 
#
# Total GULP energy -198404.656608 kJ/mol
# GULP energy per Si atom -12400.291038 kJ/mol
# Density = 2.426113 g / cm^3
# Si number density = 24.316478 Si / 1000 Ang^3
#
#
#
# Elastic Constant Matrix: (Units=GPa)
#
#
# Indices 1 2 3 4 5 6 
#
# 1 53.8128 24.7821 6.7907 8.7508 3.2020 -6.0186
# 2 24.7821 140.2369 27.6581 25.5149 11.3643 17.4521
# 3 6.7907 27.6581 84.0781 4.6905 1.5295 8.3007
# 4 8.7508 25.5149 4.6905 26.0250 2.5290 5.7162
# 5 3.2020 11.3643 1.5295 2.5290 38.6517 1.2450
# 6 -6.0186 17.4521 8.3007 5.7162 1.2450 30.5074
#
#
#
# Elastic Compliance Matrix: (Units=1/GPa)
#
#
# Indices 1 2 3 4 5 6 
#
# 1 0.022174 -0.003660 -0.001046 -0.005326 -0.000621 0.007776
# 2 -0.003660 0.010255 -0.002188 -0.007233 -0.002005 -0.004556
# 3 -0.001046 -0.002188 0.012911 0.000719 0.000256 -0.002613
# 4 -0.005326 -0.007233 0.000719 0.048580 -0.000440 -0.006193
# 5 -0.000621 -0.002005 0.000256 -0.000440 0.026533 -0.000046
# 6 0.007776 -0.004556 -0.002613 -0.006193 -0.000046 0.038793
#
#
# Mechanical properties :
#
#
# Convention : Reuss Voigt Hill
#
# Bulk Modulus (GPa) = 31.69532 44.06552 37.88042
# Shear Modulus (GPa) = 27.24041 33.62993 30.43517
#
# Velocity S-wave (km/s) = 3.35064 3.72292 3.54167
# Velocity P-wave (km/s) = 5.29451 6.05320 5.68652
#
# Compressibility (1/GPa) = 0.03155040
#
# Stress axis : x y z
#
# Youngs Moduli (GPa) = 45.09887 97.51712 77.45269
#
# Poissons Ratio (x) = 0.35696 0.08102
# Poissons Ratio (y) = 0.16508 0.16946
# Poissons Ratio (z) = 0.04717 0.21336
#
# Static dielectric constant tensor:
#      x y z
#    x 4.287180 0.094030 0.175260 
#    y 0.094030 4.737900 0.116050 
#    z 0.175260 0.116050 4.082970 
# 
# 
# High freq. dielectric constant tensor:
#      x y z
#    x 1.957970 0.008940 0.002320 
#    y 0.008940 1.981120 0.011590 
#    z 0.002320 0.011590 1.958600 
# 
# From -- ./inp_files/126837.got.cif
#   From: 2010.06.25/outbox.cif.g09.slc.cpg/sg2_64_cif.got.tgz:126837.got - 2010.06.27 13:26:56.
