data_PCOD8020307
_publ_section_title
;
Structure prediction by ZEFSAII (Michael W. Deem and Ramdas Pophale) SiO2 
 PCOD8020307
Probable space group: P -1
;
_chemical_formula_sum "Si O2"
_cell_formula_units_Z 14
_cell_length_a 11.231039
_cell_length_b 10.985136
_cell_length_c 13.773897
_cell_angle_alpha 61.393410
_cell_angle_beta 31.633622
_cell_angle_gamma 82.776115
_cell_volume 618.694535
_symmetry_space_group_name_H-M "P -1"
_symmetry_group_IT_number 2
_symmetry_cell_setting 'triclinic'
loop_
_space_group_symop_operation_xyz
x,y,z
-x,-y,-z
loop_
_atom_site_type_symbol
_atom_site_label
_atom_site_fract_x
_atom_site_fract_y
_atom_site_fract_z
Si Si1 0.625780 0.229102 0.142181
Si Si2 0.333636 0.757937 0.283528
Si Si3 0.279752 0.229722 0.545633
Si Si4 0.815376 0.091823 0.207904
Si Si5 0.288943 0.851556 0.079496
Si Si6 0.327164 0.377945 0.880827
Si Si7 0.769531 0.577558 0.854710
O O1 0.352123 0.168251 0.421115
O O2 0.838530 0.192189 0.055755
O O3 0.517168 0.129131 0.152411
O O4 0.809693 0.433762 0.913511
O O5 0.278159 0.731146 0.216644
O O6 0.424116 0.641867 0.305246
O O7 0.060653 0.722983 0.540385
O O8 0.602797 0.960082 0.032055
O O9 0.559755 0.426327 0.305881
O O10 0.038740 0.252894 0.685847
O O11 0.172387 0.071479 0.757650
O O12 0.500000 0.000000 0.500000
O O13 0.047462 0.234962 0.068263
O O14 0.256928 0.344102 0.057709
O O15 0.500000 0.500000 0.000000
#
# Coordination Sequence:
#
# PCOD8020307 Si02
#       7
#     2   2   2   2   2   2   2
#     4  10  23  41  64  93 129 170 216 263 328 376
#     4  11  24  40  66  98 130 171 222 263 335 386
#     4  10  22  42  67  93 134 169 215 267 327 380
#     4  10  23  43  66  98 132 171 223 269 321 387
#     4  11  23  41  64  96 133 170 214 276 320 392
#     4  11  23  44  69  97 133 174 217 269 328 387
#     4  11  24  42  68 101 130 171 218 267 330 393
#
# _framework density 22.628292999999999
#
# number of rings (size 3 to 8) (size 9 to 14) (size 15 to 20)
#    0.000    1.429    1.429    3.429    4.000    7.429 
#    0.000    5.000    0.000    0.000    0.000    0.000 
#    0.000    0.000    0.000    0.000    0.000    0.000 
#
# Total GULP energy -173512.428065 kJ/mol
# GULP energy per Si atom -12393.744862 kJ/mol
# Density = 2.257679 g / cm^3
# Si number density = 22.628293 Si / 1000 Ang^3
#
#
#
# Elastic Constant Matrix: (Units=GPa)
#
#
# Indices 1 2 3 4 5 6 
#
# 1 88.5472 24.0505 41.3848 -18.0852 -1.8924 -6.9019
# 2 24.0505 84.9951 28.9581 -15.9814 -1.6264 -12.3670
# 3 41.3848 28.9581 91.8297 -10.6935 -11.1068 -0.3620
# 4 -18.0852 -15.9814 -10.6935 39.5211 -0.8696 6.7600
# 5 -1.8924 -1.6264 -11.1068 -0.8696 33.8128 0.5818
# 6 -6.9019 -12.3670 -0.3620 6.7600 0.5818 30.5849
#
#
#
# Elastic Compliance Matrix: (Units=1/GPa)
#
#
# Indices 1 2 3 4 5 6 
#
# 1 0.015607 -0.001146 -0.006266 0.004618 -0.001155 0.001986
# 2 -0.001146 0.014744 -0.003769 0.003570 -0.000585 0.004880
# 3 -0.006266 -0.003769 0.015496 0.000405 0.004619 -0.002932
# 4 0.004618 0.003570 0.000405 0.029701 0.001398 -0.004101
# 5 -0.001155 -0.000585 0.004619 0.001398 0.031058 -0.001342
# 6 0.001986 0.004880 -0.002932 -0.004101 -0.001342 0.036015
#
#
# Mechanical properties :
#
#
# Convention : Reuss Voigt Hill
#
# Bulk Modulus (GPa) = 42.58049 50.46210 46.52129
# Shear Modulus (GPa) = 28.93329 32.18232 30.55781
#
# Velocity S-wave (km/s) = 3.57968 3.77532 3.67880
# Velocity P-wave (km/s) = 5.99530 6.43062 6.21677
#
# Compressibility (1/GPa) = 0.02348494
#
# Stress axis : x y z
#
# Youngs Moduli (GPa) = 64.07557 67.82453 64.53122
#
# Poissons Ratio (x) = 0.07774 0.40436
# Poissons Ratio (y) = 0.07344 0.24320
# Poissons Ratio (z) = 0.40151 0.25561
#
# Static dielectric constant tensor:
#      x y z
#    x 4.525130 -0.310320 0.337570 
#    y -0.310320 4.219040 -0.117930 
#    z 0.337570 -0.117930 3.948550 
# 
# 
# High freq. dielectric constant tensor:
#      x y z
#    x 1.885390 -0.012790 0.007840 
#    y -0.012790 1.900980 -0.002840 
#    z 0.007840 -0.002840 1.887000 
# 
# From -- ./inp_files/519472.got.cif
#   From: 2010.06.25/outbox.cif.g09.slc.cpg/sg2_260_cif.got.tgz:519472.got - 2010.06.27 13:26:56.
