data_PCOD8020140
_publ_section_title
;
Structure prediction by ZEFSAII (Michael W. Deem and Ramdas Pophale) SiO2 
 PCOD8020140
Probable space group: P -1
;
_chemical_formula_sum "Si O2"
_cell_formula_units_Z 16
_cell_length_a 22.691210
_cell_length_b 12.684021
_cell_length_c 20.015551
_cell_angle_alpha 38.908221
_cell_angle_beta 163.233124
_cell_angle_gamma 151.401834
_cell_volume 709.271764
_symmetry_space_group_name_H-M "P -1"
_symmetry_group_IT_number 2
_symmetry_cell_setting 'triclinic'
loop_
_space_group_symop_operation_xyz
x,y,z
-x,-y,-z
loop_
_atom_site_type_symbol
_atom_site_label
_atom_site_fract_x
_atom_site_fract_y
_atom_site_fract_z
Si Si1 0.025936 0.647324 0.515926
Si Si2 0.341318 0.230979 0.447114
Si Si3 0.210996 0.038261 0.262110
Si Si4 0.090022 0.066933 0.754952
Si Si5 0.803711 0.462962 0.627486
Si Si6 0.250422 0.199091 0.619689
Si Si7 0.376465 0.905870 0.114100
Si Si8 0.918501 0.518786 0.210543
O O1 0.796882 0.669299 0.251469
O O2 0.973844 0.536631 0.586083
O O3 0.000000 0.500000 0.500000
O O4 0.359866 0.930896 0.735228
O O5 0.500000 0.500000 0.500000
O O6 0.242599 0.183123 0.286971
O O7 0.059581 0.056237 0.275833
O O8 0.546440 0.186670 0.700358
O O9 0.047791 0.776810 0.242963
O O10 0.537982 0.198865 0.505212
O O11 0.000000 0.000000 0.000000
O O12 0.860696 0.910113 0.521273
O O13 0.353445 0.085301 0.028045
O O14 0.672739 0.558250 0.410337
O O15 0.063908 0.660040 0.865272
O O16 0.933189 0.434527 0.721744
O O17 0.558190 0.288602 0.926850
O O18 0.000000 0.000000 0.500000
#
# Coordination Sequence:
#
# PCOD8020140 Si02
#       8
#     2   2   2   2   2   2   2   2
#     4  11  24  43  64 100 141 177 228 289 350 414
#     4  11  24  44  72 100 136 186 233 284 345 413
#     4  12  27  48  66 100 145 180 234 299 349 410
#     4  10  22  42  66 100 136 178 229 280 345 417
#     4  11  24  43  69  98 136 185 232 280 351 418
#     4  11  22  40  69 104 140 177 228 284 348 417
#     4  10  23  44  71 103 137 176 232 287 341 426
#     4  12  23  42  70  97 139 184 226 286 350 414
#
# _framework density 22.558347999999999
#
# number of rings (size 3 to 8) (size 9 to 14) (size 15 to 20)
#    0.000    1.000    1.250    7.125    1.750    4.000 
#    4.500    0.000    0.000    0.000    0.000    0.000 
#    0.000    0.000    0.000    0.000    0.000    0.000 
#
# Total GULP energy -198373.057332 kJ/mol
# GULP energy per Si atom -12398.316083 kJ/mol
# Density = 2.250700 g / cm^3
# Si number density = 22.558348 Si / 1000 Ang^3
#
#
#
# Elastic Constant Matrix: (Units=GPa)
#
#
# Indices 1 2 3 4 5 6 
#
# 1 143.1732 35.2443 48.5088 2.4067 -0.3712 4.6415
# 2 35.2443 121.5153 35.1910 -23.1593 0.1955 0.5863
# 3 48.5088 35.1910 89.8607 -11.0525 2.5099 4.6255
# 4 2.4067 -23.1593 -11.0525 42.5279 2.1781 9.1883
# 5 -0.3712 0.1955 2.5099 2.1781 33.8563 -1.0057
# 6 4.6415 0.5863 4.6255 9.1883 -1.0057 49.7571
#
#
#
# Elastic Compliance Matrix: (Units=1/GPa)
#
#
# Indices 1 2 3 4 5 6 
#
# 1 0.009005 -0.001830 -0.004504 -0.002734 0.000623 0.000118
# 2 -0.001830 0.010484 -0.002414 0.005355 -0.000268 -0.000723
# 3 -0.004504 -0.002414 0.015027 0.003258 -0.001406 -0.001578
# 4 -0.002734 0.005355 0.003258 0.028731 -0.002313 -0.005463
# 5 0.000623 -0.000268 -0.001406 -0.002313 0.029831 0.001106
# 6 0.000118 -0.000723 -0.001578 -0.005463 0.001106 0.021273
#
#
# Mechanical properties :
#
#
# Convention : Reuss Voigt Hill
#
# Bulk Modulus (GPa) = 58.76053 65.82636 62.29344
# Shear Modulus (GPa) = 36.35841 40.93527 38.64684
#
# Velocity S-wave (km/s) = 4.01902 4.26448 4.14357
# Velocity P-wave (km/s) = 6.90228 7.31379 7.11101
#
# Compressibility (1/GPa) = 0.01701823
#
# Stress axis : x y z
#
# Youngs Moduli (GPa) = 111.05160 95.38370 66.54881
#
# Poissons Ratio (x) = 0.17455 0.29974
# Poissons Ratio (y) = 0.20323 0.16068
# Poissons Ratio (z) = 0.50018 0.23030
#
# Static dielectric constant tensor:
#      x y z
#    x 4.091600 -0.194370 0.137590 
#    y -0.194370 4.842740 -0.098490 
#    z 0.137590 -0.098490 4.118230 
# 
# 
# High freq. dielectric constant tensor:
#      x y z
#    x 1.896100 -0.001170 0.004140 
#    y -0.001170 1.904670 -0.006820 
#    z 0.004140 -0.006820 1.885500 
# 
# From -- ./inp_files/577965.got.cif
#   From: 2010.06.25/outbox.cif.g09.slc.cpg/sg2_289_cif.got.tgz:577965.got - 2010.06.27 13:26:56.
