data_PCOD8020746
_publ_section_title
;
Structure prediction by ZEFSAII (Michael W. Deem and Ramdas Pophale) SiO2 
 PCOD8020746
Probable space group: P -1
;
_chemical_formula_sum "Si O2"
_cell_formula_units_Z 12
_cell_length_a 8.782271
_cell_length_b 9.303795
_cell_length_c 9.266020
_cell_angle_alpha 92.404170
_cell_angle_beta 59.910733
_cell_angle_gamma 119.465790
_cell_volume 548.898834
_symmetry_space_group_name_H-M "P -1"
_symmetry_group_IT_number 2
_symmetry_cell_setting 'triclinic'
loop_
_space_group_symop_operation_xyz
x,y,z
-x,-y,-z
loop_
_atom_site_type_symbol
_atom_site_label
_atom_site_fract_x
_atom_site_fract_y
_atom_site_fract_z
Si Si1 0.804751 0.461778 0.187049
Si Si2 0.638679 0.866136 0.119444
Si Si3 0.539357 0.657289 0.897265
Si Si4 0.001567 0.907137 0.634184
Si Si5 0.665960 0.181430 0.490980
Si Si6 0.949464 0.831531 0.138827
O O1 0.605109 0.384722 0.174718
O O2 0.749139 0.332795 0.340602
O O3 0.871706 0.645315 0.232876
O O4 0.000000 0.500000 0.000000
O O5 0.450068 0.795438 0.319066
O O6 0.788161 0.795615 0.083738
O O7 0.526412 0.790251 0.015360
O O8 0.807955 0.073979 0.032027
O O9 0.774147 0.739528 0.739814
O O10 0.500000 0.500000 0.000000
O O11 0.144738 0.831101 0.544117
O O12 0.070783 0.043147 0.737029
O O13 0.000000 0.000000 0.500000
O O14 0.500000 0.000000 0.500000
#
# Coordination Sequence:
#
# PCOD8020746 Si02
#       6
#     2   2   2   2   2   2
#     4  12  26  43  72 105 136 177 230 283 338 399
#     4  10  22  42  73  96 137 183 225 276 336 404
#     4  11  23  43  68  99 136 178 225 275 338 401
#     4  11  25  45  70  99 136 181 226 280 341 405
#     4  12  24  43  70 102 137 175 231 281 335 399
#     4  10  22  44  71  96 137 184 224 271 348 402
#
# _framework density 21.861951000000001
#
# number of rings (size 3 to 8) (size 9 to 14) (size 15 to 20)
#    0.000    1.000    3.333    3.000    2.333    3.333 
#    0.000    6.667    0.000    0.000    0.000    0.000 
#    0.000    0.000    0.000    0.000    0.000    0.000 
#
# Total GULP energy -148695.567715 kJ/mol
# GULP energy per Si atom -12391.297310 kJ/mol
# Density = 2.181219 g / cm^3
# Si number density = 21.861951 Si / 1000 Ang^3
#
#
#
# Elastic Constant Matrix: (Units=GPa)
#
#
# Indices 1 2 3 4 5 6 
#
# 1 141.4517 58.1296 68.3386 -13.9612 -3.4727 -1.0761
# 2 58.1296 117.5211 56.3977 -34.8256 -3.6126 -6.8237
# 3 68.3386 56.3977 163.5375 -27.2480 -11.4361 -5.9447
# 4 -13.9612 -34.8256 -27.2480 40.3940 -7.3356 7.0616
# 5 -3.4727 -3.6126 -11.4361 -7.3356 41.2362 -9.2067
# 6 -1.0761 -6.8237 -5.9447 7.0616 -9.2067 29.9399
#
#
#
# Elastic Compliance Matrix: (Units=1/GPa)
#
#
# Indices 1 2 3 4 5 6 
#
# 1 0.010124 -0.004231 -0.003281 -0.002379 -0.001079 -0.001023
# 2 -0.004231 0.014442 -0.001241 0.010421 0.002701 0.001266
# 3 -0.003281 -0.001241 0.008863 0.004103 0.003103 0.001346
# 4 -0.002379 0.010421 0.004103 0.037695 0.007800 -0.003388
# 5 -0.001079 0.002701 0.003103 0.007800 0.028454 0.008103
# 6 -0.001023 0.001266 0.001346 -0.003388 0.008103 0.037210
#
#
# Mechanical properties :
#
#
# Convention : Reuss Voigt Hill
#
# Bulk Modulus (GPa) = 62.79799 87.58245 75.19022
# Shear Modulus (GPa) = 31.32809 38.29033 34.80921
#
# Velocity S-wave (km/s) = 3.78960 4.18958 3.99460
# Velocity P-wave (km/s) = 6.92353 7.97195 7.46617
#
# Compressibility (1/GPa) = 0.01592408
#
# Stress axis : x y z
#
# Youngs Moduli (GPa) = 98.77478 69.24212 112.82423
#
# Poissons Ratio (x) = 0.29295 0.37012
# Poissons Ratio (y) = 0.41789 0.14006
# Poissons Ratio (z) = 0.32403 0.08596
#
# Static dielectric constant tensor:
#      x y z
#    x 3.744240 0.277710 0.506490 
#    y 0.277710 4.897140 0.281690 
#    z 0.506490 0.281690 3.502000 
# 
# 
# High freq. dielectric constant tensor:
#      x y z
#    x 1.861180 0.009430 -0.001950 
#    y 0.009430 1.864980 -0.016320 
#    z -0.001950 -0.016320 1.870830 
# 
# From -- ./inp_files/148857.got.cif
#   From: 2010.06.25/outbox.cif.g09.slc.cpg/sg2_75_cif.got.tgz:148857.got - 2010.06.27 13:26:56.
