data_PCOD8020716
_publ_section_title
;
Structure prediction by ZEFSAII (Michael W. Deem and Ramdas Pophale) SiO2 
 PCOD8020716
Probable space group: P -1
;
_chemical_formula_sum "Si O2"
_cell_formula_units_Z 16
_cell_length_a 9.895558
_cell_length_b 8.841439
_cell_length_c 11.983470
_cell_angle_alpha 51.530358
_cell_angle_beta 102.855395
_cell_angle_gamma 117.260896
_cell_volume 726.749750
_symmetry_space_group_name_H-M "P -1"
_symmetry_group_IT_number 2
_symmetry_cell_setting 'triclinic'
loop_
_space_group_symop_operation_xyz
x,y,z
-x,-y,-z
loop_
_atom_site_type_symbol
_atom_site_label
_atom_site_fract_x
_atom_site_fract_y
_atom_site_fract_z
Si Si1 0.099094 0.370976 0.108950
Si Si2 0.369133 0.570366 0.472624
Si Si3 0.141814 0.256644 0.420255
Si Si4 0.063504 0.974786 0.140861
Si Si5 0.198434 0.468300 0.713542
Si Si6 0.630648 0.434086 0.084794
Si Si7 0.632061 0.997549 0.735198
Si Si8 0.814375 0.094506 0.496748
O O1 0.104813 0.335522 0.258091
O O2 0.266949 0.526939 0.024279
O O3 0.038661 0.139091 0.145375
O O4 0.000000 0.500000 0.000000
O O5 0.500000 0.500000 0.500000
O O6 0.228237 0.461625 0.414961
O O7 0.322679 0.519243 0.616291
O O8 0.417899 0.814175 0.340765
O O9 0.989786 0.124040 0.526177
O O10 0.245174 0.117153 0.496160
O O11 0.958687 0.725109 0.267318
O O12 0.243493 0.016684 0.147783
O O13 0.000000 0.000000 0.000000
O O14 0.266460 0.418527 0.862943
O O15 0.179072 0.682682 0.647482
O O16 0.537694 0.188929 0.214003
O O17 0.500000 0.500000 0.000000
O O18 0.720898 0.021582 0.625226
#
# Coordination Sequence:
#
# PCOD8020716 Si02
#       8
#     2   2   2   2   2   2   2   2
#     4  12  27  45  71 103 142 188 230 287 349 419
#     4  11  28  41  66 103 140 178 223 294 351 409
#     4  11  23  44  67 101 144 172 231 285 351 410
#     4  12  23  45  69 101 131 180 238 283 336 416
#     4  11  25  43  72  99 136 176 237 280 349 415
#     4  12  24  46  71 100 135 188 232 282 343 419
#     4  11  24  45  72  98 137 183 235 283 351 415
#     4  10  22  42  72  98 129 181 221 286 344 414
#
# _framework density 22.015830999999999
#
# number of rings (size 3 to 8) (size 9 to 14) (size 15 to 20)
#    0.000    0.750    3.750    2.250    8.750    4.000 
#    0.000    0.625    0.000    0.000    0.000    0.000 
#    0.000    0.000    0.000    0.000    0.000    0.000 
#
# Total GULP energy -198217.658008 kJ/mol
# GULP energy per Si atom -12388.603626 kJ/mol
# Density = 2.196572 g / cm^3
# Si number density = 22.015831 Si / 1000 Ang^3
#
#
#
# Elastic Constant Matrix: (Units=GPa)
#
#
# Indices 1 2 3 4 5 6 
#
# 1 112.6381 21.2977 12.6531 -20.2546 0.5565 -11.7160
# 2 21.2977 94.4982 16.2392 -26.5841 -7.0739 0.9353
# 3 12.6531 16.2392 62.6203 -14.5213 -6.5118 -2.4638
# 4 -20.2546 -26.5841 -14.5213 35.2321 1.6791 6.6163
# 5 0.5565 -7.0739 -6.5118 1.6791 35.8431 -9.0644
# 6 -11.7160 0.9353 -2.4638 6.6163 -9.0644 39.8965
#
#
#
# Elastic Compliance Matrix: (Units=1/GPa)
#
#
# Indices 1 2 3 4 5 6 
#
# 1 0.010163 -0.000956 -0.000706 0.004423 -0.000125 0.002201
# 2 -0.000956 0.013864 -0.001045 0.009765 0.001618 -0.001922
# 3 -0.000706 -0.001045 0.018110 0.006013 0.002968 0.000613
# 4 0.004423 0.009765 0.006013 0.041843 -0.000424 -0.005594
# 5 -0.000125 0.001618 0.002968 -0.000424 0.030582 0.007127
# 6 0.002201 -0.001922 0.000613 -0.005594 0.007127 0.028341
#
#
# Mechanical properties :
#
#
# Convention : Reuss Voigt Hill
#
# Bulk Modulus (GPa) = 27.23163 41.12627 34.17895
# Shear Modulus (GPa) = 31.14106 36.83212 33.98659
#
# Velocity S-wave (km/s) = 3.76504 4.09465 3.93330
# Velocity P-wave (km/s) = 5.59435 6.40904 6.01550
#
# Compressibility (1/GPa) = 0.03672201
#
# Stress axis : x y z
#
# Youngs Moduli (GPa) = 98.39626 72.12697 55.21746
#
# Poissons Ratio (x) = 0.06896 0.03901
# Poissons Ratio (y) = 0.09408 0.05772
# Poissons Ratio (z) = 0.06951 0.07539
#
# Static dielectric constant tensor:
#      x y z
#    x 4.175410 0.420700 -0.090850 
#    y 0.420700 6.194080 -0.801630 
#    z -0.090850 -0.801630 4.205580 
# 
# 
# High freq. dielectric constant tensor:
#      x y z
#    x 1.867340 -0.003660 0.001820 
#    y -0.003660 1.878610 -0.016990 
#    z 0.001820 -0.016990 1.872430 
# 
# From -- ./inp_files/297707.got.cif
#   From: 2010.06.25/outbox.cif.g09.slc.cpg/sg2_149_cif.got.tgz:297707.got - 2010.06.27 13:26:56.
