data_PCOD8020243
_publ_section_title
;
Structure prediction by ZEFSAII (Michael W. Deem and Ramdas Pophale) SiO2 
 PCOD8020243
Probable space group: P -1
;
_chemical_formula_sum "Si O2"
_cell_formula_units_Z 16
_cell_length_a 16.063608
_cell_length_b 15.824154
_cell_length_c 8.776865
_cell_angle_alpha 43.324117
_cell_angle_beta 45.646713
_cell_angle_gamma 27.966123
_cell_volume 706.673985
_symmetry_space_group_name_H-M "P -1"
_symmetry_group_IT_number 2
_symmetry_cell_setting 'triclinic'
loop_
_space_group_symop_operation_xyz
x,y,z
-x,-y,-z
loop_
_atom_site_type_symbol
_atom_site_label
_atom_site_fract_x
_atom_site_fract_y
_atom_site_fract_z
Si Si1 0.341105 0.249528 0.028747
Si Si2 0.521718 0.672885 0.675020
Si Si3 0.339674 0.175402 0.784380
Si Si4 0.903446 0.957009 0.239433
Si Si5 0.035928 0.539808 0.247275
Si Si6 0.874566 0.064922 0.438066
Si Si7 0.823716 0.346051 0.931377
Si Si8 0.494310 0.374647 0.582846
O O1 0.161467 0.359821 0.208000
O O2 0.510593 0.047144 0.158466
O O3 0.318241 0.207584 0.949163
O O4 0.365016 0.378995 0.820913
O O5 0.610413 0.735897 0.473307
O O6 0.312630 0.859972 0.747045
O O7 0.631344 0.507253 0.878989
O O8 0.549498 0.578321 0.603257
O O9 0.152390 0.274278 0.832492
O O10 0.951525 0.901907 0.432377
O O11 0.006101 0.771161 0.251193
O O12 0.000000 0.000000 0.000000
O O13 0.154492 0.565241 0.090213
O O14 0.000000 0.500000 0.500000
O O15 0.695249 0.155210 0.625147
O O16 0.822060 0.221526 0.191203
O O17 0.000000 0.000000 0.500000
O O18 0.500000 0.500000 0.500000
#
# Coordination Sequence:
#
# PCOD8020243 Si02
#       8
#     2   2   2   2   2   2   2   2
#     4  10  24  45  69  96 135 178 223 285 338 390
#     4  10  22  42  68  95 133 175 226 270 335 406
#     4  10  23  45  69  96 132 182 226 278 336 402
#     4   9  22  42  64  93 129 175 220 268 335 401
#     4  12  25  42  65 104 132 169 230 272 342 400
#     4  10  23  42  62  97 128 169 228 274 332 400
#     4  11  24  43  64  95 136 180 213 280 340 393
#     4  10  22  42  66  99 127 173 224 276 337 394
#
# _framework density 22.641275
#
# number of rings (size 3 to 8) (size 9 to 14) (size 15 to 20)
#    0.000    1.750    1.250    1.125    5.250    6.000 
#    4.500    0.000    0.000    0.000    0.000    0.000 
#    0.000    0.000    0.000    0.000    0.000    0.000 
#
# Total GULP energy -198279.329911 kJ/mol
# GULP energy per Si atom -12392.458119 kJ/mol
# Density = 2.258974 g / cm^3
# Si number density = 22.641275 Si / 1000 Ang^3
#
#
#
# Elastic Constant Matrix: (Units=GPa)
#
#
# Indices 1 2 3 4 5 6 
#
# 1 111.7017 33.2547 15.3526 -6.0810 12.8080 -27.3964
# 2 33.2547 119.3724 29.9575 15.0092 22.2861 -22.6975
# 3 15.3526 29.9575 71.4094 9.2381 12.6113 -8.9924
# 4 -6.0810 15.0092 9.2381 39.1348 -3.2718 -0.2654
# 5 12.8080 22.2861 12.6113 -3.2718 29.0178 -9.1246
# 6 -27.3964 -22.6975 -8.9924 -0.2654 -9.1246 42.5722
#
#
#
# Elastic Compliance Matrix: (Units=1/GPa)
#
#
# Indices 1 2 3 4 5 6 
#
# 1 0.011376 -0.001959 -0.001081 0.002740 -0.000891 0.005874
# 2 -0.001959 0.012021 -0.002372 -0.004911 -0.006904 0.003137
# 3 -0.001081 -0.002372 0.016677 -0.003629 -0.005226 0.000419
# 4 0.002740 -0.004911 -0.003629 0.029347 0.007502 0.000169
# 5 -0.000891 -0.006904 -0.005226 0.007502 0.044611 0.004250
# 6 0.005874 0.003137 0.000419 0.000169 0.004250 0.029943
#
#
# Mechanical properties :
#
#
# Convention : Reuss Voigt Hill
#
# Bulk Modulus (GPa) = 34.18973 51.06814 42.62893
# Shear Modulus (GPa) = 30.38607 37.07287 33.72947
#
# Velocity S-wave (km/s) = 3.66740 4.05087 3.86389
# Velocity P-wave (km/s) = 5.75034 6.66961 6.22696
#
# Compressibility (1/GPa) = 0.02924855
#
# Stress axis : x y z
#
# Youngs Moduli (GPa) = 87.90209 83.18726 59.96417
#
# Poissons Ratio (x) = 0.16297 0.06484
# Poissons Ratio (y) = 0.17221 0.14225
# Poissons Ratio (z) = 0.09505 0.19734
#
# Static dielectric constant tensor:
#      x y z
#    x 3.457660 -0.727770 -0.156380 
#    y -0.727770 3.945560 0.154580 
#    z -0.156380 0.154580 3.980870 
# 
# 
# High freq. dielectric constant tensor:
#      x y z
#    x 1.902140 0.001600 0.000630 
#    y 0.001600 1.895270 0.020550 
#    z 0.000630 0.020550 1.887760 
# 
# From -- ./inp_files/314585.got.cif
#   From: 2010.06.25/outbox.cif.g09.slc.cpg/sg2_158_cif.got.tgz:314585.got - 2010.06.27 13:26:56.
