data_PCOD8020413
_publ_section_title
;
Structure prediction by ZEFSAII (Michael W. Deem and Ramdas Pophale) SiO2 
 PCOD8020413
Probable space group: P -1
;
_chemical_formula_sum "Si O2"
_cell_formula_units_Z 14
_cell_length_a 13.619991
_cell_length_b 9.095579
_cell_length_c 8.235228
_cell_angle_alpha 127.851240
_cell_angle_beta 56.352653
_cell_angle_gamma 108.049809
_cell_volume 669.887058
_symmetry_space_group_name_H-M "P -1"
_symmetry_group_IT_number 2
_symmetry_cell_setting 'triclinic'
loop_
_space_group_symop_operation_xyz
x,y,z
-x,-y,-z
loop_
_atom_site_type_symbol
_atom_site_label
_atom_site_fract_x
_atom_site_fract_y
_atom_site_fract_z
Si Si1 0.658250 0.315146 0.258668
Si Si2 0.899966 0.497514 0.228628
Si Si3 0.217424 0.011057 0.915792
Si Si4 0.328926 0.388981 0.082971
Si Si5 0.862382 0.291022 0.434789
Si Si6 0.040623 0.142826 0.426072
Si Si7 0.511086 0.433677 0.198015
O O1 0.780044 0.424652 0.212020
O O2 0.677986 0.109737 0.174810
O O3 0.599821 0.292299 0.119424
O O4 0.562445 0.426030 0.526751
O O5 0.936690 0.367471 0.263851
O O6 0.877976 0.708443 0.459238
O O7 0.000000 0.500000 0.000000
O O8 0.183076 0.910726 0.711910
O O9 0.252624 0.218242 0.983070
O O10 0.108041 0.020362 0.145973
O O11 0.247335 0.564269 0.336722
O O12 0.419437 0.322662 0.098254
O O13 0.405554 0.439372 0.895031
O O14 0.935224 0.263735 0.515346
O O15 0.000000 0.000000 0.500000
#
# Coordination Sequence:
#
# PCOD8020413 Si02
#       7
#     2   2   2   2   2   2   2
#     4  10  22  43  64  96 132 167 218 269 319 389
#     4  11  23  42  68  95 133 176 214 265 333 387
#     4  11  23  42  65  95 134 166 222 269 323 393
#     4  11  23  42  67  95 125 174 219 264 335 378
#     4  11  24  45  63  96 141 169 219 274 322 393
#     4  12  25  40  65  98 133 175 220 269 332 392
#     4  10  22  42  68  91 131 175 212 268 328 382
#
# _framework density 20.899045000000001
#
# number of rings (size 3 to 8) (size 9 to 14) (size 15 to 20)
#    0.000    1.143    4.286    2.571    4.000    2.286 
#    0.000    0.000    0.000    0.000    0.000    0.000 
#    0.000    0.000    0.000    0.000    0.000    0.000 
#
# Total GULP energy -173548.157277 kJ/mol
# GULP energy per Si atom -12396.296948 kJ/mol
# Density = 2.085148 g / cm^3
# Si number density = 20.899045 Si / 1000 Ang^3
#
#
#
# Elastic Constant Matrix: (Units=GPa)
#
#
# Indices 1 2 3 4 5 6 
#
# 1 60.8701 26.7401 22.9387 -15.0680 -5.6447 -12.1153
# 2 26.7401 80.6995 30.7557 -7.5121 4.9111 10.6914
# 3 22.9387 30.7557 76.5094 -1.8254 -5.3438 21.5730
# 4 -15.0680 -7.5121 -1.8254 36.0004 6.3748 5.8530
# 5 -5.6447 4.9111 -5.3438 6.3748 26.5080 5.6494
# 6 -12.1153 10.6914 21.5730 5.8530 5.6494 36.1070
#
#
#
# Elastic Compliance Matrix: (Units=1/GPa)
#
#
# Indices 1 2 3 4 5 6 
#
# 1 0.028456 -0.007074 -0.010177 0.007218 0.000057 0.016544
# 2 -0.007074 0.017312 -0.003778 0.002120 -0.004960 -0.004810
# 3 -0.010177 -0.003778 0.022781 -0.002474 0.007267 -0.016643
# 4 0.007218 0.002120 -0.002474 0.032498 -0.006977 -0.000904
# 5 0.000057 -0.004960 0.007267 -0.006977 0.043620 -0.008548
# 6 0.016544 -0.004810 -0.016643 -0.000904 -0.008548 0.046099
#
#
# Mechanical properties :
#
#
# Convention : Reuss Voigt Hill
#
# Bulk Modulus (GPa) = 37.74614 42.10534 39.92574
# Shear Modulus (GPa) = 20.69070 28.89937 24.79504
#
# Velocity S-wave (km/s) = 3.14989 3.72265 3.44818
# Velocity P-wave (km/s) = 5.59727 6.21838 5.91598
#
# Compressibility (1/GPa) = 0.02649277
#
# Stress axis : x y z
#
# Youngs Moduli (GPa) = 35.14204 57.76371 43.89531
#
# Poissons Ratio (x) = 0.40861 0.44670
# Poissons Ratio (y) = 0.24859 0.16583
# Poissons Ratio (z) = 0.35763 0.21822
#
# Static dielectric constant tensor:
#      x y z
#    x 4.224180 -0.131550 0.080270 
#    y -0.131550 3.849490 -0.070390 
#    z 0.080270 -0.070390 3.872420 
# 
# 
# High freq. dielectric constant tensor:
#      x y z
#    x 1.823170 -0.001920 0.005080 
#    y -0.001920 1.812210 -0.004550 
#    z 0.005080 -0.004550 1.825020 
# 
# From -- ./inp_files/200066.got.cif
#   From: 2010.06.25/outbox.cif.g09.slc.cpg/sg2_101_cif.got.tgz:200066.got - 2010.06.27 13:26:56.
