data_PCOD8020428
_publ_section_title
;
Structure prediction by ZEFSAII (Michael W. Deem and Ramdas Pophale) SiO2 
 PCOD8020428
Probable space group: P -1
;
_chemical_formula_sum "Si O2"
_cell_formula_units_Z 16
_cell_length_a 15.887898
_cell_length_b 10.070141
_cell_length_c 16.611784
_cell_angle_alpha 147.318172
_cell_angle_beta 34.749705
_cell_angle_gamma 142.932644
_cell_volume 767.617245
_symmetry_space_group_name_H-M "P -1"
_symmetry_group_IT_number 2
_symmetry_cell_setting 'triclinic'
loop_
_space_group_symop_operation_xyz
x,y,z
-x,-y,-z
loop_
_atom_site_type_symbol
_atom_site_label
_atom_site_fract_x
_atom_site_fract_y
_atom_site_fract_z
Si Si1 0.370700 0.027998 0.055708
Si Si2 0.038957 0.387284 0.196761
Si Si3 0.694382 0.835306 0.523540
Si Si4 0.452531 0.538380 0.147563
Si Si5 0.147674 0.920177 0.317687
Si Si6 0.243227 0.018870 0.856310
Si Si7 0.855063 0.353083 0.591463
Si Si8 0.338054 0.728223 0.769731
O O1 0.218956 0.023874 0.226066
O O2 0.447907 0.298797 0.085464
O O3 0.326120 0.791062 0.905219
O O4 0.500000 0.000000 0.000000
O O5 0.099241 0.601792 0.187194
O O6 0.074516 0.574543 0.339405
O O7 0.138461 0.200337 0.035558
O O8 0.851499 0.219637 0.250722
O O9 0.512630 0.795308 0.630805
O O10 0.743921 0.581662 0.340342
O O11 0.721018 0.944225 0.649211
O O12 0.793413 0.037844 0.480655
O O13 0.581290 0.803043 0.219177
O O14 0.281251 0.551044 0.284120
O O15 0.500000 0.500000 0.000000
O O16 0.000000 0.000000 0.500000
O O17 0.250952 0.894227 0.873847
O O18 0.000000 0.500000 0.500000
#
# Coordination Sequence:
#
# PCOD8020428 Si02
#       8
#     2   2   2   2   2   2   2   2
#     4  12  24  41  69 105 130 178 236 281 332 413
#     4  10  23  42  67  95 134 177 220 282 347 400
#     4  10  22  42  68  93 136 183 219 283 347 400
#     4  12  22  43  72  96 132 181 227 275 342 409
#     4  11  24  44  66  95 139 179 220 281 352 404
#     4  11  21  42  69  97 129 177 226 280 341 404
#     4  11  23  43  66  96 134 176 223 274 338 411
#     4  11  21  42  69  99 132 177 233 282 341 407
#
# _framework density 20.843720999999999
#
# number of rings (size 3 to 8) (size 9 to 14) (size 15 to 20)
#    0.000    1.000    5.000    1.500    3.500    0.000 
#    6.750    1.875    0.000    0.000    0.000    0.000 
#    0.000    0.000    0.000    0.000    0.000    0.000 
#
# Total GULP energy -198269.606274 kJ/mol
# GULP energy per Si atom -12391.850392 kJ/mol
# Density = 2.079628 g / cm^3
# Si number density = 20.843721 Si / 1000 Ang^3
#
#
#
# Elastic Constant Matrix: (Units=GPa)
#
#
# Indices 1 2 3 4 5 6 
#
# 1 110.4090 60.6015 36.3596 6.2754 -12.1402 -3.4674
# 2 60.6015 170.7785 64.5286 5.9866 0.4282 -8.8039
# 3 36.3596 64.5286 90.2899 0.8586 -6.8714 -7.0174
# 4 6.2754 5.9866 0.8586 41.6425 4.6824 -1.6915
# 5 -12.1402 0.4282 -6.8714 4.6824 27.7736 3.2836
# 6 -3.4674 -8.8039 -7.0174 -1.6915 3.2836 44.8725
#
#
#
# Elastic Compliance Matrix: (Units=1/GPa)
#
#
# Indices 1 2 3 4 5 6 
#
# 1 0.012384 -0.003601 -0.002029 -0.001930 0.005355 -0.000531
# 2 -0.003601 0.009194 -0.005281 -0.000286 -0.003082 0.000914
# 3 -0.002029 -0.005281 0.015972 0.000450 0.002940 0.001107
# 4 -0.001930 -0.000286 0.000450 0.024955 -0.005074 0.001177
# 5 0.005355 -0.003082 0.002940 -0.005074 0.040316 -0.002873
# 6 -0.000531 0.000914 0.001107 0.001177 -0.002873 0.022851
#
#
# Mechanical properties :
#
#
# Convention : Reuss Voigt Hill
#
# Bulk Modulus (GPa) = 63.58208 77.16186 70.37197
# Shear Modulus (GPa) = 32.73600 36.85690 34.79645
#
# Velocity S-wave (km/s) = 3.96731 4.20962 4.09026
# Velocity P-wave (km/s) = 7.18028 7.79278 7.49279
#
# Compressibility (1/GPa) = 0.01572770
#
# Stress axis : x y z
#
# Youngs Moduli (GPa) = 80.75132 108.76867 62.60835
#
# Poissons Ratio (x) = 0.39168 0.12702
# Poissons Ratio (y) = 0.29079 0.33065
# Poissons Ratio (z) = 0.16382 0.57444
#
# Static dielectric constant tensor:
#      x y z
#    x 3.985960 0.249590 -0.034930 
#    y 0.249590 4.470270 0.251260 
#    z -0.034930 0.251260 3.474920 
# 
# 
# High freq. dielectric constant tensor:
#      x y z
#    x 1.829800 0.004560 -0.016560 
#    y 0.004560 1.834040 0.017460 
#    z -0.016560 0.017460 1.787280 
# 
# From -- ./inp_files/530218.got.cif
#   From: 2010.06.25/outbox.cif.g09.slc.cpg/sg2_266_cif.got.tgz:530218.got - 2010.06.27 13:26:56.
