data_PCOD8020494
_publ_section_title
;
Structure prediction by ZEFSAII (Michael W. Deem and Ramdas Pophale) SiO2 
 PCOD8020494
Probable space group: P -1
;
_chemical_formula_sum "Si O2"
_cell_formula_units_Z 16
_cell_length_a 10.994018
_cell_length_b 9.501334
_cell_length_c 13.741195
_cell_angle_alpha 133.037152
_cell_angle_beta 135.043490
_cell_angle_gamma 76.720851
_cell_volume 646.036763
_symmetry_space_group_name_H-M "P -1"
_symmetry_group_IT_number 2
_symmetry_cell_setting 'triclinic'
loop_
_space_group_symop_operation_xyz
x,y,z
-x,-y,-z
loop_
_atom_site_type_symbol
_atom_site_label
_atom_site_fract_x
_atom_site_fract_y
_atom_site_fract_z
Si Si1 0.902024 0.650892 0.420038
Si Si2 0.092729 0.782364 0.789509
Si Si3 0.250402 0.772649 0.541896
Si Si4 0.867495 0.196370 0.776249
Si Si5 0.399956 0.268499 0.199719
Si Si6 0.910399 0.678047 0.841084
Si Si7 0.385168 0.179177 0.677785
Si Si8 0.725298 0.505377 0.909389
O O1 0.827816 0.392416 0.240525
O O2 0.739664 0.702957 0.304965
O O3 0.929756 0.710822 0.578360
O O4 0.110493 0.797864 0.553046
O O5 0.998273 0.800785 0.846624
O O6 0.276779 0.015279 0.977141
O O7 0.383863 0.684869 0.628304
O O8 0.122600 0.573277 0.299842
O O9 0.379544 0.008571 0.674688
O O10 0.770814 0.355007 0.789691
O O11 0.705272 0.952749 0.536487
O O12 0.936466 0.190760 0.923119
O O13 0.057828 0.279699 0.849627
O O14 0.293921 0.321106 0.253900
O O15 0.419858 0.422985 0.191853
O O16 0.613687 0.366819 0.877410
#
# Coordination Sequence:
#
# PCOD8020494 Si02
#       8
#     2   2   2   2   2   2   2   2
#     4  10  24  46  67  92 134 181 233 276 325 394
#     4  10  23  43  69  96 129 183 222 282 332 398
#     4  11  25  43  67  99 139 174 223 285 330 399
#     4  10  22  45  68 101 145 171 217 283 339 403
#     4  11  23  42  65 105 134 171 219 283 345 396
#     4  10  22  42  69 100 137 172 218 279 343 404
#     4  12  24  44  72  98 132 187 225 270 346 398
#     4  10  23  40  68 102 135 175 219 271 337 408
#
# _framework density 24.766393999999998
#
# number of rings (size 3 to 8) (size 9 to 14) (size 15 to 20)
#    0.000    1.500    0.000    5.250    7.000    0.500 
#    4.500    0.625    0.000    0.000    0.000    0.000 
#    0.000    0.000    0.000    0.000    0.000    0.000 
#
# Total GULP energy -198395.873477 kJ/mol
# GULP energy per Si atom -12399.742092 kJ/mol
# Density = 2.471002 g / cm^3
# Si number density = 24.766394 Si / 1000 Ang^3
#
#
#
# Elastic Constant Matrix: (Units=GPa)
#
#
# Indices 1 2 3 4 5 6 
#
# 1 91.1520 29.2828 20.6449 0.5059 10.1707 12.9928
# 2 29.2828 118.3190 1.8504 -4.8272 14.1427 7.0300
# 3 20.6449 1.8504 36.7065 4.4227 3.5395 8.7521
# 4 0.5059 -4.8272 4.4227 31.2082 -2.0486 10.3436
# 5 10.1707 14.1427 3.5395 -2.0486 29.5068 2.4071
# 6 12.9928 7.0300 8.7521 10.3436 2.4071 42.9526
#
#
#
# Elastic Compliance Matrix: (Units=1/GPa)
#
#
# Indices 1 2 3 4 5 6 
#
# 1 0.014123 -0.002918 -0.007104 0.000985 -0.002349 -0.002453
# 2 -0.002918 0.009715 0.001608 0.001476 -0.003644 -0.001186
# 3 -0.007104 0.001608 0.032669 -0.003113 -0.002139 -0.003901
# 4 0.000985 0.001476 -0.003113 0.035728 0.002513 -0.008650
# 5 -0.002349 -0.003644 -0.002139 0.002513 0.036954 -0.000933
# 6 -0.002453 -0.001186 -0.003901 -0.008650 -0.000933 0.027148
#
#
# Mechanical properties :
#
#
# Convention : Reuss Voigt Hill
#
# Bulk Modulus (GPa) = 25.20158 38.85928 32.03043
# Shear Modulus (GPa) = 26.82537 33.69349 30.25943
#
# Velocity S-wave (km/s) = 3.29467 3.69243 3.49921
# Velocity P-wave (km/s) = 4.96699 5.82264 5.41175
#
# Compressibility (1/GPa) = 0.03968005
#
# Stress axis : x y z
#
# Youngs Moduli (GPa) = 70.80614 102.93404 30.61013
#
# Poissons Ratio (x) = 0.30031 0.21744
# Poissons Ratio (y) = 0.20658 -0.04921
# Poissons Ratio (z) = 0.50297 -0.16548
#
# Static dielectric constant tensor:
#      x y z
#    x 4.299560 -0.107660 -0.020020 
#    y -0.107660 4.522390 0.145520 
#    z -0.020020 0.145520 4.172220 
# 
# 
# High freq. dielectric constant tensor:
#      x y z
#    x 1.976200 -0.004810 0.002390 
#    y -0.004810 2.002000 0.008510 
#    z 0.002390 0.008510 1.964530 
# 
# From -- ./inp_files/516317.got.cif
#   From: 2010.06.25/outbox.cif.g09.slc.cpg/sg2_259_cif.got.tgz:516317.got - 2010.06.27 13:26:56.
