data_PCOD8020704
_publ_section_title
;
Structure prediction by ZEFSAII (Michael W. Deem and Ramdas Pophale) SiO2 
 PCOD8020704
Probable space group: P -1
;
_chemical_formula_sum "Si O2"
_cell_formula_units_Z 16
_cell_length_a 12.464927
_cell_length_b 8.978104
_cell_length_c 19.093293
_cell_angle_alpha 133.456789
_cell_angle_beta 152.692947
_cell_angle_gamma 58.642880
_cell_volume 684.607331
_symmetry_space_group_name_H-M "P -1"
_symmetry_group_IT_number 2
_symmetry_cell_setting 'triclinic'
loop_
_space_group_symop_operation_xyz
x,y,z
-x,-y,-z
loop_
_atom_site_type_symbol
_atom_site_label
_atom_site_fract_x
_atom_site_fract_y
_atom_site_fract_z
Si Si1 0.334063 0.207079 0.220880
Si Si2 0.838821 0.103546 0.343436
Si Si3 0.657603 0.928234 0.329104
Si Si4 0.304813 0.533582 0.952470
Si Si5 0.041150 0.212576 0.183943
Si Si6 0.283578 0.103291 0.421967
Si Si7 0.198529 0.183460 0.887211
Si Si8 0.433485 0.562911 0.701125
O O1 0.429165 0.392476 0.279366
O O2 0.194677 0.293866 0.228966
O O3 0.555979 0.126922 0.358048
O O4 0.152546 0.013929 0.011732
O O5 0.800294 0.339840 0.404325
O O6 0.121291 0.103989 0.506944
O O7 0.715376 0.954309 0.288030
O O8 0.722397 0.006558 0.169655
O O9 0.441058 0.714058 0.145004
O O10 0.500000 0.500000 0.000000
O O11 0.096604 0.612040 0.816629
O O12 0.165571 0.329836 0.850285
O O13 0.224955 0.201361 0.347611
O O14 0.354541 0.305983 0.582763
O O15 0.500000 0.000000 0.500000
O O16 0.058057 0.914682 0.256142
O O17 0.393645 0.315317 0.097335
#
# Coordination Sequence:
#
# PCOD8020704 Si02
#       8
#     2   2   2   2   2   2   2   2
#     4   9  20  43  74 104 139 192 245 302 354 435
#     4  10  22  42  72 106 145 189 242 306 357 437
#     4   9  20  40  69 108 143 179 252 302 350 430
#     4  11  24  42  74 108 142 193 239 299 367 432
#     4  10  23  45  74 103 143 189 246 297 362 432
#     4  12  31  49  72 109 149 192 248 302 365 440
#     4  12  27  47  72 107 153 189 239 304 374 433
#     4  11  26  47  72 106 147 197 244 300 374 433
#
# _framework density 23.371061000000001
#
# number of rings (size 3 to 8) (size 9 to 14) (size 15 to 20)
#    0.000    1.500    2.500    0.375    7.000    5.500 
#    0.000    0.000    0.000    0.000    0.000    0.000 
#    0.000    0.000    0.000    0.000    0.000    0.000 
#
# Total GULP energy -198329.685089 kJ/mol
# GULP energy per Si atom -12395.605318 kJ/mol
# Density = 2.331787 g / cm^3
# Si number density = 23.371061 Si / 1000 Ang^3
#
#
#
# Elastic Constant Matrix: (Units=GPa)
#
#
# Indices 1 2 3 4 5 6 
#
# 1 88.7324 42.0027 26.9048 -11.6767 -4.7962 -7.0764
# 2 42.0027 122.2560 50.4879 -11.9691 -0.8259 -18.3952
# 3 26.9048 50.4879 108.8703 -8.3456 -4.7274 -8.3508
# 4 -11.6767 -11.9691 -8.3456 36.8583 -0.8365 9.7790
# 5 -4.7962 -0.8259 -4.7274 -0.8365 28.7335 2.8389
# 6 -7.0764 -18.3952 -8.3508 9.7790 2.8389 35.8775
#
#
#
# Elastic Compliance Matrix: (Units=1/GPa)
#
#
# Indices 1 2 3 4 5 6 
#
# 1 0.014063 -0.004072 -0.001307 0.003051 0.002165 -0.000621
# 2 -0.004072 0.012032 -0.004267 0.000461 -0.001453 0.004362
# 3 -0.001307 -0.004267 0.011617 0.000897 0.001608 -0.000113
# 4 0.003051 0.000461 0.000897 0.030477 0.002293 -0.007441
# 5 0.002165 -0.001453 0.001608 0.002293 0.035790 -0.003401
# 6 -0.000621 0.004362 -0.000113 -0.007441 -0.003401 0.032258
#
#
# Mechanical properties :
#
#
# Convention : Reuss Voigt Hill
#
# Bulk Modulus (GPa) = 54.28634 62.07215 58.17925
# Shear Modulus (GPa) = 30.92789 33.65808 32.29299
#
# Velocity S-wave (km/s) = 3.64172 3.79906 3.72122
# Velocity P-wave (km/s) = 6.40010 6.77207 6.58871
#
# Compressibility (1/GPa) = 0.01842084
#
# Stress axis : x y z
#
# Youngs Moduli (GPa) = 71.11101 83.11006 86.08259
#
# Poissons Ratio (x) = 0.33842 0.11248
# Poissons Ratio (y) = 0.28956 0.36729
# Poissons Ratio (z) = 0.09292 0.35461
#
# Static dielectric constant tensor:
#      x y z
#    x 4.201050 -0.064000 0.062310 
#    y -0.064000 4.284310 0.058820 
#    z 0.062310 0.058820 4.262470 
# 
# 
# High freq. dielectric constant tensor:
#      x y z
#    x 1.926400 -0.001500 0.004860 
#    y -0.001500 1.922360 0.003260 
#    z 0.004860 0.003260 1.922710 
# 
# From -- ./inp_files/567002.got.cif
#   From: 2010.06.25/outbox.cif.g09.slc.cpg/sg2_284_cif.got.tgz:567002.got - 2010.06.27 13:26:56.
