data_PCOD8020493
_publ_section_title
;
Structure prediction by ZEFSAII (Michael W. Deem and Ramdas Pophale) SiO2 
 PCOD8020493
Probable space group: P -1
;
_chemical_formula_sum "Si O2"
_cell_formula_units_Z 16
_cell_length_a 12.541524
_cell_length_b 19.436764
_cell_length_c 10.493862
_cell_angle_alpha 32.902275
_cell_angle_beta 142.489282
_cell_angle_gamma 149.226110
_cell_volume 686.791221
_symmetry_space_group_name_H-M "P -1"
_symmetry_group_IT_number 2
_symmetry_cell_setting 'triclinic'
loop_
_space_group_symop_operation_xyz
x,y,z
-x,-y,-z
loop_
_atom_site_type_symbol
_atom_site_label
_atom_site_fract_x
_atom_site_fract_y
_atom_site_fract_z
Si Si1 0.224963 0.071752 0.942460
Si Si2 0.241285 0.614105 0.598942
Si Si3 0.647374 0.536133 0.253286
Si Si4 0.495738 0.044993 0.654360
Si Si5 0.754946 0.853696 0.874343
Si Si6 0.358993 0.361891 0.480511
Si Si7 0.889994 0.281806 0.170145
Si Si8 0.032087 0.581811 0.699025
O O1 0.208951 0.144213 0.944666
O O2 0.339180 0.985206 0.202691
O O3 0.357074 0.212856 0.748127
O O4 0.977417 0.947343 0.858943
O O5 0.364365 0.544339 0.766481
O O6 0.363109 0.792680 0.383453
O O7 0.000000 0.500000 0.500000
O O8 0.225190 0.614470 0.738128
O O9 0.450092 0.409404 0.351256
O O10 0.873647 0.609431 0.429727
O O11 0.622970 0.674492 0.981909
O O12 0.379272 0.076112 0.385582
O O13 0.307139 0.892305 0.791412
O O14 0.500000 0.500000 0.500000
O O15 0.116419 0.308446 0.331486
O O16 0.852297 0.302380 0.251296
O O17 0.885961 0.403799 0.887730
#
# Coordination Sequence:
#
# PCOD8020493 Si02
#       8
#     2   2   2   2   2   2   2   2
#     4  11  23  41  65 101 142 171 214 290 352 397
#     4  10  25  46  69  97 133 188 233 271 338 417
#     4  11  23  45  67  94 135 186 224 271 338 413
#     4  12  26  42  68 103 136 180 226 286 346 398
#     4  11  24  40  65 103 138 170 227 280 344 409
#     4  12  22  41  65 100 136 178 221 278 345 397
#     4  11  24  40  67 108 136 167 233 288 342 403
#     4  10  22  42  69 100 135 175 226 280 341 411
#
# _framework density 23.296745000000001
#
# number of rings (size 3 to 8) (size 9 to 14) (size 15 to 20)
#    0.000    1.000    3.750    2.625    8.750    0.500 
#    0.000    7.500    0.000    0.000    0.000    0.000 
#    0.000    0.000    0.000    0.000    0.000    0.000 
#
# Total GULP energy -198371.025079 kJ/mol
# GULP energy per Si atom -12398.189067 kJ/mol
# Density = 2.324372 g / cm^3
# Si number density = 23.296745 Si / 1000 Ang^3
#
#
#
# Elastic Constant Matrix: (Units=GPa)
#
#
# Indices 1 2 3 4 5 6 
#
# 1 141.5512 27.6168 30.0400 -15.5502 16.3158 13.1027
# 2 27.6168 126.8252 20.9837 -27.4447 8.9407 16.0733
# 3 30.0400 20.9837 109.4095 -23.7956 21.4292 6.1057
# 4 -15.5502 -27.4447 -23.7956 46.4978 2.1107 2.3435
# 5 16.3158 8.9407 21.4292 2.1107 35.0206 -2.4126
# 6 13.1027 16.0733 6.1057 2.3435 -2.4126 27.0029
#
#
#
# Elastic Compliance Matrix: (Units=1/GPa)
#
#
# Indices 1 2 3 4 5 6 
#
# 1 0.008410 -0.000320 -0.000662 0.002679 -0.003891 -0.004321
# 2 -0.000320 0.010555 0.000780 0.007068 -0.003950 -0.007270
# 3 -0.000662 0.000780 0.012647 0.007312 -0.008372 -0.004385
# 4 0.002679 0.007068 0.007312 0.031321 -0.010158 -0.010786
# 5 -0.003891 -0.003950 -0.008372 -0.010158 0.037827 0.010393
# 6 -0.004321 -0.007270 -0.004385 -0.010786 0.010393 0.046313
#
#
# Mechanical properties :
#
#
# Convention : Reuss Voigt Hill
#
# Bulk Modulus (GPa) = 32.04306 59.45188 45.74747
# Shear Modulus (GPa) = 31.66964 41.64727 36.65846
#
# Velocity S-wave (km/s) = 3.69101 4.23269 3.97110
# Velocity P-wave (km/s) = 5.65233 7.03295 6.38010
#
# Compressibility (1/GPa) = 0.03120801
#
# Stress axis : x y z
#
# Youngs Moduli (GPa) = 118.90231 94.74432 79.06982
#
# Poissons Ratio (x) = 0.03034 0.05233
# Poissons Ratio (y) = 0.03807 -0.06168
# Poissons Ratio (z) = 0.07870 -0.07390
#
# Static dielectric constant tensor:
#      x y z
#    x 4.419530 0.179010 0.146070 
#    y 0.179010 4.346660 -0.255940 
#    z 0.146070 -0.255940 4.204200 
# 
# 
# High freq. dielectric constant tensor:
#      x y z
#    x 1.902760 0.024410 0.018790 
#    y 0.024410 1.932120 -0.008650 
#    z 0.018790 -0.008650 1.926180 
# 
# From -- ./inp_files/207351.got.cif
#   From: 2010.06.25/outbox.cif.g09.slc.cpg/sg2_104_cif.got.tgz:207351.got - 2010.06.27 13:26:56.
