data_PCOD8020714
_publ_section_title
;
Structure prediction by ZEFSAII (Michael W. Deem and Ramdas Pophale) SiO2 
 PCOD8020714
Probable space group: P -1
;
_chemical_formula_sum "Si O2"
_cell_formula_units_Z 14
_cell_length_a 21.794230
_cell_length_b 9.337567
_cell_length_c 6.880236
_cell_angle_alpha 128.365966
_cell_angle_beta 47.930219
_cell_angle_gamma 153.657792
_cell_volume 460.336472
_symmetry_space_group_name_H-M "P -1"
_symmetry_group_IT_number 2
_symmetry_cell_setting 'triclinic'
loop_
_space_group_symop_operation_xyz
x,y,z
-x,-y,-z
loop_
_atom_site_type_symbol
_atom_site_label
_atom_site_fract_x
_atom_site_fract_y
_atom_site_fract_z
Si Si1 0.812820 0.355390 0.329967
Si Si2 0.195102 0.370377 0.948849
Si Si3 0.153381 0.680043 0.218597
Si Si4 0.076494 0.920435 0.480617
Si Si5 0.506007 0.118557 0.388708
Si Si6 0.241413 0.147739 0.954082
Si Si7 0.548555 0.602112 0.763926
O O1 0.942965 0.717686 0.441819
O O2 0.661726 0.173651 0.574352
O O3 0.818412 0.352205 0.082152
O O4 0.829538 0.177787 0.225962
O O5 0.367082 0.747335 0.896302
O O6 0.123781 0.174767 0.732023
O O7 0.109563 0.411776 0.212269
O O8 0.164338 0.162739 0.001562
O O9 0.050299 0.673321 0.436465
O O10 0.307689 0.022052 0.269126
O O11 0.217893 0.144209 0.230020
O O12 0.579967 0.452369 0.513127
O O13 0.500000 0.000000 0.500000
O O14 0.415799 0.454139 0.800385
O O15 0.500000 0.500000 0.000000
#
# Coordination Sequence:
#
# PCOD8020714 Si02
#       7
#     2   2   2   2   2   2   2
#     4  10  22  42  72  97 140 195 228 282 366 413
#     4  12  25  42  75 106 140 181 240 295 350 414
#     4  11  21  41  69 103 139 182 234 288 350 420
#     4  11  24  48  72  97 145 193 228 288 357 424
#     4  11  20  40  68 105 138 180 236 294 342 423
#     4  10  23  42  71 108 138 181 243 289 349 426
#     4  11  17  37  69  97 137 181 223 286 351 397
#
# _framework density 30.412537
#
# number of rings (size 3 to 8) (size 9 to 14) (size 15 to 20)
#    0.000    1.143    7.143    1.714    0.000    4.000 
#    0.000    5.714    0.000    0.000    0.000    0.000 
#    0.000    0.000    0.000    0.000    0.000    0.000 
#
# Total GULP energy -173560.804865 kJ/mol
# GULP energy per Si atom -12397.200347 kJ/mol
# Density = 3.034332 g / cm^3
# Si number density = 30.412537 Si / 1000 Ang^3
#
#
#
# Elastic Constant Matrix: (Units=GPa)
#
#
# Indices 1 2 3 4 5 6 
#
# 1 135.0375 38.0260 45.9467 14.9828 -40.7177 -8.2753
# 2 38.0260 110.1565 22.6792 15.1596 -35.3294 16.9869
# 3 45.9467 22.6792 134.4700 -1.3681 -46.0345 2.8486
# 4 14.9828 15.1596 -1.3681 38.4710 -1.0634 3.3991
# 5 -40.7177 -35.3294 -46.0345 -1.0634 44.2344 -5.0806
# 6 -8.2753 16.9869 2.8486 3.3991 -5.0806 51.7266
#
#
#
# Elastic Compliance Matrix: (Units=1/GPa)
#
#
# Indices 1 2 3 4 5 6 
#
# 1 0.011349 -0.000648 -0.000602 -0.004211 0.009578 0.003279
# 2 -0.000648 0.013914 0.002069 -0.004529 0.012183 -0.003293
# 3 -0.000602 0.002069 0.011917 0.000227 0.013492 -0.000122
# 4 -0.004211 -0.004529 0.000227 0.029398 -0.006757 -0.001794
# 5 0.009578 0.012183 0.013492 -0.006757 0.055339 0.002668
# 6 0.003279 -0.003293 -0.000122 -0.001794 0.002668 0.021325
#
#
# Mechanical properties :
#
#
# Convention : Reuss Voigt Hill
#
# Bulk Modulus (GPa) = 25.76101 65.88531 45.82316
# Shear Modulus (GPa) = 32.35357 45.08721 38.72039
#
# Velocity S-wave (km/s) = 3.26517 3.85453 3.57202
# Velocity P-wave (km/s) = 4.76487 6.44366 5.66678
#
# Compressibility (1/GPa) = 0.03881835
#
# Stress axis : x y z
#
# Youngs Moduli (GPa) = 88.11492 71.87017 83.91378
#
# Poissons Ratio (x) = 0.04657 0.05050
# Poissons Ratio (y) = 0.05709 -0.17362
# Poissons Ratio (z) = 0.05302 -0.14870
#
# Static dielectric constant tensor:
#      x y z
#    x 5.689650 0.119380 -0.492840 
#    y 0.119380 6.103400 -0.485580 
#    z -0.492840 -0.485580 6.107880 
# 
# 
# High freq. dielectric constant tensor:
#      x y z
#    x 2.259550 -0.004680 -0.015860 
#    y -0.004680 2.263560 -0.026710 
#    z -0.015860 -0.026710 2.264840 
# 
# From -- ./inp_files/343847.got.cif
#   From: 2010.06.25/outbox.cif.g09.slc.cpg/sg2_172_cif.got.tgz:343847.got - 2010.06.27 13:26:56.
