data_PCOD8020480
_publ_section_title
;
Structure prediction by ZEFSAII (Michael W. Deem and Ramdas Pophale) SiO2 
 PCOD8020480
Probable space group: P -1
;
_chemical_formula_sum "Si O2"
_cell_formula_units_Z 12
_cell_length_a 19.064504
_cell_length_b 4.851371
_cell_length_c 19.248430
_cell_angle_alpha 64.828460
_cell_angle_beta 161.971702
_cell_angle_gamma 115.353109
_cell_volume 496.852752
_symmetry_space_group_name_H-M "P -1"
_symmetry_group_IT_number 2
_symmetry_cell_setting 'triclinic'
loop_
_space_group_symop_operation_xyz
x,y,z
-x,-y,-z
loop_
_atom_site_type_symbol
_atom_site_label
_atom_site_fract_x
_atom_site_fract_y
_atom_site_fract_z
Si Si1 0.174576 0.870552 0.762052
Si Si2 0.604941 0.598872 0.161735
Si Si3 0.208786 0.015076 0.367949
Si Si4 0.902776 0.246313 0.561889
Si Si5 0.652358 0.303445 0.711442
Si Si6 0.025019 0.643743 0.109843
O O1 0.022027 0.578975 0.624139
O O2 0.190698 0.137198 0.690012
O O3 0.424416 0.755148 0.024227
O O4 0.060733 0.989649 0.712241
O O5 0.675978 0.286625 0.298491
O O6 0.500000 0.500000 0.000000
O O7 0.158694 0.812506 0.410083
O O8 0.039718 0.884125 0.161224
O O9 0.481823 0.019018 0.608918
O O10 0.159148 0.364699 0.295013
O O11 0.500000 0.500000 0.500000
O O12 0.850085 0.191643 0.858443
O O13 0.769508 0.510796 0.862054
#
# Coordination Sequence:
#
# PCOD8020480 Si02
#       6
#     2   2   2   2   2   2
#     4  11  25  44  68  98 131 176 232 283 339 408
#     4  11  25  44  73 100 127 179 240 281 336 409
#     4  11  24  43  62  99 140 179 222 280 351 407
#     4  12  26  43  67  98 143 180 220 287 352 404
#     4   9  21  41  71  97 131 176 230 279 331 406
#     4  10  22  42  68  98 131 179 230 279 334 405
#
# _framework density 24.152025999999999
#
# number of rings (size 3 to 8) (size 9 to 14) (size 15 to 20)
#    0.000    1.333    1.667    2.500    4.667   10.000 
#    3.000    1.667    0.000    0.000    0.000    0.000 
#    0.000    0.000    0.000    0.000    0.000    0.000 
#
# Total GULP energy -148734.456825 kJ/mol
# GULP energy per Si atom -12394.538069 kJ/mol
# Density = 2.409705 g / cm^3
# Si number density = 24.152026 Si / 1000 Ang^3
#
#
#
# Elastic Constant Matrix: (Units=GPa)
#
#
# Indices 1 2 3 4 5 6 
#
# 1 203.3456 94.9505 67.1038 17.2273 -5.1258 28.3596
# 2 94.9505 118.4842 29.1206 25.2914 -4.9352 19.6492
# 3 67.1038 29.1206 114.9444 12.4903 -6.3592 10.4566
# 4 17.2273 25.2914 12.4903 41.2334 -4.4344 4.5019
# 5 -5.1258 -4.9352 -6.3592 -4.4344 35.5374 -4.9953
# 6 28.3596 19.6492 10.4566 4.5019 -4.9953 53.7987
#
#
#
# Elastic Compliance Matrix: (Units=1/GPa)
#
#
# Indices 1 2 3 4 5 6 
#
# 1 0.009395 -0.006591 -0.003813 0.001450 -0.000337 -0.001957
# 2 -0.006591 0.015209 0.000882 -0.006632 0.000257 -0.001673
# 3 -0.003813 0.000882 0.011018 -0.002133 0.001256 -0.000158
# 4 0.001450 -0.006632 -0.002133 0.028636 0.002466 -0.000095
# 5 -0.000337 0.000257 0.001256 0.002466 0.028986 0.002325
# 6 -0.001957 -0.001673 -0.000158 -0.000095 0.002325 0.020485
#
#
# Mechanical properties :
#
#
# Convention : Reuss Voigt Hill
#
# Bulk Modulus (GPa) = 60.32330 91.01378 75.66854
# Shear Modulus (GPa) = 36.15333 42.48718 39.32026
#
# Velocity S-wave (km/s) = 3.87319 4.19878 4.03926
# Velocity P-wave (km/s) = 6.71065 7.82763 7.29056
#
# Compressibility (1/GPa) = 0.01657734
#
# Stress axis : x y z
#
# Youngs Moduli (GPa) = 106.43616 65.75120 90.75807
#
# Poissons Ratio (x) = 0.43336 0.34609
# Poissons Ratio (y) = 0.70152 -0.08002
# Poissons Ratio (z) = 0.40587 -0.05797
#
# Static dielectric constant tensor:
#      x y z
#    x 4.237060 0.130790 0.420760 
#    y 0.130790 4.454710 0.295740 
#    z 0.420760 0.295740 4.531550 
# 
# 
# High freq. dielectric constant tensor:
#      x y z
#    x 1.936190 -0.007170 0.008610 
#    y -0.007170 1.964210 0.002240 
#    z 0.008610 0.002240 1.969900 
# 
# From -- ./inp_files/574778.got.cif
#   From: 2010.06.25/outbox.cif.g09.slc.cpg/sg2_288_cif.got.tgz:574778.got - 2010.06.27 13:26:56.
