data_PCOD8020921
_publ_section_title
;
Structure prediction by ZEFSAII (Michael W. Deem and Ramdas Pophale) SiO2 
 PCOD8020921
Probable space group: P -1
;
_chemical_formula_sum "Si O2"
_cell_formula_units_Z 14
_cell_length_a 15.630129
_cell_length_b 22.054541
_cell_length_c 12.574892
_cell_angle_alpha 152.769064
_cell_angle_beta 38.428801
_cell_angle_gamma 159.510861
_cell_volume 660.237977
_symmetry_space_group_name_H-M "P -1"
_symmetry_group_IT_number 2
_symmetry_cell_setting 'triclinic'
loop_
_space_group_symop_operation_xyz
x,y,z
-x,-y,-z
loop_
_atom_site_type_symbol
_atom_site_label
_atom_site_fract_x
_atom_site_fract_y
_atom_site_fract_z
Si Si1 0.372484 0.783842 0.454371
Si Si2 0.269693 0.703693 0.997918
Si Si3 0.437253 0.635486 0.335794
Si Si4 0.234605 0.025906 0.777990
Si Si5 0.402775 0.275553 0.222593
Si Si6 0.861025 0.873888 0.173164
Si Si7 0.116796 0.485934 0.591047
O O1 0.320188 0.612174 0.309256
O O2 0.529662 0.874334 0.336008
O O3 0.098138 0.619851 0.436587
O O4 0.534658 0.021575 0.734816
O O5 0.385272 0.655489 0.839057
O O6 0.214328 0.664655 0.865366
O O7 0.000000 0.500000 0.000000
O O8 0.744571 0.866600 0.373542
O O9 0.370142 0.663188 0.549748
O O10 0.321252 0.397126 0.092729
O O11 0.125711 0.027641 0.792852
O O12 0.338877 0.201579 0.045553
O O13 0.000508 0.744281 0.606011
O O14 0.500000 0.500000 0.500000
O O15 0.146379 0.052313 0.196823
#
# Coordination Sequence:
#
# PCOD8020921 Si02
#       7
#     2   2   2   2   2   2   2
#     4  11  23  44  67  99 136 175 225 277 336 401
#     4  12  25  41  69 104 134 169 226 285 332 394
#     4  10  23  40  68  92 135 183 221 267 334 411
#     4  11  21  40  72  96 128 179 223 279 334 388
#     4  12  25  39  67 106 135 168 226 285 334 395
#     4  10  22  43  65  94 132 179 224 271 336 398
#     4  12  22  41  69  97 130 177 223 275 340 391
#
# _framework density 21.204476
#
# number of rings (size 3 to 8) (size 9 to 14) (size 15 to 20)
#    0.000    0.857    4.286    3.000    4.000    0.571 
#    0.000    0.714    3.143    0.000    0.000    0.000 
#    0.000    0.000    0.000    0.000    0.000    0.000 
#
# Total GULP energy -173594.717028 kJ/mol
# GULP energy per Si atom -12399.622645 kJ/mol
# Density = 2.115621 g / cm^3
# Si number density = 21.204476 Si / 1000 Ang^3
#
#
#
# Elastic Constant Matrix: (Units=GPa)
#
#
# Indices 1 2 3 4 5 6 
#
# 1 68.4461 55.1072 17.6933 -10.8094 -11.3934 6.0561
# 2 55.1072 164.7517 41.6863 -41.9365 14.4228 5.9967
# 3 17.6933 41.6863 100.1229 -25.9595 16.6458 2.9372
# 4 -10.8094 -41.9365 -25.9595 30.5445 -4.8726 1.3674
# 5 -11.3934 14.4228 16.6458 -4.8726 42.1584 -3.8287
# 6 6.0561 5.9967 2.9372 1.3674 -3.8287 36.7214
#
#
#
# Elastic Compliance Matrix: (Units=1/GPa)
#
#
# Indices 1 2 3 4 5 6 
#
# 1 0.024074 -0.009537 -0.003508 -0.005858 0.010401 -0.000830
# 2 -0.009537 0.013427 0.001063 0.015088 -0.006019 -0.001894
# 3 -0.003508 0.001063 0.014120 0.011383 -0.005730 -0.001746
# 4 -0.005858 0.015088 0.011383 0.060535 -0.004711 -0.005154
# 5 0.010401 -0.006019 -0.005730 -0.004711 0.030589 0.003091
# 6 -0.000830 -0.001894 -0.001746 -0.005154 0.003091 0.028332
#
#
# Mechanical properties :
#
#
# Convention : Reuss Voigt Hill
#
# Bulk Modulus (GPa) = 36.15407 62.47714 49.31561
# Shear Modulus (GPa) = 24.47869 36.47379 30.47624
#
# Velocity S-wave (km/s) = 3.40135 4.15191 3.79523
# Velocity P-wave (km/s) = 5.70200 7.24655 6.52017
#
# Compressibility (1/GPa) = 0.02765940
#
# Stress axis : x y z
#
# Youngs Moduli (GPa) = 41.53783 74.47637 70.82109
#
# Poissons Ratio (x) = 0.71025 0.24841
# Poissons Ratio (y) = 0.39613 -0.07529
# Poissons Ratio (z) = 0.14570 -0.07918
#
# Static dielectric constant tensor:
#      x y z
#    x 3.884180 0.171790 -0.102560 
#    y 0.171790 5.311510 -0.521940 
#    z -0.102560 -0.521940 4.028360 
# 
# 
# High freq. dielectric constant tensor:
#      x y z
#    x 1.824310 0.001300 -0.016790 
#    y 0.001300 1.852350 -0.021560 
#    z -0.016790 -0.021560 1.827510 
# 
# From -- ./inp_files/183855.got.cif
#   From: 2010.06.25/outbox.cif.g09.slc.cpg/sg2_92_cif.got.tgz:183855.got - 2010.06.27 13:26:56.
