data_PCOD8020508
_publ_section_title
;
Structure prediction by ZEFSAII (Michael W. Deem and Ramdas Pophale) SiO2 
 PCOD8020508
Probable space group: P -1
;
_chemical_formula_sum "Si O2"
_cell_formula_units_Z 14
_cell_length_a 9.724908
_cell_length_b 12.875353
_cell_length_c 9.492510
_cell_angle_alpha 34.744677
_cell_angle_beta 61.363194
_cell_angle_gamma 69.837289
_cell_volume 591.656858
_symmetry_space_group_name_H-M "P -1"
_symmetry_group_IT_number 2
_symmetry_cell_setting 'triclinic'
loop_
_space_group_symop_operation_xyz
x,y,z
-x,-y,-z
loop_
_atom_site_type_symbol
_atom_site_label
_atom_site_fract_x
_atom_site_fract_y
_atom_site_fract_z
Si Si1 0.219169 0.209059 0.412419
Si Si2 0.175558 0.269046 0.675446
Si Si3 0.867832 0.203831 0.070065
Si Si4 0.370769 0.927865 0.030783
Si Si5 0.068049 0.331952 0.085450
Si Si6 0.540051 0.182995 0.190363
Si Si7 0.681481 0.477659 0.452395
O O1 0.172975 0.314430 0.459086
O O2 0.100393 0.207377 0.341383
O O3 0.391313 0.295656 0.176631
O O4 0.204294 0.000557 0.702287
O O5 0.272827 0.444074 0.502636
O O6 0.995777 0.263974 0.821678
O O7 0.249254 0.079624 0.892427
O O8 0.705344 0.301460 0.022091
O O9 0.936790 0.226721 0.167271
O O10 0.280237 0.734600 0.345407
O O11 0.464357 0.873684 0.907631
O O12 0.500000 0.000000 0.000000
O O13 0.224013 0.395864 0.850230
O O14 0.000000 0.500000 0.000000
O O15 0.500000 0.000000 0.500000
O O16 0.500000 0.500000 0.500000
#
# Coordination Sequence:
#
# PCOD8020508 Si02
#       7
#     2   2   2   2   2   2   2
#     4  11  23  45  71  98 142 178 229 284 344 405
#     4  11  24  44  70 104 134 185 229 284 349 401
#     4  10  23  43  69  97 137 176 232 276 340 415
#     4  12  24  42  75  99 136 185 231 280 346 411
#     4  11  27  44  65 103 140 180 224 288 350 395
#     4  10  22  42  69 104 131 173 234 281 336 412
#     4  11  25  45  66 101 141 177 236 278 334 424
#
# _framework density 23.662364
#
# number of rings (size 3 to 8) (size 9 to 14) (size 15 to 20)
#    0.000    1.143    4.286    1.714    4.000    4.571 
#    0.000    5.000    0.000    0.000    0.000    0.000 
#    0.000    0.000    0.000    0.000    0.000    0.000 
#
# Total GULP energy -173494.763080 kJ/mol
# GULP energy per Si atom -12392.483077 kJ/mol
# Density = 2.360851 g / cm^3
# Si number density = 23.662364 Si / 1000 Ang^3
#
#
#
# Elastic Constant Matrix: (Units=GPa)
#
#
# Indices 1 2 3 4 5 6 
#
# 1 147.1201 61.2883 44.7499 26.9770 -28.7372 36.9323
# 2 61.2883 112.2799 34.6177 18.1619 -17.4553 33.3253
# 3 44.7499 34.6177 66.0533 10.0172 -11.8184 26.2054
# 4 26.9770 18.1619 10.0172 51.2905 -1.7329 7.5337
# 5 -28.7372 -17.4553 -11.8184 -1.7329 47.2947 5.2840
# 6 36.9323 33.3253 26.2054 7.5337 5.2840 44.2515
#
#
#
# Elastic Compliance Matrix: (Units=1/GPa)
#
#
# Indices 1 2 3 4 5 6 
#
# 1 0.012324 -0.002070 -0.002534 -0.003944 0.006769 -0.007363
# 2 -0.002070 0.013913 -0.001656 -0.002209 0.004265 -0.007902
# 3 -0.002534 -0.001656 0.022915 -0.000835 0.004733 -0.010631
# 4 -0.003944 -0.002209 -0.000835 0.022124 -0.002836 0.002022
# 5 0.006769 0.004265 0.004733 -0.002836 0.029554 -0.014710
# 6 -0.007363 -0.007902 -0.010631 0.002022 -0.014710 0.042402
#
#
# Mechanical properties :
#
#
# Convention : Reuss Voigt Hill
#
# Bulk Modulus (GPa) = 27.29853 67.41834 47.35844
# Shear Modulus (GPa) = 29.76863 40.88717 35.32790
#
# Velocity S-wave (km/s) = 3.55076 4.16136 3.86813
# Velocity P-wave (km/s) = 5.32656 7.18630 6.32515
#
# Compressibility (1/GPa) = 0.03663201
#
# Stress axis : x y z
#
# Youngs Moduli (GPa) = 81.14147 71.87652 43.63974
#
# Poissons Ratio (x) = 0.14880 0.11059
# Poissons Ratio (y) = 0.16798 0.07225
# Poissons Ratio (z) = 0.20562 0.11900
#
# Static dielectric constant tensor:
#      x y z
#    x 4.783950 -0.188540 0.489520 
#    y -0.188540 4.486710 0.255970 
#    z 0.489520 0.255970 7.615870 
# 
# 
# High freq. dielectric constant tensor:
#      x y z
#    x 1.951820 0.008330 -0.002530 
#    y 0.008330 1.937320 0.010410 
#    z -0.002530 0.010410 1.936440 
# 
# From -- ./inp_files/183978.got.cif
#   From: 2010.06.25/outbox.cif.g09.slc.cpg/sg2_92_cif.got.tgz:183978.got - 2010.06.27 13:26:56.
