data_PCOD8020973
_publ_section_title
;
Structure prediction by ZEFSAII (Michael W. Deem and Ramdas Pophale) SiO2 
 PCOD8020973
Probable space group: P -1
;
_chemical_formula_sum "Si O2"
_cell_formula_units_Z 16
_cell_length_a 12.165012
_cell_length_b 11.957345
_cell_length_c 15.741237
_cell_angle_alpha 121.658444
_cell_angle_beta 27.083490
_cell_angle_gamma 106.935266
_cell_volume 790.560896
_symmetry_space_group_name_H-M "P -1"
_symmetry_group_IT_number 2
_symmetry_cell_setting 'triclinic'
loop_
_space_group_symop_operation_xyz
x,y,z
-x,-y,-z
loop_
_atom_site_type_symbol
_atom_site_label
_atom_site_fract_x
_atom_site_fract_y
_atom_site_fract_z
Si Si1 0.185863 0.575081 0.729576
Si Si2 0.278310 0.627238 0.504190
Si Si3 0.680549 0.114802 0.477402
Si Si4 0.740269 0.191784 0.831290
Si Si5 0.880700 0.673344 0.654356
Si Si6 0.102654 0.187816 0.852885
Si Si7 0.867116 0.396869 0.942735
Si Si8 0.101956 0.853330 0.483660
O O1 0.500000 0.500000 0.500000
O O2 0.159854 0.583440 0.649752
O O3 0.009886 0.496005 0.853500
O O4 0.094138 0.732097 0.901330
O O5 0.336712 0.766440 0.534535
O O6 0.017371 0.702384 0.653613
O O7 0.551168 0.493570 0.224941
O O8 0.394655 0.115403 0.666871
O O9 0.702262 0.165737 0.578792
O O10 0.926425 0.952406 0.221721
O O11 0.880832 0.285551 0.813730
O O12 0.729606 0.204186 0.741675
O O13 0.438484 0.254852 0.096472
O O14 0.889758 0.023586 0.690602
O O15 0.000000 0.500000 0.500000
O O16 0.953793 0.749307 0.555058
O O17 0.041992 0.306821 0.867149
#
# Coordination Sequence:
#
# PCOD8020973 Si02
#       8
#     2   2   2   2   2   2   2   2
#     4  12  25  40  68  99 127 170 221 263 317 393
#     4  11  24  42  62  97 131 168 214 264 327 374
#     4  10  22  43  66  91 131 168 210 267 322 377
#     4  11  24  43  68  95 127 177 216 259 326 386
#     4  11  24  40  66  96 131 164 214 272 317 378
#     4  11  22  41  68  92 127 172 212 263 323 374
#     4  12  23  43  67  93 137 170 212 265 323 386
#     4  10  24  45  65  94 130 174 215 263 321 388
#
# _framework density 20.238795
#
# number of rings (size 3 to 8) (size 9 to 14) (size 15 to 20)
#    0.000    1.000    5.000    1.500    3.500    1.000 
#    0.000    2.500    0.000    0.000    0.000    0.000 
#    0.000    0.000    0.000    0.000    0.000    0.000 
#
# Total GULP energy -198257.707507 kJ/mol
# GULP energy per Si atom -12391.106719 kJ/mol
# Density = 2.019273 g / cm^3
# Si number density = 20.238795 Si / 1000 Ang^3
#
#
#
# Elastic Constant Matrix: (Units=GPa)
#
#
# Indices 1 2 3 4 5 6 
#
# 1 83.1326 27.5229 22.0408 -6.1842 4.7471 -3.5124
# 2 27.5229 107.1149 34.3333 7.5878 20.0714 -7.2881
# 3 22.0408 34.3333 79.8696 3.8771 9.6614 3.2017
# 4 -6.1842 7.5878 3.8771 31.7916 4.1613 2.5894
# 5 4.7471 20.0714 9.6614 4.1613 33.2870 3.1784
# 6 -3.5124 -7.2881 3.2017 2.5894 3.1784 31.7173
#
#
#
# Elastic Compliance Matrix: (Units=1/GPa)
#
#
# Indices 1 2 3 4 5 6 
#
# 1 0.014057 -0.002908 -0.002847 0.003701 0.000029 0.000871
# 2 -0.002908 0.013022 -0.004061 -0.002674 -0.006299 0.003930
# 3 -0.002847 -0.004061 0.015356 -0.001087 -0.001219 -0.002588
# 4 0.003701 -0.002674 -0.001087 0.033488 -0.002541 -0.002574
# 5 0.000029 -0.006299 -0.001219 -0.002541 0.034948 -0.004616
# 6 0.000871 0.003930 -0.002588 -0.002574 -0.004616 0.033462
#
#
# Mechanical properties :
#
#
# Convention : Reuss Voigt Hill
#
# Bulk Modulus (GPa) = 43.85449 48.65676 46.25563
# Shear Modulus (GPa) = 29.14345 31.77383 30.45864
#
# Velocity S-wave (km/s) = 3.79882 3.96655 3.88359
# Velocity P-wave (km/s) = 6.39976 6.71354 6.55853
#
# Compressibility (1/GPa) = 0.02280268
#
# Stress axis : x y z
#
# Youngs Moduli (GPa) = 71.13916 76.79486 65.12191
#
# Poissons Ratio (x) = 0.22329 0.18543
# Poissons Ratio (y) = 0.20684 0.26446
# Poissons Ratio (z) = 0.20256 0.31186
#
# Static dielectric constant tensor:
#      x y z
#    x 3.094700 0.283430 0.050690 
#    y 0.283430 4.433150 0.355120 
#    z 0.050690 0.355120 3.519580 
# 
# 
# High freq. dielectric constant tensor:
#      x y z
#    x 1.801480 0.000220 -0.002150 
#    y 0.000220 1.796390 0.016070 
#    z -0.002150 0.016070 1.790060 
# 
# From -- ./inp_files/47893.got.cif
#   From: 2010.06.25/outbox.cif.g09.slc.cpg/sg2_24_cif.got.tgz:47893.got - 2010.06.27 13:26:56.
