data_PCOD8020748
_publ_section_title
;
Structure prediction by ZEFSAII (Michael W. Deem and Ramdas Pophale) SiO2 
 PCOD8020748
Probable space group: P -1
;
_chemical_formula_sum "Si O2"
_cell_formula_units_Z 12
_cell_length_a 16.149533
_cell_length_b 22.718311
_cell_length_c 11.045802
_cell_angle_alpha 22.733282
_cell_angle_beta 148.494140
_cell_angle_gamma 159.691404
_cell_volume 541.228362
_symmetry_space_group_name_H-M "P -1"
_symmetry_group_IT_number 2
_symmetry_cell_setting 'triclinic'
loop_
_space_group_symop_operation_xyz
x,y,z
-x,-y,-z
loop_
_atom_site_type_symbol
_atom_site_label
_atom_site_fract_x
_atom_site_fract_y
_atom_site_fract_z
Si Si1 0.418171 0.829367 0.045458
Si Si2 0.943529 0.203774 0.986202
Si Si3 0.309449 0.469502 0.752662
Si Si4 0.979842 0.698255 0.833218
Si Si5 0.429821 0.787603 0.867325
Si Si6 0.093233 0.025689 0.836957
O O1 0.435166 0.685241 0.417121
O O2 0.330091 0.729431 0.989828
O O3 0.243732 0.823900 0.900812
O O4 0.682340 0.096580 0.865095
O O5 0.138737 0.432252 0.711041
O O6 0.050133 0.269899 0.126809
O O7 0.899782 0.007722 0.236551
O O8 0.500000 0.500000 0.000000
O O9 0.134115 0.233685 0.900357
O O10 0.941983 0.821295 0.471618
O O11 0.782401 0.430210 0.065937
O O12 0.500000 0.000000 0.500000
O O13 0.660720 0.845463 0.036506
#
# Coordination Sequence:
#
# PCOD8020748 Si02
#       6
#     2   2   2   2   2   2
#     4  11  24  44  68  96 139 176 221 275 330 394
#     4   9  23  42  69  97 140 163 223 275 329 387
#     4  10  22  42  73  98 133 175 219 269 342 387
#     4  12  22  41  72 101 132 180 222 269 341 394
#     4  11  25  47  66  92 138 184 222 275 329 391
#     4   9  22  43  64  99 135 171 218 276 328 391
#
# _framework density 22.171785
#
# number of rings (size 3 to 8) (size 9 to 14) (size 15 to 20)
#    1.000    0.667    0.000    4.000    4.667    0.667 
#    6.000    1.667    0.000    0.000    0.000    0.000 
#    0.000    0.000    0.000    0.000    0.000    0.000 
#
# Total GULP energy -148710.965315 kJ/mol
# GULP energy per Si atom -12392.580443 kJ/mol
# Density = 2.212132 g / cm^3
# Si number density = 22.171785 Si / 1000 Ang^3
#
#
#
# Elastic Constant Matrix: (Units=GPa)
#
#
# Indices 1 2 3 4 5 6 
#
# 1 74.0592 48.5430 46.5942 3.5509 -11.5656 8.3077
# 2 48.5430 98.4004 20.9608 1.4017 -5.7137 9.7085
# 3 46.5942 20.9608 112.5581 16.6078 0.3122 8.3721
# 4 3.5509 1.4017 16.6078 29.4578 0.4147 -0.8973
# 5 -11.5656 -5.7137 0.3122 0.4147 26.5619 -3.0414
# 6 8.3077 9.7085 8.3721 -0.8973 -3.0414 34.3795
#
#
#
# Elastic Compliance Matrix: (Units=1/GPa)
#
#
# Indices 1 2 3 4 5 6 
#
# 1 0.029033 -0.011553 -0.010271 0.002689 0.010203 -0.000279
# 2 -0.011553 0.015524 0.002158 -0.000605 -0.001971 -0.002308
# 3 -0.010271 0.002158 0.013888 -0.006697 -0.004303 -0.002065
# 4 0.002689 -0.000605 -0.006697 0.037483 0.000786 0.002200
# 5 0.010203 -0.001971 -0.004303 0.000786 0.042035 0.002878
# 6 -0.000279 -0.002308 -0.002065 0.002200 0.002878 0.030621
#
#
# Mechanical properties :
#
#
# Convention : Reuss Voigt Hill
#
# Bulk Modulus (GPa) = 52.32186 57.46817 54.89502
# Shear Modulus (GPa) = 23.33310 29.34115 26.33713
#
# Velocity S-wave (km/s) = 3.24756 3.64174 3.45028
# Velocity P-wave (km/s) = 6.14099 6.60748 6.37850
#
# Compressibility (1/GPa) = 0.01911247
#
# Stress axis : x y z
#
# Youngs Moduli (GPa) = 34.44310 64.41582 72.00496
#
# Poissons Ratio (x) = 0.74420 0.73959
# Poissons Ratio (y) = 0.39793 -0.15539
# Poissons Ratio (z) = 0.35378 -0.13901
#
# Static dielectric constant tensor:
#      x y z
#    x 3.957890 0.160360 -0.073050 
#    y 0.160360 4.071880 -0.031320 
#    z -0.073050 -0.031320 3.679750 
# 
# 
# High freq. dielectric constant tensor:
#      x y z
#    x 1.860520 0.013060 -0.000640 
#    y 0.013060 1.886870 0.000150 
#    z -0.000640 0.000150 1.856220 
# 
# From -- ./inp_files/467313.got.cif
#   From: 2010.06.25/outbox.cif.g09.slc.cpg/sg2_234_cif.got.tgz:467313.got - 2010.06.27 13:26:56.
