data_PCOD8020786
_publ_section_title
;
Structure prediction by ZEFSAII (Michael W. Deem and Ramdas Pophale) SiO2 
 PCOD8020786
Probable space group: P -1
;
_chemical_formula_sum "Si O2"
_cell_formula_units_Z 14
_cell_length_a 19.905394
_cell_length_b 21.149040
_cell_length_c 8.931621
_cell_angle_alpha 32.717460
_cell_angle_beta 148.543168
_cell_angle_gamma 159.598350
_cell_volume 665.698962
_symmetry_space_group_name_H-M "P -1"
_symmetry_group_IT_number 2
_symmetry_cell_setting 'triclinic'
loop_
_space_group_symop_operation_xyz
x,y,z
-x,-y,-z
loop_
_atom_site_type_symbol
_atom_site_label
_atom_site_fract_x
_atom_site_fract_y
_atom_site_fract_z
Si Si1 0.134868 0.357965 0.784545
Si Si2 0.315556 0.695896 0.117094
Si Si3 0.881510 0.387989 0.785019
Si Si4 0.148242 0.004924 0.839406
Si Si5 0.559415 0.607877 0.248784
Si Si6 0.660447 0.537410 0.319083
Si Si7 0.618240 0.029499 0.807558
O O1 0.085761 0.458013 0.521824
O O2 0.136567 0.332607 0.658817
O O3 0.356671 0.490052 0.007707
O O4 0.967777 0.158791 0.938879
O O5 0.258330 0.717440 0.121784
O O6 0.438035 0.661421 0.446582
O O7 0.449082 0.880387 0.907958
O O8 0.110628 0.506199 0.019635
O O9 0.778206 0.237265 0.760512
O O10 0.329649 0.192855 0.902137
O O11 0.252709 0.996784 0.929652
O O12 0.000000 0.000000 0.500000
O O13 0.500000 0.500000 0.500000
O O14 0.708871 0.632642 0.381112
O O15 0.500000 0.500000 0.000000
O O16 0.500000 0.000000 0.500000
#
# Coordination Sequence:
#
# PCOD8020786 Si02
#       7
#     2   2   2   2   2   2   2
#     4  10  22  43  62  91 130 161 221 270 319 389
#     4  10  22  43  68  96 129 166 224 273 326 392
#     4  10  23  43  69  96 126 173 218 276 328 390
#     4  12  26  39  62  98 129 170 219 266 320 385
#     4  11  21  39  63  88 129 170 208 263 329 381
#     4   9  21  39  65  92 124 173 209 264 329 383
#     4  12  26  42  67  99 134 176 219 268 333 395
#
# _framework density 21.030526999999999
#
# number of rings (size 3 to 8) (size 9 to 14) (size 15 to 20)
#    0.000    1.429    1.429    3.000    4.000    4.000 
#    0.000    8.571    0.000    0.000    0.000    0.000 
#    0.000    0.000    0.000    0.000    0.000    0.000 
#
# Total GULP energy -173573.452430 kJ/mol
# GULP energy per Si atom -12398.103745 kJ/mol
# Density = 2.098266 g / cm^3
# Si number density = 21.030527 Si / 1000 Ang^3
#
#
#
# Elastic Constant Matrix: (Units=GPa)
#
#
# Indices 1 2 3 4 5 6 
#
# 1 124.8090 57.7259 43.0619 -17.1601 2.8754 -13.9754
# 2 57.7259 124.0852 32.7665 -22.0568 -5.5798 -10.4726
# 3 43.0619 32.7665 115.6127 -14.1036 0.1431 3.5454
# 4 -17.1601 -22.0568 -14.1036 39.9915 5.6039 -6.6830
# 5 2.8754 -5.5798 0.1431 5.6039 38.6799 -6.7025
# 6 -13.9754 -10.4726 3.5454 -6.6830 -6.7025 34.7651
#
#
#
# Elastic Compliance Matrix: (Units=1/GPa)
#
#
# Indices 1 2 3 4 5 6 
#
# 1 0.011715 -0.003864 -0.003070 0.002660 -0.001081 0.004162
# 2 -0.003864 0.011347 -0.001340 0.004404 0.001846 0.003204
# 3 -0.003070 -0.001340 0.010408 0.001272 -0.000634 -0.002577
# 4 0.002660 0.004404 0.001272 0.030679 -0.002687 0.007646
# 5 -0.001081 0.001846 -0.000634 -0.002687 0.027451 0.004962
# 6 0.004162 0.003204 -0.002577 0.007646 0.004962 0.034092
#
#
# Mechanical properties :
#
#
# Convention : Reuss Voigt Hill
#
# Bulk Modulus (GPa) = 59.09560 70.17953 64.63756
# Shear Modulus (GPa) = 33.81107 38.08411 35.94759
#
# Velocity S-wave (km/s) = 4.01398 4.26008 4.13886
# Velocity P-wave (km/s) = 7.04582 7.59213 7.32407
#
# Compressibility (1/GPa) = 0.01692173
#
# Stress axis : x y z
#
# Youngs Moduli (GPa) = 85.35862 88.13174 96.08077
#
# Poissons Ratio (x) = 0.34053 0.29499
# Poissons Ratio (y) = 0.32982 0.12874
# Poissons Ratio (z) = 0.26207 0.11809
#
# Static dielectric constant tensor:
#      x y z
#    x 4.406480 -0.074340 0.175910 
#    y -0.074340 3.790290 -0.033530 
#    z 0.175910 -0.033530 3.948380 
# 
# 
# High freq. dielectric constant tensor:
#      x y z
#    x 1.839380 0.000820 -0.000070 
#    y 0.000820 1.805840 -0.006900 
#    z -0.000070 -0.006900 1.842960 
# 
# From -- ./inp_files/319540.got.cif
#   From: 2010.06.25/outbox.cif.g09.slc.cpg/sg2_160_cif.got.tgz:319540.got - 2010.06.27 13:26:56.
