data_PCOD8020002
_publ_section_title
;
Structure prediction by ZEFSAII (Michael W. Deem and Ramdas Pophale) SiO2 
 PCOD8020002
Probable space group: P -1
;
_chemical_formula_sum "Si O2"
_cell_formula_units_Z 10
_cell_length_a 8.796271
_cell_length_b 17.350817
_cell_length_c 17.419903
_cell_angle_alpha 22.474164
_cell_angle_beta 28.149596
_cell_angle_gamma 31.330208
_cell_volume 467.874238
_symmetry_space_group_name_H-M "P -1"
_symmetry_group_IT_number 2
_symmetry_cell_setting 'triclinic'
loop_
_space_group_symop_operation_xyz
x,y,z
-x,-y,-z
loop_
_atom_site_type_symbol
_atom_site_label
_atom_site_fract_x
_atom_site_fract_y
_atom_site_fract_z
Si Si1 0.549700 0.724540 0.257770
Si Si2 0.725632 0.395303 0.180345
Si Si3 0.752309 0.904006 0.859582
Si Si4 0.637231 0.878770 0.306420
Si Si5 0.141399 0.756655 0.068608
O O1 0.500000 0.500000 0.500000
O O2 0.904111 0.746436 0.112113
O O3 0.251786 0.883843 0.287011
O O4 0.547183 0.771448 0.124858
O O5 0.570444 0.276065 0.424726
O O6 0.450828 0.564834 0.104038
O O7 0.883397 0.231080 0.195338
O O8 0.000000 0.500000 0.000000
O O9 0.577883 0.955556 0.808232
O O10 0.949651 0.744480 0.245556
O O11 0.749744 0.022975 0.188754
#
# Coordination Sequence:
#
# PCOD8020002 Si02
#       5
#     2   2   2   2   2
#     4  10  24  44  66  88 130 175 211 254 316 386
#     4  12  24  37  68 101 129 161 209 269 322 363
#     4  10  23  40  64  95 124 168 209 257 319 370
#     4  10  22  42  64  93 133 163 214 261 308 383
#     4  10  23  40  65  94 127 169 214 254 320 371
#
# _framework density 21.373266000000001
#
# number of rings (size 3 to 8) (size 9 to 14) (size 15 to 20)
#    0.000    1.600    2.000    1.200    5.600    7.200 
#    0.000    2.000    0.000    0.000    0.000    0.000 
#    0.000    0.000    0.000    0.000    0.000    0.000 
#
# Total GULP energy -123980.203243 kJ/mol
# GULP energy per Si atom -12398.020324 kJ/mol
# Density = 2.132462 g / cm^3
# Si number density = 21.373266 Si / 1000 Ang^3
#
#
#
# Elastic Constant Matrix: (Units=GPa)
#
#
# Indices 1 2 3 4 5 6 
#
# 1 51.5558 2.8374 18.7342 -2.2124 -8.4957 -7.4522
# 2 2.8374 163.2636 15.9383 -11.8303 -5.1097 -3.3466
# 3 18.7342 15.9383 144.8308 -4.3320 -14.7058 4.6674
# 4 -2.2124 -11.8303 -4.3320 28.2306 -3.0616 2.9697
# 5 -8.4957 -5.1097 -14.7058 -3.0616 24.6988 0.7155
# 6 -7.4522 -3.3466 4.6674 2.9697 0.7155 27.3717
#
#
#
# Elastic Compliance Matrix: (Units=1/GPa)
#
#
# Indices 1 2 3 4 5 6 
#
# 1 0.022256 0.000283 -0.002426 0.001522 0.006279 0.006178
# 2 0.000283 0.006427 -0.000538 0.002722 0.001426 0.000622
# 3 -0.002426 -0.000538 0.007796 0.001452 0.003943 -0.002316
# 4 0.001522 0.002722 0.001452 0.038041 0.006777 -0.003805
# 5 0.006279 0.001426 0.003943 0.006777 0.046152 -0.000730
# 6 0.006178 0.000622 -0.002316 -0.003805 -0.000730 0.039119
#
#
# Mechanical properties :
#
#
# Convention : Reuss Voigt Hill
#
# Bulk Modulus (GPa) = 32.13544 48.29664 40.21604
# Shear Modulus (GPa) = 28.48617 37.53625 33.01121
#
# Velocity S-wave (km/s) = 3.65471 4.19528 3.93429
# Velocity P-wave (km/s) = 5.73386 6.79065 6.28451
#
# Compressibility (1/GPa) = 0.03111829
#
# Stress axis : x y z
#
# Youngs Moduli (GPa) = 44.93270 155.58644 128.26990
#
# Poissons Ratio (x) = -0.04411 0.31119
# Poissons Ratio (y) = -0.01274 0.06898
# Poissons Ratio (z) = 0.10901 0.08367
#
# Static dielectric constant tensor:
#      x y z
#    x 3.710860 0.001090 -0.008430 
#    y 0.001090 4.202820 -0.107760 
#    z -0.008430 -0.107760 3.761900 
# 
# 
# High freq. dielectric constant tensor:
#      x y z
#    x 1.821580 -0.000110 0.004620 
#    y -0.000110 1.853360 -0.015860 
#    z 0.004620 -0.015860 1.833780 
# 
# From -- ./inp_files/15390.got.cif
#   From: 2010.06.25/outbox.cif.g09.slc.cpg/sg2_8_cif.got.tgz:15390.got - 2010.06.27 13:26:56.
