data_PCOD8020280
_publ_section_title
;
Structure prediction by ZEFSAII (Michael W. Deem and Ramdas Pophale) SiO2 
 PCOD8020280
Probable space group: P -1
;
_chemical_formula_sum "Si O2"
_cell_formula_units_Z 14
_cell_length_a 11.968287
_cell_length_b 11.263503
_cell_length_c 6.269614
_cell_angle_alpha 87.703757
_cell_angle_beta 47.829697
_cell_angle_gamma 71.167891
_cell_volume 573.766727
_symmetry_space_group_name_H-M "P -1"
_symmetry_group_IT_number 2
_symmetry_cell_setting 'triclinic'
loop_
_space_group_symop_operation_xyz
x,y,z
-x,-y,-z
loop_
_atom_site_type_symbol
_atom_site_label
_atom_site_fract_x
_atom_site_fract_y
_atom_site_fract_z
Si Si1 0.180641 0.365051 0.746679
Si Si2 0.443475 0.157070 0.199137
Si Si3 0.177552 0.577512 0.441149
Si Si4 0.650950 0.653264 0.056385
Si Si5 0.978667 0.249963 0.746369
Si Si6 0.255690 0.986771 0.402191
Si Si7 0.289696 0.739538 0.602045
O O1 0.372465 0.275650 0.447706
O O2 0.108047 0.508058 0.717851
O O3 0.192221 0.381996 0.984213
O O4 0.073609 0.286471 0.814497
O O5 0.378040 0.046123 0.345887
O O6 0.369582 0.217893 0.056866
O O7 0.643713 0.095746 0.929663
O O8 0.035536 0.664023 0.452202
O O9 0.251940 0.667953 0.453835
O O10 0.316184 0.465285 0.138737
O O11 0.484583 0.674683 0.396850
O O12 0.799479 0.272549 0.065132
O O13 0.080639 0.100102 0.559051
O O14 0.225430 0.891458 0.616081
#
# Coordination Sequence:
#
# PCOD8020280 Si02
#       7
#     2   2   2   2   2   2   2
#     4  10  22  42  67  91 118 158 208 255 300 356
#     4   8  18  39  66  91 118 156 206 252 296 354
#     4  11  24  40  62  90 124 163 204 248 300 363
#     4  10  22  42  67  91 118 158 208 255 300 356
#     4  11  24  40  62  93 126 160 199 250 308 361
#     4   9  19  41  62  87 125 161 201 247 297 362
#     4  11  24  40  62  93 126 160 199 250 308 361
#
# _framework density 24.400158000000001
#
# number of rings (size 3 to 8) (size 9 to 14) (size 15 to 20)
#    0.000    2.000    0.000    2.143    0.000   12.000 
#    0.000   23.571    0.000    0.000    0.000    0.000 
#    0.000    0.000    0.000    0.000    0.000    0.000 
#
# Total GULP energy -173536.247566 kJ/mol
# GULP energy per Si atom -12395.446255 kJ/mol
# Density = 2.434462 g / cm^3
# Si number density = 24.400158 Si / 1000 Ang^3
#
#
#
# Elastic Constant Matrix: (Units=GPa)
#
#
# Indices 1 2 3 4 5 6 
#
# 1 88.3053 34.3494 13.1739 -11.7358 12.2803 1.4359
# 2 34.3494 148.5742 36.8439 -8.7509 5.8602 -8.8395
# 3 13.1739 36.8439 59.4376 -21.7991 4.1228 -3.0679
# 4 -11.7358 -8.7509 -21.7991 39.9099 -2.5217 -6.6520
# 5 12.2803 5.8602 4.1228 -2.5217 24.0055 1.7240
# 6 1.4359 -8.8395 -3.0679 -6.6520 1.7240 24.5377
#
#
#
# Elastic Compliance Matrix: (Units=1/GPa)
#
#
# Indices 1 2 3 4 5 6 
#
# 1 0.013633 -0.002827 0.000236 0.003051 -0.005965 -0.000541
# 2 -0.002827 0.008723 -0.005151 -0.001355 -0.000106 0.002304
# 3 0.000236 -0.005151 0.025325 0.013487 -0.002162 0.005105
# 4 0.003051 -0.001355 0.013487 0.034729 -0.000651 0.010480
# 5 -0.005965 -0.000106 -0.002162 -0.000651 0.045276 -0.003317
# 6 -0.000541 0.002304 0.005105 0.010480 -0.003317 0.045328
#
#
# Mechanical properties :
#
#
# Convention : Reuss Voigt Hill
#
# Bulk Modulus (GPa) = 31.06074 51.67239 41.36657
# Shear Modulus (GPa) = 25.09652 31.82063 28.45857
#
# Velocity S-wave (km/s) = 3.21056 3.61517 3.41886
# Velocity P-wave (km/s) = 5.14791 6.21683 5.70745
#
# Compressibility (1/GPa) = 0.03219498
#
# Stress axis : x y z
#
# Youngs Moduli (GPa) = 73.35257 114.63644 39.48644
#
# Poissons Ratio (x) = 0.32413 -0.00931
# Poissons Ratio (y) = 0.20740 0.20341
# Poissons Ratio (z) = -0.01729 0.59053
#
# Static dielectric constant tensor:
#      x y z
#    x 3.818160 -0.088450 -0.095040 
#    y -0.088450 4.700320 0.304720 
#    z -0.095040 0.304720 4.648880 
# 
# 
# High freq. dielectric constant tensor:
#      x y z
#    x 1.930910 -0.003540 -0.012110 
#    y -0.003540 1.988470 0.016630 
#    z -0.012110 0.016630 1.982190 
# 
# From -- ./inp_files/69520.got.cif
#   From: 2010.06.25/outbox.cif.g09.slc.cpg/sg2_35_cif.got.tgz:69520.got - 2010.06.27 13:26:56.
