data_PCOD8020967
_publ_section_title
;
Structure prediction by ZEFSAII (Michael W. Deem and Ramdas Pophale) SiO2 
 PCOD8020967
Probable space group: P -1
;
_chemical_formula_sum "Si O2"
_cell_formula_units_Z 16
_cell_length_a 18.354307
_cell_length_b 8.944867
_cell_length_c 6.040646
_cell_angle_alpha 46.382562
_cell_angle_beta 86.693202
_cell_angle_gamma 85.498183
_cell_volume 715.754110
_symmetry_space_group_name_H-M "P -1"
_symmetry_group_IT_number 2
_symmetry_cell_setting 'triclinic'
loop_
_space_group_symop_operation_xyz
x,y,z
-x,-y,-z
loop_
_atom_site_type_symbol
_atom_site_label
_atom_site_fract_x
_atom_site_fract_y
_atom_site_fract_z
Si Si1 0.471554 0.362713 0.948418
Si Si2 0.725070 0.159809 0.076806
Si Si3 0.599229 0.296767 0.682123
Si Si4 0.641665 0.955546 0.675074
Si Si5 0.900323 0.529844 0.290330
Si Si6 0.213175 0.113055 0.033212
Si Si7 0.854250 0.206042 0.302854
Si Si8 0.031000 0.804138 0.055758
O O1 0.539813 0.247391 0.929994
O O2 0.422424 0.487997 0.649141
O O3 0.500000 0.500000 0.000000
O O4 0.418283 0.201653 0.226823
O O5 0.781506 0.273685 0.106146
O O6 0.664247 0.058320 0.338979
O O7 0.679591 0.315659 0.760295
O O8 0.771040 0.987058 0.105650
O O9 0.602190 0.117349 0.683819
O O10 0.712606 0.845060 0.892198
O O11 0.882123 0.417898 0.179597
O O12 0.917725 0.353568 0.648354
O O13 0.966442 0.678496 0.090094
O O14 0.829059 0.668942 0.232688
O O15 0.163098 0.963129 0.337232
O O16 0.919290 0.108131 0.237372
O O17 0.000000 0.000000 0.000000
#
# Coordination Sequence:
#
# PCOD8020967 Si02
#       8
#     2   2   2   2   2   2   2   2
#     4  11  24  40  64  96 127 165 212 260 312 373
#     4  10  22  43  66  89 126 168 207 260 316 369
#     4  10  23  42  63  92 128 165 209 257 315 375
#     4  10  23  42  64  90 125 166 208 258 315 373
#     4  11  24  41  65  96 126 164 210 257 313 370
#     4  10  24  43  63  91 125 165 209 258 312 373
#     4  11  23  42  66  92 126 163 208 260 312 372
#     4  11  25  43  65  94 130 167 207 257 311 372
#
# _framework density 22.354044999999999
#
# number of rings (size 3 to 8) (size 9 to 14) (size 15 to 20)
#    0.000    1.500    0.000    3.750    0.000   17.000 
#    0.000    2.500    0.000    0.000    0.000    0.000 
#    0.000    0.000    0.000    0.000    0.000    0.000 
#
# Total GULP energy -198435.048390 kJ/mol
# GULP energy per Si atom -12402.190524 kJ/mol
# Density = 2.230317 g / cm^3
# Si number density = 22.354045 Si / 1000 Ang^3
#
#
#
# Elastic Constant Matrix: (Units=GPa)
#
#
# Indices 1 2 3 4 5 6 
#
# 1 116.4731 85.8538 48.6488 0.8399 -4.5304 -5.2671
# 2 85.8538 152.6857 61.4376 12.2780 -8.6778 -7.4498
# 3 48.6488 61.4376 72.1102 11.9536 -6.9621 -7.9042
# 4 0.8399 12.2780 11.9536 33.8901 -10.8661 0.4030
# 5 -4.5304 -8.6778 -6.9621 -10.8661 52.9527 -1.9827
# 6 -5.2671 -7.4498 -7.9042 0.4030 -1.9827 52.8571
#
#
#
# Elastic Compliance Matrix: (Units=1/GPa)
#
#
# Indices 1 2 3 4 5 6 
#
# 1 0.016160 -0.007233 -0.005438 0.004252 0.000346 -0.000242
# 2 -0.007233 0.013227 -0.005928 -0.002435 0.000280 0.000286
# 3 -0.005438 -0.005928 0.023882 -0.005989 0.000559 0.002260
# 4 0.004252 -0.002435 -0.005989 0.034396 0.006204 -0.000845
# 5 0.000346 0.000280 0.000559 0.006204 0.020340 0.000873
# 6 -0.000242 0.000286 0.002260 -0.000845 0.000873 0.019312
#
#
# Mechanical properties :
#
#
# Convention : Reuss Voigt Hill
#
# Bulk Modulus (GPa) = 62.22167 81.46105 71.84136
# Shear Modulus (GPa) = 29.43407 37.62857 33.53132
#
# Velocity S-wave (km/s) = 3.63260 4.10726 3.87720
# Velocity P-wave (km/s) = 6.74459 7.68200 7.22851
#
# Compressibility (1/GPa) = 0.01607157
#
# Stress axis : x y z
#
# Youngs Moduli (GPa) = 61.88050 75.60164 41.87320
#
# Poissons Ratio (x) = 0.54679 0.22772
# Poissons Ratio (y) = 0.44755 0.24822
# Poissons Ratio (z) = 0.33652 0.44817
#
# Static dielectric constant tensor:
#      x y z
#    x 4.348490 -0.065970 0.111580 
#    y -0.065970 3.954680 0.178450 
#    z 0.111580 0.178450 3.892560 
# 
# 
# High freq. dielectric constant tensor:
#      x y z
#    x 1.905840 -0.003940 0.006460 
#    y -0.003940 1.878780 0.015340 
#    z 0.006460 0.015340 1.870700 
# 
# From -- ./inp_files/13451.got.cif
#   From: 2010.06.25/outbox.cif.g09.slc.cpg/sg2_7_cif.got.tgz:13451.got - 2010.06.27 13:26:56.
