data_PCOD8020946
_publ_section_title
;
Structure prediction by ZEFSAII (Michael W. Deem and Ramdas Pophale) SiO2 
 PCOD8020946
Probable space group: P -1
;
_chemical_formula_sum "Si O2"
_cell_formula_units_Z 14
_cell_length_a 8.547384
_cell_length_b 11.826215
_cell_length_c 14.411917
_cell_angle_alpha 29.135470
_cell_angle_beta 58.823199
_cell_angle_gamma 59.720143
_cell_volume 602.088606
_symmetry_space_group_name_H-M "P -1"
_symmetry_group_IT_number 2
_symmetry_cell_setting 'triclinic'
loop_
_space_group_symop_operation_xyz
x,y,z
-x,-y,-z
loop_
_atom_site_type_symbol
_atom_site_label
_atom_site_fract_x
_atom_site_fract_y
_atom_site_fract_z
Si Si1 0.437763 0.171181 0.138529
Si Si2 0.353594 0.068869 0.916338
Si Si3 0.849527 0.155214 0.494494
Si Si4 0.859127 0.506112 0.394178
Si Si5 0.622191 0.319102 0.279624
Si Si6 0.953277 0.196459 0.746470
Si Si7 0.317364 0.044198 0.625690
O O1 0.592690 0.094519 0.070121
O O2 0.269436 0.016949 0.289536
O O3 0.527975 0.127192 0.243092
O O4 0.367949 0.442796 0.950189
O O5 0.327803 0.341510 0.696826
O O6 0.500000 0.000000 0.000000
O O7 0.149566 0.026720 0.042146
O O8 0.938807 0.318735 0.425147
O O9 0.723848 0.330003 0.339207
O O10 0.000000 0.000000 0.500000
O O11 0.815166 0.369811 0.599508
O O12 0.007723 0.677578 0.258299
O O13 0.411714 0.267499 0.399724
O O14 0.734936 0.108973 0.335821
O O15 0.141838 0.127472 0.682054
#
# Coordination Sequence:
#
# PCOD8020946 Si02
#       7
#     2   2   2   2   2   2   2
#     4  11  24  41  65  99 132 174 226 275 333 399
#     4  12  26  43  67 104 140 174 223 276 338 406
#     4  11  25  45  65  96 133 178 228 274 338 397
#     4  11  25  44  68  97 136 179 224 280 330 399
#     4  10  23  41  68  97 134 177 221 282 333 394
#     4  11  25  43  70 101 132 180 226 274 337 401
#     4  10  22  43  66 100 134 173 226 274 338 401
#
# _framework density 23.252392
#
# number of rings (size 3 to 8) (size 9 to 14) (size 15 to 20)
#    0.000    1.143    1.429    3.429    4.000    4.000 
#    0.000    0.000    0.000    0.000    0.000    0.000 
#    0.000    0.000    0.000    0.000    0.000    0.000 
#
# Total GULP energy -173574.894028 kJ/mol
# GULP energy per Si atom -12398.206716 kJ/mol
# Density = 2.319947 g / cm^3
# Si number density = 23.252392 Si / 1000 Ang^3
#
#
#
# Elastic Constant Matrix: (Units=GPa)
#
#
# Indices 1 2 3 4 5 6 
#
# 1 95.0128 53.1391 54.9680 -1.0249 7.8351 16.7025
# 2 53.1391 127.8578 28.5207 -4.5324 -15.5133 11.5506
# 3 54.9680 28.5207 129.4890 -4.2240 13.7726 -3.0000
# 4 -1.0249 -4.5324 -4.2240 30.7807 -5.8380 -1.5263
# 5 7.8351 -15.5133 13.7726 -5.8380 42.6296 3.8714
# 6 16.7025 11.5506 -3.0000 -1.5263 3.8714 41.7664
#
#
#
# Elastic Compliance Matrix: (Units=1/GPa)
#
#
# Indices 1 2 3 4 5 6 
#
# 1 0.019348 -0.006514 -0.006617 -0.002198 -0.003530 -0.006164
# 2 -0.006514 0.011510 -0.000344 0.002504 0.005937 -0.001062
# 3 -0.006617 -0.000344 0.011012 0.000920 -0.002687 0.003815
# 4 -0.002198 0.002504 0.000920 0.034018 0.005588 0.000978
# 5 -0.003530 0.005937 -0.002687 0.005588 0.028157 -0.002829
# 6 -0.006164 -0.001062 0.003815 0.000978 -0.002829 0.027273
#
#
# Mechanical properties :
#
#
# Convention : Reuss Voigt Hill
#
# Bulk Modulus (GPa) = 67.03329 69.51281 68.27305
# Shear Modulus (GPa) = 30.62928 37.41745 34.02336
#
# Velocity S-wave (km/s) = 3.63333 4.01582 3.82936
# Velocity P-wave (km/s) = 6.81855 7.17372 6.99839
#
# Compressibility (1/GPa) = 0.01491796
#
# Stress axis : x y z
#
# Youngs Moduli (GPa) = 51.68623 86.87816 90.81246
#
# Poissons Ratio (x) = 0.56595 0.60093
# Poissons Ratio (y) = 0.33670 0.03126
# Poissons Ratio (z) = 0.34202 0.02991
#
# Static dielectric constant tensor:
#      x y z
#    x 4.347990 0.346190 0.430160 
#    y 0.346190 4.116270 0.261990 
#    z 0.430160 0.261990 4.548750 
# 
# 
# High freq. dielectric constant tensor:
#      x y z
#    x 1.918780 0.016650 0.019060 
#    y 0.016650 1.915260 0.001710 
#    z 0.019060 0.001710 1.925450 
# 
# From -- ./inp_files/498678.got.cif
#   From: 2010.06.25/outbox.cif.g09.slc.cpg/sg2_250_cif.got.tgz:498678.got - 2010.06.27 13:26:56.
