data_PCOD8020957
_publ_section_title
;
Structure prediction by ZEFSAII (Michael W. Deem and Ramdas Pophale) SiO2 
 PCOD8020957
Probable space group: P -1
;
_chemical_formula_sum "Si O2"
_cell_formula_units_Z 16
_cell_length_a 11.227985
_cell_length_b 22.236009
_cell_length_c 17.261927
_cell_angle_alpha 20.162420
_cell_angle_beta 148.075826
_cell_angle_gamma 150.439951
_cell_volume 719.570088
_symmetry_space_group_name_H-M "P -1"
_symmetry_group_IT_number 2
_symmetry_cell_setting 'triclinic'
loop_
_space_group_symop_operation_xyz
x,y,z
-x,-y,-z
loop_
_atom_site_type_symbol
_atom_site_label
_atom_site_fract_x
_atom_site_fract_y
_atom_site_fract_z
Si Si1 0.556040 0.235187 0.153792
Si Si2 0.367239 0.278746 0.201903
Si Si3 0.518273 0.909529 0.242232
Si Si4 0.752638 0.245352 0.081885
Si Si5 0.295744 0.332970 0.266963
Si Si6 0.764659 0.496350 0.648725
Si Si7 0.151501 0.818672 0.024270
Si Si8 0.229216 0.853587 0.478376
O O1 0.614430 0.255232 0.071366
O O2 0.743136 0.170118 0.385176
O O3 0.281737 0.070832 0.218711
O O4 0.577940 0.439127 0.950682
O O5 0.281217 0.226727 0.305896
O O6 0.553055 0.184413 0.397800
O O7 0.500000 0.500000 0.000000
O O8 0.131896 0.213197 0.094555
O O9 0.540430 0.722015 0.514942
O O10 0.245048 0.849394 0.128037
O O11 0.573041 0.064227 0.153371
O O12 0.706471 0.990129 0.177593
O O13 0.016296 0.247200 0.247633
O O14 0.816264 0.435604 0.835956
O O15 0.500000 0.500000 0.500000
O O16 0.794485 0.355013 0.772279
O O17 0.960044 0.708752 0.478763
#
# Coordination Sequence:
#
# PCOD8020957 Si02
#       8
#     2   2   2   2   2   2   2   2
#     4  11  24  40  65 100 138 169 230 271 336 398
#     4  12  20  43  73  92 135 174 229 281 326 408
#     4  10  23  40  65 100 133 168 226 281 338 384
#     4  11  22  43  63 103 135 176 232 281 329 406
#     4  12  22  40  69 104 131 179 231 284 330 396
#     4  11  23  43  70  97 135 179 222 278 346 403
#     4  10  22  43  66 102 131 173 225 277 342 400
#     4  11  24  44  66 103 132 180 222 275 342 405
#
# _framework density 22.235499999999998
#
# number of rings (size 3 to 8) (size 9 to 14) (size 15 to 20)
#    0.000    1.000    6.250    1.500    3.500    0.000 
#   11.250    1.250    2.750    0.000    0.000    0.000 
#    0.000    0.000    0.000    0.000    0.000    0.000 
#
# Total GULP energy -198359.583550 kJ/mol
# GULP energy per Si atom -12397.473972 kJ/mol
# Density = 2.218489 g / cm^3
# Si number density = 22.235500 Si / 1000 Ang^3
#
#
#
# Elastic Constant Matrix: (Units=GPa)
#
#
# Indices 1 2 3 4 5 6 
#
# 1 87.9238 45.5133 27.8541 5.7026 0.3104 -10.1224
# 2 45.5133 161.1660 56.2561 -1.2597 -3.6220 11.0886
# 3 27.8541 56.2561 78.2507 3.0417 -10.0538 0.6785
# 4 5.7026 -1.2597 3.0417 37.8208 4.5922 -0.6509
# 5 0.3104 -3.6220 -10.0538 4.5922 28.0743 7.2321
# 6 -10.1224 11.0886 0.6785 -0.6509 7.2321 34.3296
#
#
#
# Elastic Compliance Matrix: (Units=1/GPa)
#
#
# Indices 1 2 3 4 5 6 
#
# 1 0.015127 -0.003705 -0.003112 -0.001666 -0.003122 0.006345
# 2 -0.003705 0.009452 -0.005470 0.001227 0.000143 -0.004044
# 3 -0.003112 -0.005470 0.018759 -0.002043 0.006627 -0.000956
# 4 -0.001666 0.001227 -0.002043 0.027549 -0.005263 0.000784
# 5 -0.003122 0.000143 0.006627 -0.005263 0.041466 -0.009933
# 6 0.006345 -0.004044 -0.000956 0.000784 -0.009933 0.034433
#
#
# Mechanical properties :
#
#
# Convention : Reuss Voigt Hill
#
# Bulk Modulus (GPa) = 53.29864 65.17638 59.23751
# Shear Modulus (GPa) = 28.15076 33.22605 30.68841
#
# Velocity S-wave (km/s) = 3.56199 3.86978 3.71907
# Velocity P-wave (km/s) = 6.39837 7.02442 6.71869
#
# Compressibility (1/GPa) = 0.01876220
#
# Stress axis : x y z
#
# Youngs Moduli (GPa) = 66.10737 105.80175 53.30724
#
# Poissons Ratio (x) = 0.39202 0.16590
# Poissons Ratio (y) = 0.24494 0.29161
# Poissons Ratio (z) = 0.20574 0.57878
#
# Static dielectric constant tensor:
#      x y z
#    x 4.051460 -0.253680 -0.114340 
#    y -0.253680 4.292410 -0.234900 
#    z -0.114340 -0.234900 3.993170 
# 
# 
# High freq. dielectric constant tensor:
#      x y z
#    x 1.868080 -0.008220 -0.008100 
#    y -0.008220 1.881860 -0.017800 
#    z -0.008100 -0.017800 1.866740 
# 
# From -- ./inp_files/571035.got.cif
#   From: 2010.06.25/outbox.cif.g09.slc.cpg/sg2_286_cif.got.tgz:571035.got - 2010.06.27 13:26:56.
