data_PCOD8020595
_publ_section_title
;
Structure prediction by ZEFSAII (Michael W. Deem and Ramdas Pophale) SiO2 
 PCOD8020595
Probable space group: P -1
;
_chemical_formula_sum "Si O2"
_cell_formula_units_Z 12
_cell_length_a 7.888004
_cell_length_b 5.334118
_cell_length_c 16.587144
_cell_angle_alpha 94.656117
_cell_angle_beta 137.173733
_cell_angle_gamma 94.000396
_cell_volume 464.169669
_symmetry_space_group_name_H-M "P -1"
_symmetry_group_IT_number 2
_symmetry_cell_setting 'triclinic'
loop_
_space_group_symop_operation_xyz
x,y,z
-x,-y,-z
loop_
_atom_site_type_symbol
_atom_site_label
_atom_site_fract_x
_atom_site_fract_y
_atom_site_fract_z
Si Si1 0.768060 0.907698 0.358077
Si Si2 0.537177 0.068986 0.136525
Si Si3 0.989336 0.297494 0.202937
Si Si4 0.400087 0.027444 0.347235
Si Si5 0.846591 0.309373 0.603349
Si Si6 0.787955 0.498038 0.991206
O O1 0.694816 0.123232 0.277452
O O2 0.868099 0.698129 0.331144
O O3 0.517682 0.825231 0.326620
O O4 0.000000 0.000000 0.500000
O O5 0.402692 0.773186 0.086308
O O6 0.345168 0.262517 0.064147
O O7 0.271406 0.896623 0.871747
O O8 0.190362 0.146795 0.226783
O O9 0.124369 0.417993 0.335812
O O10 0.924401 0.518607 0.127196
O O11 0.634535 0.262664 0.457842
O O12 0.249861 0.909542 0.370284
O O13 0.000000 0.500000 0.000000
#
# Coordination Sequence:
#
# PCOD8020595 Si02
#       6
#     2   2   2   2   2   2
#     4  10  22  45  73 105 147 194 241 304 370 444
#     4  12  26  48  72 110 148 194 251 310 373 447
#     4  12  25  44  74 104 149 198 247 310 373 444
#     4  10  22  42  70 104 146 192 247 298 369 443
#     4  10  22  43  68 106 147 192 244 304 368 436
#     4  12  29  48  75 108 147 197 256 310 376 448
#
# _framework density 25.852615
#
# number of rings (size 3 to 8) (size 9 to 14) (size 15 to 20)
#    0.000    1.000    1.667    4.000    4.667    0.000 
#    3.000    4.167    0.000    0.000    0.000    0.000 
#    0.000    0.000    0.000    0.000    0.000    0.000 
#
# Total GULP energy -148664.585447 kJ/mol
# GULP energy per Si atom -12388.715454 kJ/mol
# Density = 2.579377 g / cm^3
# Si number density = 25.852615 Si / 1000 Ang^3
#
#
#
# Elastic Constant Matrix: (Units=GPa)
#
#
# Indices 1 2 3 4 5 6 
#
# 1 131.2138 13.6106 27.9451 -3.1851 15.1129 -45.5466
# 2 13.6106 64.5417 11.6944 -12.6915 21.4566 -20.8155
# 3 27.9451 11.6944 84.1376 -33.3398 6.8550 -13.1880
# 4 -3.1851 -12.6915 -33.3398 47.3067 -0.5297 11.9128
# 5 15.1129 21.4566 6.8550 -0.5297 40.0490 -10.4168
# 6 -45.5466 -20.8155 -13.1880 11.9128 -10.4168 43.5449
#
#
#
# Elastic Compliance Matrix: (Units=1/GPa)
#
#
# Indices 1 2 3 4 5 6 
#
# 1 0.013650 0.002321 -0.004509 -0.005456 -0.001770 0.015091
# 2 0.002321 0.022205 -0.000141 0.003481 -0.010203 0.009606
# 3 -0.004509 -0.000141 0.018361 0.013430 -0.002071 -0.003392
# 4 -0.005456 0.003481 0.013430 0.033697 -0.004319 -0.010227
# 5 -0.001770 -0.010203 -0.002071 -0.004319 0.031772 0.001426
# 6 0.015091 0.009606 -0.003392 -0.010227 0.001426 0.045454
#
#
# Mechanical properties :
#
#
# Convention : Reuss Voigt Hill
#
# Bulk Modulus (GPa) = 20.17802 42.93259 31.55531
# Shear Modulus (GPa) = 26.83623 41.28965 34.06294
#
# Velocity S-wave (km/s) = 3.22537 4.00073 3.63379
# Velocity P-wave (km/s) = 4.65754 6.16310 5.46244
#
# Compressibility (1/GPa) = 0.04955887
#
# Stress axis : x y z
#
# Youngs Moduli (GPa) = 73.25779 45.03570 54.46346
#
# Poissons Ratio (x) = -0.10452 0.24556
# Poissons Ratio (y) = -0.17002 0.00767
# Poissons Ratio (z) = 0.33029 0.00634
#
# Static dielectric constant tensor:
#      x y z
#    x 5.291300 -0.255370 0.025700 
#    y -0.255370 4.254630 -0.257480 
#    z 0.025700 -0.257480 5.270820 
# 
# 
# High freq. dielectric constant tensor:
#      x y z
#    x 2.051230 -0.018530 0.008090 
#    y -0.018530 2.002010 -0.015270 
#    z 0.008090 -0.015270 2.053020 
# 
# From -- ./inp_files/297335.got.cif
#   From: 2010.06.25/outbox.cif.g09.slc.cpg/sg2_149_cif.got.tgz:297335.got - 2010.06.27 13:26:56.
