data_PCOD8020392
_publ_section_title
;
Structure prediction by ZEFSAII (Michael W. Deem and Ramdas Pophale) SiO2 
 PCOD8020392
Probable space group: P -1
;
_chemical_formula_sum "Si O2"
_cell_formula_units_Z 14
_cell_length_a 9.402783
_cell_length_b 10.422344
_cell_length_c 8.336223
_cell_angle_alpha 46.163677
_cell_angle_beta 93.210001
_cell_angle_gamma 103.948213
_cell_volume 564.673507
_symmetry_space_group_name_H-M "P -1"
_symmetry_group_IT_number 2
_symmetry_cell_setting 'triclinic'
loop_
_space_group_symop_operation_xyz
x,y,z
-x,-y,-z
loop_
_atom_site_type_symbol
_atom_site_label
_atom_site_fract_x
_atom_site_fract_y
_atom_site_fract_z
Si Si1 0.394437 0.395092 0.726865
Si Si2 0.860101 0.417995 0.872346
Si Si3 0.181402 0.415648 0.944960
Si Si4 0.158996 0.983325 0.309242
Si Si5 0.161139 0.252010 0.594130
Si Si6 0.460706 0.056822 0.122040
Si Si7 0.730618 0.035659 0.323588
O O1 0.500000 0.500000 0.500000
O O2 0.324877 0.507099 0.757917
O O3 0.244234 0.249021 0.770663
O O4 0.487660 0.279728 0.929222
O O5 0.811874 0.528592 0.627804
O O6 0.037395 0.467021 0.825695
O O7 0.792170 0.493177 0.958244
O O8 0.797082 0.195529 0.055988
O O9 0.153692 0.193779 0.149861
O O10 0.191315 0.901213 0.555362
O O11 0.011401 0.859655 0.321776
O O12 0.288867 0.958031 0.226533
O O13 0.240650 0.158749 0.547515
O O14 0.553555 0.004403 0.321370
O O15 0.500000 0.000000 0.000000
#
# Coordination Sequence:
#
# PCOD8020392 Si02
#       7
#     2   2   2   2   2   2   2
#     4  11  26  47  68 100 144 184 232 286 348 417
#     4  11  23  41  70 103 135 180 233 284 345 406
#     4  10  22  42  68 101 139 181 230 285 345 411
#     4  11  23  43  70 103 137 179 235 284 346 409
#     4  12  24  44  75 102 136 184 230 291 342 412
#     4  11  25  44  67  99 139 187 229 277 351 415
#     4  12  23  45  71 104 140 179 231 288 344 408
#
# _framework density 24.793087
#
# number of rings (size 3 to 8) (size 9 to 14) (size 15 to 20)
#    0.000    0.857    4.286    3.429    0.000    6.286 
#    2.571    2.143    0.000    0.000    0.000    0.000 
#    0.000    0.000    0.000    0.000    0.000    0.000 
#
# Total GULP energy -173459.783612 kJ/mol
# GULP energy per Si atom -12389.984544 kJ/mol
# Density = 2.473666 g / cm^3
# Si number density = 24.793087 Si / 1000 Ang^3
#
#
#
# Elastic Constant Matrix: (Units=GPa)
#
#
# Indices 1 2 3 4 5 6 
#
# 1 153.4939 33.6737 34.8279 8.8091 0.7842 -17.6727
# 2 33.6737 53.8490 2.3906 3.9986 2.9309 -16.1267
# 3 34.8279 2.3906 87.6494 -14.2237 1.7274 -10.3657
# 4 8.8091 3.9986 -14.2237 30.8780 -2.4625 -1.9478
# 5 0.7842 2.9309 1.7274 -2.4625 31.2786 11.5983
# 6 -17.6727 -16.1267 -10.3657 -1.9478 11.5983 50.2859
#
#
#
# Elastic Compliance Matrix: (Units=1/GPa)
#
#
# Indices 1 2 3 4 5 6 
#
# 1 0.008725 -0.004836 -0.003848 -0.003602 -0.000058 0.000596
# 2 -0.004836 0.024117 0.002159 -0.000677 -0.005144 0.007640
# 3 -0.003848 0.002159 0.014482 0.007563 -0.001401 0.002941
# 4 -0.003602 -0.000677 0.007563 0.037230 0.002301 0.000987
# 5 -0.000058 -0.005144 -0.001401 0.002301 0.036530 -0.010295
# 6 0.000596 0.007640 0.002941 0.000987 -0.010295 0.025565
#
#
# Mechanical properties :
#
#
# Convention : Reuss Voigt Hill
#
# Bulk Modulus (GPa) = 29.17696 48.53073 38.85385
# Shear Modulus (GPa) = 29.21872 37.42853 33.32362
#
# Velocity S-wave (km/s) = 3.43666 3.88962 3.67013
# Velocity P-wave (km/s) = 5.24797 6.30785 5.80216
#
# Compressibility (1/GPa) = 0.03427362
#
# Stress axis : x y z
#
# Youngs Moduli (GPa) = 114.61962 41.46468 69.05165
#
# Poissons Ratio (x) = 0.20052 0.26570
# Poissons Ratio (y) = 0.55428 -0.14906
# Poissons Ratio (z) = 0.44103 -0.08951
#
# Static dielectric constant tensor:
#      x y z
#    x 4.856120 -0.221120 0.318010 
#    y -0.221120 4.207670 -0.026170 
#    z 0.318010 -0.026170 4.597940 
# 
# 
# High freq. dielectric constant tensor:
#      x y z
#    x 2.003810 -0.014440 0.019740 
#    y -0.014440 1.964370 -0.003100 
#    z 0.019740 -0.003100 1.990460 
# 
# From -- ./inp_files/183786.got.cif
#   From: 2010.06.25/outbox.cif.g09.slc.cpg/sg2_92_cif.got.tgz:183786.got - 2010.06.27 13:26:56.
