data_PCOD8020528
_publ_section_title
;
Structure prediction by ZEFSAII (Michael W. Deem and Ramdas Pophale) SiO2 
 PCOD8020528
Probable space group: P -1
;
_chemical_formula_sum "Si O2"
_cell_formula_units_Z 16
_cell_length_a 11.927357
_cell_length_b 13.374992
_cell_length_c 13.820310
_cell_angle_alpha 130.177081
_cell_angle_beta 31.860531
_cell_angle_gamma 109.286747
_cell_volume 748.584181
_symmetry_space_group_name_H-M "P -1"
_symmetry_group_IT_number 2
_symmetry_cell_setting 'triclinic'
loop_
_space_group_symop_operation_xyz
x,y,z
-x,-y,-z
loop_
_atom_site_type_symbol
_atom_site_label
_atom_site_fract_x
_atom_site_fract_y
_atom_site_fract_z
Si Si1 0.919092 0.376422 0.885118
Si Si2 0.741353 0.076726 0.179683
Si Si3 0.919430 0.623089 0.910957
Si Si4 0.513614 0.343113 0.872313
Si Si5 0.750795 0.856070 0.341622
Si Si6 0.432810 0.571157 0.486782
Si Si7 0.972355 0.071302 0.304978
Si Si8 0.086899 0.848907 0.401629
O O1 0.972444 0.500537 0.879813
O O2 0.950890 0.268092 0.704759
O O3 0.125147 0.281420 0.756268
O O4 0.641800 0.459512 0.186407
O O5 0.549292 0.041614 0.352167
O O6 0.607657 0.260172 0.378427
O O7 0.000000 0.000000 0.000000
O O8 0.809547 0.990452 0.972353
O O9 0.178413 0.583061 0.647316
O O10 0.754449 0.623146 0.943212
O O11 0.787851 0.789785 0.164518
O O12 0.719300 0.241733 0.572331
O O13 0.620990 0.238894 0.827481
O O14 0.500000 0.500000 0.000000
O O15 0.881107 0.952543 0.313164
O O16 0.500000 0.500000 0.500000
O O17 0.084068 0.091111 0.337113
O O18 0.000000 0.000000 0.500000
#
# Coordination Sequence:
#
# PCOD8020528 Si02
#       8
#     2   2   2   2   2   2   2   2
#     4  12  22  44  68  97 136 175 232 277 330 408
#     4  12  26  40  63 104 141 169 217 280 343 406
#     4  12  22  39  68 100 132 175 219 279 346 389
#     4  10  22  42  69  92 131 182 224 270 332 393
#     4  12  23  40  70 100 135 178 223 274 352 402
#     4  12  25  41  65 102 138 172 221 281 336 401
#     4  10  23  43  65  94 138 171 222 270 334 397
#     4  10  22  43  69  89 130 188 218 273 329 395
#
# _framework density 21.373681999999999
#
# number of rings (size 3 to 8) (size 9 to 14) (size 15 to 20)
#    0.750    0.000    6.250    1.875    1.750    1.000 
#    0.000    3.750    0.000    0.000    0.000    0.000 
#    0.000    0.000    0.000    0.000    0.000    0.000 
#
# Total GULP energy -198290.659081 kJ/mol
# GULP energy per Si atom -12393.166193 kJ/mol
# Density = 2.132503 g / cm^3
# Si number density = 21.373682 Si / 1000 Ang^3
#
#
#
# Elastic Constant Matrix: (Units=GPa)
#
#
# Indices 1 2 3 4 5 6 
#
# 1 112.4623 10.7646 35.1075 7.2045 7.1347 12.4037
# 2 10.7646 61.6489 30.4260 9.0554 11.3000 7.2258
# 3 35.1075 30.4260 119.5832 -8.2414 11.7305 12.0728
# 4 7.2045 9.0554 -8.2414 40.5555 -0.1050 -4.0547
# 5 7.1347 11.3000 11.7305 -0.1050 43.6718 9.2374
# 6 12.4037 7.2258 12.0728 -4.0547 9.2374 34.1385
#
#
#
# Elastic Compliance Matrix: (Units=1/GPa)
#
#
# Indices 1 2 3 4 5 6 
#
# 1 0.010327 0.000536 -0.003022 -0.002873 -0.000379 -0.003035
# 2 0.000536 0.020498 -0.005194 -0.005983 -0.003490 -0.002463
# 3 -0.003022 -0.005194 0.011025 0.003835 -0.000903 -0.001002
# 4 -0.002873 -0.005983 0.003835 0.027703 0.000166 0.004200
# 5 -0.000379 -0.003490 -0.000903 0.000166 0.025296 -0.005630
# 6 -0.003035 -0.002463 -0.001002 0.004200 -0.005630 0.033293
#
#
# Mechanical properties :
#
#
# Convention : Reuss Voigt Hill
#
# Bulk Modulus (GPa) = 37.75230 49.58783 43.67007
# Shear Modulus (GPa) = 32.82262 38.16623 35.49443
#
# Velocity S-wave (km/s) = 3.92300 4.23030 4.07954
# Velocity P-wave (km/s) = 6.18233 6.86377 6.53194
#
# Compressibility (1/GPa) = 0.02648845
#
# Stress axis : x y z
#
# Youngs Moduli (GPa) = 96.83379 48.78554 90.70126
#
# Poissons Ratio (x) = -0.02613 0.27414
# Poissons Ratio (y) = -0.05187 0.47110
# Poissons Ratio (z) = 0.29268 0.25339
#
# Static dielectric constant tensor:
#      x y z
#    x 4.965610 1.022560 0.376350 
#    y 1.022560 5.194790 0.444010 
#    z 0.376350 0.444010 4.251520 
# 
# 
# High freq. dielectric constant tensor:
#      x y z
#    x 1.844860 -0.000720 0.001150 
#    y -0.000720 1.832360 0.024540 
#    z 0.001150 0.024540 1.838340 
# 
# From -- ./inp_files/522403.got.cif
#   From: 2010.06.25/outbox.cif.g09.slc.cpg/sg2_262_cif.got.tgz:522403.got - 2010.06.27 13:26:56.
