data_PCOD8020525
_publ_section_title
;
Structure prediction by ZEFSAII (Michael W. Deem and Ramdas Pophale) SiO2 
 PCOD8020525
Probable space group: P -1
;
_chemical_formula_sum "Si O2"
_cell_formula_units_Z 14
_cell_length_a 11.397283
_cell_length_b 8.944461
_cell_length_c 12.017848
_cell_angle_alpha 140.083840
_cell_angle_beta 93.635875
_cell_angle_gamma 103.238065
_cell_volume 706.972844
_symmetry_space_group_name_H-M "P -1"
_symmetry_group_IT_number 2
_symmetry_cell_setting 'triclinic'
loop_
_space_group_symop_operation_xyz
x,y,z
-x,-y,-z
loop_
_atom_site_type_symbol
_atom_site_label
_atom_site_fract_x
_atom_site_fract_y
_atom_site_fract_z
Si Si1 0.953774 0.814155 0.109407
Si Si2 0.587922 0.071378 0.217059
Si Si3 0.818489 0.246783 0.830079
Si Si4 0.167486 0.889810 0.012193
Si Si5 0.459917 0.100753 0.447466
Si Si6 0.873942 0.250518 0.317388
Si Si7 0.564565 0.706780 0.813656
O O1 0.055960 0.819787 0.215950
O O2 0.884251 0.000558 0.228221
O O3 0.843485 0.517579 0.927306
O O4 0.036408 0.914285 0.056363
O O5 0.509360 0.998606 0.285457
O O6 0.740555 0.243512 0.354153
O O7 0.539355 0.240292 0.234295
O O8 0.569445 0.812840 0.000383
O O9 0.796313 0.260139 0.970752
O O10 0.696467 0.017823 0.634655
O O11 0.291456 0.165263 0.159287
O O12 0.137095 0.734547 0.807573
O O13 0.520060 0.405498 0.635337
O O14 0.500000 0.000000 0.500000
O O15 0.000000 0.500000 0.500000
#
# Coordination Sequence:
#
# PCOD8020525 Si02
#       7
#     2   2   2   2   2   2   2
#     4   9  20  41  62  86 123 163 203 248 309 374
#     4  10  23  43  61  95 128 160 209 267 315 369
#     4   9  21  40  65  87 120 169 209 246 316 373
#     4   9  19  40  66  85 116 167 205 256 303 369
#     4  12  26  40  67  96 125 166 216 260 314 379
#     4  11  24  35  61  98 123 157 207 261 308 368
#     4  10  22  42  69  92 120 169 215 260 317 366
#
# _framework density 19.802741000000001
#
# number of rings (size 3 to 8) (size 9 to 14) (size 15 to 20)
#    0.857    1.143    1.429    0.857    8.000    1.714 
#    0.000    0.714    0.000    0.000    0.000    0.000 
#    0.000    0.000    0.000    0.000    0.000    0.000 
#
# Total GULP energy -173476.534348 kJ/mol
# GULP energy per Si atom -12391.181025 kJ/mol
# Density = 1.975767 g / cm^3
# Si number density = 19.802741 Si / 1000 Ang^3
#
#
#
# Elastic Constant Matrix: (Units=GPa)
#
#
# Indices 1 2 3 4 5 6 
#
# 1 80.2350 45.0095 53.9384 7.1116 19.7744 10.2516
# 2 45.0095 100.0475 59.6318 15.1347 2.7768 -4.7972
# 3 53.9384 59.6318 105.7802 18.1282 22.4777 4.4516
# 4 7.1116 15.1347 18.1282 32.0655 3.1914 9.0156
# 5 19.7744 2.7768 22.4777 3.1914 36.0357 0.9514
# 6 10.2516 -4.7972 4.4516 9.0156 0.9514 25.1759
#
#
#
# Elastic Compliance Matrix: (Units=1/GPa)
#
#
# Indices 1 2 3 4 5 6 
#
# 1 0.025092 -0.008817 -0.006467 0.006788 -0.009318 -0.012833
# 2 -0.008817 0.019981 -0.007846 -0.006969 0.008520 0.010959
# 3 -0.006467 -0.007846 0.019700 -0.005181 -0.007671 -0.000200
# 4 0.006788 -0.006969 -0.005181 0.041221 -0.003137 -0.017819
# 5 -0.009318 0.008520 -0.007671 -0.003137 0.037098 0.006495
# 6 -0.012833 0.010959 -0.000200 -0.017819 0.006495 0.053205
#
#
# Mechanical properties :
#
#
# Convention : Reuss Voigt Hill
#
# Bulk Modulus (GPa) = 54.01511 67.02469 60.51990
# Shear Modulus (GPa) = 20.10226 27.15429 23.62828
#
# Velocity S-wave (km/s) = 3.18956 3.70704 3.45799
# Velocity P-wave (km/s) = 6.39532 7.22790 6.82432
#
# Compressibility (1/GPa) = 0.01851334
#
# Stress axis : x y z
#
# Youngs Moduli (GPa) = 39.85408 50.04659 50.76057
#
# Poissons Ratio (x) = 0.44127 0.32828
# Poissons Ratio (y) = 0.35140 0.39825
# Poissons Ratio (z) = 0.25775 0.39264
#
# Static dielectric constant tensor:
#      x y z
#    x 3.818600 0.083360 0.248090 
#    y 0.083360 3.546040 -0.054910 
#    z 0.248090 -0.054910 3.483330 
# 
# 
# High freq. dielectric constant tensor:
#      x y z
#    x 1.780800 0.000540 0.026380 
#    y 0.000540 1.767490 0.000330 
#    z 0.026380 0.000330 1.752020 
# 
# From -- ./inp_files/418660.got.cif
#   From: 2010.06.25/outbox.cif.g09.slc.cpg/sg2_210_cif.got.tgz:418660.got - 2010.06.27 13:26:56.
