data_PCOD8020008
_publ_section_title
;
Structure prediction by ZEFSAII (Michael W. Deem and Ramdas Pophale) SiO2 
 PCOD8020008
Probable space group: P -1
;
_chemical_formula_sum "Si O2"
_cell_formula_units_Z 14
_cell_length_a 19.122888
_cell_length_b 8.978397
_cell_length_c 11.213658
_cell_angle_alpha 109.075891
_cell_angle_beta 144.784035
_cell_angle_gamma 44.515685
_cell_volume 602.888103
_symmetry_space_group_name_H-M "P -1"
_symmetry_group_IT_number 2
_symmetry_cell_setting 'triclinic'
loop_
_space_group_symop_operation_xyz
x,y,z
-x,-y,-z
loop_
_atom_site_type_symbol
_atom_site_label
_atom_site_fract_x
_atom_site_fract_y
_atom_site_fract_z
Si Si1 0.138567 0.506013 0.663526
Si Si2 0.400139 0.305560 0.193525
Si Si3 0.367756 0.183783 0.480706
Si Si4 0.284641 0.787267 0.414663
Si Si5 0.887656 0.354751 0.908499
Si Si6 0.385148 0.377723 0.769354
Si Si7 0.225218 0.888922 0.629509
O O1 0.239956 0.404064 0.645361
O O2 0.000000 0.500000 0.500000
O O3 0.336882 0.306909 0.977281
O O4 0.000288 0.811336 0.560935
O O5 0.474745 0.409430 0.324385
O O6 0.196801 0.492048 0.042231
O O7 0.614532 0.987464 0.454409
O O8 0.136942 0.483573 0.186399
O O9 0.451068 0.238423 0.695356
O O10 0.500000 0.000000 0.500000
O O11 0.277591 0.607379 0.348267
O O12 0.220374 0.915650 0.488440
O O13 0.122960 0.038106 0.159395
O O14 0.252233 0.679066 0.648111
O O15 0.596244 0.189044 0.086864
#
# Coordination Sequence:
#
# PCOD8020008 Si02
#       7
#     2   2   2   2   2   2   2
#     4  12  26  42  67 102 137 177 226 275 335 406
#     4  11  23  40  64  96 134 171 220 270 333 393
#     4  10  23  42  66  96 134 175 218 272 335 401
#     4  11  21  40  69  96 127 175 219 273 333 391
#     4  10  22  42  64  94 133 169 223 272 325 405
#     4  11  24  45  69  98 137 177 221 285 336 393
#     4  11  23  43  70  99 134 173 228 278 338 400
#
# _framework density 23.221556
#
# number of rings (size 3 to 8) (size 9 to 14) (size 15 to 20)
#    0.000    1.143    4.286    1.714    2.000    1.714 
#    0.000    5.714    0.000    0.000    0.000    0.000 
#    0.000    0.000    0.000    0.000    0.000    0.000 
#
# Total GULP energy -173459.604654 kJ/mol
# GULP energy per Si atom -12389.971761 kJ/mol
# Density = 2.316870 g / cm^3
# Si number density = 23.221556 Si / 1000 Ang^3
#
#
#
# Elastic Constant Matrix: (Units=GPa)
#
#
# Indices 1 2 3 4 5 6 
#
# 1 89.4569 35.1444 57.1663 3.4282 -4.1376 1.6440
# 2 35.1444 87.0645 19.7364 8.8325 -11.5675 -6.2620
# 3 57.1663 19.7364 79.2365 11.4649 -13.8415 12.3295
# 4 3.4282 8.8325 11.4649 42.9173 9.3788 -7.3635
# 5 -4.1376 -11.5675 -13.8415 9.3788 39.0758 6.1681
# 6 1.6440 -6.2620 12.3295 -7.3635 6.1681 34.4727
#
#
#
# Elastic Compliance Matrix: (Units=1/GPa)
#
#
# Indices 1 2 3 4 5 6 
#
# 1 0.027944 -0.007850 -0.023091 0.009689 -0.011386 0.009607
# 2 -0.007850 0.015098 0.003757 -0.004907 0.006208 -0.000386
# 3 -0.023091 0.003757 0.036608 -0.015776 0.018254 -0.017945
# 4 0.009689 -0.004907 -0.015776 0.033817 -0.016412 0.014449
# 5 -0.011386 0.006208 0.018254 -0.016412 0.039051 -0.015351
# 6 0.009607 -0.000386 -0.017945 0.014449 -0.015351 0.040732
#
#
# Mechanical properties :
#
#
# Convention : Reuss Voigt Hill
#
# Bulk Modulus (GPa) = 39.55449 53.31691 46.43570
# Shear Modulus (GPa) = 19.52788 32.87388 26.20088
#
# Velocity S-wave (km/s) = 2.90304 3.76661 3.36266
# Velocity P-wave (km/s) = 5.32046 6.47506 5.92595
#
# Compressibility (1/GPa) = 0.02528158
#
# Stress axis : x y z
#
# Youngs Moduli (GPa) = 35.78549 66.23608 27.31668
#
# Poissons Ratio (x) = 0.51996 0.63078
# Poissons Ratio (y) = 0.28092 -0.10264
# Poissons Ratio (z) = 0.82633 -0.24888
#
# Static dielectric constant tensor:
#      x y z
#    x 4.190420 0.215300 -0.422050 
#    y 0.215300 4.266680 -0.019470 
#    z -0.422050 -0.019470 4.101440 
# 
# 
# High freq. dielectric constant tensor:
#      x y z
#    x 1.910730 0.007920 -0.028520 
#    y 0.007920 1.925400 0.001400 
#    z -0.028520 0.001400 1.912320 
# 
# From -- ./inp_files/28215.got.cif
#   From: 2010.06.25/outbox.cif.g09.slc.cpg/sg2_15_cif.got.tgz:28215.got - 2010.06.27 13:26:56.
