data_PCOD8020738
_publ_section_title
;
Structure prediction by ZEFSAII (Michael W. Deem and Ramdas Pophale) SiO2 
 PCOD8020738
Probable space group: P -1
;
_chemical_formula_sum "Si O2"
_cell_formula_units_Z 10
_cell_length_a 9.208036
_cell_length_b 15.435065
_cell_length_c 8.647690
_cell_angle_alpha 37.374321
_cell_angle_beta 146.750098
_cell_angle_gamma 139.894488
_cell_volume 390.056149
_symmetry_space_group_name_H-M "P -1"
_symmetry_group_IT_number 2
_symmetry_cell_setting 'triclinic'
loop_
_space_group_symop_operation_xyz
x,y,z
-x,-y,-z
loop_
_atom_site_type_symbol
_atom_site_label
_atom_site_fract_x
_atom_site_fract_y
_atom_site_fract_z
Si Si1 0.879881 0.724418 0.293092
Si Si2 0.901019 0.638675 0.766055
Si Si3 0.585474 0.432452 0.323902
Si Si4 0.471506 0.829717 0.561744
Si Si5 0.247912 0.942570 0.742177
O O1 0.820313 0.721046 0.427656
O O2 0.867151 0.554452 0.465962
O O3 0.183543 0.837565 0.367534
O O4 0.641326 0.772770 0.924086
O O5 0.636066 0.581847 0.717897
O O6 0.147863 0.761674 0.901678
O O7 0.000000 0.500000 0.000000
O O8 0.611281 0.272485 0.522907
O O9 0.500000 0.500000 0.000000
O O10 0.653707 0.992237 0.434295
O O11 0.000000 0.000000 0.500000
O O12 0.500000 0.000000 0.000000
#
# Coordination Sequence:
#
# PCOD8020738 Si02
#       5
#     2   2   2   2   2
#     4  11  25  44  72 113 151 192 243 315 372 434
#     4  12  27  47  77 115 153 194 250 315 377 436
#     4  10  22  42  73 105 148 193 245 297 365 444
#     4  11  24  47  74 106 149 200 249 297 373 452
#     4  12  28  49  78 110 150 199 249 309 369 451
#
# _framework density 25.637333999999999
#
# number of rings (size 3 to 8) (size 9 to 14) (size 15 to 20)
#    0.000    0.800    2.000    4.800    5.600    4.800 
#    0.000    0.000    0.000    0.000    0.000    0.000 
#    0.000    0.000    0.000    0.000    0.000    0.000 
#
# Total GULP energy -124009.594942 kJ/mol
# GULP energy per Si atom -12400.959494 kJ/mol
# Density = 2.557898 g / cm^3
# Si number density = 25.637334 Si / 1000 Ang^3
#
#
#
# Elastic Constant Matrix: (Units=GPa)
#
#
# Indices 1 2 3 4 5 6 
#
# 1 166.9955 25.6356 38.6869 9.3632 -11.3602 28.4244
# 2 25.6356 127.6792 36.8762 -0.9277 7.2849 7.6219
# 3 38.6869 36.8762 89.3836 31.9774 -4.0512 3.9953
# 4 9.3632 -0.9277 31.9774 40.4117 -0.1282 1.4619
# 5 -11.3602 7.2849 -4.0512 -0.1282 37.7247 1.2261
# 6 28.4244 7.6219 3.9953 1.4619 1.2261 52.5874
#
#
#
# Elastic Compliance Matrix: (Units=1/GPa)
#
#
# Indices 1 2 3 4 5 6 
#
# 1 0.007533 -0.000514 -0.003072 0.000819 0.002165 -0.003837
# 2 -0.000514 0.009789 -0.005621 0.004811 -0.002607 -0.000787
# 3 -0.003072 -0.005621 0.020486 -0.015667 0.002265 0.001301
# 4 0.000819 0.004811 -0.015667 0.037090 -0.002209 -0.000929
# 5 0.002165 -0.002607 0.002265 -0.002209 0.027949 -0.001555
# 6 -0.003837 -0.000787 0.001301 -0.000929 -0.001555 0.021167
#
#
# Mechanical properties :
#
#
# Convention : Reuss Voigt Hill
#
# Bulk Modulus (GPa) = 51.55856 65.16176 58.36016
# Shear Modulus (GPa) = 33.58118 45.00206 39.29162
#
# Velocity S-wave (km/s) = 3.62312 4.19421 3.91908
# Velocity P-wave (km/s) = 6.13653 6.99480 6.57967
#
# Compressibility (1/GPa) = 0.01939542
#
# Stress axis : x y z
#
# Youngs Moduli (GPa) = 132.74500 102.15233 48.81457
#
# Poissons Ratio (x) = 0.05249 0.14996
# Poissons Ratio (y) = 0.06821 0.27437
# Poissons Ratio (z) = 0.40779 0.57416
#
# Static dielectric constant tensor:
#      x y z
#    x 4.952520 -0.117140 -0.463530 
#    y -0.117140 5.752430 -0.089290 
#    z -0.463530 -0.089290 4.472400 
# 
# 
# High freq. dielectric constant tensor:
#      x y z
#    x 2.041760 0.007170 -0.021550 
#    y 0.007170 2.045250 0.008140 
#    z -0.021550 0.008140 2.006170 
# 
# From -- ./inp_files/20379.got.cif
#   From: 2010.06.25/outbox.cif.g09.slc.cpg/sg2_11_cif.got.tgz:20379.got - 2010.06.27 13:26:56.
