data_PCOD8020296
_publ_section_title
;
Structure prediction by ZEFSAII (Michael W. Deem and Ramdas Pophale) SiO2 
 PCOD8020296
Probable space group: P -1
;
_chemical_formula_sum "Si O2"
_cell_formula_units_Z 16
_cell_length_a 20.039468
_cell_length_b 11.297798
_cell_length_c 11.494657
_cell_angle_alpha 142.875580
_cell_angle_beta 143.333259
_cell_angle_gamma 26.297870
_cell_volume 657.723984
_symmetry_space_group_name_H-M "P -1"
_symmetry_group_IT_number 2
_symmetry_cell_setting 'triclinic'
loop_
_space_group_symop_operation_xyz
x,y,z
-x,-y,-z
loop_
_atom_site_type_symbol
_atom_site_label
_atom_site_fract_x
_atom_site_fract_y
_atom_site_fract_z
Si Si1 0.909048 0.412248 0.284379
Si Si2 0.038159 0.256778 0.105767
Si Si3 0.525412 0.165391 0.961989
Si Si4 0.821722 0.889614 0.278190
Si Si5 0.049937 0.902634 0.689337
Si Si6 0.414349 0.409956 0.766945
Si Si7 0.380670 0.990061 0.690298
Si Si8 0.389830 0.747354 0.286517
O O1 0.940431 0.287033 0.101177
O O2 0.964650 0.185876 0.276724
O O3 0.726854 0.699689 0.272654
O O4 0.000000 0.500000 0.500000
O O5 0.972859 0.556788 0.228421
O O6 0.222304 0.025622 0.217732
O O7 0.013201 0.173253 0.883785
O O8 0.410443 0.484990 0.101199
O O9 0.709280 0.015990 0.106546
O O10 0.475841 0.177546 0.768022
O O11 0.531594 0.952144 0.881313
O O12 0.696128 0.007995 0.301125
O O13 0.905876 0.998636 0.483430
O O14 0.223378 0.659207 0.685644
O O15 0.478384 0.294589 0.635632
O O16 0.500000 0.500000 0.000000
O O17 0.407997 0.779834 0.473021
#
# Coordination Sequence:
#
# PCOD8020296 Si02
#       8
#     2   2   2   2   2   2   2   2
#     4  11  18  35  60 100 126 151 212 267 305 371
#     4  11  21  37  66  91 129 160 211 259 315 374
#     4  11  24  43  63  93 134 166 203 265 319 364
#     4  11  26  41  61 101 135 156 206 263 323 387
#     4  12  20  40  66  89 126 172 206 262 318 358
#     4  10  22  42  67  93 120 166 226 259 294 373
#     4  11  21  39  64  95 131 163 204 257 321 379
#     4  11  22  42  69  92 121 169 225 253 299 380
#
# _framework density 24.326314
#
# number of rings (size 3 to 8) (size 9 to 14) (size 15 to 20)
#    0.000    1.000    7.500    0.750    0.000    5.000 
#    0.000    3.125    0.000    0.000    0.000    0.000 
#    0.000    0.000    0.000    0.000    0.000    0.000 
#
# Total GULP energy -198215.671654 kJ/mol
# GULP energy per Si atom -12388.479478 kJ/mol
# Density = 2.427095 g / cm^3
# Si number density = 24.326314 Si / 1000 Ang^3
#
#
#
# Elastic Constant Matrix: (Units=GPa)
#
#
# Indices 1 2 3 4 5 6 
#
# 1 63.1932 1.6679 9.4464 4.9827 10.5140 -22.6423
# 2 1.6679 64.6691 23.3393 0.8974 -5.2060 -12.3930
# 3 9.4464 23.3393 102.4218 -4.6381 2.8543 -17.4722
# 4 4.9827 0.8974 -4.6381 39.3691 -6.8383 2.6846
# 5 10.5140 -5.2060 2.8543 -6.8383 22.5165 -3.4283
# 6 -22.6423 -12.3930 -17.4722 2.6846 -3.4283 27.1008
#
#
#
# Elastic Compliance Matrix: (Units=1/GPa)
#
#
# Indices 1 2 3 4 5 6 
#
# 1 0.026043 0.002674 0.000883 -0.006581 -0.010164 0.022917
# 2 0.002674 0.018704 -0.003062 -0.000971 0.004614 0.009493
# 3 0.000883 -0.003062 0.011566 0.000631 -0.001397 0.006555
# 4 -0.006581 -0.000971 0.000631 0.028615 0.010384 -0.007057
# 5 -0.010164 0.004614 -0.001397 0.010384 0.053317 -0.001566
# 6 0.022917 0.009493 0.006555 -0.007057 -0.001566 0.065115
#
#
# Mechanical properties :
#
#
# Convention : Reuss Voigt Hill
#
# Bulk Modulus (GPa) = 17.45075 33.24348 25.34711
# Shear Modulus (GPa) = 22.57657 30.85265 26.71461
#
# Velocity S-wave (km/s) = 3.04973 3.56516 3.31747
# Velocity P-wave (km/s) = 4.42610 5.53556 5.01163
#
# Compressibility (1/GPa) = 0.05730413
#
# Stress axis : x y z
#
# Youngs Moduli (GPa) = 38.39782 53.46559 86.46394
#
# Poissons Ratio (x) = -0.14299 -0.07637
# Poissons Ratio (y) = -0.10269 0.26474
# Poissons Ratio (z) = -0.03392 0.16370
#
# Static dielectric constant tensor:
#      x y z
#    x 4.852170 -0.218380 0.127530 
#    y -0.218380 4.142210 -0.171860 
#    z 0.127530 -0.171860 4.798890 
# 
# 
# High freq. dielectric constant tensor:
#      x y z
#    x 1.956260 -0.014520 0.008120 
#    y -0.014520 1.956070 -0.009210 
#    z 0.008120 -0.009210 1.967380 
# 
# From -- ./inp_files/543071.got.cif
#   From: 2010.06.25/outbox.cif.g09.slc.cpg/sg2_272_cif.got.tgz:543071.got - 2010.06.27 13:26:56.
