data_PCOD8020278
_publ_section_title
;
Structure prediction by ZEFSAII (Michael W. Deem and Ramdas Pophale) SiO2 
 PCOD8020278
Probable space group: P -1
;
_chemical_formula_sum "Si O2"
_cell_formula_units_Z 14
_cell_length_a 9.250680
_cell_length_b 6.633405
_cell_length_c 14.027763
_cell_angle_alpha 65.144078
_cell_angle_beta 113.611657
_cell_angle_gamma 122.585440
_cell_volume 640.806368
_symmetry_space_group_name_H-M "P -1"
_symmetry_group_IT_number 2
_symmetry_cell_setting 'triclinic'
loop_
_space_group_symop_operation_xyz
x,y,z
-x,-y,-z
loop_
_atom_site_type_symbol
_atom_site_label
_atom_site_fract_x
_atom_site_fract_y
_atom_site_fract_z
Si Si1 0.142657 0.468342 0.264926
Si Si2 0.042834 0.776345 0.040163
Si Si3 0.511482 0.406479 0.788409
Si Si4 0.768265 0.096384 0.249820
Si Si5 0.620259 0.358095 0.539997
Si Si6 0.284800 0.703619 0.989166
Si Si7 0.604864 0.205375 0.355615
O O1 0.081359 0.671385 0.170578
O O2 0.312477 0.492044 0.248143
O O3 0.195136 0.505477 0.382660
O O4 0.976556 0.194491 0.262931
O O5 0.869747 0.573190 0.982984
O O6 0.213140 0.870439 0.997203
O O7 0.000000 0.000000 0.000000
O O8 0.481020 0.645685 0.756096
O O9 0.342782 0.201621 0.726748
O O10 0.538002 0.284828 0.918093
O O11 0.678744 0.208886 0.127541
O O12 0.759951 0.201767 0.331815
O O13 0.500000 0.500000 0.500000
O O14 0.667985 0.352341 0.442851
O O15 0.531403 0.078315 0.610031
#
# Coordination Sequence:
#
# PCOD8020278 Si02
#       7
#     2   2   2   2   2   2   2
#     4  10  22  42  67  90 131 171 207 267 329 365
#     4   9  19  36  60  97 129 167 218 256 308 393
#     4  11  22  43  65  92 134 175 210 265 314 385
#     4  11  23  42  60 101 132 164 218 263 317 390
#     4  11  22  46  69  92 125 170 217 275 323 380
#     4   9  21  36  59  93 135 172 207 258 321 371
#     4  11  24  40  69  95 123 167 226 261 324 388
#
# _framework density 21.847470999999999
#
# number of rings (size 3 to 8) (size 9 to 14) (size 15 to 20)
#    0.000    1.714    2.857    1.286    2.000    3.429 
#    2.571    2.857    0.000    0.000    0.000    0.000 
#    0.000    0.000    0.000    0.000    0.000    0.000 
#
# Total GULP energy -173507.179198 kJ/mol
# GULP energy per Si atom -12393.369943 kJ/mol
# Density = 2.179775 g / cm^3
# Si number density = 21.847471 Si / 1000 Ang^3
#
#
#
# Elastic Constant Matrix: (Units=GPa)
#
#
# Indices 1 2 3 4 5 6 
#
# 1 68.0179 56.9258 25.4047 -5.3028 0.2369 10.9589
# 2 56.9258 108.6055 34.3941 -2.3384 13.0072 0.7392
# 3 25.4047 34.3941 90.0283 17.4386 -0.5474 -2.1457
# 4 -5.3028 -2.3384 17.4386 34.6217 0.2380 8.4444
# 5 0.2369 13.0072 -0.5474 0.2380 36.6310 -0.2754
# 6 10.9589 0.7392 -2.1457 8.4444 -0.2754 40.2917
#
#
#
# Elastic Compliance Matrix: (Units=1/GPa)
#
#
# Indices 1 2 3 4 5 6 
#
# 1 0.031893 -0.015468 -0.005034 0.008899 0.005074 -0.010489
# 2 -0.015468 0.018923 -0.002695 -0.000615 -0.006627 0.003800
# 3 -0.005034 -0.002695 0.015579 -0.009864 0.001319 0.004325
# 4 0.008899 -0.000615 -0.009864 0.037826 -0.000314 -0.010864
# 5 0.005074 -0.006627 0.001319 -0.000314 0.029634 -0.000920
# 6 -0.010489 0.003800 0.004325 -0.010864 -0.000920 0.030103
#
#
# Mechanical properties :
#
#
# Convention : Reuss Voigt Hill
#
# Bulk Modulus (GPa) = 49.99224 55.56678 52.77951
# Shear Modulus (GPa) = 23.03935 32.30402 27.67169
#
# Velocity S-wave (km/s) = 3.25091 3.84945 3.56277
# Velocity P-wave (km/s) = 6.08468 6.72658 6.41366
#
# Compressibility (1/GPa) = 0.02000311
#
# Stress axis : x y z
#
# Youngs Moduli (GPa) = 31.35442 52.84523 64.18694
#
# Poissons Ratio (x) = 0.81739 0.32309
# Poissons Ratio (y) = 0.48498 0.17300
# Poissons Ratio (z) = 0.15783 0.14243
#
# Static dielectric constant tensor:
#      x y z
#    x 3.808430 -0.015740 -0.136170 
#    y -0.015740 3.981160 0.293330 
#    z -0.136170 0.293330 4.648780 
# 
# 
# High freq. dielectric constant tensor:
#      x y z
#    x 1.836600 0.005690 -0.005370 
#    y 0.005690 1.853460 0.001680 
#    z -0.005370 0.001680 1.869030 
# 
# From -- ./inp_files/37318.got.cif
#   From: 2010.06.25/outbox.cif.g09.slc.cpg/sg2_19_cif.got.tgz:37318.got - 2010.06.27 13:26:56.
