data_PCOD8020629
_publ_section_title
;
Structure prediction by ZEFSAII (Michael W. Deem and Ramdas Pophale) SiO2 
 PCOD8020629
Probable space group: P -1
;
_chemical_formula_sum "Si O2"
_cell_formula_units_Z 14
_cell_length_a 9.310582
_cell_length_b 8.364142
_cell_length_c 17.236951
_cell_angle_alpha 114.480056
_cell_angle_beta 148.886979
_cell_angle_gamma 63.912739
_cell_volume 620.876145
_symmetry_space_group_name_H-M "P -1"
_symmetry_group_IT_number 2
_symmetry_cell_setting 'triclinic'
loop_
_space_group_symop_operation_xyz
x,y,z
-x,-y,-z
loop_
_atom_site_type_symbol
_atom_site_label
_atom_site_fract_x
_atom_site_fract_y
_atom_site_fract_z
Si Si1 0.565657 0.348939 0.864081
Si Si2 0.856308 0.637766 0.787397
Si Si3 0.167422 0.021515 0.845003
Si Si4 0.741906 0.383542 0.444639
Si Si5 0.924848 0.695170 0.271932
Si Si6 0.888364 0.329774 0.335354
Si Si7 0.846715 0.027139 0.851712
O O1 0.404902 0.286981 0.852702
O O2 0.394616 0.531874 0.789195
O O3 0.588031 0.193410 0.777142
O O4 0.877911 0.378789 0.035442
O O5 0.596391 0.576738 0.699107
O O6 0.951348 0.510841 0.732965
O O7 0.749877 0.840450 0.748626
O O8 0.042224 0.177661 0.758793
O O9 0.045492 0.075302 0.884518
O O10 0.073607 0.840290 0.736887
O O11 0.500000 0.000000 0.000000
O O12 0.845408 0.271538 0.392437
O O13 0.888490 0.263658 0.560021
O O14 0.839665 0.575977 0.526847
O O15 0.000000 0.000000 0.000000
#
# Coordination Sequence:
#
# PCOD8020629 Si02
#       7
#     2   2   2   2   2   2   2
#     4  10  22  42  70  98 133 176 225 281 335 384
#     4  11  22  42  71  93 137 173 230 274 332 396
#     4  12  25  42  71 102 134 172 229 281 331 393
#     4  10  24  44  68  95 137 187 218 271 336 403
#     4  11  24  43  67 101 133 180 223 269 343 393
#     4  10  24  46  68  96 143 175 226 273 336 397
#     4  10  23  41  64 101 134 168 215 282 336 389
#
# _framework density 22.548780000000001
#
# number of rings (size 3 to 8) (size 9 to 14) (size 15 to 20)
#    0.000    1.429    0.000    5.143    8.000    1.143 
#    5.143    1.429    0.000    0.000    0.000    0.000 
#    0.000    0.000    0.000    0.000    0.000    0.000 
#
# Total GULP energy -173592.379198 kJ/mol
# GULP energy per Si atom -12399.455657 kJ/mol
# Density = 2.249746 g / cm^3
# Si number density = 22.548780 Si / 1000 Ang^3
#
#
#
# Elastic Constant Matrix: (Units=GPa)
#
#
# Indices 1 2 3 4 5 6 
#
# 1 185.5302 55.5973 54.6808 -2.9236 3.0821 -4.6382
# 2 55.5973 102.8330 24.7911 -0.1859 -5.3664 -5.5879
# 3 54.6808 24.7911 111.6408 -2.7173 23.1086 5.7222
# 4 -2.9236 -0.1859 -2.7173 23.8598 2.8762 -5.0053
# 5 3.0821 -5.3664 23.1086 2.8762 47.8276 -6.1487
# 6 -4.6382 -5.5879 5.7222 -5.0053 -6.1487 36.0827
#
#
#
# Elastic Compliance Matrix: (Units=1/GPa)
#
#
# Indices 1 2 3 4 5 6 
#
# 1 0.007241 -0.003069 -0.003071 0.000664 0.000783 0.001168
# 2 -0.003069 0.012100 -0.001878 -0.000368 0.002768 0.002198
# 3 -0.003071 -0.001878 0.012448 0.001055 -0.006557 -0.003631
# 4 0.000664 -0.000368 0.001055 0.043561 -0.002510 0.005476
# 5 0.000783 0.002768 -0.006557 -0.002510 0.025197 0.005515
# 6 0.001168 0.002198 -0.003631 0.005476 0.005515 0.030480
#
#
# Mechanical properties :
#
#
# Convention : Reuss Voigt Hill
#
# Bulk Modulus (GPa) = 63.48315 74.46026 68.97170
# Shear Modulus (GPa) = 32.82687 39.21633 36.02160
#
# Velocity S-wave (km/s) = 3.81965 4.17487 4.00121
# Velocity P-wave (km/s) = 6.90419 7.50553 7.21113
#
# Compressibility (1/GPa) = 0.01575221
#
# Stress axis : x y z
#
# Youngs Moduli (GPa) = 138.09306 82.64563 80.33680
#
# Poissons Ratio (x) = 0.25366 0.24672
# Poissons Ratio (y) = 0.42384 0.15088
# Poissons Ratio (z) = 0.42409 0.15521
#
# Static dielectric constant tensor:
#      x y z
#    x 4.250070 -0.232030 -0.088470 
#    y -0.232030 4.403320 0.143140 
#    z -0.088470 0.143140 3.935930 
# 
# 
# High freq. dielectric constant tensor:
#      x y z
#    x 1.904360 -0.007900 -0.002460 
#    y -0.007900 1.884910 0.004420 
#    z -0.002460 0.004420 1.878210 
# 
# From -- ./inp_files/202619.got.cif
#   From: 2010.06.25/outbox.cif.g09.slc.cpg/sg2_102_cif.got.tgz:202619.got - 2010.06.27 13:26:56.
