data_PCOD8020767
_publ_section_title
;
Structure prediction by ZEFSAII (Michael W. Deem and Ramdas Pophale) SiO2 
 PCOD8020767
Probable space group: P -1
;
_chemical_formula_sum "Si O2"
_cell_formula_units_Z 16
_cell_length_a 8.851964
_cell_length_b 8.864468
_cell_length_c 15.449968
_cell_angle_alpha 118.456836
_cell_angle_beta 39.060076
_cell_angle_gamma 102.526049
_cell_volume 645.469763
_symmetry_space_group_name_H-M "P -1"
_symmetry_group_IT_number 2
_symmetry_cell_setting 'triclinic'
loop_
_space_group_symop_operation_xyz
x,y,z
-x,-y,-z
loop_
_atom_site_type_symbol
_atom_site_label
_atom_site_fract_x
_atom_site_fract_y
_atom_site_fract_z
Si Si1 0.600723 0.646372 0.543361
Si Si2 0.168255 0.014825 0.123848
Si Si3 0.625976 0.983250 0.347817
Si Si4 0.738027 0.002316 0.725828
Si Si5 0.079187 0.713465 0.375132
Si Si6 0.716490 0.283167 0.133730
Si Si7 0.198995 0.204779 0.003037
Si Si8 0.385140 0.385239 0.837462
O O1 0.500000 0.500000 0.500000
O O2 0.518403 0.646803 0.679846
O O3 0.904208 0.592583 0.385072
O O4 0.501111 0.842793 0.603014
O O5 0.284778 0.023478 0.167918
O O6 0.909498 0.970264 0.236769
O O7 0.142486 0.198438 0.129496
O O8 0.346221 0.850946 0.944978
O O9 0.600632 0.805214 0.263939
O O10 0.500000 0.000000 0.500000
O O11 0.858344 0.164568 0.695744
O O12 0.455773 0.047149 0.825477
O O13 0.913382 0.827508 0.556929
O O14 0.336436 0.592540 0.268115
O O15 0.770345 0.452760 0.107605
O O16 0.965282 0.174776 0.045263
O O17 0.252456 0.387152 0.992280
#
# Coordination Sequence:
#
# PCOD8020767 Si02
#       8
#     2   2   2   2   2   2   2   2
#     4  12  26  46  70 104 140 185 243 298 353 421
#     4  12  23  40  70 110 142 186 238 292 358 425
#     4  12  23  41  70 100 140 184 241 287 351 427
#     4  10  22  42  76 108 140 186 240 292 358 430
#     4  10  22  46  71 100 146 187 235 295 360 420
#     4  12  25  44  68 104 149 189 236 292 353 420
#     4  11  22  43  66  99 143 187 232 289 353 420
#     4  11  24  44  70  99 141 195 234 286 355 427
#
# _framework density 24.788146000000001
#
# number of rings (size 3 to 8) (size 9 to 14) (size 15 to 20)
#    0.000    0.750    2.500    7.125    0.000    0.500 
#    2.250    1.250    0.000    0.000    0.000    0.000 
#    0.000    0.000    0.000    0.000    0.000    0.000 
#
# Total GULP energy -198298.391333 kJ/mol
# GULP energy per Si atom -12393.649458 kJ/mol
# Density = 2.473173 g / cm^3
# Si number density = 24.788146 Si / 1000 Ang^3
#
#
#
# Elastic Constant Matrix: (Units=GPa)
#
#
# Indices 1 2 3 4 5 6 
#
# 1 134.0077 55.4268 43.3124 -15.1497 -7.3550 -3.7773
# 2 55.4268 139.4889 42.4900 -23.4015 12.7170 -16.7647
# 3 43.3124 42.4900 89.2131 -28.4237 11.2022 -0.5729
# 4 -15.1497 -23.4015 -28.4237 33.6754 -7.0997 -0.1776
# 5 -7.3550 12.7170 11.2022 -7.0997 47.3476 -22.9643
# 6 -3.7773 -16.7647 -0.5729 -0.1776 -22.9643 48.2560
#
#
#
# Elastic Compliance Matrix: (Units=1/GPa)
#
#
# Indices 1 2 3 4 5 6 
#
# 1 0.010316 -0.003036 -0.004087 -0.000022 0.004210 0.001707
# 2 -0.003036 0.010030 -0.001986 0.003790 -0.000725 0.002892
# 3 -0.004087 -0.001986 0.018228 0.011308 -0.004008 -0.002659
# 4 -0.000022 0.003790 0.011308 0.042845 0.004559 0.003777
# 5 0.004210 -0.000725 -0.004008 0.004559 0.030712 0.014663
# 6 0.001707 0.002892 -0.002659 0.003777 0.014663 0.028821
#
#
# Mechanical properties :
#
#
# Convention : Reuss Voigt Hill
#
# Bulk Modulus (GPa) = 49.12576 71.68535 60.40556
# Shear Modulus (GPa) = 30.12863 40.62116 35.37489
#
# Velocity S-wave (km/s) = 3.49011 4.05252 3.78178
# Velocity P-wave (km/s) = 6.00853 7.13297 6.59475
#
# Compressibility (1/GPa) = 0.02035592
#
# Stress axis : x y z
#
# Youngs Moduli (GPa) = 96.93982 99.70042 54.86126
#
# Poissons Ratio (x) = 0.30274 0.22420
# Poissons Ratio (y) = 0.29435 0.10894
# Poissons Ratio (z) = 0.39616 0.19797
#
# Static dielectric constant tensor:
#      x y z
#    x 4.625980 -0.181690 -0.105730 
#    y -0.181690 4.652550 -0.679890 
#    z -0.105730 -0.679890 4.803930 
# 
# 
# High freq. dielectric constant tensor:
#      x y z
#    x 1.989140 -0.007770 -0.015350 
#    y -0.007770 1.984880 -0.038660 
#    z -0.015350 -0.038660 1.993820 
# 
# From -- ./inp_files/495363.got.cif
#   From: 2010.06.25/outbox.cif.g09.slc.cpg/sg2_248_cif.got.tgz:495363.got - 2010.06.27 13:26:56.
