data_PCOD8020175
_publ_section_title
;
Structure prediction by ZEFSAII (Michael W. Deem and Ramdas Pophale) SiO2 
 PCOD8020175
Probable space group: P -1
;
_chemical_formula_sum "Si O2"
_cell_formula_units_Z 14
_cell_length_a 18.910903
_cell_length_b 22.074498
_cell_length_c 9.124805
_cell_angle_alpha 34.098803
_cell_angle_beta 136.764175
_cell_angle_gamma 161.638455
_cell_volume 636.215938
_symmetry_space_group_name_H-M "P -1"
_symmetry_group_IT_number 2
_symmetry_cell_setting 'triclinic'
loop_
_space_group_symop_operation_xyz
x,y,z
-x,-y,-z
loop_
_atom_site_type_symbol
_atom_site_label
_atom_site_fract_x
_atom_site_fract_y
_atom_site_fract_z
Si Si1 0.710194 0.726885 0.171878
Si Si2 0.753359 0.487185 0.938796
Si Si3 0.447215 0.802012 0.288145
Si Si4 0.330433 0.070277 0.340070
Si Si5 0.812149 0.604126 0.472053
Si Si6 0.869809 0.330305 0.785720
Si Si7 0.181145 0.216674 0.459261
O O1 0.840785 0.762575 0.190347
O O2 0.444898 0.431424 0.381267
O O3 0.850641 0.865399 0.262462
O O4 0.690960 0.822909 0.869144
O O5 0.697179 0.469402 0.725357
O O6 0.850299 0.682330 0.784632
O O7 0.509218 0.214665 0.187735
O O8 0.944379 0.572514 0.049679
O O9 0.587088 0.916976 0.419637
O O10 0.368524 0.611951 0.488260
O O11 0.209567 0.648008 0.268915
O O12 0.625654 0.031979 0.983973
O O13 0.065002 0.783234 0.471415
O O14 0.000000 0.500000 0.500000
O O15 0.000000 0.000000 0.500000
#
# Coordination Sequence:
#
# PCOD8020175 Si02
#       7
#     2   2   2   2   2   2   2
#     4   9  21  37  59  97 136 170 205 259 314 378
#     4  10  22  42  66  92 131 172 208 270 326 369
#     4  11  26  42  69  97 123 170 223 265 321 390
#     4  11  22  43  64  96 136 168 213 261 314 389
#     4  11  24  42  65  98 134 168 214 262 318 384
#     4  11  23  47  69  90 128 167 217 278 327 373
#     4   9  19  36  63  95 130 169 217 254 309 390
#
# _framework density 22.005106999999999
#
# number of rings (size 3 to 8) (size 9 to 14) (size 15 to 20)
#    0.000    1.714    2.857    1.286    2.000    4.571 
#    0.000    1.429    0.000    0.000    0.000    0.000 
#    0.000    0.000    0.000    0.000    0.000    0.000 
#
# Total GULP energy -173527.243345 kJ/mol
# GULP energy per Si atom -12394.803096 kJ/mol
# Density = 2.195502 g / cm^3
# Si number density = 22.005107 Si / 1000 Ang^3
#
#
#
# Elastic Constant Matrix: (Units=GPa)
#
#
# Indices 1 2 3 4 5 6 
#
# 1 79.5103 38.2925 24.2358 -5.6743 0.0062 22.9340
# 2 38.2925 93.3893 21.1115 -3.9743 -6.5713 9.3003
# 3 24.2358 21.1115 85.3386 -0.7225 -15.0275 9.1201
# 4 -5.6743 -3.9743 -0.7225 30.9360 18.9002 5.7976
# 5 0.0062 -6.5713 -15.0275 18.9002 35.5801 -4.7532
# 6 22.9340 9.3003 9.1201 5.7976 -4.7532 43.9307
#
#
#
# Elastic Compliance Matrix: (Units=1/GPa)
#
#
# Indices 1 2 3 4 5 6 
#
# 1 0.021663 -0.006853 -0.005125 0.012141 -0.011438 -0.011634
# 2 -0.006853 0.013764 -0.001062 -0.001758 0.003224 0.001465
# 3 -0.005125 -0.001062 0.014987 -0.007371 0.010301 0.001876
# 4 0.012141 -0.001758 -0.007371 0.060229 -0.037632 -0.016456
# 5 -0.011438 0.003224 0.010301 -0.037632 0.054922 0.014059
# 6 -0.011634 0.001465 0.001876 -0.016456 0.014059 0.031830
#
#
# Mechanical properties :
#
#
# Convention : Reuss Voigt Hill
#
# Bulk Modulus (GPa) = 41.09614 47.27973 44.18794
# Shear Modulus (GPa) = 21.59006 33.72926 27.65966
#
# Velocity S-wave (km/s) = 3.13571 3.91934 3.54922
# Velocity P-wave (km/s) = 5.64150 6.48182 6.07621
#
# Compressibility (1/GPa) = 0.02433319
#
# Stress axis : x y z
#
# Youngs Moduli (GPa) = 46.16201 72.65165 66.72338
#
# Poissons Ratio (x) = 0.49792 0.34194
# Poissons Ratio (y) = 0.31637 0.07089
# Poissons Ratio (z) = 0.23657 0.07719
#
# Static dielectric constant tensor:
#      x y z
#    x 3.992790 0.507340 0.019890 
#    y 0.507340 3.874780 -0.053700 
#    z 0.019890 -0.053700 4.178210 
# 
# 
# High freq. dielectric constant tensor:
#      x y z
#    x 1.854760 0.037730 -0.004280 
#    y 0.037730 1.856190 -0.005250 
#    z -0.004280 -0.005250 1.876510 
# 
# From -- ./inp_files/337484.got.cif
#   From: 2010.06.25/outbox.cif.g09.slc.cpg/sg2_169_cif.got.tgz:337484.got - 2010.06.27 13:26:56.
