data_PCOD8020825
_publ_section_title
;
Structure prediction by ZEFSAII (Michael W. Deem and Ramdas Pophale) SiO2 
 PCOD8020825
Probable space group: P -1
;
_chemical_formula_sum "Si O2"
_cell_formula_units_Z 14
_cell_length_a 13.511841
_cell_length_b 9.617658
_cell_length_c 11.499099
_cell_angle_alpha 129.972519
_cell_angle_beta 31.254124
_cell_angle_gamma 115.676038
_cell_volume 568.357417
_symmetry_space_group_name_H-M "P -1"
_symmetry_group_IT_number 2
_symmetry_cell_setting 'triclinic'
loop_
_space_group_symop_operation_xyz
x,y,z
-x,-y,-z
loop_
_atom_site_type_symbol
_atom_site_label
_atom_site_fract_x
_atom_site_fract_y
_atom_site_fract_z
Si Si1 0.698393 0.433195 0.400219
Si Si2 0.029792 0.864041 0.729130
Si Si3 0.324213 0.909226 0.641670
Si Si4 0.664528 0.218726 0.099558
Si Si5 0.576092 0.871421 0.968642
Si Si6 0.196124 0.772367 0.278971
Si Si7 0.048872 0.486954 0.623502
O O1 0.753078 0.335372 0.166554
O O2 0.545560 0.642416 0.663227
O O3 0.907638 0.431936 0.250479
O O4 0.591159 0.309417 0.520767
O O5 0.039246 0.901103 0.600052
O O6 0.050374 0.640582 0.605602
O O7 0.207275 0.924659 0.646102
O O8 0.820950 0.987393 0.053898
O O9 0.500000 0.000000 0.500000
O O10 0.614551 0.032784 0.104159
O O11 0.818634 0.152902 0.799655
O O12 0.410701 0.768790 0.116736
O O13 0.782298 0.709787 0.669228
O O14 0.500000 0.000000 0.000000
O O15 0.161516 0.563018 0.194138
#
# Coordination Sequence:
#
# PCOD8020825 Si02
#       7
#     2   2   2   2   2   2   2
#     4  10  22  45  66  95 135 177 226 274 322 409
#     4  10  25  44  63 109 131 165 235 275 325 414
#     4  10  24  45  72  92 136 181 217 275 346 390
#     4  10  23  44  67  98 136 174 231 269 328 401
#     4  10  22  43  63  99 135 173 226 269 329 398
#     4  11  24  41  70  99 137 175 219 282 336 387
#     4  11  23  42  68  98 139 172 226 276 334 398
#
# _framework density 24.632386
#
# number of rings (size 3 to 8) (size 9 to 14) (size 15 to 20)
#    0.000    1.714    2.857    0.429    6.000    3.429 
#    0.000    0.000    0.000    0.000    0.000    0.000 
#    0.000    0.000    0.000    0.000    0.000    0.000 
#
# Total GULP energy -173437.843042 kJ/mol
# GULP energy per Si atom -12388.417360 kJ/mol
# Density = 2.457632 g / cm^3
# Si number density = 24.632386 Si / 1000 Ang^3
#
#
#
# Elastic Constant Matrix: (Units=GPa)
#
#
# Indices 1 2 3 4 5 6 
#
# 1 91.8199 61.3308 43.3776 -19.9050 16.5306 13.1416
# 2 61.3308 158.9529 54.1914 -2.4843 -7.9440 40.8963
# 3 43.3776 54.1914 79.9227 -8.9609 14.7417 14.1567
# 4 -19.9050 -2.4843 -8.9609 45.0025 -4.7558 -10.9003
# 5 16.5306 -7.9440 14.7417 -4.7558 35.5859 0.4830
# 6 13.1416 40.8963 14.1567 -10.9003 0.4830 49.6216
#
#
#
# Elastic Compliance Matrix: (Units=1/GPa)
#
#
# Indices 1 2 3 4 5 6 
#
# 1 0.020967 -0.008064 -0.004111 0.008078 -0.008813 0.004127
# 2 -0.008064 0.014024 -0.005718 -0.005199 0.008673 -0.009018
# 3 -0.004111 -0.005718 0.020068 0.001164 -0.007530 0.000405
# 4 0.008078 -0.005199 0.001164 0.027449 -0.001834 0.007861
# 5 -0.008813 0.008673 -0.007530 -0.001834 0.037052 -0.003429
# 6 0.004127 -0.009018 0.000405 0.007861 -0.003429 0.028136
#
#
# Mechanical properties :
#
#
# Convention : Reuss Voigt Hill
#
# Bulk Modulus (GPa) = 51.88668 72.05501 61.97085
# Shear Modulus (GPa) = 26.32864 37.49505 31.91184
#
# Velocity S-wave (km/s) = 3.27289 3.90575 3.60324
# Velocity P-wave (km/s) = 5.94917 7.04667 6.52105
#
# Compressibility (1/GPa) = 0.01927277
#
# Stress axis : x y z
#
# Youngs Moduli (GPa) = 47.69435 71.30467 49.83037
#
# Poissons Ratio (x) = 0.57501 0.20488
# Poissons Ratio (y) = 0.38461 0.28491
# Poissons Ratio (z) = 0.19609 0.40770
#
# Static dielectric constant tensor:
#      x y z
#    x 4.993450 0.494850 0.128080 
#    y 0.494850 5.072130 0.104380 
#    z 0.128080 0.104380 4.125670 
# 
# 
# High freq. dielectric constant tensor:
#      x y z
#    x 2.005240 0.023780 0.007700 
#    y 0.023780 1.984300 0.017970 
#    z 0.007700 0.017970 1.948530 
# 
# From -- ./inp_files/448130.got.cif
#   From: 2010.06.25/outbox.cif.g09.slc.cpg/sg2_225_cif.got.tgz:448130.got - 2010.06.27 13:26:56.
