data_PCOD8020242
_publ_section_title
;
Structure prediction by ZEFSAII (Michael W. Deem and Ramdas Pophale) SiO2 
 PCOD8020242
Probable space group: P -1
;
_chemical_formula_sum "Si O2"
_cell_formula_units_Z 16
_cell_length_a 9.036688
_cell_length_b 14.625297
_cell_length_c 12.660739
_cell_angle_alpha 29.132949
_cell_angle_beta 79.643798
_cell_angle_gamma 70.359960
_cell_volume 743.216022
_symmetry_space_group_name_H-M "P -1"
_symmetry_group_IT_number 2
_symmetry_cell_setting 'triclinic'
loop_
_space_group_symop_operation_xyz
x,y,z
-x,-y,-z
loop_
_atom_site_type_symbol
_atom_site_label
_atom_site_fract_x
_atom_site_fract_y
_atom_site_fract_z
Si Si1 0.630050 0.994402 0.574310
Si Si2 0.726708 0.322825 0.332366
Si Si3 0.014363 0.214201 0.269501
Si Si4 0.918604 0.658024 0.443549
Si Si5 0.636478 0.030546 0.019467
Si Si6 0.394210 0.263061 0.980739
Si Si7 0.964918 0.678474 0.077128
Si Si8 0.134474 0.899146 0.245826
O O1 0.649272 0.209621 0.374230
O O2 0.500000 0.000000 0.500000
O O3 0.800305 0.820947 0.690231
O O4 0.573444 0.931516 0.754457
O O5 0.597903 0.545671 0.148242
O O6 0.777064 0.193818 0.562727
O O7 0.883395 0.357725 0.224284
O O8 0.975715 0.305007 0.065393
O O9 0.000000 0.000000 0.500000
O O10 0.741624 0.814001 0.276687
O O11 0.000000 0.500000 0.500000
O O12 0.910164 0.528450 0.678816
O O13 0.020857 0.792473 0.323779
O O14 0.500000 0.000000 0.000000
O O15 0.544485 0.202226 0.943307
O O16 0.737300 0.123375 0.839893
O O17 0.217268 0.323132 0.888465
O O18 0.971375 0.865475 0.956596
#
# Coordination Sequence:
#
# PCOD8020242 Si02
#       8
#     2   2   2   2   2   2   2   2
#     4  10  22  42  66  98 144 174 220 285 339 402
#     4  11  22  43  70  99 131 183 230 274 339 406
#     4   9  19  40  73  98 128 179 230 275 340 396
#     4  12  26  45  70 105 134 179 238 288 339 408
#     4  12  25  47  71  99 143 182 223 286 356 408
#     4  11  23  45  65  99 139 181 225 278 342 410
#     4  11  21  44  72 100 137 176 230 288 337 402
#     4  12  23  44  74  98 139 176 232 292 331 412
#
# _framework density 21.52806
#
# number of rings (size 3 to 8) (size 9 to 14) (size 15 to 20)
#    0.000    1.000    7.500    0.375    0.000    4.000 
#    4.500    0.000    0.000    0.000    0.000    0.000 
#    0.000    0.000    0.000    0.000    0.000    0.000 
#
# Total GULP energy -198374.779616 kJ/mol
# GULP energy per Si atom -12398.423726 kJ/mol
# Density = 2.147906 g / cm^3
# Si number density = 21.528060 Si / 1000 Ang^3
#
#
#
# Elastic Constant Matrix: (Units=GPa)
#
#
# Indices 1 2 3 4 5 6 
#
# 1 101.1924 60.9691 65.3577 2.2491 8.4031 14.0489
# 2 60.9691 147.9298 66.4515 -7.0164 1.4013 -18.6977
# 3 65.3577 66.4515 125.9724 10.4060 0.6289 -11.8603
# 4 2.2491 -7.0164 10.4060 43.6011 3.0770 -12.1474
# 5 8.4031 1.4013 0.6289 3.0770 32.0830 2.3087
# 6 14.0489 -18.6977 -11.8603 -12.1474 2.3087 43.7700
#
#
#
# Elastic Compliance Matrix: (Units=1/GPa)
#
#
# Indices 1 2 3 4 5 6 
#
# 1 0.021816 -0.006915 -0.008588 -0.003547 -0.003964 -0.013059
# 2 -0.006915 0.011931 -0.002366 0.005070 0.000270 0.008068
# 3 -0.008588 -0.002366 0.014270 -0.002107 0.001920 0.004926
# 4 -0.003547 0.005070 -0.002107 0.027555 -0.002651 0.010521
# 5 -0.003964 0.000270 0.001920 -0.002651 0.032451 -0.000540
# 6 -0.013059 0.008068 0.004926 0.010521 -0.000540 0.034768
#
#
# Mechanical properties :
#
#
# Convention : Reuss Voigt Hill
#
# Bulk Modulus (GPa) = 81.44128 84.51679 82.97904
# Shear Modulus (GPa) = 27.37903 36.04525 31.71214
#
# Velocity S-wave (km/s) = 3.57008 4.09631 3.84221
# Velocity P-wave (km/s) = 7.40988 7.85602 7.63621
#
# Compressibility (1/GPa) = 0.01227878
#
# Stress axis : x y z
#
# Youngs Moduli (GPa) = 45.83789 83.81786 70.07562
#
# Poissons Ratio (x) = 0.57960 0.60179
# Poissons Ratio (y) = 0.31697 0.16583
# Poissons Ratio (z) = 0.39364 0.19835
#
# Static dielectric constant tensor:
#      x y z
#    x 3.223600 -0.739580 -0.540050 
#    y -0.739580 2.672960 -0.599250 
#    z -0.540050 -0.599250 3.854550 
# 
# 
# High freq. dielectric constant tensor:
#      x y z
#    x 1.826950 0.003760 -0.011830 
#    y 0.003760 1.853670 0.002470 
#    z -0.011830 0.002470 1.856100 
# 
# From -- ./inp_files/398115.got.cif
#   From: 2010.06.25/outbox.cif.g09.slc.cpg/sg2_200_cif.got.tgz:398115.got - 2010.06.27 13:26:56.
