data_PCOD8020101
_publ_section_title
;
Structure prediction by ZEFSAII (Michael W. Deem and Ramdas Pophale) SiO2 
 PCOD8020101
Probable space group: P -1
;
_chemical_formula_sum "Si O2"
_cell_formula_units_Z 16
_cell_length_a 10.972328
_cell_length_b 9.145939
_cell_length_c 8.962431
_cell_angle_alpha 80.173653
_cell_angle_beta 99.262616
_cell_angle_gamma 127.278571
_cell_volume 703.248739
_symmetry_space_group_name_H-M "P -1"
_symmetry_group_IT_number 2
_symmetry_cell_setting 'triclinic'
loop_
_space_group_symop_operation_xyz
x,y,z
-x,-y,-z
loop_
_atom_site_type_symbol
_atom_site_label
_atom_site_fract_x
_atom_site_fract_y
_atom_site_fract_z
Si Si1 0.081852 0.398213 0.396633
Si Si2 0.687070 0.972131 0.642515
Si Si3 0.865992 0.783510 0.029827
Si Si4 0.470796 0.861555 0.889804
Si Si5 0.685689 0.631626 0.718315
Si Si6 0.986525 0.330059 0.716082
Si Si7 0.595956 0.736673 0.157026
Si Si8 0.739303 0.100116 0.315042
O O1 0.224448 0.396445 0.384637
O O2 0.092283 0.425118 0.572968
O O3 0.094593 0.568324 0.288752
O O4 0.921798 0.209284 0.344268
O O5 0.587700 0.967251 0.757858
O O6 0.657437 0.778834 0.634768
O O7 0.661289 0.046490 0.472702
O O8 0.863221 0.113218 0.701116
O O9 0.922663 0.664137 0.122785
O O10 0.741449 0.749783 0.129177
O O11 0.788347 0.695470 0.873700
O O12 0.000000 0.000000 0.000000
O O13 0.302323 0.773019 0.798984
O O14 0.496128 0.719205 0.994857
O O15 0.500000 0.000000 0.000000
O O16 0.516291 0.443587 0.735908
O O17 0.661827 0.916204 0.236538
#
# Coordination Sequence:
#
# PCOD8020101 Si02
#       8
#     2   2   2   2   2   2   2   2
#     4  10  25  46  67  99 131 172 227 271 334 386
#     4  11  23  43  68 102 132 172 224 273 333 392
#     4  12  23  44  70  98 133 178 218 273 334 393
#     4  10  22  42  65  94 135 172 214 274 327 393
#     4  12  26  42  67 100 138 173 217 280 328 399
#     4  10  24  44  71  96 132 173 223 279 322 403
#     4  11  25  43  63 101 138 172 219 272 335 392
#     4  10  24  42  70  94 130 180 221 273 326 397
#
# _framework density 22.751552
#
# number of rings (size 3 to 8) (size 9 to 14) (size 15 to 20)
#    0.000    1.250    2.500    1.500    7.000    3.000 
#    2.250    0.000    0.000    0.000    0.000    0.000 
#    0.000    0.000    0.000    0.000    0.000    0.000 
#
# Total GULP energy -198360.629170 kJ/mol
# GULP energy per Si atom -12397.539323 kJ/mol
# Density = 2.269977 g / cm^3
# Si number density = 22.751552 Si / 1000 Ang^3
#
#
#
# Elastic Constant Matrix: (Units=GPa)
#
#
# Indices 1 2 3 4 5 6 
#
# 1 96.5631 14.6227 19.3463 -14.1147 -17.4180 -4.5729
# 2 14.6227 89.9216 3.2799 -19.5602 0.6325 -1.2874
# 3 19.3463 3.2799 69.3364 -2.7194 3.0909 -4.8595
# 4 -14.1147 -19.5602 -2.7194 29.2145 -0.3764 -4.1057
# 5 -17.4180 0.6325 3.0909 -0.3764 45.7666 -1.5557
# 6 -4.5729 -1.2874 -4.8595 -4.1057 -1.5557 28.5226
#
#
#
# Elastic Compliance Matrix: (Units=1/GPa)
#
#
# Indices 1 2 3 4 5 6 
#
# 1 0.013124 -0.000706 -0.003448 0.005987 0.005376 0.002640
# 2 -0.000706 0.013155 0.000052 0.008710 -0.000324 0.001726
# 3 -0.003448 0.000052 0.015628 0.000074 -0.002300 0.001997
# 4 0.005987 0.008710 0.000074 0.044102 0.002783 0.007866
# 5 0.005376 -0.000324 -0.002300 0.002783 0.024153 0.002173
# 6 0.002640 0.001726 0.001997 0.007866 0.002173 0.037152
#
#
# Mechanical properties :
#
#
# Convention : Reuss Voigt Hill
#
# Bulk Modulus (GPa) = 29.67238 36.70211 33.18724
# Shear Modulus (GPa) = 29.98462 35.27222 32.62842
#
# Velocity S-wave (km/s) = 3.63425 3.94168 3.79108
# Velocity P-wave (km/s) = 5.53901 6.07310 5.81219
#
# Compressibility (1/GPa) = 0.03370137
#
# Stress axis : x y z
#
# Youngs Moduli (GPa) = 76.19872 76.01469 63.98961
#
# Poissons Ratio (x) = 0.05367 0.22065
# Poissons Ratio (y) = 0.05380 -0.00331
# Poissons Ratio (z) = 0.26275 -0.00393
#
# Static dielectric constant tensor:
#      x y z
#    x 4.245490 -0.105100 0.181670 
#    y -0.105100 4.067640 -0.115980 
#    z 0.181670 -0.115980 4.371630 
# 
# 
# High freq. dielectric constant tensor:
#      x y z
#    x 1.896840 -0.002210 0.006100 
#    y -0.002210 1.892730 -0.003090 
#    z 0.006100 -0.003090 1.909640 
# 
# From -- ./inp_files/206314.got.cif
#   From: 2010.06.25/outbox.cif.g09.slc.cpg/sg2_104_cif.got.tgz:206314.got - 2010.06.27 13:26:56.
