data_PCOD8020677
_publ_section_title
;
Structure prediction by ZEFSAII (Michael W. Deem and Ramdas Pophale) SiO2 
 PCOD8020677
Probable space group: P -1
;
_chemical_formula_sum "Si O2"
_cell_formula_units_Z 16
_cell_length_a 11.483069
_cell_length_b 19.482291
_cell_length_c 8.455223
_cell_angle_alpha 126.045030
_cell_angle_beta 127.044448
_cell_angle_gamma 28.465396
_cell_volume 710.957040
_symmetry_space_group_name_H-M "P -1"
_symmetry_group_IT_number 2
_symmetry_cell_setting 'triclinic'
loop_
_space_group_symop_operation_xyz
x,y,z
-x,-y,-z
loop_
_atom_site_type_symbol
_atom_site_label
_atom_site_fract_x
_atom_site_fract_y
_atom_site_fract_z
Si Si1 0.274234 0.514075 0.060229
Si Si2 0.498841 0.000665 0.188574
Si Si3 0.410472 0.195731 0.588134
Si Si4 0.254260 0.430927 0.630369
Si Si5 0.807631 0.993026 0.894973
Si Si6 0.046253 0.299907 0.684834
Si Si7 0.713466 0.227125 0.185041
Si Si8 0.531898 0.559140 0.451491
O O1 0.455509 0.352509 0.046985
O O2 0.395706 0.550220 0.228553
O O3 0.019542 0.620547 0.097624
O O4 0.211988 0.530626 0.848066
O O5 0.304676 0.017675 0.085862
O O6 0.761140 0.863656 0.315664
O O7 0.380220 0.143793 0.349281
O O8 0.500000 0.000000 0.000000
O O9 0.443651 0.273245 0.646802
O O10 0.660818 0.058918 0.700434
O O11 0.172735 0.298695 0.652955
O O12 0.360145 0.416856 0.535503
O O13 0.000000 0.500000 0.500000
O O14 0.798253 0.090046 0.100865
O O15 0.079738 0.830918 0.843461
O O16 0.764656 0.405810 0.533228
O O17 0.674555 0.297689 0.411166
#
# Coordination Sequence:
#
# PCOD8020677 Si02
#       8
#     2   2   2   2   2   2   2   2
#     4  11  25  43  69 101 136 176 233 274 343 395
#     4  11  27  42  68 100 138 174 229 281 339 399
#     4  11  24  43  67  96 136 181 229 275 340 396
#     4  12  26  45  66 102 142 176 226 285 336 392
#     4  10  22  44  69  95 136 176 227 278 332 413
#     4  10  22  44  72  97 126 186 221 282 325 413
#     4  10  22  42  71  97 130 182 224 274 338 405
#     4  11  25  42  74  98 139 177 227 280 337 409
#
# _framework density 22.504875999999999
#
# number of rings (size 3 to 8) (size 9 to 14) (size 15 to 20)
#    0.000    1.250    2.500    3.375   10.500    1.500 
#    2.250    0.625    0.000    0.000    0.000    0.000 
#    0.000    0.000    0.000    0.000    0.000    0.000 
#
# Total GULP energy -198251.022657 kJ/mol
# GULP energy per Si atom -12390.688916 kJ/mol
# Density = 2.245365 g / cm^3
# Si number density = 22.504876 Si / 1000 Ang^3
#
#
#
# Elastic Constant Matrix: (Units=GPa)
#
#
# Indices 1 2 3 4 5 6 
#
# 1 147.5500 44.8910 63.2403 22.0721 -16.7383 1.1056
# 2 44.8910 81.2857 36.9913 22.5891 -8.8982 -17.2726
# 3 63.2403 36.9913 128.5516 15.7951 -2.4128 -4.2548
# 4 22.0721 22.5891 15.7951 27.0967 -2.6761 -5.8914
# 5 -16.7383 -8.8982 -2.4128 -2.6761 31.1086 -0.4086
# 6 1.1056 -17.2726 -4.2548 -5.8914 -0.4086 34.8789
#
#
#
# Elastic Compliance Matrix: (Units=1/GPa)
#
#
# Indices 1 2 3 4 5 6 
#
# 1 0.010408 -0.003135 -0.003759 -0.003918 0.004036 -0.002955
# 2 -0.003135 0.020271 -0.002646 -0.010751 0.003087 0.008035
# 3 -0.003759 -0.002646 0.010478 -0.001069 -0.002060 -0.000118
# 4 -0.003918 -0.010751 -0.001069 0.050278 -0.000899 0.003152
# 5 0.004036 0.003087 -0.002060 -0.000899 0.034981 0.001407
# 6 -0.002955 0.008035 -0.000118 0.003152 0.001407 0.033278
#
#
# Mechanical properties :
#
#
# Convention : Reuss Voigt Hill
#
# Bulk Modulus (GPa) = 45.29456 71.95916 58.62686
# Shear Modulus (GPa) = 26.86241 32.76781 29.81511
#
# Velocity S-wave (km/s) = 3.45864 3.81994 3.64377
# Velocity P-wave (km/s) = 6.00998 7.17637 6.61891
#
# Compressibility (1/GPa) = 0.02207770
#
# Stress axis : x y z
#
# Youngs Moduli (GPa) = 96.07720 49.33248 95.43474
#
# Poissons Ratio (x) = 0.15466 0.35873
# Poissons Ratio (y) = 0.30120 0.25251
# Poissons Ratio (z) = 0.36115 0.13053
#
# Static dielectric constant tensor:
#      x y z
#    x 4.751400 0.322300 0.180670 
#    y 0.322300 4.496100 0.253250 
#    z 0.180670 0.253250 4.144240 
# 
# 
# High freq. dielectric constant tensor:
#      x y z
#    x 1.888080 -0.010760 -0.003590 
#    y -0.010760 1.887230 0.011660 
#    z -0.003590 0.011660 1.888870 
# 
# From -- ./inp_files/283271.got.cif
#   From: 2010.06.25/outbox.cif.g09.slc.cpg/sg2_142_cif.got.tgz:283271.got - 2010.06.27 13:26:56.
