data_PCOD8020617
_publ_section_title
;
Structure prediction by ZEFSAII (Michael W. Deem and Ramdas Pophale) SiO2 
 PCOD8020617
Probable space group: P -1
;
_chemical_formula_sum "Si O2"
_cell_formula_units_Z 16
_cell_length_a 9.349527
_cell_length_b 18.321103
_cell_length_c 15.915912
_cell_angle_alpha 151.224920
_cell_angle_beta 35.496839
_cell_angle_gamma 141.920031
_cell_volume 735.188628
_symmetry_space_group_name_H-M "P -1"
_symmetry_group_IT_number 2
_symmetry_cell_setting 'triclinic'
loop_
_space_group_symop_operation_xyz
x,y,z
-x,-y,-z
loop_
_atom_site_type_symbol
_atom_site_label
_atom_site_fract_x
_atom_site_fract_y
_atom_site_fract_z
Si Si1 0.142357 0.537662 0.136007
Si Si2 0.998215 0.548160 0.701688
Si Si3 0.488024 0.488363 0.208006
Si Si4 0.480030 0.281514 0.421135
Si Si5 0.773024 0.723744 0.634835
Si Si6 0.098074 0.975692 0.338740
Si Si7 0.671816 0.306273 0.065866
Si Si8 0.776663 0.101974 0.494936
O O1 0.146107 0.459596 0.147914
O O2 0.225163 0.727941 0.293298
O O3 0.853125 0.476219 0.177724
O O4 0.330546 0.471958 0.920233
O O5 0.801752 0.536753 0.708286
O O6 0.227778 0.704163 0.733209
O O7 0.150517 0.413229 0.487799
O O8 0.547503 0.624655 0.386438
O O9 0.535619 0.330598 0.068018
O O10 0.323429 0.333255 0.470894
O O11 0.363483 0.099234 0.313311
O O12 0.547044 0.770272 0.839129
O O13 0.030991 0.866468 0.645822
O O14 0.873505 0.990238 0.399244
O O15 0.000000 0.000000 0.500000
O O16 0.141075 0.804263 0.143125
O O17 0.500000 0.000000 0.500000
#
# Coordination Sequence:
#
# PCOD8020617 Si02
#       8
#     2   2   2   2   2   2   2   2
#     4  11  24  44  70  96 131 173 221 272 322 396
#     4  11  22  41  67  97 132 170 217 275 330 385
#     4  12  24  39  67 102 129 169 224 274 320 387
#     4  11  22  43  67  93 130 175 221 264 329 393
#     4  10  22  42  70  95 129 175 220 271 323 395
#     4  11  25  43  66  94 133 177 213 271 335 387
#     4  12  23  42  68 100 130 170 230 266 320 395
#     4  10  24  45  67  95 133 173 215 267 334 391
#
# _framework density 21.763121999999999
#
# number of rings (size 3 to 8) (size 9 to 14) (size 15 to 20)
#    0.000    1.000    2.500    5.250    0.000    7.000 
#    2.250    0.625    0.000    0.000    0.000    0.000 
#    0.000    0.000    0.000    0.000    0.000    0.000 
#
# Total GULP energy -198322.643902 kJ/mol
# GULP energy per Si atom -12395.165244 kJ/mol
# Density = 2.171359 g / cm^3
# Si number density = 21.763122 Si / 1000 Ang^3
#
#
#
# Elastic Constant Matrix: (Units=GPa)
#
#
# Indices 1 2 3 4 5 6 
#
# 1 150.2801 61.6965 42.8243 11.1676 -10.8889 13.6159
# 2 61.6965 131.9546 48.3321 -10.5818 3.3124 26.5480
# 3 42.8243 48.3321 100.4323 -11.0561 5.9544 1.8456
# 4 11.1676 -10.5818 -11.0561 33.6632 -6.2163 -2.7373
# 5 -10.8889 3.3124 5.9544 -6.2163 22.6965 -4.7544
# 6 13.6159 26.5480 1.8456 -2.7373 -4.7544 35.7531
#
#
#
# Elastic Compliance Matrix: (Units=1/GPa)
#
#
# Indices 1 2 3 4 5 6 
#
# 1 0.009868 -0.003870 -0.003134 -0.004680 0.004745 -0.000450
# 2 -0.003870 0.012708 -0.003803 0.002699 -0.003660 -0.008046
# 3 -0.003134 -0.003803 0.013676 0.004097 -0.002731 0.003262
# 4 -0.004680 0.002699 0.004097 0.034904 0.006496 0.003103
# 5 0.004745 -0.003660 -0.002731 0.006496 0.051114 0.008346
# 6 -0.000450 -0.008046 0.003262 0.003103 0.008346 0.035294
#
#
# Mechanical properties :
#
#
# Convention : Reuss Voigt Hill
#
# Bulk Modulus (GPa) = 68.31297 76.48585 72.39941
# Shear Modulus (GPa) = 27.16500 33.74349 30.45425
#
# Velocity S-wave (km/s) = 3.53684 3.94190 3.74485
# Velocity P-wave (km/s) = 6.93804 7.47924 7.21372
#
# Compressibility (1/GPa) = 0.01463851
#
# Stress axis : x y z
#
# Youngs Moduli (GPa) = 101.33266 78.68971 73.11819
#
# Poissons Ratio (x) = 0.30454 0.22913
# Poissons Ratio (y) = 0.39217 0.27810
# Poissons Ratio (z) = 0.31755 0.29929
#
# Static dielectric constant tensor:
#      x y z
#    x 3.931450 -0.020730 0.037400 
#    y -0.020730 4.293360 -0.205980 
#    z 0.037400 -0.205980 3.637640 
# 
# 
# High freq. dielectric constant tensor:
#      x y z
#    x 1.857640 -0.003640 -0.005000 
#    y -0.003640 1.866130 -0.025630 
#    z -0.005000 -0.025630 1.837150 
# 
# From -- ./inp_files/507328.got.cif
#   From: 2010.06.25/outbox.cif.g09.slc.cpg/sg2_254_cif.got.tgz:507328.got - 2010.06.27 13:26:56.
