data_PCOD8020025
_publ_section_title
;
Structure prediction by ZEFSAII (Michael W. Deem and Ramdas Pophale) SiO2 
 PCOD8020025
Probable space group: P -1
;
_chemical_formula_sum "Si O2"
_cell_formula_units_Z 16
_cell_length_a 6.318525
_cell_length_b 9.136039
_cell_length_c 16.471282
_cell_angle_alpha 58.743244
_cell_angle_beta 59.803662
_cell_angle_gamma 82.603927
_cell_volume 691.175884
_symmetry_space_group_name_H-M "P -1"
_symmetry_group_IT_number 2
_symmetry_cell_setting 'triclinic'
loop_
_space_group_symop_operation_xyz
x,y,z
-x,-y,-z
loop_
_atom_site_type_symbol
_atom_site_label
_atom_site_fract_x
_atom_site_fract_y
_atom_site_fract_z
Si Si1 0.026656 0.137794 0.130965
Si Si2 0.442308 0.732087 0.768244
Si Si3 0.741963 0.144094 0.896903
Si Si4 0.736114 0.290436 0.371437
Si Si5 0.780540 0.677302 0.495958
Si Si6 0.070831 0.557441 0.335460
Si Si7 0.927476 0.956843 0.662465
Si Si8 0.496000 0.593906 0.057315
O O1 0.088833 0.097976 0.223791
O O2 0.769196 0.207920 0.150841
O O3 0.027567 0.962236 0.125226
O O4 0.239433 0.286157 0.011847
O O5 0.330578 0.687713 0.715045
O O6 0.669924 0.892832 0.683623
O O7 0.543600 0.558903 0.824857
O O8 0.754661 0.261054 0.778135
O O9 0.726465 0.289685 0.928320
O O10 0.500000 0.000000 0.000000
O O11 0.485414 0.263511 0.481736
O O12 0.937913 0.456736 0.311955
O O13 0.857405 0.118971 0.404862
O O14 0.759255 0.553678 0.614903
O O15 0.841053 0.582710 0.430041
O O16 0.006642 0.837097 0.420167
O O17 0.500000 0.500000 0.000000
#
# Coordination Sequence:
#
# PCOD8020025 Si02
#       8
#     2   2   2   2   2   2   2   2
#     4  10  22  42  64  97 135 178 223 280 337 401
#     4  11  24  42  69 101 137 179 231 278 339 411
#     4  10  22  43  70  97 135 177 221 279 341 402
#     4  11  24  41  68 100 135 179 225 281 333 411
#     4  11  24  43  69  99 136 179 228 280 336 406
#     4  11  24  44  68  99 138 178 225 277 346 396
#     4  11  22  42  68  93 136 176 222 283 337 394
#     4  11  21  40  73  95 136 179 226 283 337 400
#
# _framework density 23.148954
#
# number of rings (size 3 to 8) (size 9 to 14) (size 15 to 20)
#    0.000    1.250    2.500    3.375    1.750    4.000 
#    4.500    0.625    0.000    0.000    0.000    0.000 
#    0.000    0.000    0.000    0.000    0.000    0.000 
#
# Total GULP energy -198249.987914 kJ/mol
# GULP energy per Si atom -12390.624245 kJ/mol
# Density = 2.309627 g / cm^3
# Si number density = 23.148954 Si / 1000 Ang^3
#
#
#
# Elastic Constant Matrix: (Units=GPa)
#
#
# Indices 1 2 3 4 5 6 
#
# 1 59.1248 41.1515 8.8993 11.7941 -9.5980 -0.7198
# 2 41.1515 163.4639 12.9531 10.1305 -5.7444 -13.7604
# 3 8.8993 12.9531 91.4493 -14.7000 -4.2416 7.1114
# 4 11.7941 10.1305 -14.7000 44.6771 -3.1922 -4.7830
# 5 -9.5980 -5.7444 -4.2416 -3.1922 27.3085 11.1137
# 6 -0.7198 -13.7604 7.1114 -4.7830 11.1137 29.7770
#
#
#
# Elastic Compliance Matrix: (Units=1/GPa)
#
#
# Indices 1 2 3 4 5 6 
#
# 1 0.023455 -0.005631 -0.001515 -0.005417 0.008520 -0.005723
# 2 -0.005631 0.007951 -0.001109 -0.000356 -0.002411 0.004646
# 3 -0.001515 -0.001109 0.012440 0.004551 0.003341 -0.004036
# 4 -0.005417 -0.000356 0.004551 0.025708 0.000725 0.002476
# 5 0.008520 -0.002411 0.003341 0.000725 0.047584 -0.019349
# 6 -0.005723 0.004646 -0.004036 0.002476 -0.019349 0.044175
#
#
# Mechanical properties :
#
#
# Convention : Reuss Voigt Hill
#
# Bulk Modulus (GPa) = 36.58235 48.89398 42.73817
# Shear Modulus (GPa) = 26.74712 37.08813 31.91762
#
# Velocity S-wave (km/s) = 3.40286 4.00703 3.71724
# Velocity P-wave (km/s) = 5.59255 6.52501 6.07669
#
# Compressibility (1/GPa) = 0.02733558
#
# Stress axis : x y z
#
# Youngs Moduli (GPa) = 42.63492 125.76258 80.38665
#
# Poissons Ratio (x) = 0.70820 0.12182
# Poissons Ratio (y) = 0.24009 0.08912
# Poissons Ratio (z) = 0.06461 0.13942
#
# Static dielectric constant tensor:
#      x y z
#    x 3.727890 -0.122930 -0.319070 
#    y -0.122930 4.650110 0.439520 
#    z -0.319070 0.439520 3.996110 
# 
# 
# High freq. dielectric constant tensor:
#      x y z
#    x 1.871930 -0.016310 -0.013490 
#    y -0.016310 1.947240 0.009760 
#    z -0.013490 0.009760 1.924890 
# 
# From -- ./inp_files/117113.got.cif
#   From: 2010.06.25/outbox.cif.g09.slc.cpg/sg2_59_cif.got.tgz:117113.got - 2010.06.27 13:26:56.
