data_PCOD8020676
_publ_section_title
;
Structure prediction by ZEFSAII (Michael W. Deem and Ramdas Pophale) SiO2 
 PCOD8020676
Probable space group: P -1
;
_chemical_formula_sum "Si O2"
_cell_formula_units_Z 14
_cell_length_a 8.569728
_cell_length_b 17.625285
_cell_length_c 6.104243
_cell_angle_alpha 48.141636
_cell_angle_beta 63.043351
_cell_angle_gamma 66.736143
_cell_volume 606.130798
_symmetry_space_group_name_H-M "P -1"
_symmetry_group_IT_number 2
_symmetry_cell_setting 'triclinic'
loop_
_space_group_symop_operation_xyz
x,y,z
-x,-y,-z
loop_
_atom_site_type_symbol
_atom_site_label
_atom_site_fract_x
_atom_site_fract_y
_atom_site_fract_z
Si Si1 0.042083 0.684846 0.238281
Si Si2 0.203733 0.869485 0.653276
Si Si3 0.775474 0.750786 0.924980
Si Si4 0.327619 0.573828 0.543642
Si Si5 0.907446 0.952649 0.350760
Si Si6 0.521938 0.272694 0.538209
Si Si7 0.263625 0.385307 0.167501
O O1 0.215844 0.601794 0.336180
O O2 0.907814 0.661818 0.555004
O O3 0.105406 0.795424 0.013564
O O4 0.951402 0.685563 0.052993
O O5 0.370356 0.809856 0.533348
O O6 0.069148 0.924351 0.461561
O O7 0.244910 0.960576 0.615528
O O8 0.817971 0.849342 0.568591
O O9 0.683217 0.675067 0.975466
O O10 0.627101 0.785530 0.137847
O O11 0.500000 0.500000 0.500000
O O12 0.358257 0.676994 0.457641
O O13 0.223915 0.506871 0.906530
O O14 0.000000 0.000000 0.000000
O O15 0.423756 0.365754 0.275001
#
# Coordination Sequence:
#
# PCOD8020676 Si02
#       7
#     2   2   2   2   2   2   2
#     4  10  24  41  67  94 132 173 223 267 324 387
#     4  10  23  42  66  99 129 171 216 272 328 390
#     4  10  23  44  66  98 133 173 214 276 327 392
#     4  12  24  43  67  96 132 181 222 268 325 384
#     4  10  22  42  71  97 129 169 219 267 331 397
#     4  11  25  43  66  95 140 171 219 271 329 385
#     4  11  23  44  64  98 135 173 223 270 323 385
#
# _framework density 23.097324
#
# number of rings (size 3 to 8) (size 9 to 14) (size 15 to 20)
#    0.000    1.429    1.429    2.571    6.000    2.286 
#    0.000    1.429    0.000    0.000    0.000    0.000 
#    0.000    0.000    0.000    0.000    0.000    0.000 
#
# Total GULP energy -173445.033930 kJ/mol
# GULP energy per Si atom -12388.930995 kJ/mol
# Density = 2.304475 g / cm^3
# Si number density = 23.097324 Si / 1000 Ang^3
#
#
#
# Elastic Constant Matrix: (Units=GPa)
#
#
# Indices 1 2 3 4 5 6 
#
# 1 75.0893 32.2321 38.8738 -4.1807 -5.2897 -7.1952
# 2 32.2321 98.6061 39.0894 1.0817 -2.9073 -7.8321
# 3 38.8738 39.0894 161.9718 -19.2288 -6.2207 -13.0724
# 4 -4.1807 1.0817 -19.2288 28.9845 -2.8072 -3.0469
# 5 -5.2897 -2.9073 -6.2207 -2.8072 22.9942 -1.8895
# 6 -7.1952 -7.8321 -13.0724 -3.0469 -1.8895 29.5441
#
#
#
# Elastic Compliance Matrix: (Units=1/GPa)
#
#
# Indices 1 2 3 4 5 6 
#
# 1 0.016996 -0.004283 -0.002583 0.001422 0.003024 0.002201
# 2 -0.004283 0.012521 -0.002212 -0.002465 -0.000217 0.001029
# 3 -0.002583 -0.002212 0.008373 0.005835 0.002370 0.003243
# 4 0.001422 -0.002465 0.005835 0.040073 0.007050 0.006858
# 5 0.003024 -0.000217 0.002370 0.007050 0.046103 0.005403
# 6 0.002201 0.001029 0.003243 0.006858 0.005403 0.037144
#
#
# Mechanical properties :
#
#
# Convention : Reuss Voigt Hill
#
# Bulk Modulus (GPa) = 50.67285 61.78420 56.22852
# Shear Modulus (GPa) = 26.88968 31.33603 29.11286
#
# Velocity S-wave (km/s) = 3.41573 3.68733 3.55412
# Velocity P-wave (km/s) = 6.12721 6.70344 6.42179
#
# Compressibility (1/GPa) = 0.01973444
#
# Stress axis : x y z
#
# Youngs Moduli (GPa) = 58.83592 79.86827 119.43115
#
# Poissons Ratio (x) = 0.34211 0.30847
# Poissons Ratio (y) = 0.25202 0.26412
# Poissons Ratio (z) = 0.15196 0.17663
#
# Static dielectric constant tensor:
#      x y z
#    x 3.915350 -0.470260 -0.687640 
#    y -0.470260 3.422150 -1.711240 
#    z -0.687640 -1.711240 1.693100 
# 
# 
# High freq. dielectric constant tensor:
#      x y z
#    x 1.903560 -0.004140 0.001400 
#    y -0.004140 1.893030 -0.004230 
#    z 0.001400 -0.004230 1.936870 
# 
# From -- ./inp_files/44104.got.cif
#   From: 2010.06.25/outbox.cif.g09.slc.cpg/sg2_23_cif.got.tgz:44104.got - 2010.06.27 13:26:56.
