data_PCOD8020440
_publ_section_title
;
Structure prediction by ZEFSAII (Michael W. Deem and Ramdas Pophale) SiO2 
 PCOD8020440
Probable space group: P -1
;
_chemical_formula_sum "Si O2"
_cell_formula_units_Z 16
_cell_length_a 5.619699
_cell_length_b 11.957528
_cell_length_c 27.762871
_cell_angle_alpha 25.245248
_cell_angle_beta 118.270521
_cell_angle_gamma 108.618269
_cell_volume 670.530012
_symmetry_space_group_name_H-M "P -1"
_symmetry_group_IT_number 2
_symmetry_cell_setting 'triclinic'
loop_
_space_group_symop_operation_xyz
x,y,z
-x,-y,-z
loop_
_atom_site_type_symbol
_atom_site_label
_atom_site_fract_x
_atom_site_fract_y
_atom_site_fract_z
Si Si1 0.226524 0.688404 0.497674
Si Si2 0.105945 0.719575 0.370877
Si Si3 0.941618 0.317795 0.995851
Si Si4 0.245950 0.759924 0.263133
Si Si5 0.822727 0.465623 0.301361
Si Si6 0.289128 0.831477 0.064784
Si Si7 0.773847 0.272729 0.100378
Si Si8 0.815726 0.969864 0.556545
O O1 0.297345 0.726526 0.433590
O O2 0.480747 0.479779 0.633666
O O3 0.160771 0.984133 0.401776
O O4 0.959656 0.570266 0.522023
O O5 0.270206 0.765275 0.321466
O O6 0.816177 0.976318 0.245045
O O7 0.774507 0.235216 0.057190
O O8 0.787770 0.328970 0.925692
O O9 0.234353 0.059244 0.123446
O O10 0.978295 0.610712 0.899321
O O11 0.962129 0.697673 0.241279
O O12 0.485259 0.601200 0.208910
O O13 0.903336 0.220838 0.442823
O O14 0.969843 0.326202 0.319938
O O15 0.500000 0.000000 0.000000
O O16 0.000000 0.000000 0.000000
O O17 0.500000 0.500000 0.000000
O O18 0.500000 0.000000 0.500000
#
# Coordination Sequence:
#
# PCOD8020440 Si02
#       8
#     2   2   2   2   2   2   2   2
#     4  11  22  38  66  94 129 176 224 282 345 418
#     4  10  23  39  60  97 128 171 225 286 342 415
#     4  10  24  42  66 102 130 182 232 292 354 425
#     4  11  20  41  67  90 134 170 230 275 354 419
#     4  11  25  43  66 100 137 184 232 288 353 427
#     4  12  29  47  75 110 146 189 243 300 362 433
#     4  10  22  42  68  94 136 180 230 288 357 418
#     4  11  24  42  66  97 133 180 230 285 347 423
#
# _framework density 23.861722
#
# number of rings (size 3 to 8) (size 9 to 14) (size 15 to 20)
#    0.000    1.250    3.750    1.125    5.250    2.000 
#    0.000    1.250    0.000    0.000    0.000    0.000 
#    0.000    0.000    0.000    0.000    0.000    0.000 
#
# Total GULP energy -198274.699044 kJ/mol
# GULP energy per Si atom -12392.168690 kJ/mol
# Density = 2.380741 g / cm^3
# Si number density = 23.861722 Si / 1000 Ang^3
#
#
#
# Elastic Constant Matrix: (Units=GPa)
#
#
# Indices 1 2 3 4 5 6 
#
# 1 61.5161 19.6846 5.6539 0.1077 21.4028 -6.8986
# 2 19.6846 161.3639 18.5798 10.3527 4.5321 -20.3460
# 3 5.6539 18.5798 75.3096 1.9605 20.2795 -7.7011
# 4 0.1077 10.3527 1.9605 39.6312 -0.1940 4.1310
# 5 21.4028 4.5321 20.2795 -0.1940 45.1754 -4.8080
# 6 -6.8986 -20.3460 -7.7011 4.1310 -4.8080 19.8187
#
#
#
# Elastic Compliance Matrix: (Units=1/GPa)
#
#
# Indices 1 2 3 4 5 6 
#
# 1 0.020622 -0.002030 0.002028 -0.000034 -0.010111 0.003437
# 2 -0.002030 0.007689 -0.001320 -0.002725 0.001583 0.007626
# 3 0.002028 -0.001320 0.015908 -0.000889 -0.007560 0.003884
# 4 -0.000034 -0.002725 -0.000889 0.026905 -0.000132 -0.008795
# 5 -0.010111 0.001583 -0.007560 -0.000132 0.030435 0.002579
# 6 0.003437 0.007626 0.003884 -0.008795 0.002579 0.063450
#
#
# Mechanical properties :
#
#
# Convention : Reuss Voigt Hill
#
# Bulk Modulus (GPa) = 24.05300 42.89181 33.47241
# Shear Modulus (GPa) = 27.54651 37.87647 32.71149
#
# Velocity S-wave (km/s) = 3.40137 3.98846 3.70655
# Velocity P-wave (km/s) = 5.05250 6.26295 5.69000
#
# Compressibility (1/GPa) = 0.04157485
#
# Stress axis : x y z
#
# Youngs Moduli (GPa) = 48.49093 130.06233 62.86166
#
# Poissons Ratio (x) = 0.26399 -0.12746
# Poissons Ratio (y) = 0.09842 0.08297
# Poissons Ratio (z) = -0.09832 0.17168
#
# Static dielectric constant tensor:
#      x y z
#    x 4.244050 -0.020060 -0.086580 
#    y -0.020060 5.157360 -0.567050 
#    z -0.086580 -0.567050 4.885580 
# 
# 
# High freq. dielectric constant tensor:
#      x y z
#    x 1.924710 -0.010460 0.007040 
#    y -0.010460 1.963930 -0.008150 
#    z 0.007040 -0.008150 1.939300 
# 
# From -- ./inp_files/109712.got.cif
#   From: 2010.06.25/outbox.cif.g09.slc.cpg/sg2_55_cif.got.tgz:109712.got - 2010.06.27 13:26:56.
