data_PCOD8020358
_publ_section_title
;
Structure prediction by ZEFSAII (Michael W. Deem and Ramdas Pophale) SiO2 
 PCOD8020358
Probable space group: P -1
;
_chemical_formula_sum "Si O2"
_cell_formula_units_Z 16
_cell_length_a 25.457335
_cell_length_b 9.595159
_cell_length_c 8.766261
_cell_angle_alpha 57.570831
_cell_angle_beta 131.709503
_cell_angle_gamma 151.600648
_cell_volume 753.009674
_symmetry_space_group_name_H-M "P -1"
_symmetry_group_IT_number 2
_symmetry_cell_setting 'triclinic'
loop_
_space_group_symop_operation_xyz
x,y,z
-x,-y,-z
loop_
_atom_site_type_symbol
_atom_site_label
_atom_site_fract_x
_atom_site_fract_y
_atom_site_fract_z
Si Si1 0.398014 0.990619 0.960506
Si Si2 0.643566 0.272476 0.670958
Si Si3 0.657489 0.437761 0.087789
Si Si4 0.199059 0.863136 0.567756
Si Si5 0.240801 0.215392 0.208951
Si Si6 0.832700 0.638940 0.557900
Si Si7 0.974056 0.261402 0.130313
Si Si8 0.937834 0.172983 0.444551
O O1 0.375201 0.801180 0.908486
O O2 0.327711 0.020608 0.762628
O O3 0.346888 0.849751 0.112040
O O4 0.549659 0.307126 0.064673
O O5 0.702698 0.555123 0.687986
O O6 0.725895 0.380920 0.622613
O O7 0.500000 0.000000 0.500000
O O8 0.776961 0.623556 0.312010
O O9 0.676715 0.610403 0.888576
O O10 0.162203 0.921641 0.592229
O O11 0.082544 0.511017 0.537362
O O12 0.232245 0.016613 0.381669
O O13 0.098671 0.972601 0.012658
O O14 0.900350 0.599187 0.672616
O O15 0.932185 0.972004 0.612344
O O16 0.893488 0.107576 0.221441
O O17 0.000000 0.500000 0.000000
#
# Coordination Sequence:
#
# PCOD8020358 Si02
#       8
#     2   2   2   2   2   2   2   2
#     4  10  23  42  68  96 130 180 224 276 334 393
#     4  11  24  45  68  98 133 175 231 276 333 405
#     4  10  22  42  67  97 131 176 228 272 328 405
#     4  11  24  43  67 100 140 177 221 283 334 397
#     4  11  24  43  67  99 140 171 228 277 336 406
#     4  12  24  42  70  97 135 181 222 276 341 403
#     4  12  26  42  67 103 137 176 225 281 338 404
#     4  11  24  43  65  96 142 177 222 276 337 402
#
# _framework density 21.248066999999999
#
# number of rings (size 3 to 8) (size 9 to 14) (size 15 to 20)
#    0.000    1.000    5.000    1.125    5.250    1.000 
#    0.000    3.750    0.000    0.000    0.000    0.000 
#    0.000    0.000    0.000    0.000    0.000    0.000 
#
# Total GULP energy -198252.425364 kJ/mol
# GULP energy per Si atom -12390.776585 kJ/mol
# Density = 2.119971 g / cm^3
# Si number density = 21.248067 Si / 1000 Ang^3
#
#
#
# Elastic Constant Matrix: (Units=GPa)
#
#
# Indices 1 2 3 4 5 6 
#
# 1 96.4249 43.6277 49.2973 -11.8104 8.8655 2.2744
# 2 43.6277 103.8320 43.2117 -10.8198 10.1230 5.9921
# 3 49.2973 43.2117 115.5832 -9.6343 15.3580 -4.5348
# 4 -11.8104 -10.8198 -9.6343 45.0409 -0.8544 -12.5392
# 5 8.8655 10.1230 15.3580 -0.8544 38.5978 1.2830
# 6 2.2744 5.9921 -4.5348 -12.5392 1.2830 18.3883
#
#
#
# Elastic Compliance Matrix: (Units=1/GPa)
#
#
# Indices 1 2 3 4 5 6 
#
# 1 0.014840 -0.004059 -0.004615 0.001814 -0.000455 -0.000382
# 2 -0.004059 0.013019 -0.003149 0.000164 -0.001082 -0.004330
# 3 -0.004615 -0.003149 0.012718 0.002559 -0.003341 0.006711
# 4 0.001814 0.000164 0.002559 0.028838 -0.001508 0.020124
# 5 -0.000455 -0.001082 -0.003341 -0.001508 0.027705 -0.003377
# 6 -0.000382 -0.004330 0.006711 0.020124 -0.003377 0.071454
#
#
# Mechanical properties :
#
#
# Convention : Reuss Voigt Hill
#
# Bulk Modulus (GPa) = 59.06288 65.34594 62.20441
# Shear Modulus (GPa) = 25.27001 32.38563 28.82782
#
# Velocity S-wave (km/s) = 3.45234 3.90829 3.68737
# Velocity P-wave (km/s) = 6.61428 7.15451 6.88969
#
# Compressibility (1/GPa) = 0.01693111
#
# Stress axis : x y z
#
# Youngs Moduli (GPa) = 67.38599 76.80920 78.62990
#
# Poissons Ratio (x) = 0.31179 0.36289
# Poissons Ratio (y) = 0.27354 0.24757
# Poissons Ratio (z) = 0.31100 0.24184
#
# Static dielectric constant tensor:
#      x y z
#    x 3.794590 0.098090 -0.284710 
#    y 0.098090 4.210760 -0.007200 
#    z -0.284710 -0.007200 3.875450 
# 
# 
# High freq. dielectric constant tensor:
#      x y z
#    x 1.816320 0.007190 -0.019930 
#    y 0.007190 1.851560 -0.007080 
#    z -0.019930 -0.007080 1.835370 
# 
# From -- ./inp_files/308195.got.cif
#   From: 2010.06.25/outbox.cif.g09.slc.cpg/sg2_155_cif.got.tgz:308195.got - 2010.06.27 13:26:56.
