data_PCOD8020461
_publ_section_title
;
Structure prediction by ZEFSAII (Michael W. Deem and Ramdas Pophale) SiO2 
 PCOD8020461
Probable space group: P -1
;
_chemical_formula_sum "Si O2"
_cell_formula_units_Z 16
_cell_length_a 11.951267
_cell_length_b 28.689744
_cell_length_c 23.893243
_cell_angle_alpha 168.860400
_cell_angle_beta 28.167938
_cell_angle_gamma 152.410548
_cell_volume 726.445004
_symmetry_space_group_name_H-M "P -1"
_symmetry_group_IT_number 2
_symmetry_cell_setting 'triclinic'
loop_
_space_group_symop_operation_xyz
x,y,z
-x,-y,-z
loop_
_atom_site_type_symbol
_atom_site_label
_atom_site_fract_x
_atom_site_fract_y
_atom_site_fract_z
Si Si1 0.697763 0.957476 0.287403
Si Si2 0.807794 0.940359 0.346709
Si Si3 0.875890 0.165165 0.181150
Si Si4 0.616383 0.395260 0.655155
Si Si5 0.808791 0.642914 0.277070
Si Si6 0.633638 0.528055 0.650765
Si Si7 0.313475 0.408693 0.424958
Si Si8 0.832592 0.419641 0.699740
O O1 0.420492 0.981025 0.432472
O O2 0.805646 0.990009 0.340175
O O3 0.857418 0.182737 0.446092
O O4 0.708018 0.687412 0.941583
O O5 0.055626 0.102274 0.453621
O O6 0.795159 0.651628 0.026718
O O7 0.795477 0.243674 0.370047
O O8 0.770157 0.313600 0.354651
O O9 0.171438 0.217210 0.117131
O O10 0.761366 0.885181 0.887938
O O11 0.342644 0.289296 0.628760
O O12 0.609314 0.355333 0.678032
O O13 0.618935 0.485873 0.221107
O O14 0.000000 0.500000 0.000000
O O15 0.575166 0.500505 0.577908
O O16 0.500000 0.500000 0.500000
O O17 0.076574 0.514716 0.667247
#
# Coordination Sequence:
#
# PCOD8020461 Si02
#       8
#     2   2   2   2   2   2   2   2
#     4  10  22  43  68  92 132 178 219 269 330 392
#     4  10  23  44  64  96 134 172 223 271 324 394
#     4  10  23  44  69  93 132 174 224 265 326 396
#     4  10  22  42  68  97 127 172 224 267 327 392
#     4  11  23  43  71  98 133 172 222 276 330 382
#     4  10  24  44  70  93 132 176 216 273 333 381
#     4  12  28  42  63 105 135 169 221 276 328 394
#     4  11  25  41  68  95 133 175 223 263 333 398
#
# _framework density 22.025067
#
# number of rings (size 3 to 8) (size 9 to 14) (size 15 to 20)
#    0.000    1.500    2.500    0.750   10.500    0.500 
#    0.000    1.875    0.000    0.000    0.000    0.000 
#    0.000    0.000    0.000    0.000    0.000    0.000 
#
# Total GULP energy -198379.591775 kJ/mol
# GULP energy per Si atom -12398.724486 kJ/mol
# Density = 2.197494 g / cm^3
# Si number density = 22.025067 Si / 1000 Ang^3
#
#
#
# Elastic Constant Matrix: (Units=GPa)
#
#
# Indices 1 2 3 4 5 6 
#
# 1 118.0493 40.7188 25.9883 11.2400 16.5381 5.1007
# 2 40.7188 104.5442 36.6023 -11.0296 13.4577 10.8013
# 3 25.9883 36.6023 110.9722 13.2008 12.5933 9.8336
# 4 11.2400 -11.0296 13.2008 36.1451 2.1092 0.9828
# 5 16.5381 13.4577 12.5933 2.1092 32.7925 7.9746
# 6 5.1007 10.8013 9.8336 0.9828 7.9746 35.1642
#
#
#
# Elastic Compliance Matrix: (Units=1/GPa)
#
#
# Indices 1 2 3 4 5 6 
#
# 1 0.010869 -0.004209 -0.000301 -0.004368 -0.003534 0.000724
# 2 -0.004209 0.013852 -0.004016 0.007177 -0.001926 -0.002285
# 3 -0.000301 -0.004016 0.011350 -0.005130 -0.001908 -0.001321
# 4 -0.004368 0.007177 -0.005130 0.033153 -0.000684 -0.000908
# 5 -0.003534 -0.001926 -0.001908 -0.000684 0.035393 -0.006370
# 6 0.000724 -0.002285 -0.001321 -0.000908 -0.006370 0.030874
#
#
# Mechanical properties :
#
#
# Convention : Reuss Voigt Hill
#
# Bulk Modulus (GPa) = 52.57617 60.02050 56.29834
# Shear Modulus (GPa) = 31.47024 36.17076 33.82050
#
# Velocity S-wave (km/s) = 3.78410 4.05687 3.92286
# Velocity P-wave (km/s) = 6.55861 7.01815 6.79227
#
# Compressibility (1/GPa) = 0.01902002
#
# Stress axis : x y z
#
# Youngs Moduli (GPa) = 92.00852 72.19344 88.10558
#
# Poissons Ratio (x) = 0.30383 0.02649
# Poissons Ratio (y) = 0.38723 0.35382
# Poissons Ratio (z) = 0.02767 0.28992
#
# Static dielectric constant tensor:
#      x y z
#    x 4.184770 0.027530 0.145850 
#    y 0.027530 3.951480 -0.067770 
#    z 0.145850 -0.067770 3.990320 
# 
# 
# High freq. dielectric constant tensor:
#      x y z
#    x 1.873420 0.003030 0.007550 
#    y 0.003030 1.852320 -0.008230 
#    z 0.007550 -0.008230 1.872230 
# 
# From -- ./inp_files/611055.got.cif
#   From: 2010.06.25/outbox.cif.g09.slc.cpg/sg2_306_cif.got.tgz:611055.got - 2010.06.27 13:26:56.
