data_PCOD8020993
_publ_section_title
;
Structure prediction by ZEFSAII (Michael W. Deem and Ramdas Pophale) SiO2 
 PCOD8020993
Probable space group: P -1
;
_chemical_formula_sum "Si O2"
_cell_formula_units_Z 16
_cell_length_a 12.270794
_cell_length_b 18.104792
_cell_length_c 8.709567
_cell_angle_alpha 78.922336
_cell_angle_beta 48.093488
_cell_angle_gamma 41.287409
_cell_volume 737.340977
_symmetry_space_group_name_H-M "P -1"
_symmetry_group_IT_number 2
_symmetry_cell_setting 'triclinic'
loop_
_space_group_symop_operation_xyz
x,y,z
-x,-y,-z
loop_
_atom_site_type_symbol
_atom_site_label
_atom_site_fract_x
_atom_site_fract_y
_atom_site_fract_z
Si Si1 0.086008 0.887111 0.170630
Si Si2 0.797496 0.393941 0.331274
Si Si3 0.932854 0.404056 0.523560
Si Si4 0.797613 0.891123 0.076705
Si Si5 0.365839 0.340776 0.105221
Si Si6 0.156898 0.168978 0.595992
Si Si7 0.788967 0.160260 0.267250
Si Si8 0.756357 0.554913 0.154053
O O1 0.973632 0.853055 0.325791
O O2 0.300413 0.816936 0.131095
O O3 0.264373 0.817664 0.873345
O O4 0.826987 0.059597 0.340768
O O5 0.500000 0.500000 0.500000
O O6 0.893958 0.414206 0.111787
O O7 0.788962 0.430291 0.498124
O O8 0.032234 0.226238 0.170632
O O9 0.223796 0.320496 0.249204
O O10 0.978747 0.317007 0.638215
O O11 0.728771 0.559030 0.714503
O O12 0.843189 0.827983 0.220726
O O13 0.470496 0.037786 0.284973
O O14 0.920650 0.921276 0.951636
O O15 0.307977 0.408269 0.976078
O O16 0.524583 0.314474 0.533245
O O17 0.000000 0.500000 0.000000
#
# Coordination Sequence:
#
# PCOD8020993 Si02
#       8
#     2   2   2   2   2   2   2   2
#     4  10  23  40  69  98 128 172 215 270 324 384
#     4  12  25  43  68  96 133 174 215 269 328 381
#     4  11  25  44  66  97 132 172 217 269 325 384
#     4  10  22  43  66  94 134 171 213 268 325 389
#     4  11  25  43  67  95 133 172 217 269 321 389
#     4  10  23  41  68 100 127 170 220 267 326 384
#     4  10  22  43  66  95 134 171 215 265 327 387
#     4  12  25  43  66  98 132 174 219 264 322 391
#
# _framework density 21.699594999999999
#
# number of rings (size 3 to 8) (size 9 to 14) (size 15 to 20)
#    0.000    1.250    2.500    2.250    7.000    2.500 
#    0.000    0.000    0.000    0.000    0.000    0.000 
#    0.000    0.000    0.000    0.000    0.000    0.000 
#
# Total GULP energy -198352.951412 kJ/mol
# GULP energy per Si atom -12397.059463 kJ/mol
# Density = 2.165021 g / cm^3
# Si number density = 21.699595 Si / 1000 Ang^3
#
#
#
# Elastic Constant Matrix: (Units=GPa)
#
#
# Indices 1 2 3 4 5 6 
#
# 1 119.3588 30.9007 24.5839 0.7131 -9.9891 -8.8216
# 2 30.9007 104.8642 0.8493 -14.0312 -11.1323 8.4928
# 3 24.5839 0.8493 67.7685 6.3730 -11.8087 -0.1861
# 4 0.7131 -14.0312 6.3730 31.6487 1.4155 -2.3063
# 5 -9.9891 -11.1323 -11.8087 1.4155 41.7336 0.6781
# 6 -8.8216 8.4928 -0.1861 -2.3063 0.6781 38.9646
#
#
#
# Elastic Compliance Matrix: (Units=1/GPa)
#
#
# Indices 1 2 3 4 5 6 
#
# 1 0.010211 -0.003265 -0.003482 -0.000787 0.000567 0.002950
# 2 -0.003265 0.011629 0.001025 0.004690 0.002501 -0.003035
# 3 -0.003482 0.001025 0.017069 -0.003188 0.004397 -0.001195
# 4 -0.000787 0.004690 -0.003188 0.034443 -0.001021 0.000841
# 5 0.000567 0.002501 0.004397 -0.001021 0.026058 -0.000910
# 6 0.002950 -0.003035 -0.001195 0.000841 -0.000910 0.027054
#
#
# Mechanical properties :
#
#
# Convention : Reuss Voigt Hill
#
# Bulk Modulus (GPa) = 36.41064 44.96216 40.68640
# Shear Modulus (GPa) = 33.99938 38.17990 36.08964
#
# Velocity S-wave (km/s) = 3.96260 4.19916 4.08260
# Velocity P-wave (km/s) = 6.14428 6.65401 6.40422
#
# Compressibility (1/GPa) = 0.02746450
#
# Stress axis : x y z
#
# Youngs Moduli (GPa) = 97.93659 85.99494 58.58472
#
# Poissons Ratio (x) = 0.28074 0.20401
# Poissons Ratio (y) = 0.31973 -0.06005
# Poissons Ratio (z) = 0.34105 -0.08814
#
# Static dielectric constant tensor:
#      x y z
#    x 3.966920 0.085300 -0.112320 
#    y 0.085300 3.878650 -0.058400 
#    z -0.112320 -0.058400 3.755010 
# 
# 
# High freq. dielectric constant tensor:
#      x y z
#    x 1.858680 0.006880 -0.011860 
#    y 0.006880 1.862440 -0.001800 
#    z -0.011860 -0.001800 1.841490 
# 
# From -- ./inp_files/262332.got.cif
#   From: 2010.06.25/outbox.cif.g09.slc.cpg/sg2_132_cif.got.tgz:262332.got - 2010.06.27 13:26:56.
