data_PCOD8020427
_publ_section_title
;
Structure prediction by ZEFSAII (Michael W. Deem and Ramdas Pophale) SiO2 
 PCOD8020427
Probable space group: P -1
;
_chemical_formula_sum "Si O2"
_cell_formula_units_Z 14
_cell_length_a 8.443055
_cell_length_b 19.634648
_cell_length_c 11.201169
_cell_angle_alpha 147.747077
_cell_angle_beta 40.137366
_cell_angle_gamma 139.646983
_cell_volume 601.683775
_symmetry_space_group_name_H-M "P -1"
_symmetry_group_IT_number 2
_symmetry_cell_setting 'triclinic'
loop_
_space_group_symop_operation_xyz
x,y,z
-x,-y,-z
loop_
_atom_site_type_symbol
_atom_site_label
_atom_site_fract_x
_atom_site_fract_y
_atom_site_fract_z
Si Si1 0.658628 0.453399 0.740240
Si Si2 0.054945 0.657651 0.173044
Si Si3 0.821922 0.964198 0.379460
Si Si4 0.429301 0.120045 0.842707
Si Si5 0.760333 0.513039 0.513508
Si Si6 0.212455 0.209066 0.636071
Si Si7 0.708089 0.713913 0.655234
O O1 0.652666 0.527381 0.728142
O O2 0.520685 0.290024 0.558015
O O3 0.953934 0.494312 0.668679
O O4 0.500000 0.500000 0.000000
O O5 0.362978 0.737342 0.112370
O O6 0.933163 0.681187 0.150249
O O7 0.928217 0.728573 0.451243
O O8 0.000000 0.500000 0.000000
O O9 0.795356 0.928929 0.202067
O O10 0.821938 0.837718 0.274934
O O11 0.575890 0.012374 0.625995
O O12 0.097647 0.082212 0.423860
O O13 0.299732 0.142351 0.076187
O O14 0.772189 0.645707 0.634338
O O15 0.577662 0.374191 0.354940
#
# Coordination Sequence:
#
# PCOD8020427 Si02
#       7
#     2   2   2   2   2   2   2
#     4  11  25  40  67  97 134 177 211 274 344 405
#     4  11  23  40  70 101 133 176 215 272 351 402
#     4   9  22  45  67  96 124 184 235 271 324 383
#     4  10  23  43  70  94 134 173 227 282 323 394
#     4  10  24  41  59 102 141 161 217 264 348 410
#     4  10  22  42  68  93 133 176 228 273 330 395
#     4  11  23  40  66  98 136 172 213 274 327 408
#
# _framework density 23.268035999999999
#
# number of rings (size 3 to 8) (size 9 to 14) (size 15 to 20)
#    0.000    1.714    1.429    1.714   10.000    0.000 
#    0.000    7.857    0.000    0.000    0.000    0.000 
#    0.000    0.000    0.000    0.000    0.000    0.000 
#
# Total GULP energy -173484.134579 kJ/mol
# GULP energy per Si atom -12391.723899 kJ/mol
# Density = 2.321508 g / cm^3
# Si number density = 23.268036 Si / 1000 Ang^3
#
#
#
# Elastic Constant Matrix: (Units=GPa)
#
#
# Indices 1 2 3 4 5 6 
#
# 1 152.8812 44.8435 50.4229 -9.3509 5.7868 1.0594
# 2 44.8435 86.2589 25.1209 -12.2483 -0.6777 3.1804
# 3 50.4229 25.1209 126.1928 -25.8744 13.7790 -0.0566
# 4 -9.3509 -12.2483 -25.8744 40.0534 -7.9352 -11.4730
# 5 5.7868 -0.6777 13.7790 -7.9352 16.6473 15.6096
# 6 1.0594 3.1804 -0.0566 -11.4730 15.6096 54.3619
#
#
#
# Elastic Compliance Matrix: (Units=1/GPa)
#
#
# Indices 1 2 3 4 5 6 
#
# 1 0.008554 -0.003853 -0.002703 -0.001185 -0.001746 0.000307
# 2 -0.003853 0.014605 -0.001380 0.003412 0.006514 -0.001931
# 3 -0.002703 -0.001380 0.011512 0.005621 -0.009872 0.004166
# 4 -0.001185 0.003412 0.005621 0.032044 0.006831 0.004631
# 5 -0.001746 0.006514 -0.009872 0.006831 0.097642 -0.026953
# 6 0.000307 -0.001931 0.004166 0.004631 -0.026953 0.027223
#
#
# Mechanical properties :
#
#
# Convention : Reuss Voigt Hill
#
# Bulk Modulus (GPa) = 53.19841 67.34529 60.27185
# Shear Modulus (GPa) = 23.39518 38.54224 30.96871
#
# Velocity S-wave (km/s) = 3.17435 4.07436 3.65218
# Velocity P-wave (km/s) = 6.02895 7.15122 6.61393
#
# Compressibility (1/GPa) = 0.01879755
#
# Stress axis : x y z
#
# Youngs Moduli (GPa) = 116.90021 68.46954 86.86912
#
# Poissons Ratio (x) = 0.26383 0.23483
# Poissons Ratio (y) = 0.45044 0.11989
# Poissons Ratio (z) = 0.31601 0.09450
#
# Static dielectric constant tensor:
#      x y z
#    x 4.700760 0.023920 0.036070 
#    y 0.023920 4.446660 0.124480 
#    z 0.036070 0.124480 4.098360 
# 
# 
# High freq. dielectric constant tensor:
#      x y z
#    x 1.940590 0.003120 0.012290 
#    y 0.003120 1.918710 0.007300 
#    z 0.012290 0.007300 1.891160 
# 
# From -- ./inp_files/405005.got.cif
#   From: 2010.06.25/outbox.cif.g09.slc.cpg/sg2_203_cif.got.tgz:405005.got - 2010.06.27 13:26:56.
