data_PCOD8020176
_publ_section_title
;
Structure prediction by ZEFSAII (Michael W. Deem and Ramdas Pophale) SiO2 
 PCOD8020176
Probable space group: P -1
;
_chemical_formula_sum "Si O2"
_cell_formula_units_Z 16
_cell_length_a 8.980451
_cell_length_b 22.627462
_cell_length_c 9.693296
_cell_angle_alpha 124.129547
_cell_angle_beta 126.113050
_cell_angle_gamma 29.819292
_cell_volume 785.192065
_symmetry_space_group_name_H-M "P -1"
_symmetry_group_IT_number 2
_symmetry_cell_setting 'triclinic'
loop_
_space_group_symop_operation_xyz
x,y,z
-x,-y,-z
loop_
_atom_site_type_symbol
_atom_site_label
_atom_site_fract_x
_atom_site_fract_y
_atom_site_fract_z
Si Si1 0.700846 0.397901 0.365038
Si Si2 0.660929 0.768012 0.626395
Si Si3 0.699446 0.751497 0.939706
Si Si4 0.770464 0.231244 0.611358
Si Si5 0.198232 0.786716 0.713933
Si Si6 0.170405 0.010915 0.035817
Si Si7 0.260563 0.024257 0.818926
Si Si8 0.353183 0.567851 0.149402
O O1 0.500000 0.500000 0.500000
O O2 0.677350 0.324528 0.303112
O O3 0.530886 0.463227 0.215480
O O4 0.059387 0.311062 0.433961
O O5 0.801625 0.718544 0.792207
O O6 0.479790 0.751935 0.469020
O O7 0.429705 0.907804 0.675527
O O8 0.470142 0.758101 0.855329
O O9 0.995310 0.655665 0.073616
O O10 0.533519 0.878695 0.050417
O O11 0.889005 0.188144 0.461997
O O12 0.612136 0.357873 0.709545
O O13 0.056998 0.132656 0.742685
O O14 0.890636 0.901480 0.785918
O O15 0.047817 0.058908 0.873250
O O16 0.000000 0.000000 0.000000
O O17 0.500000 0.000000 0.000000
O O18 0.500000 0.500000 0.000000
#
# Coordination Sequence:
#
# PCOD8020176 Si02
#       8
#     2   2   2   2   2   2   2   2
#     4  12  25  44  60  93 131 163 218 270 317 362
#     4  10  22  42  67  91 129 169 209 260 315 384
#     4   9  20  42  66  93 122 167 211 257 317 384
#     4  11  24  43  66  95 125 172 215 253 322 389
#     4  10  22  42  66  92 132 162 204 271 324 371
#     4   9  19  38  64  94 128 152 196 262 316 369
#     4  11  22  41  69  98 127 165 210 256 317 390
#     4  12  25  42  66  89 124 172 226 261 307 382
#
# _framework density 20.377178000000001
#
# number of rings (size 3 to 8) (size 9 to 14) (size 15 to 20)
#    0.000    1.500    2.500    3.375    1.750    2.000 
#    6.750    1.875    0.000    0.000    0.000    0.000 
#    0.000    0.000    0.000    0.000    0.000    0.000 
#
# Total GULP energy -198307.587815 kJ/mol
# GULP energy per Si atom -12394.224238 kJ/mol
# Density = 2.033080 g / cm^3
# Si number density = 20.377178 Si / 1000 Ang^3
#
#
#
# Elastic Constant Matrix: (Units=GPa)
#
#
# Indices 1 2 3 4 5 6 
#
# 1 104.2378 55.9535 49.1360 7.4932 -11.4516 5.6619
# 2 55.9535 116.3066 63.6117 4.4364 -11.3843 11.8003
# 3 49.1360 63.6117 111.3017 14.1880 -10.3248 -3.3333
# 4 7.4932 4.4364 14.1880 46.0852 -1.4829 -8.0277
# 5 -11.4516 -11.3843 -10.3248 -1.4829 40.6282 3.0498
# 6 5.6619 11.8003 -3.3333 -8.0277 3.0498 38.4460
#
#
#
# Elastic Compliance Matrix: (Units=1/GPa)
#
#
# Indices 1 2 3 4 5 6 
#
# 1 0.013935 -0.004552 -0.003290 -0.000980 0.001877 -0.001294
# 2 -0.004552 0.015005 -0.006630 0.000602 0.001597 -0.004511
# 3 -0.003290 -0.006630 0.014734 -0.002792 0.000620 0.003165
# 4 -0.000980 0.000602 -0.002792 0.023458 -0.000309 0.004640
# 5 0.001877 0.001597 0.000620 -0.000309 0.025949 -0.002836
# 6 -0.001294 -0.004511 0.003165 0.004640 -0.002836 0.029054
#
#
# Mechanical properties :
#
#
# Convention : Reuss Voigt Hill
#
# Bulk Modulus (GPa) = 67.88669 74.36096 71.12382
# Shear Modulus (GPa) = 32.05361 35.90819 33.98090
#
# Velocity S-wave (km/s) = 3.97043 4.20238 4.08805
# Velocity P-wave (km/s) = 7.37607 7.75359 7.56719
#
# Compressibility (1/GPa) = 0.01473043
#
# Stress axis : x y z
#
# Youngs Moduli (GPa) = 71.76357 66.64434 67.86923
#
# Poissons Ratio (x) = 0.30337 0.22327
# Poissons Ratio (y) = 0.32668 0.44996
# Poissons Ratio (z) = 0.23608 0.44184
#
# Static dielectric constant tensor:
#      x y z
#    x 3.840500 0.088550 -0.123890 
#    y 0.088550 3.856530 0.072640 
#    z -0.123890 0.072640 3.760440 
# 
# 
# High freq. dielectric constant tensor:
#      x y z
#    x 1.808520 0.010060 -0.007960 
#    y 0.010060 1.800880 0.015770 
#    z -0.007960 0.015770 1.790580 
# 
# From -- ./inp_files/223876.got.cif
#   From: 2010.06.25/outbox.cif.g09.slc.cpg/sg2_112_cif.got.tgz:223876.got - 2010.06.27 13:26:56.
