data_PCOD8020453
_publ_section_title
;
Structure prediction by ZEFSAII (Michael W. Deem and Ramdas Pophale) SiO2 
 PCOD8020453
Probable space group: P -1
;
_chemical_formula_sum "Si O2"
_cell_formula_units_Z 16
_cell_length_a 9.191959
_cell_length_b 22.338078
_cell_length_c 12.323270
_cell_angle_alpha 136.548359
_cell_angle_beta 142.937057
_cell_angle_gamma 29.321173
_cell_volume 742.886236
_symmetry_space_group_name_H-M "P -1"
_symmetry_group_IT_number 2
_symmetry_cell_setting 'triclinic'
loop_
_space_group_symop_operation_xyz
x,y,z
-x,-y,-z
loop_
_atom_site_type_symbol
_atom_site_label
_atom_site_fract_x
_atom_site_fract_y
_atom_site_fract_z
Si Si1 0.301279 0.779979 0.371255
Si Si2 0.824598 0.038014 0.832148
Si Si3 0.703003 0.225371 0.295595
Si Si4 0.252596 0.485617 0.808611
Si Si5 0.101368 0.107840 0.925907
Si Si6 0.905039 0.585117 0.955834
Si Si7 0.247393 0.261537 0.243522
Si Si8 0.957069 0.755797 0.305323
O O1 0.567198 0.641867 0.304303
O O2 0.516326 0.798687 0.587729
O O3 0.013476 0.814276 0.324333
O O4 0.103189 0.873565 0.276816
O O5 0.420538 0.146360 0.742742
O O6 0.936217 0.914927 0.691988
O O7 0.967638 0.083072 0.909988
O O8 0.000000 0.000000 0.000000
O O9 0.502930 0.303776 0.168683
O O10 0.471873 0.212039 0.202355
O O11 0.779869 0.291285 0.501216
O O12 0.076125 0.504095 0.841860
O O13 0.986537 0.592419 0.703056
O O14 0.500000 0.500000 0.000000
O O15 0.025162 0.229432 0.065120
O O16 0.500000 0.000000 0.000000
O O17 0.049458 0.641663 0.153003
O O18 0.000000 0.500000 0.000000
#
# Coordination Sequence:
#
# PCOD8020453 Si02
#       8
#     2   2   2   2   2   2   2   2
#     4  11  23  43  66  96 126 165 216 267 312 372
#     4  12  24  43  67  92 129 175 207 255 323 378
#     4  10  22  45  65  92 127 167 214 261 313 382
#     4  11  20  40  69  90 126 168 211 261 320 373
#     4  12  24  42  65  94 131 163 213 264 311 375
#     4  11  24  41  64  95 129 168 211 260 317 374
#     4  10  22  42  68  96 124 165 214 266 319 369
#     4  11  23  42  67  92 129 171 208 258 321 378
#
# _framework density 21.537618999999999
#
# number of rings (size 3 to 8) (size 9 to 14) (size 15 to 20)
#    0.000    1.000    5.000    2.250    1.750    1.000 
#    4.500    0.000    0.000    0.000    0.000    0.000 
#    0.000    0.000    0.000    0.000    0.000    0.000 
#
# Total GULP energy -198346.673854 kJ/mol
# GULP energy per Si atom -12396.667116 kJ/mol
# Density = 2.148860 g / cm^3
# Si number density = 21.537619 Si / 1000 Ang^3
#
#
#
# Elastic Constant Matrix: (Units=GPa)
#
#
# Indices 1 2 3 4 5 6 
#
# 1 116.8988 39.5505 38.9883 -19.0684 -4.4322 8.8386
# 2 39.5505 77.3694 16.0925 -12.1479 -10.3502 -0.8269
# 3 38.9883 16.0925 123.3850 -16.3675 -15.7721 23.1321
# 4 -19.0684 -12.1479 -16.3675 32.7899 3.1835 -9.8744
# 5 -4.4322 -10.3502 -15.7721 3.1835 28.0413 -10.9355
# 6 8.8386 -0.8269 23.1321 -9.8744 -10.9355 37.7440
#
#
#
# Elastic Compliance Matrix: (Units=1/GPa)
#
#
# Indices 1 2 3 4 5 6 
#
# 1 0.011781 -0.005242 -0.002692 0.003496 -0.002372 -0.000997
# 2 -0.005242 0.017220 -0.000053 0.004049 0.006865 0.004686
# 3 -0.002692 -0.000053 0.010480 0.002026 0.003570 -0.004229
# 4 0.003496 0.004049 0.002026 0.037370 0.002241 0.008454
# 5 -0.002372 0.006865 0.003570 0.002241 0.044221 0.011916
# 6 -0.000997 0.004686 -0.004229 0.008454 0.011916 0.035087
#
#
# Mechanical properties :
#
#
# Convention : Reuss Voigt Hill
#
# Bulk Modulus (GPa) = 42.53906 56.32398 49.43152
# Shear Modulus (GPa) = 27.78257 34.58316 31.18286
#
# Velocity S-wave (km/s) = 3.59549 4.01148 3.80917
# Velocity P-wave (km/s) = 6.08528 6.90392 6.50749
#
# Compressibility (1/GPa) = 0.02350781
#
# Stress axis : x y z
#
# Youngs Moduli (GPa) = 84.88071 58.07249 95.41718
#
# Poissons Ratio (x) = 0.30440 0.25684
# Poissons Ratio (y) = 0.44492 0.00509
# Poissons Ratio (z) = 0.22848 0.00310
#
# Static dielectric constant tensor:
#      x y z
#    x 3.499430 -0.169910 0.123740 
#    y -0.169910 3.182460 0.087000 
#    z 0.123740 0.087000 3.905240 
# 
# 
# High freq. dielectric constant tensor:
#      x y z
#    x 1.832280 -0.009630 -0.010410 
#    y -0.009630 1.845600 -0.007910 
#    z -0.010410 -0.007910 1.858430 
# 
# From -- ./inp_files/305996.got.cif
#   From: 2010.06.25/outbox.cif.g09.slc.cpg/sg2_153_cif.got.tgz:305996.got - 2010.06.27 13:26:56.
