data_PCOD8020093
_publ_section_title
;
Structure prediction by ZEFSAII (Michael W. Deem and Ramdas Pophale) SiO2 
 PCOD8020093
Probable space group: P -1
;
_chemical_formula_sum "Si O2"
_cell_formula_units_Z 14
_cell_length_a 19.488254
_cell_length_b 16.635879
_cell_length_c 17.028206
_cell_angle_alpha 23.295198
_cell_angle_beta 159.364015
_cell_angle_gamma 159.595515
_cell_volume 638.748797
_symmetry_space_group_name_H-M "P -1"
_symmetry_group_IT_number 2
_symmetry_cell_setting 'triclinic'
loop_
_space_group_symop_operation_xyz
x,y,z
-x,-y,-z
loop_
_atom_site_type_symbol
_atom_site_label
_atom_site_fract_x
_atom_site_fract_y
_atom_site_fract_z
Si Si1 0.422536 0.838457 0.162959
Si Si2 0.313772 0.544543 0.465663
Si Si3 0.312163 0.563863 0.756678
Si Si4 0.515699 0.259894 0.990594
Si Si5 0.665467 0.039015 0.789918
Si Si6 0.019611 0.404730 0.731528
Si Si7 0.878561 0.112012 0.316296
O O1 0.646113 0.886719 0.310848
O O2 0.372112 0.648684 0.346790
O O3 0.477021 0.094110 0.024382
O O4 0.196999 0.742925 0.951032
O O5 0.496879 0.479829 0.745551
O O6 0.051593 0.300229 0.400006
O O7 0.345264 0.736802 0.391461
O O8 0.437990 0.844160 0.670078
O O9 0.130724 0.374562 0.798148
O O10 0.173389 0.537355 0.552055
O O11 0.500000 0.500000 0.000000
O O12 0.324394 0.103268 0.995572
O O13 0.777114 0.368691 0.204295
O O14 0.894439 0.157682 0.872403
O O15 0.000000 0.000000 0.500000
#
# Coordination Sequence:
#
# PCOD8020093 Si02
#       7
#     2   2   2   2   2   2   2
#     4  10  23  43  64  94 130 164 217 262 310 380
#     4  11  23  42  67  91 130 170 207 262 321 370
#     4  10  23  44  67  94 129 163 214 262 311 379
#     4  10  22  43  61  97 128 165 214 261 312 381
#     4  10  23  41  65  92 126 164 213 258 310 380
#     4  10  22  42  65  94 127 165 209 260 315 372
#     4  11  22  42  68  93 128 169 212 264 315 371
#
# _framework density 21.917850000000001
#
# number of rings (size 3 to 8) (size 9 to 14) (size 15 to 20)
#    0.000    1.714    1.429    1.714    4.000    2.286 
#   12.857    0.000    0.000    0.000    0.000    0.000 
#    0.000    0.000    0.000    0.000    0.000    0.000 
#
# Total GULP energy -173562.140912 kJ/mol
# GULP energy per Si atom -12397.295779 kJ/mol
# Density = 2.186796 g / cm^3
# Si number density = 21.917850 Si / 1000 Ang^3
#
#
#
# Elastic Constant Matrix: (Units=GPa)
#
#
# Indices 1 2 3 4 5 6 
#
# 1 97.9399 34.7107 41.1410 3.8109 -0.8286 23.9946
# 2 34.7107 97.6280 43.3124 10.6338 4.7729 -3.0714
# 3 41.1410 43.3124 122.8670 12.2798 6.3762 0.9937
# 4 3.8109 10.6338 12.2798 34.4323 1.2161 -6.6232
# 5 -0.8286 4.7729 6.3762 1.2161 30.8767 -1.3170
# 6 23.9946 -3.0714 0.9937 -6.6232 -1.3170 51.3266
#
#
#
# Elastic Compliance Matrix: (Units=1/GPa)
#
#
# Indices 1 2 3 4 5 6 
#
# 1 0.014896 -0.003952 -0.003553 -0.000592 0.001462 -0.007170
# 2 -0.003952 0.013411 -0.003147 -0.002071 -0.001345 0.002409
# 3 -0.003553 -0.003147 0.010741 -0.002226 -0.001699 0.000934
# 4 -0.000592 -0.002071 -0.002226 0.031366 -0.000291 0.004236
# 5 0.001462 -0.001345 -0.001699 -0.000291 0.033000 0.000078
# 6 -0.007170 0.002409 0.000934 0.004236 0.000078 0.023510
#
#
# Mechanical properties :
#
#
# Convention : Reuss Voigt Hill
#
# Bulk Modulus (GPa) = 56.35943 61.86255 59.11099
# Shear Modulus (GPa) = 32.43731 36.61184 34.52458
#
# Velocity S-wave (km/s) = 3.85118 4.09150 3.97316
# Velocity P-wave (km/s) = 6.74872 7.11383 6.93368
#
# Compressibility (1/GPa) = 0.01774326
#
# Stress axis : x y z
#
# Youngs Moduli (GPa) = 67.13382 74.56302 93.10013
#
# Poissons Ratio (x) = 0.29469 0.33080
# Poissons Ratio (y) = 0.26533 0.29299
# Poissons Ratio (z) = 0.23854 0.23465
#
# Static dielectric constant tensor:
#      x y z
#    x 4.153280 0.102890 -0.255490 
#    y 0.102890 4.095250 0.123030 
#    z -0.255490 0.123030 3.708610 
# 
# 
# High freq. dielectric constant tensor:
#      x y z
#    x 1.874370 0.002660 -0.018180 
#    y 0.002660 1.864470 0.011320 
#    z -0.018180 0.011320 1.842850 
# 
# From -- ./inp_files/11465.got.cif
#   From: 2010.06.25/outbox.cif.g09.slc.cpg/sg2_6_cif.got.tgz:11465.got - 2010.06.27 13:26:56.
