data_PCOD8020351
_publ_section_title
;
Structure prediction by ZEFSAII (Michael W. Deem and Ramdas Pophale) SiO2 
 PCOD8020351
Probable space group: P -1
;
_chemical_formula_sum "Si O2"
_cell_formula_units_Z 16
_cell_length_a 7.884796
_cell_length_b 26.300978
_cell_length_c 20.863161
_cell_angle_alpha 168.263966
_cell_angle_beta 57.095296
_cell_angle_gamma 123.823699
_cell_volume 731.053385
_symmetry_space_group_name_H-M "P -1"
_symmetry_group_IT_number 2
_symmetry_cell_setting 'triclinic'
loop_
_space_group_symop_operation_xyz
x,y,z
-x,-y,-z
loop_
_atom_site_type_symbol
_atom_site_label
_atom_site_fract_x
_atom_site_fract_y
_atom_site_fract_z
Si Si1 0.693124 0.863879 0.575747
Si Si2 0.074637 0.191947 0.665208
Si Si3 0.747146 0.426050 0.711837
Si Si4 0.897856 0.278382 0.628953
Si Si5 0.091994 0.270043 0.227932
Si Si6 0.283653 0.013846 0.588747
Si Si7 0.459565 0.629979 0.736143
Si Si8 0.093602 0.264164 0.372122
O O1 0.485600 0.666243 0.373863
O O2 0.763401 0.906526 0.539204
O O3 0.865355 0.752192 0.444748
O O4 0.652328 0.120689 0.936345
O O5 0.871873 0.212046 0.690271
O O6 0.000000 0.000000 0.500000
O O7 0.161283 0.462762 0.009997
O O8 0.840346 0.268519 0.554175
O O9 0.893724 0.399965 0.589618
O O10 0.777081 0.717317 0.085029
O O11 0.740766 0.045800 0.404217
O O12 0.321186 0.286367 0.171139
O O13 0.119883 0.267601 0.295064
O O14 0.000000 0.500000 0.500000
O O15 0.943058 0.008789 0.921799
O O16 0.500000 0.000000 0.500000
O O17 0.500000 0.500000 0.500000
O O18 0.303744 0.423062 0.553131
#
# Coordination Sequence:
#
# PCOD8020351 Si02
#       8
#     2   2   2   2   2   2   2   2
#     4  11  24  45  67  99 140 174 231 291 338 411
#     4  11  22  41  66  94 136 178 228 281 339 405
#     4  12  24  43  68  98 139 176 229 283 338 417
#     4  11  25  43  66  97 135 184 222 282 350 399
#     4  10  22  43  69  98 132 173 225 277 346 411
#     4  11  23  40  64  95 128 177 230 279 338 406
#     4  10  22  44  71  95 137 177 218 293 341 399
#     4  10  22  42  67  96 136 172 221 284 338 405
#
# _framework density 21.886227000000002
#
# number of rings (size 3 to 8) (size 9 to 14) (size 15 to 20)
#    0.000    1.250    2.500    4.500    1.750    4.500 
#    2.250    0.000    0.000    0.000    0.000    0.000 
#    0.000    0.000    0.000    0.000    0.000    0.000 
#
# Total GULP energy -198243.738240 kJ/mol
# GULP energy per Si atom -12390.233640 kJ/mol
# Density = 2.183641 g / cm^3
# Si number density = 21.886227 Si / 1000 Ang^3
#
#
#
# Elastic Constant Matrix: (Units=GPa)
#
#
# Indices 1 2 3 4 5 6 
#
# 1 76.6303 37.6246 34.2122 18.6343 -6.6795 26.5757
# 2 37.6246 98.9739 37.3522 13.6828 -2.7603 36.5357
# 3 34.2122 37.3522 112.0911 5.0171 -9.4256 9.4496
# 4 18.6343 13.6828 5.0171 47.9881 3.9323 3.1771
# 5 -6.6795 -2.7603 -9.4256 3.9323 35.8905 5.9138
# 6 26.5757 36.5357 9.4496 3.1771 5.9138 43.8753
#
#
#
# Elastic Compliance Matrix: (Units=1/GPa)
#
#
# Indices 1 2 3 4 5 6 
#
# 1 0.021932 -0.001203 -0.004529 -0.007389 0.005507 -0.011515
# 2 -0.001203 0.017409 -0.003965 -0.003433 0.002595 -0.013015
# 3 -0.004529 -0.003965 0.011377 0.001385 0.001138 0.003341
# 4 -0.007389 -0.003433 0.001385 0.024555 -0.004942 0.005924
# 5 0.005507 0.002595 0.001138 -0.004942 0.031514 -0.009631
# 6 -0.011515 -0.013015 0.003341 0.005924 -0.009631 0.040754
#
#
# Mechanical properties :
#
#
# Convention : Reuss Voigt Hill
#
# Bulk Modulus (GPa) = 31.92332 56.23038 44.07685
# Shear Modulus (GPa) = 28.18879 37.45118 32.81999
#
# Velocity S-wave (km/s) = 3.59272 4.14112 3.87663
# Velocity P-wave (km/s) = 5.64162 6.97231 6.34196
#
# Compressibility (1/GPa) = 0.03132507
#
# Stress axis : x y z
#
# Youngs Moduli (GPa) = 45.59478 57.44263 87.89747
#
# Poissons Ratio (x) = 0.06908 0.39808
# Poissons Ratio (y) = 0.05483 0.34851
# Poissons Ratio (z) = 0.20649 0.22776
#
# Static dielectric constant tensor:
#      x y z
#    x 3.933450 0.221370 0.120340 
#    y 0.221370 4.101590 -0.116640 
#    z 0.120340 -0.116640 3.771750 
# 
# 
# High freq. dielectric constant tensor:
#      x y z
#    x 1.841690 0.023310 0.008820 
#    y 0.023310 1.873590 0.003120 
#    z 0.008820 0.003120 1.868630 
# 
# From -- ./inp_files/608869.got.cif
#   From: 2010.06.25/outbox.cif.g09.slc.cpg/sg2_305_cif.got.tgz:608869.got - 2010.06.27 13:26:56.
