data_PCOD8020120
_publ_section_title
;
Structure prediction by ZEFSAII (Michael W. Deem and Ramdas Pophale) SiO2 
 PCOD8020120
Probable space group: P -1
;
_chemical_formula_sum "Si O2"
_cell_formula_units_Z 16
_cell_length_a 8.775254
_cell_length_b 23.620479
_cell_length_c 8.321030
_cell_angle_alpha 116.600352
_cell_angle_beta 129.940635
_cell_angle_gamma 34.214749
_cell_volume 729.618020
_symmetry_space_group_name_H-M "P -1"
_symmetry_group_IT_number 2
_symmetry_cell_setting 'triclinic'
loop_
_space_group_symop_operation_xyz
x,y,z
-x,-y,-z
loop_
_atom_site_type_symbol
_atom_site_label
_atom_site_fract_x
_atom_site_fract_y
_atom_site_fract_z
Si Si1 0.843356 0.896371 0.528170
Si Si2 0.306513 0.487156 0.785728
Si Si3 0.198659 0.690596 0.647534
Si Si4 0.285877 0.292177 0.756259
Si Si5 0.742228 0.101971 0.062237
Si Si6 0.723193 0.281897 0.923133
Si Si7 0.338089 0.099060 0.935295
Si Si8 0.155665 0.490706 0.343002
O O1 0.835485 0.876671 0.315106
O O2 0.997233 0.803822 0.622311
O O3 0.071783 0.899089 0.694022
O O4 0.500000 0.000000 0.500000
O O5 0.182236 0.527393 0.570370
O O6 0.015192 0.534662 0.765782
O O7 0.500000 0.500000 0.000000
O O8 0.550195 0.366864 0.778093
O O9 0.336538 0.663743 0.884672
O O10 0.493647 0.607625 0.619301
O O11 0.947983 0.696123 0.480754
O O12 0.067800 0.409794 0.802210
O O13 0.457834 0.211377 0.915756
O O14 0.575199 0.247826 0.786100
O O15 0.592524 0.089484 0.064903
O O16 0.000000 0.000000 0.000000
O O17 0.094712 0.186044 0.012882
O O18 0.500000 0.000000 0.000000
#
# Coordination Sequence:
#
# PCOD8020120 Si02
#       8
#     2   2   2   2   2   2   2   2
#     4  12  24  44  71 101 131 174 225 277 338 407
#     4  10  22  42  65  96 143 180 224 281 340 391
#     4  12  23  42  70 100 136 181 231 278 333 402
#     4  11  23  43  69 100 136 177 231 280 330 404
#     4  12  24  45  73 102 131 176 223 281 340 404
#     4  11  25  42  65 101 137 177 226 280 337 395
#     4  12  26  44  70 100 137 169 219 284 342 402
#     4  10  24  41  66 102 136 183 231 281 330 404
#
# _framework density 21.929283999999999
#
# number of rings (size 3 to 8) (size 9 to 14) (size 15 to 20)
#    0.000    0.750    3.750    3.375    0.000    5.500 
#    0.000    0.000    0.000    0.000    0.000    0.000 
#    0.000    0.000    0.000    0.000    0.000    0.000 
#
# Total GULP energy -198304.952750 kJ/mol
# GULP energy per Si atom -12394.059547 kJ/mol
# Density = 2.187937 g / cm^3
# Si number density = 21.929284 Si / 1000 Ang^3
#
#
#
# Elastic Constant Matrix: (Units=GPa)
#
#
# Indices 1 2 3 4 5 6 
#
# 1 150.7731 53.7880 49.8836 3.1009 41.7074 -4.4637
# 2 53.7880 104.7989 8.5315 -15.0968 8.2891 -11.3931
# 3 49.8836 8.5315 109.7562 8.3249 36.5227 -7.1479
# 4 3.1009 -15.0968 8.3249 34.4438 6.4036 -2.3913
# 5 41.7074 8.2891 36.5227 6.4036 48.0266 -0.8396
# 6 -4.4637 -11.3931 -7.1479 -2.3913 -0.8396 41.9967
#
#
#
# Elastic Compliance Matrix: (Units=1/GPa)
#
#
# Indices 1 2 3 4 5 6 
#
# 1 0.011213 -0.005347 -0.002343 -0.001577 -0.006838 -0.000884
# 2 -0.005347 0.013436 0.000842 0.006247 0.000914 0.003594
# 3 -0.002343 0.000842 0.012890 -0.000958 -0.007751 0.001964
# 4 -0.001577 0.006247 -0.000958 0.032982 -0.003322 0.003176
# 5 -0.006838 0.000914 -0.007751 -0.003322 0.032917 -0.001329
# 6 -0.000884 0.003594 0.001964 0.003176 -0.001329 0.025181
#
#
# Mechanical properties :
#
#
# Convention : Reuss Voigt Hill
#
# Bulk Modulus (GPa) = 41.94046 65.52604 53.73325
# Shear Modulus (GPa) = 33.27493 41.76842 37.52168
#
# Velocity S-wave (km/s) = 3.89957 4.36901 4.14095
# Velocity P-wave (km/s) = 6.28032 7.44288 6.88618
#
# Compressibility (1/GPa) = 0.02384333
#
# Stress axis : x y z
#
# Youngs Moduli (GPa) = 89.18246 74.42698 77.57661
#
# Poissons Ratio (x) = 0.39794 0.18177
# Poissons Ratio (y) = 0.47683 -0.06530
# Poissons Ratio (z) = 0.20897 -0.06265
#
# Static dielectric constant tensor:
#      x y z
#    x 4.035000 0.185780 0.206500 
#    y 0.185780 4.085840 -0.329660 
#    z 0.206500 -0.329660 4.076020 
# 
# 
# High freq. dielectric constant tensor:
#      x y z
#    x 1.872310 0.012890 0.017100 
#    y 0.012890 1.867620 -0.020250 
#    z 0.017100 -0.020250 1.869490 
# 
# From -- ./inp_files/218781.got.cif
#   From: 2010.06.25/outbox.cif.g09.slc.cpg/sg2_110_cif.got.tgz:218781.got - 2010.06.27 13:26:56.
