data_PCOD8020426
_publ_section_title
;
Structure prediction by ZEFSAII (Michael W. Deem and Ramdas Pophale) SiO2 
 PCOD8020426
Probable space group: P -1
;
_chemical_formula_sum "Si O2"
_cell_formula_units_Z 12
_cell_length_a 9.633296
_cell_length_b 8.850067
_cell_length_c 11.441740
_cell_angle_alpha 105.660366
_cell_angle_beta 59.337775
_cell_angle_gamma 62.218800
_cell_volume 553.090522
_symmetry_space_group_name_H-M "P -1"
_symmetry_group_IT_number 2
_symmetry_cell_setting 'triclinic'
loop_
_space_group_symop_operation_xyz
x,y,z
-x,-y,-z
loop_
_atom_site_type_symbol
_atom_site_label
_atom_site_fract_x
_atom_site_fract_y
_atom_site_fract_z
Si Si1 0.321018 0.654105 0.005809
Si Si2 0.841981 0.517696 0.334611
Si Si3 0.715879 0.966726 0.904974
Si Si4 0.457065 0.679428 0.366037
Si Si5 0.088834 0.675840 0.511245
Si Si6 0.924073 0.803832 0.356856
O O1 0.059127 0.805477 0.199069
O O2 0.351038 0.810757 0.975693
O O3 0.500000 0.500000 0.000000
O O4 0.373697 0.492061 0.847972
O O5 0.614921 0.594488 0.394823
O O6 0.827292 0.533914 0.488895
O O7 0.856267 0.681897 0.310583
O O8 0.079786 0.251056 0.144249
O O9 0.823873 0.910857 0.715726
O O10 0.500000 0.000000 0.000000
O O11 0.264998 0.685831 0.478773
O O12 0.313150 0.939085 0.449427
O O13 0.095021 0.652133 0.364312
#
# Coordination Sequence:
#
# PCOD8020426 Si02
#       6
#     2   2   2   2   2   2
#     4  12  24  40  70  98 133 178 225 270 329 402
#     4  10  25  41  69 100 136 176 220 279 337 384
#     4  10  23  43  66 101 132 171 230 271 328 404
#     4  12  24  43  70 100 136 175 221 279 337 390
#     4  10  22  42  68  93 132 179 223 266 330 395
#     4  12  22  45  68 100 135 179 224 270 328 403
#
# _framework density 21.696268
#
# number of rings (size 3 to 8) (size 9 to 14) (size 15 to 20)
#    1.000    0.000    3.333    4.000    0.000    1.333 
#    0.000    1.667    0.000    0.000    0.000    0.000 
#    0.000    0.000    0.000    0.000    0.000    0.000 
#
# Total GULP energy -148709.849417 kJ/mol
# GULP energy per Si atom -12392.487451 kJ/mol
# Density = 2.164689 g / cm^3
# Si number density = 21.696268 Si / 1000 Ang^3
#
#
#
# Elastic Constant Matrix: (Units=GPa)
#
#
# Indices 1 2 3 4 5 6 
#
# 1 104.7265 48.6520 47.7045 5.1713 -25.1777 7.3145
# 2 48.6520 104.0630 38.6260 16.8505 -1.4696 16.6389
# 3 47.7045 38.6260 109.0785 2.6156 -3.6425 6.0086
# 4 5.1713 16.8505 2.6156 35.9868 4.9943 7.7461
# 5 -25.1777 -1.4696 -3.6425 4.9943 33.4946 1.3255
# 6 7.3145 16.6389 6.0086 7.7461 1.3255 40.3323
#
#
#
# Elastic Compliance Matrix: (Units=1/GPa)
#
#
# Indices 1 2 3 4 5 6 
#
# 1 0.017859 -0.006027 -0.005214 -0.001097 0.012764 -0.000185
# 2 -0.006027 0.014551 -0.002321 -0.004546 -0.003325 -0.003582
# 3 -0.005214 -0.002321 0.012144 0.001372 -0.002902 -0.000074
# 4 -0.001097 -0.004546 0.001372 0.031593 -0.005427 -0.004019
# 5 0.012764 -0.003325 -0.002902 -0.005427 0.039829 -0.000778
# 6 -0.000185 -0.003582 -0.000074 -0.004019 -0.000778 0.027114
#
#
# Mechanical properties :
#
#
# Convention : Reuss Voigt Hill
#
# Bulk Modulus (GPa) = 57.37231 65.31477 61.34354
# Shear Modulus (GPa) = 28.40526 34.15511 31.28019
#
# Velocity S-wave (km/s) = 3.62224 3.97197 3.80113
# Velocity P-wave (km/s) = 6.63287 7.15576 6.89927
#
# Compressibility (1/GPa) = 0.01743001
#
# Stress axis : x y z
#
# Youngs Moduli (GPa) = 55.99340 68.72423 82.34393
#
# Poissons Ratio (x) = 0.41420 0.42931
# Poissons Ratio (y) = 0.33747 0.19116
# Poissons Ratio (z) = 0.29193 0.15954
#
# Static dielectric constant tensor:
#      x y z
#    x 3.763210 0.175790 -0.136900 
#    y 0.175790 3.885090 0.096150 
#    z -0.136900 0.096150 3.920340 
# 
# 
# High freq. dielectric constant tensor:
#      x y z
#    x 1.850400 0.015600 -0.015780 
#    y 0.015600 1.848990 0.009560 
#    z -0.015780 0.009560 1.838950 
# 
# From -- ./inp_files/265793.got.cif
#   From: 2010.06.25/outbox.cif.g09.slc.cpg/sg2_133_cif.got.tgz:265793.got - 2010.06.27 13:26:56.
