data_PCOD8020981
_publ_section_title
;
Structure prediction by ZEFSAII (Michael W. Deem and Ramdas Pophale) SiO2 
 PCOD8020981
Probable space group: P -1
;
_chemical_formula_sum "Si O2"
_cell_formula_units_Z 16
_cell_length_a 8.665596
_cell_length_b 14.583008
_cell_length_c 11.919803
_cell_angle_alpha 92.382996
_cell_angle_beta 147.324914
_cell_angle_gamma 97.589825
_cell_volume 772.555288
_symmetry_space_group_name_H-M "P -1"
_symmetry_group_IT_number 2
_symmetry_cell_setting 'triclinic'
loop_
_space_group_symop_operation_xyz
x,y,z
-x,-y,-z
loop_
_atom_site_type_symbol
_atom_site_label
_atom_site_fract_x
_atom_site_fract_y
_atom_site_fract_z
Si Si1 0.208249 0.922526 0.067190
Si Si2 0.859107 0.548837 0.221422
Si Si3 0.744985 0.278455 0.952419
Si Si4 0.831714 0.411422 0.816921
Si Si5 0.841493 0.613323 0.601660
Si Si6 0.147084 0.970169 0.266811
Si Si7 0.890402 0.716408 0.409955
Si Si8 0.853497 0.065633 0.487417
O O1 0.057526 0.899558 0.098931
O O2 0.495380 0.017531 0.259980
O O3 0.309632 0.834800 0.080349
O O4 0.973049 0.939722 0.833303
O O5 0.978959 0.639993 0.381949
O O6 0.965796 0.590181 0.166222
O O7 0.027856 0.472657 0.356475
O O8 0.500000 0.500000 0.000000
O O9 0.029839 0.338135 0.200193
O O10 0.788392 0.311747 0.851395
O O11 0.456603 0.298114 0.830939
O O12 0.513188 0.426084 0.594355
O O13 0.000000 0.500000 0.000000
O O14 0.931416 0.693024 0.563246
O O15 0.011771 0.926011 0.302115
O O16 0.500000 0.000000 0.500000
O O17 0.087278 0.826685 0.516988
O O18 0.000000 0.000000 0.500000
#
# Coordination Sequence:
#
# PCOD8020981 Si02
#       8
#     2   2   2   2   2   2   2   2
#     4  10  22  43  66  92 129 177 217 268 328 384
#     4  12  23  46  69  95 136 170 212 283 327 388
#     4  11  23  42  68  94 131 176 218 265 328 401
#     4  11  24  44  69  99 131 171 224 266 330 399
#     4  11  24  45  67  95 136 177 218 266 335 396
#     4   9  22  42  62  88 125 170 223 269 320 375
#     4  11  25  42  64 100 130 172 222 266 336 389
#     4  11  23  41  65  95 135 167 215 276 325 387
#
# _framework density 20.710491000000001
#
# number of rings (size 3 to 8) (size 9 to 14) (size 15 to 20)
#    0.000    1.250    3.750    1.500    3.500    2.500 
#    4.500    0.000    0.000    0.000    0.000    0.000 
#    0.000    0.000    0.000    0.000    0.000    0.000 
#
# Total GULP energy -198363.044026 kJ/mol
# GULP energy per Si atom -12397.690252 kJ/mol
# Density = 2.066335 g / cm^3
# Si number density = 20.710491 Si / 1000 Ang^3
#
#
#
# Elastic Constant Matrix: (Units=GPa)
#
#
# Indices 1 2 3 4 5 6 
#
# 1 128.0678 45.5984 40.4431 -7.0079 -1.1263 4.6778
# 2 45.5984 132.5077 49.7025 -3.1514 1.5544 -1.3458
# 3 40.4431 49.7025 118.8332 -13.6681 8.0504 3.3766
# 4 -7.0079 -3.1514 -13.6681 33.8653 3.3786 -3.2663
# 5 -1.1263 1.5544 8.0504 3.3786 28.1309 -0.2537
# 6 4.6778 -1.3458 3.3766 -3.2663 -0.2537 27.8504
#
#
#
# Elastic Compliance Matrix: (Units=1/GPa)
#
#
# Indices 1 2 3 4 5 6 
#
# 1 0.009456 -0.002459 -0.002150 0.000625 0.001042 -0.001364
# 2 -0.002459 0.009639 -0.003363 -0.000900 0.000450 0.001185
# 3 -0.002150 -0.003363 0.011290 0.004091 -0.003629 -0.000723
# 4 0.000625 -0.000900 0.004091 0.032011 -0.004913 0.003065
# 5 0.001042 0.000450 -0.003629 -0.004913 0.037194 0.000049
# 6 -0.001364 0.001185 -0.000723 0.003065 0.000049 0.036640
#
#
# Mechanical properties :
#
#
# Convention : Reuss Voigt Hill
#
# Bulk Modulus (GPa) = 69.23627 72.32186 70.77906
# Shear Modulus (GPa) = 31.84964 34.21364 33.03164
#
# Velocity S-wave (km/s) = 3.92580 4.06888 3.99798
# Velocity P-wave (km/s) = 7.35203 7.55451 7.45396
#
# Compressibility (1/GPa) = 0.01444330
#
# Stress axis : x y z
#
# Youngs Moduli (GPa) = 105.75447 103.74002 88.57251
#
# Poissons Ratio (x) = 0.25508 0.19041
# Poissons Ratio (y) = 0.26003 0.29783
# Poissons Ratio (z) = 0.22735 0.34883
#
# Static dielectric constant tensor:
#      x y z
#    x 3.887990 -0.016560 -0.054940 
#    y -0.016560 3.719480 -0.187500 
#    z -0.054940 -0.187500 3.765990 
# 
# 
# High freq. dielectric constant tensor:
#      x y z
#    x 1.821550 0.000150 -0.003410 
#    y 0.000150 1.808720 -0.015020 
#    z -0.003410 -0.015020 1.812620 
# 
# From -- ./inp_files/37897.got.cif
#   From: 2010.06.25/outbox.cif.g09.slc.cpg/sg2_19_cif.got.tgz:37897.got - 2010.06.27 13:26:56.
