data_PCOD8020499
_publ_section_title
;
Structure prediction by ZEFSAII (Michael W. Deem and Ramdas Pophale) SiO2 
 PCOD8020499
Probable space group: P -1
;
_chemical_formula_sum "Si O2"
_cell_formula_units_Z 16
_cell_length_a 12.114807
_cell_length_b 18.831258
_cell_length_c 9.127816
_cell_angle_alpha 35.047733
_cell_angle_beta 71.453769
_cell_angle_gamma 47.473076
_cell_volume 732.505096
_symmetry_space_group_name_H-M "P -1"
_symmetry_group_IT_number 2
_symmetry_cell_setting 'triclinic'
loop_
_space_group_symop_operation_xyz
x,y,z
-x,-y,-z
loop_
_atom_site_type_symbol
_atom_site_label
_atom_site_fract_x
_atom_site_fract_y
_atom_site_fract_z
Si Si1 0.655497 0.238284 0.976718
Si Si2 0.654950 0.290439 0.351836
Si Si3 0.064657 0.573306 0.424611
Si Si4 0.104286 0.522188 0.840677
Si Si5 0.495407 0.877775 0.617938
Si Si6 0.001710 0.837382 0.523940
Si Si7 0.187744 0.066230 0.260282
Si Si8 0.418074 0.435980 0.460029
O O1 0.507393 0.358538 0.711296
O O2 0.645367 0.369236 0.860833
O O3 0.628102 0.130268 0.250892
O O4 0.864173 0.053416 0.153852
O O5 0.802273 0.263744 0.394936
O O6 0.565649 0.282909 0.533867
O O7 0.745692 0.126822 0.472407
O O8 0.500000 0.500000 0.000000
O O9 0.083965 0.533148 0.656428
O O10 0.256490 0.468355 0.461980
O O11 0.000000 0.500000 0.500000
O O12 0.914333 0.797247 0.069549
O O13 0.011937 0.721322 0.596742
O O14 0.308998 0.339384 0.120035
O O15 0.000000 0.500000 0.000000
O O16 0.500000 0.000000 0.500000
O O17 0.369385 0.004666 0.313516
O O18 0.953067 0.824290 0.728695
#
# Coordination Sequence:
#
# PCOD8020499 Si02
#       8
#     2   2   2   2   2   2   2   2
#     4  10  22  42  69 101 135 183 229 292 339 410
#     4  12  24  41  69 102 141 183 231 289 359 427
#     4  12  26  47  69 102 145 184 231 300 361 415
#     4  12  25  44  71 101 133 187 242 287 345 426
#     4  11  22  45  71  98 136 188 236 280 343 427
#     4  11  23  42  70  97 141 180 239 276 351 421
#     4  11  25  43  68 102 139 184 229 292 356 411
#     4  11  24  42  69  98 143 177 235 287 357 409
#
# _framework density 21.842852000000001
#
# number of rings (size 3 to 8) (size 9 to 14) (size 15 to 20)
#    0.000    0.750    1.250    7.875    3.500    1.500 
#    0.000    1.250    0.000    0.000    0.000    0.000 
#    0.000    0.000    0.000    0.000    0.000    0.000 
#
# Total GULP energy -198295.421677 kJ/mol
# GULP energy per Si atom -12393.463855 kJ/mol
# Density = 2.179314 g / cm^3
# Si number density = 21.842852 Si / 1000 Ang^3
#
#
#
# Elastic Constant Matrix: (Units=GPa)
#
#
# Indices 1 2 3 4 5 6 
#
# 1 152.7263 50.1148 41.5567 0.0044 4.0949 -5.8123
# 2 50.1148 107.4407 24.7130 -6.3980 2.4045 -2.7219
# 3 41.5567 24.7130 102.1401 -15.4249 17.5770 -14.8526
# 4 0.0044 -6.3980 -15.4249 33.4195 2.2993 -4.5706
# 5 4.0949 2.4045 17.5770 2.2993 41.8793 -10.0182
# 6 -5.8123 -2.7219 -14.8526 -4.5706 -10.0182 35.0687
#
#
#
# Elastic Compliance Matrix: (Units=1/GPa)
#
#
# Indices 1 2 3 4 5 6 
#
# 1 0.008480 -0.003390 -0.003122 -0.002176 0.000735 -0.000254
# 2 -0.003390 0.011238 -0.001090 0.001655 0.000073 0.000085
# 3 -0.003122 -0.001090 0.013936 0.007218 -0.004706 0.004897
# 4 -0.002176 0.001655 0.007218 0.034673 -0.003283 0.006406
# 5 0.000735 0.000073 -0.004706 -0.003283 0.027273 0.005497
# 6 -0.000254 0.000085 0.004897 0.006406 0.005497 0.032959
#
#
# Mechanical properties :
#
#
# Convention : Reuss Voigt Hill
#
# Bulk Modulus (GPa) = 54.19772 66.11955 60.15864
# Shear Modulus (GPa) = 33.35236 38.46835 35.91036
#
# Velocity S-wave (km/s) = 3.91183 4.20115 4.05907
# Velocity P-wave (km/s) = 6.72827 7.33956 7.04055
#
# Compressibility (1/GPa) = 0.01845096
#
# Stress axis : x y z
#
# Youngs Moduli (GPa) = 117.92158 88.97986 71.75476
#
# Poissons Ratio (x) = 0.30163 0.22402
# Poissons Ratio (y) = 0.39974 0.07822
# Poissons Ratio (z) = 0.36815 0.09700
#
# Static dielectric constant tensor:
#      x y z
#    x 7.501400 2.929210 2.213670 
#    y 2.929210 6.518320 1.808540 
#    z 2.213670 1.808540 5.518390 
# 
# 
# High freq. dielectric constant tensor:
#      x y z
#    x 1.875400 0.000470 0.014140 
#    y 0.000470 1.844590 -0.010510 
#    z 0.014140 -0.010510 1.876830 
# 
# From -- ./inp_files/278800.got.cif
#   From: 2010.06.25/outbox.cif.g09.slc.cpg/sg2_140_cif.got.tgz:278800.got - 2010.06.27 13:26:56.
