data_PCOD8020858
_publ_section_title
;
Structure prediction by ZEFSAII (Michael W. Deem and Ramdas Pophale) SiO2 
 PCOD8020858
Probable space group: P -1
;
_chemical_formula_sum "Si O2"
_cell_formula_units_Z 16
_cell_length_a 7.923796
_cell_length_b 9.615005
_cell_length_c 19.756004
_cell_angle_alpha 47.461457
_cell_angle_beta 64.526659
_cell_angle_gamma 47.377507
_cell_volume 814.993907
_symmetry_space_group_name_H-M "P -1"
_symmetry_group_IT_number 2
_symmetry_cell_setting 'triclinic'
loop_
_space_group_symop_operation_xyz
x,y,z
-x,-y,-z
loop_
_atom_site_type_symbol
_atom_site_label
_atom_site_fract_x
_atom_site_fract_y
_atom_site_fract_z
Si Si1 0.537317 0.578820 0.396054
Si Si2 0.866666 0.078509 0.194846
Si Si3 0.254304 0.169193 0.518980
Si Si4 0.117945 0.343723 0.631112
Si Si5 0.422754 0.294594 0.129598
Si Si6 0.122154 0.861888 0.592023
Si Si7 0.834507 0.191841 0.018829
Si Si8 0.151181 0.075474 0.263640
O O1 0.500000 0.500000 0.500000
O O2 0.717816 0.643847 0.349382
O O3 0.634064 0.372642 0.392486
O O4 0.299618 0.796407 0.336168
O O5 0.585293 0.230995 0.189322
O O6 0.960142 0.111358 0.097118
O O7 0.955828 0.160451 0.212436
O O8 0.959508 0.810687 0.274543
O O9 0.263278 0.235071 0.572568
O O10 0.111098 0.400561 0.423115
O O11 0.500000 0.000000 0.500000
O O12 0.141989 0.028687 0.583629
O O13 0.587711 0.227755 0.056872
O O14 0.316550 0.149994 0.191900
O O15 0.213917 0.565697 0.075990
O O16 0.967502 0.809650 0.680843
O O17 0.000000 0.000000 0.500000
O O18 0.000000 0.000000 0.000000
#
# Coordination Sequence:
#
# PCOD8020858 Si02
#       8
#     2   2   2   2   2   2   2   2
#     4  12  23  39  61  83 129 177 216 268 321 357
#     4  10  22  43  64  96 123 162 212 265 315 387
#     4  11  24  38  59  87 125 173 221 264 320 363
#     4  11  22  41  58  87 128 166 217 268 310 378
#     4   9  22  43  70  92 128 168 196 262 342 376
#     4  12  24  40  57  91 124 175 227 258 309 381
#     4   9  20  47  71  95 128 159 204 259 332 406
#     4  12  24  42  64  94 134 165 221 264 316 376
#
# _framework density 19.632047
#
# number of rings (size 3 to 8) (size 9 to 14) (size 15 to 20)
#    0.750    0.500    5.000    0.750    3.500    2.500 
#    4.500    0.625    0.000    0.000    0.000    0.000 
#    0.000    0.000    0.000    0.000    0.000    0.000 
#
# Total GULP energy -198341.634366 kJ/mol
# GULP energy per Si atom -12396.352148 kJ/mol
# Density = 1.958736 g / cm^3
# Si number density = 19.632047 Si / 1000 Ang^3
#
#
#
# Elastic Constant Matrix: (Units=GPa)
#
#
# Indices 1 2 3 4 5 6 
#
# 1 92.7633 26.4971 41.1449 -1.3457 7.4988 6.9142
# 2 26.4971 138.7955 49.4058 -7.1467 7.8001 -15.6722
# 3 41.1449 49.4058 97.9111 -7.9075 3.0799 -1.8178
# 4 -1.3457 -7.1467 -7.9075 28.9473 1.1791 2.2360
# 5 7.4988 7.8001 3.0799 1.1791 30.6357 -0.4067
# 6 6.9142 -15.6722 -1.8178 2.2360 -0.4067 28.0956
#
#
#
# Elastic Compliance Matrix: (Units=1/GPa)
#
#
# Indices 1 2 3 4 5 6 
#
# 1 0.014021 -0.001154 -0.005362 -0.000648 -0.002633 -0.004427
# 2 -0.001154 0.009645 -0.004161 0.000851 -0.001717 0.005302
# 3 -0.005362 -0.004161 0.014758 0.002743 0.000779 -0.000254
# 4 -0.000648 0.000851 0.002743 0.035704 -0.001735 -0.002055
# 5 -0.002633 -0.001717 0.000779 -0.001735 0.033717 0.000367
# 6 -0.004427 0.005302 -0.000254 -0.002055 0.000367 0.039793
#
#
# Mechanical properties :
#
#
# Convention : Reuss Voigt Hill
#
# Bulk Modulus (GPa) = 58.57424 62.61839 60.59631
# Shear Modulus (GPa) = 28.62343 31.69720 30.16031
#
# Velocity S-wave (km/s) = 3.82251 4.02252 3.92379
# Velocity P-wave (km/s) = 7.02730 7.31707 7.17365
#
# Compressibility (1/GPa) = 0.01707235
#
# Stress axis : x y z
#
# Youngs Moduli (GPa) = 71.32020 103.67736 67.75778
#
# Poissons Ratio (x) = 0.11959 0.36330
# Poissons Ratio (y) = 0.08227 0.28194
# Poissons Ratio (z) = 0.38240 0.43140
#
# Static dielectric constant tensor:
#      x y z
#    x 2.567210 -0.756610 0.843650 
#    y -0.756610 2.947460 0.451410 
#    z 0.843650 0.451410 3.037220 
# 
# 
# High freq. dielectric constant tensor:
#      x y z
#    x 1.756550 -0.004660 -0.000920 
#    y -0.004660 1.755340 -0.010880 
#    z -0.000920 -0.010880 1.766840 
# 
# From -- ./inp_files/586595.got.cif
#   From: 2010.06.25/outbox.cif.g09.slc.cpg/sg2_294_cif.got.tgz:586595.got - 2010.06.27 13:26:56.
