data_PCOD8020287
_publ_section_title
;
Structure prediction by ZEFSAII (Michael W. Deem and Ramdas Pophale) SiO2 
 PCOD8020287
Probable space group: P -1
;
_chemical_formula_sum "Si O2"
_cell_formula_units_Z 14
_cell_length_a 10.676793
_cell_length_b 15.314068
_cell_length_c 19.868831
_cell_angle_alpha 20.477662
_cell_angle_beta 36.760988
_cell_angle_gamma 48.509505
_cell_volume 617.157580
_symmetry_space_group_name_H-M "P -1"
_symmetry_group_IT_number 2
_symmetry_cell_setting 'triclinic'
loop_
_space_group_symop_operation_xyz
x,y,z
-x,-y,-z
loop_
_atom_site_type_symbol
_atom_site_label
_atom_site_fract_x
_atom_site_fract_y
_atom_site_fract_z
Si Si1 0.147246 0.589211 0.280276
Si Si2 0.995450 0.907429 0.207211
Si Si3 0.347689 0.308046 0.000015
Si Si4 0.349722 0.496912 0.630796
Si Si5 0.007507 0.293556 0.416319
Si Si6 0.494041 0.789667 0.490426
Si Si7 0.258289 0.191305 0.270083
O O1 0.997928 0.309681 0.585086
O O2 0.412938 0.718702 0.097254
O O3 0.047065 0.813162 0.179220
O O4 0.110446 0.512958 0.272936
O O5 0.759654 0.945710 0.285023
O O6 0.197902 0.187500 0.940886
O O7 0.346196 0.565283 0.772581
O O8 0.358536 0.374680 0.027620
O O9 0.123259 0.032685 0.272754
O O10 0.500000 0.500000 0.500000
O O11 0.189906 0.655361 0.573700
O O12 0.506288 0.641453 0.522698
O O13 0.234725 0.361377 0.222436
O O14 0.394626 0.013914 0.361791
O O15 0.000000 0.000000 0.500000
#
# Coordination Sequence:
#
# PCOD8020287 Si02
#       7
#     2   2   2   2   2   2   2
#     4  10  22  43  63  92 131 166 213 263 319 371
#     4  10  24  41  64  96 127 169 215 262 314 385
#     4  10  22  42  67  91 130 169 208 264 313 376
#     4  12  24  39  66  98 127 166 213 260 321 381
#     4  11  23  40  63  95 126 169 209 263 319 371
#     4  11  23  44  66  95 128 170 213 261 318 374
#     4  10  22  43  63  96 129 166 216 259 317 377
#
# _framework density 22.684645
#
# number of rings (size 3 to 8) (size 9 to 14) (size 15 to 20)
#    0.000    1.429    2.857    2.571    2.000    4.000 
#    2.571    7.143    0.000    0.000    0.000    0.000 
#    0.000    0.000    0.000    0.000    0.000    0.000 
#
# Total GULP energy -173567.214012 kJ/mol
# GULP energy per Si atom -12397.658144 kJ/mol
# Density = 2.263301 g / cm^3
# Si number density = 22.684645 Si / 1000 Ang^3
#
#
#
# Elastic Constant Matrix: (Units=GPa)
#
#
# Indices 1 2 3 4 5 6 
#
# 1 57.3543 14.9908 -7.5526 -0.9704 21.1990 -0.8481
# 2 14.9908 119.4569 10.5811 9.9194 19.2436 2.1998
# 3 -7.5526 10.5811 50.7178 11.7297 14.7270 -1.4904
# 4 -0.9704 9.9194 11.7297 26.7676 6.6356 -0.8335
# 5 21.1990 19.2436 14.7270 6.6356 36.6760 4.7370
# 6 -0.8481 2.1998 -1.4904 -0.8335 4.7370 35.9377
#
#
#
# Elastic Compliance Matrix: (Units=1/GPa)
#
#
# Indices 1 2 3 4 5 6 
#
# 1 0.026109 -0.001284 0.009277 0.002182 -0.019006 0.003635
# 2 -0.001284 0.009346 -0.000587 -0.002401 -0.003462 -0.000226
# 3 0.009277 -0.000587 0.027471 -0.007637 -0.015118 0.003210
# 4 0.002182 -0.002401 -0.007637 0.042936 -0.004900 0.001523
# 5 -0.019006 -0.003462 -0.015118 -0.004900 0.047968 -0.007300
# 6 0.003635 -0.000226 0.003210 0.001523 -0.007300 0.029056
#
#
# Mechanical properties :
#
#
# Convention : Reuss Voigt Hill
#
# Bulk Modulus (GPa) = 12.86403 29.28530 21.07467
# Shear Modulus (GPa) = 25.77496 33.84356 29.80926
#
# Velocity S-wave (km/s) = 3.37446 3.86672 3.62895
# Velocity P-wave (km/s) = 4.56790 5.73351 5.18357
#
# Compressibility (1/GPa) = 0.07773613
#
# Stress axis : x y z
#
# Youngs Moduli (GPa) = 38.30164 107.00176 36.40180
#
# Poissons Ratio (x) = 0.13744 -0.33770
# Poissons Ratio (y) = 0.04920 0.02137
# Poissons Ratio (z) = -0.35532 0.06282
#
# Static dielectric constant tensor:
#      x y z
#    x 4.057100 0.342570 0.115260 
#    y 0.342570 5.110730 0.403820 
#    z 0.115260 0.403820 4.240510 
# 
# 
# High freq. dielectric constant tensor:
#      x y z
#    x 1.888350 0.002650 -0.000420 
#    y 0.002650 1.899750 0.012500 
#    z -0.000420 0.012500 1.901070 
# 
# From -- ./inp_files/454160.got.cif
#   From: 2010.06.25/outbox.cif.g09.slc.cpg/sg2_228_cif.got.tgz:454160.got - 2010.06.27 13:26:56.
