data_PCOD8020627
_publ_section_title
;
Structure prediction by ZEFSAII (Michael W. Deem and Ramdas Pophale) SiO2 
 PCOD8020627
Probable space group: P -1
;
_chemical_formula_sum "Si O2"
_cell_formula_units_Z 16
_cell_length_a 8.100559
_cell_length_b 12.546493
_cell_length_c 17.911574
_cell_angle_alpha 110.994370
_cell_angle_beta 108.223142
_cell_angle_gamma 129.355715
_cell_volume 872.328642
_symmetry_space_group_name_H-M "P -1"
_symmetry_group_IT_number 2
_symmetry_cell_setting 'triclinic'
loop_
_space_group_symop_operation_xyz
x,y,z
-x,-y,-z
loop_
_atom_site_type_symbol
_atom_site_label
_atom_site_fract_x
_atom_site_fract_y
_atom_site_fract_z
Si Si1 0.227340 0.559892 0.491307
Si Si2 0.655918 0.936919 0.552223
Si Si3 0.892246 0.477692 0.094026
Si Si4 0.236193 0.895778 0.701451
Si Si5 0.068865 0.046091 0.282874
Si Si6 0.487974 0.902443 0.364383
Si Si7 0.317739 0.309062 0.976323
Si Si8 0.903603 0.267277 0.954918
O O1 0.314189 0.690515 0.466575
O O2 0.560835 0.711471 0.618975
O O3 0.000000 0.500000 0.500000
O O4 0.053190 0.350439 0.384305
O O5 0.945483 0.029159 0.657908
O O6 0.687362 0.948556 0.469786
O O7 0.676738 0.077423 0.619072
O O8 0.201677 0.662809 0.236247
O O9 0.932898 0.565786 0.043976
O O10 0.569475 0.353839 0.055714
O O11 0.857942 0.322254 0.035178
O O12 0.165738 0.976591 0.751257
O O13 0.270226 0.930826 0.625960
O O14 0.563670 0.030689 0.817949
O O15 0.955429 0.903385 0.164391
O O16 0.129396 0.280327 0.005887
O O17 0.500000 0.500000 0.000000
#
# Coordination Sequence:
#
# PCOD8020627 Si02
#       8
#     2   2   2   2   2   2   2   2
#     4  10  19  34  51  73 100 138 175 211 253 301
#     4   9  20  34  50  74 106 137 169 207 259 310
#     4   9  17  29  47  73 102 132 165 209 260 297
#     4  11  18  32  53  76 106 135 171 217 252 305
#     4  10  20  31  49  81 105 131 174 211 260 306
#     4  10  19  34  52  74 108 135 170 207 261 310
#     4  10  17  28  48  75 105 129 163 220 258 297
#     4   9  17  28  47  76  99 130 166 216 256 293
#
# _framework density 18.341711
#
# number of rings (size 3 to 8) (size 9 to 14) (size 15 to 20)
#    0.750    1.500    2.500    3.375    1.750    0.500 
#    0.000    0.000    0.000    0.750    0.000    1.750 
#    0.000    0.000    0.000    0.000    0.000    0.000 
#
# Total GULP energy -198247.992182 kJ/mol
# GULP energy per Si atom -12390.499511 kJ/mol
# Density = 1.829996 g / cm^3
# Si number density = 18.341711 Si / 1000 Ang^3
#
#
#
# Elastic Constant Matrix: (Units=GPa)
#
#
# Indices 1 2 3 4 5 6 
#
# 1 111.7942 -2.5438 25.4297 2.0194 -10.2816 11.0000
# 2 -2.5438 32.8702 15.9655 4.0310 -6.4445 1.0366
# 3 25.4297 15.9655 74.3039 15.7114 -17.2353 -2.4239
# 4 2.0194 4.0310 15.7114 23.0758 1.5830 0.5651
# 5 -10.2816 -6.4445 -17.2353 1.5830 28.5384 4.5862
# 6 11.0000 1.0366 -2.4239 0.5651 4.5862 17.0404
#
#
#
# Elastic Compliance Matrix: (Units=1/GPa)
#
#
# Indices 1 2 3 4 5 6 
#
# 1 0.011248 0.003855 -0.004405 0.001315 0.003660 -0.009151
# 2 0.003855 0.036034 -0.007457 -0.001807 0.006308 -0.007379
# 3 -0.004405 -0.007457 0.022046 -0.014121 0.010157 0.004168
# 4 0.001315 -0.001807 -0.014121 0.053957 -0.011211 -0.001519
# 5 0.003660 0.006308 0.010157 -0.011211 0.046709 -0.013501
# 6 -0.009151 -0.007379 0.004168 -0.001519 -0.013501 0.069317
#
#
# Mechanical properties :
#
#
# Convention : Reuss Voigt Hill
#
# Bulk Modulus (GPa) = 18.75715 32.96346 25.86030
# Shear Modulus (GPa) = 18.30850 25.73873 22.02361
#
# Velocity S-wave (km/s) = 3.16284 3.75011 3.46893
# Velocity P-wave (km/s) = 4.85662 6.06317 5.49312
#
# Compressibility (1/GPa) = 0.05331302
#
# Stress axis : x y z
#
# Youngs Moduli (GPa) = 88.90412 27.75133 45.35976
#
# Poissons Ratio (x) = -0.10699 0.19983
# Poissons Ratio (y) = -0.34274 0.33827
# Poissons Ratio (z) = 0.39166 0.20695
#
# Static dielectric constant tensor:
#      x y z
#    x 3.704680 0.055170 -0.136850 
#    y 0.055170 3.056820 0.334780 
#    z -0.136850 0.334780 3.750330 
# 
# 
# High freq. dielectric constant tensor:
#      x y z
#    x 1.721730 0.009460 -0.010780 
#    y 0.009460 1.643820 0.021060 
#    z -0.010780 0.021060 1.714960 
# 
# From -- ./inp_files/561163.got.cif
#   From: 2010.06.25/outbox.cif.g09.slc.cpg/sg2_281_cif.got.tgz:561163.got - 2010.06.27 13:26:56.
