data_PCOD8020259
_publ_section_title
;
Structure prediction by ZEFSAII (Michael W. Deem and Ramdas Pophale) SiO2 
 PCOD8020259
Probable space group: P -1
;
_chemical_formula_sum "Si O2"
_cell_formula_units_Z 16
_cell_length_a 20.531085
_cell_length_b 8.546311
_cell_length_c 24.394571
_cell_angle_alpha 31.314863
_cell_angle_beta 161.566301
_cell_angle_gamma 140.641263
_cell_volume 685.108402
_symmetry_space_group_name_H-M "P -1"
_symmetry_group_IT_number 2
_symmetry_cell_setting 'triclinic'
loop_
_space_group_symop_operation_xyz
x,y,z
-x,-y,-z
loop_
_atom_site_type_symbol
_atom_site_label
_atom_site_fract_x
_atom_site_fract_y
_atom_site_fract_z
Si Si1 0.915509 0.797915 0.037474
Si Si2 0.922820 0.827612 0.597032
Si Si3 0.807698 0.721399 0.310819
Si Si4 0.755290 0.599953 0.792799
Si Si5 0.537983 0.836834 0.655022
Si Si6 0.457021 0.590782 0.875494
Si Si7 0.183240 0.508288 0.491589
Si Si8 0.198653 0.063303 0.977676
O O1 0.674360 0.788011 0.833719
O O2 0.908465 0.960640 0.041764
O O3 0.065977 0.453389 0.266793
O O4 0.000000 0.000000 0.000000
O O5 0.897352 0.722911 0.545378
O O6 0.143317 0.938812 0.747770
O O7 0.730694 0.110344 0.372584
O O8 0.597578 0.701070 0.113816
O O9 0.772452 0.627054 0.372641
O O10 0.000000 0.500000 0.500000
O O11 0.709052 0.789515 0.755999
O O12 0.611166 0.815780 0.567937
O O13 0.675363 0.281948 0.833754
O O14 0.000000 0.500000 0.000000
O O15 0.394748 0.586835 0.612626
O O16 0.661040 0.682365 0.985347
O O17 0.500000 0.500000 0.000000
O O18 0.996059 0.818710 0.254992
#
# Coordination Sequence:
#
# PCOD8020259 Si02
#       8
#     2   2   2   2   2   2   2   2
#     4  11  26  45  65  99 142 186 241 294 348 426
#     4  10  24  44  69  98 140 190 232 302 360 421
#     4  10  22  42  67 101 139 182 237 292 360 432
#     4  11  23  43  68 102 137 187 237 295 352 419
#     4  11  25  42  70 100 140 185 242 290 357 425
#     4  11  24  44  70 104 140 182 238 297 364 436
#     4  11  22  43  70 102 139 183 238 295 359 432
#     4  11  23  42  67 100 141 185 236 293 362 421
#
# _framework density 23.353967999999998
#
# number of rings (size 3 to 8) (size 9 to 14) (size 15 to 20)
#    0.000    1.250    1.250    4.125    7.000    5.500 
#    6.750    3.750    0.000    0.000    0.000    0.000 
#    0.000    0.000    0.000    0.000    0.000    0.000 
#
# Total GULP energy -198324.955691 kJ/mol
# GULP energy per Si atom -12395.309731 kJ/mol
# Density = 2.330081 g / cm^3
# Si number density = 23.353968 Si / 1000 Ang^3
#
#
#
# Elastic Constant Matrix: (Units=GPa)
#
#
# Indices 1 2 3 4 5 6 
#
# 1 97.8222 40.7941 35.8644 1.4807 -14.8479 19.5269
# 2 40.7941 133.4314 37.5668 9.2869 -13.2082 5.3772
# 3 35.8644 37.5668 119.2534 0.3767 -9.6476 1.3468
# 4 1.4807 9.2869 0.3767 38.3594 -0.7186 -1.8804
# 5 -14.8479 -13.2082 -9.6476 -0.7186 43.5178 2.9273
# 6 19.5269 5.3772 1.3468 -1.8804 2.9273 34.6403
#
#
#
# Elastic Compliance Matrix: (Units=1/GPa)
#
#
# Indices 1 2 3 4 5 6 
#
# 1 0.014818 -0.002915 -0.003120 -0.000159 0.004023 -0.008128
# 2 -0.002915 0.009196 -0.001906 -0.002067 0.001335 0.000065
# 3 -0.003120 -0.001906 0.009941 0.000574 0.000458 0.001661
# 4 -0.000159 -0.002067 0.000574 0.026657 -0.000239 0.001855
# 5 0.004023 0.001335 0.000458 -0.000239 0.025166 -0.004633
# 6 -0.008128 0.000065 0.001661 0.001855 -0.004633 0.033867
#
#
# Mechanical properties :
#
#
# Convention : Reuss Voigt Hill
#
# Bulk Modulus (GPa) = 55.33613 64.32862 59.83237
# Shear Modulus (GPa) = 35.32282 39.05560 37.18921
#
# Velocity S-wave (km/s) = 3.89330 4.09385 3.99484
# Velocity P-wave (km/s) = 6.62996 7.06760 6.85228
#
# Compressibility (1/GPa) = 0.01807138
#
# Stress axis : x y z
#
# Youngs Moduli (GPa) = 67.48711 108.74495 100.59402
#
# Poissons Ratio (x) = 0.31698 0.31388
# Poissons Ratio (y) = 0.19672 0.19177
# Poissons Ratio (z) = 0.21058 0.20731
#
# Static dielectric constant tensor:
#      x y z
#    x 3.911910 -0.016780 -0.078860 
#    y -0.016780 4.782380 0.097140 
#    z -0.078860 0.097140 4.423620 
# 
# 
# High freq. dielectric constant tensor:
#      x y z
#    x 1.912260 0.007300 -0.002940 
#    y 0.007300 1.938880 0.004310 
#    z -0.002940 0.004310 1.927940 
# 
# From -- ./inp_files/613572.got.cif
#   From: 2010.06.25/outbox.cif.g09.slc.cpg/sg2_307_cif.got.tgz:613572.got - 2010.06.27 13:26:56.
