data_PCOD8020349
_publ_section_title
;
Structure prediction by ZEFSAII (Michael W. Deem and Ramdas Pophale) SiO2 
 PCOD8020349
Probable space group: P -1
;
_chemical_formula_sum "Si O2"
_cell_formula_units_Z 14
_cell_length_a 6.103124
_cell_length_b 16.182899
_cell_length_c 6.154903
_cell_angle_alpha 73.655357
_cell_angle_beta 75.214512
_cell_angle_gamma 87.204097
_cell_volume 563.840202
_symmetry_space_group_name_H-M "P -1"
_symmetry_group_IT_number 2
_symmetry_cell_setting 'triclinic'
loop_
_space_group_symop_operation_xyz
x,y,z
-x,-y,-z
loop_
_atom_site_type_symbol
_atom_site_label
_atom_site_fract_x
_atom_site_fract_y
_atom_site_fract_z
Si Si1 0.772381 0.807646 0.697449
Si Si2 0.112752 0.736908 0.354427
Si Si3 0.566476 0.307813 0.343586
Si Si4 0.718625 0.556939 0.856854
Si Si5 0.741262 0.977600 0.354288
Si Si6 0.966061 0.393143 0.898625
Si Si7 0.940995 0.879727 0.004834
O O1 0.521012 0.778519 0.700397
O O2 0.837358 0.905586 0.541284
O O3 0.800336 0.808425 0.950823
O O4 0.950912 0.742218 0.600956
O O5 0.359464 0.717225 0.410792
O O6 0.017907 0.658371 0.291314
O O7 0.107610 0.827575 0.160486
O O8 0.355640 0.373415 0.357670
O O9 0.766981 0.350767 0.123951
O O10 0.915567 0.493272 0.776073
O O11 0.500000 0.500000 0.000000
O O12 0.801437 0.607043 0.019631
O O13 0.500000 0.000000 0.500000
O O14 0.752619 0.935090 0.139713
O O15 0.902307 0.062074 0.237571
#
# Coordination Sequence:
#
# PCOD8020349 Si02
#       7
#     2   2   2   2   2   2   2
#     4  11  25  44  66  98 136 177 226 287 343 415
#     4  11  24  40  66  97 136 179 227 280 346 404
#     4  11  23  41  65  97 133 179 227 280 342 414
#     4   9  20  41  67  96 134 178 228 281 342 403
#     4  10  24  44  72 104 132 185 234 284 354 413
#     4  10  22  42  67  96 134 180 226 288 335 404
#     4  10  23  48  67  99 146 177 230 300 336 412
#
# _framework density 24.829727999999999
#
# number of rings (size 3 to 8) (size 9 to 14) (size 15 to 20)
#    0.000    1.714    0.000    3.000    4.000    5.714 
#    0.000   10.000    0.000    0.000    0.000    0.000 
#    0.000    0.000    0.000    0.000    0.000    0.000 
#
# Total GULP energy -173448.222282 kJ/mol
# GULP energy per Si atom -12389.158734 kJ/mol
# Density = 2.477321 g / cm^3
# Si number density = 24.829728 Si / 1000 Ang^3
#
#
#
# Elastic Constant Matrix: (Units=GPa)
#
#
# Indices 1 2 3 4 5 6 
#
# 1 144.0371 73.2490 70.2777 4.3518 34.4208 8.0232
# 2 73.2490 137.9274 62.8334 14.9571 25.8793 2.6960
# 3 70.2777 62.8334 93.3686 11.3079 14.8976 4.1604
# 4 4.3518 14.9571 11.3079 45.7429 -1.0279 3.8857
# 5 34.4208 25.8793 14.8976 -1.0279 51.4034 4.1931
# 6 8.0232 2.6960 4.1604 3.8857 4.1931 45.3790
#
#
#
# Elastic Compliance Matrix: (Units=1/GPa)
#
#
# Indices 1 2 3 4 5 6 
#
# 1 0.013229 -0.002846 -0.007343 0.001468 -0.005175 -0.001144
# 2 -0.002846 0.011862 -0.005147 -0.002458 -0.002683 0.000729
# 3 -0.007343 -0.005147 0.019724 -0.002441 0.001756 -0.000157
# 4 0.001468 -0.002458 -0.002441 0.023337 0.001594 -0.002035
# 5 -0.005175 -0.002683 0.001756 0.001594 0.023910 -0.001433
# 6 -0.001144 0.000729 -0.000157 -0.002035 -0.001433 0.022517
#
#
# Mechanical properties :
#
#
# Convention : Reuss Voigt Hill
#
# Bulk Modulus (GPa) = 70.71264 87.56148 79.13706
# Shear Modulus (GPa) = 33.34109 39.76993 36.55551
#
# Velocity S-wave (km/s) = 3.66838 4.00647 3.84115
# Velocity P-wave (km/s) = 6.81789 7.53285 7.18427
#
# Compressibility (1/GPa) = 0.01414174
#
# Stress axis : x y z
#
# Youngs Moduli (GPa) = 75.59295 84.30083 50.70073
#
# Poissons Ratio (x) = 0.23994 0.37229
# Poissons Ratio (y) = 0.21515 0.26097
# Poissons Ratio (z) = 0.55508 0.43392
#
# Static dielectric constant tensor:
#      x y z
#    x 4.525740 -0.184050 0.288620 
#    y -0.184050 5.133030 -0.112470 
#    z 0.288620 -0.112470 4.330780 
# 
# 
# High freq. dielectric constant tensor:
#      x y z
#    x 1.977320 0.002080 0.015860 
#    y 0.002080 2.010980 -0.010650 
#    z 0.015860 -0.010650 1.974470 
# 
# From -- ./inp_files/7449.got.cif
#   From: 2010.06.25/outbox.cif.g09.slc.cpg/sg2_4_cif.got.tgz:7449.got - 2010.06.27 13:26:56.
