data_PCOD8020721
_publ_section_title
;
Structure prediction by ZEFSAII (Michael W. Deem and Ramdas Pophale) SiO2 
 PCOD8020721
Probable space group: P -1
;
_chemical_formula_sum "Si O2"
_cell_formula_units_Z 16
_cell_length_a 8.839627
_cell_length_b 6.695082
_cell_length_c 18.696827
_cell_angle_alpha 109.506948
_cell_angle_beta 117.976654
_cell_angle_gamma 105.768425
_cell_volume 789.780893
_symmetry_space_group_name_H-M "P -1"
_symmetry_group_IT_number 2
_symmetry_cell_setting 'triclinic'
loop_
_space_group_symop_operation_xyz
x,y,z
-x,-y,-z
loop_
_atom_site_type_symbol
_atom_site_label
_atom_site_fract_x
_atom_site_fract_y
_atom_site_fract_z
Si Si1 0.713265 0.930081 0.255075
Si Si2 0.702370 0.190033 0.896317
Si Si3 0.051772 0.507955 0.594599
Si Si4 0.280558 0.945001 0.457758
Si Si5 0.644177 0.679932 0.359292
Si Si6 0.227255 0.204121 0.205359
Si Si7 0.987962 0.568467 0.889771
Si Si8 0.036183 0.857302 0.254840
O O1 0.866132 0.221449 0.324237
O O2 0.522817 0.869159 0.157869
O O3 0.645215 0.831215 0.308440
O O4 0.820595 0.800791 0.226018
O O5 0.820997 0.403881 0.890742
O O6 0.703571 0.944186 0.846940
O O7 0.796497 0.280410 0.006445
O O8 0.851964 0.329613 0.572910
O O9 0.000000 0.500000 0.500000
O O10 0.213743 0.428875 0.634159
O O11 0.194677 0.971338 0.367254
O O12 0.275015 0.138026 0.533752
O O13 0.500000 0.000000 0.500000
O O14 0.418865 0.465685 0.299789
O O15 0.064385 0.237147 0.130889
O O16 0.121989 0.056783 0.235425
O O17 0.995924 0.403528 0.808358
#
# Coordination Sequence:
#
# PCOD8020721 Si02
#       8
#     2   2   2   2   2   2   2   2
#     4  12  24  44  67  98 134 174 219 269 324 392
#     4  10  22  42  72  99 125 175 222 267 329 390
#     4  12  25  43  67  92 131 177 223 267 316 388
#     4  12  27  43  65  96 134 174 215 269 325 384
#     4  12  24  44  67  95 133 177 220 263 321 391
#     4  11  23  42  70  98 132 172 219 269 328 392
#     4  10  22  44  68  97 135 168 218 277 323 390
#     4  11  27  42  63 100 138 170 217 270 332 384
#
# _framework density 20.258785
#
# number of rings (size 3 to 8) (size 9 to 14) (size 15 to 20)
#    0.000    0.750    5.000    2.250    7.000    1.000 
#    0.000    0.625    0.000    0.000    0.000    0.000 
#    0.000    0.000    0.000    0.000    0.000    0.000 
#
# Total GULP energy -198526.434068 kJ/mol
# GULP energy per Si atom -12407.902129 kJ/mol
# Density = 2.021268 g / cm^3
# Si number density = 20.258785 Si / 1000 Ang^3
#
#
#
# Elastic Constant Matrix: (Units=GPa)
#
#
# Indices 1 2 3 4 5 6 
#
# 1 108.3272 26.4928 45.7666 -18.6538 13.3764 -12.9488
# 2 26.4928 100.6278 39.9950 -15.8455 6.9485 -7.2542
# 3 45.7666 39.9950 126.7901 -15.7685 15.4364 -3.2575
# 4 -18.6538 -15.8455 -15.7685 28.4969 -5.1629 8.2082
# 5 13.3764 6.9485 15.4364 -5.1629 33.6706 -3.0155
# 6 -12.9488 -7.2542 -3.2575 8.2082 -3.0155 28.7718
#
#
#
# Elastic Compliance Matrix: (Units=1/GPa)
#
#
# Indices 1 2 3 4 5 6 
#
# 1 0.012250 -0.000844 -0.003255 0.004349 -0.002223 0.003458
# 2 -0.000844 0.012077 -0.002947 0.004197 -0.000062 0.001128
# 3 -0.003255 -0.002947 0.010543 0.002111 -0.002780 -0.001908
# 4 0.004349 0.004197 0.002111 0.044531 0.002443 -0.009193
# 5 -0.002223 -0.000062 -0.002780 0.002443 0.032367 0.001364
# 6 0.003458 0.001128 -0.001908 -0.009193 0.001364 0.039147
#
#
# Mechanical properties :
#
#
# Convention : Reuss Voigt Hill
#
# Bulk Modulus (GPa) = 48.12421 62.25041 55.18731
# Shear Modulus (GPa) = 29.08123 33.08724 31.08424
#
# Velocity S-wave (km/s) = 3.79289 4.04571 3.92134
# Velocity P-wave (km/s) = 6.55650 7.25383 6.91396
#
# Compressibility (1/GPa) = 0.02077956
#
# Stress axis : x y z
#
# Youngs Moduli (GPa) = 81.63459 82.79979 94.84543
#
# Poissons Ratio (x) = 0.06985 0.30873
# Poissons Ratio (y) = 0.06886 0.27949
# Poissons Ratio (z) = 0.26573 0.24399
#
# Static dielectric constant tensor:
#      x y z
#    x 3.643990 -0.050210 0.020160 
#    y -0.050210 3.840720 0.010530 
#    z 0.020160 0.010530 3.847600 
# 
# 
# High freq. dielectric constant tensor:
#      x y z
#    x 1.790580 -0.006710 0.005630 
#    y -0.006710 1.803520 -0.002310 
#    z 0.005630 -0.002310 1.800740 
# 
# From -- ./inp_files/585389.got.cif
#   From: 2010.06.25/outbox.cif.g09.slc.cpg/sg2_293_cif.got.tgz:585389.got - 2010.06.27 13:26:56.
