data_PCOD8020690
_publ_section_title
;
Structure prediction by ZEFSAII (Michael W. Deem and Ramdas Pophale) SiO2 
 PCOD8020690
Probable space group: P -1
;
_chemical_formula_sum "Si O2"
_cell_formula_units_Z 14
_cell_length_a 9.916112
_cell_length_b 17.464862
_cell_length_c 5.157637
_cell_angle_alpha 87.159258
_cell_angle_beta 62.600963
_cell_angle_gamma 61.012716
_cell_volume 676.152598
_symmetry_space_group_name_H-M "P -1"
_symmetry_group_IT_number 2
_symmetry_cell_setting 'triclinic'
loop_
_space_group_symop_operation_xyz
x,y,z
-x,-y,-z
loop_
_atom_site_type_symbol
_atom_site_label
_atom_site_fract_x
_atom_site_fract_y
_atom_site_fract_z
Si Si1 0.131581 0.164140 0.317093
Si Si2 0.258968 0.685656 0.442012
Si Si3 0.315953 0.092086 0.661544
Si Si4 0.980827 0.452583 0.776256
Si Si5 0.694152 0.481714 0.365587
Si Si6 0.514878 0.336914 0.250992
Si Si7 0.716025 0.743519 0.554401
O O1 0.187386 0.101464 0.534755
O O2 0.216189 0.228217 0.254037
O O3 0.919015 0.220106 0.471325
O O4 0.215391 0.097106 0.013044
O O5 0.200347 0.611958 0.552448
O O6 0.356799 0.695510 0.606102
O O7 0.386735 0.654864 0.085992
O O8 0.346761 0.176237 0.612816
O O9 0.500000 0.000000 0.500000
O O10 0.000000 0.500000 0.500000
O O11 0.116277 0.347002 0.687144
O O12 0.782395 0.470592 0.004361
O O13 0.000000 0.500000 0.000000
O O14 0.500000 0.500000 0.500000
O O15 0.668374 0.567189 0.539394
O O16 0.451472 0.267997 0.243971
#
# Coordination Sequence:
#
# PCOD8020690 Si02
#       7
#     2   2   2   2   2   2   2
#     4  10  23  39  69  93 124 160 217 261 331 383
#     4  11  24  41  62  90 131 176 219 260 320 383
#     4  10  22  42  71  99 122 158 215 274 327 392
#     4  12  27  39  61  91 134 171 218 272 314 372
#     4  10  24  40  60  85 131 180 229 258 314 374
#     4  11  24  39  61  90 131 173 220 270 316 374
#     4  10  26  38  68  92 131 164 221 263 335 363
#
# _framework density 20.705387999999999
#
# number of rings (size 3 to 8) (size 9 to 14) (size 15 to 20)
#    0.857    0.571    1.429    2.571   14.000    0.000 
#    0.000    0.000    0.000    5.143    0.000    0.000 
#    0.000    0.000    0.000    0.000    0.000    0.000 
#
# Total GULP energy -173463.203440 kJ/mol
# GULP energy per Si atom -12390.228817 kJ/mol
# Density = 2.065826 g / cm^3
# Si number density = 20.705388 Si / 1000 Ang^3
#
#
#
# Elastic Constant Matrix: (Units=GPa)
#
#
# Indices 1 2 3 4 5 6 
#
# 1 84.6574 26.6251 44.4251 -3.4683 3.5105 -17.3095
# 2 26.6251 99.5415 52.7584 17.3572 -5.0416 -23.3612
# 3 44.4251 52.7584 183.0115 1.4184 7.8213 -16.3553
# 4 -3.4683 17.3572 1.4184 32.5984 -3.1371 -7.4718
# 5 3.5105 -5.0416 7.8213 -3.1371 35.7538 -2.6758
# 6 -17.3095 -23.3612 -16.3553 -7.4718 -2.6758 31.1221
#
#
#
# Elastic Compliance Matrix: (Units=1/GPa)
#
#
# Indices 1 2 3 4 5 6 
#
# 1 0.015338 -0.001912 -0.002589 0.004274 -0.000330 0.006732
# 2 -0.001912 0.015336 -0.003375 -0.006217 0.003101 0.007448
# 3 -0.002589 -0.003375 0.007118 0.001018 -0.001700 -0.000135
# 4 0.004274 -0.006217 0.001018 0.036244 0.002195 0.007136
# 5 -0.000330 0.003101 -0.001700 0.002195 0.029325 0.004299
# 6 0.006732 0.007448 -0.000135 0.007136 0.004299 0.043478
#
#
# Mechanical properties :
#
#
# Convention : Reuss Voigt Hill
#
# Bulk Modulus (GPa) = 45.37628 68.31417 56.84522
# Shear Modulus (GPa) = 29.42238 36.12163 32.77201
#
# Velocity S-wave (km/s) = 3.77371 4.18131 3.98273
# Velocity P-wave (km/s) = 6.39927 7.50841 6.97592
#
# Compressibility (1/GPa) = 0.02203795
#
# Stress axis : x y z
#
# Youngs Moduli (GPa) = 65.19862 65.20780 140.47974
#
# Poissons Ratio (x) = 0.12469 0.36374
# Poissons Ratio (y) = 0.12467 0.47419
# Poissons Ratio (z) = 0.16882 0.22011
#
# Static dielectric constant tensor:
#      x y z
#    x 3.915080 0.020610 0.037810 
#    y 0.020610 3.808790 -0.056980 
#    z 0.037810 -0.056980 4.321170 
# 
# 
# High freq. dielectric constant tensor:
#      x y z
#    x 1.810160 -0.012290 0.001530 
#    y -0.012290 1.784550 0.003070 
#    z 0.001530 0.003070 1.820720 
# 
# From -- ./inp_files/79672.got.cif
#   From: 2010.06.25/outbox.cif.g09.slc.cpg/sg2_40_cif.got.tgz:79672.got - 2010.06.27 13:26:56.
