data_PCOD8020805
_publ_section_title
;
Structure prediction by ZEFSAII (Michael W. Deem and Ramdas Pophale) SiO2 
 PCOD8020805
Probable space group: P -1
;
_chemical_formula_sum "Si O2"
_cell_formula_units_Z 14
_cell_length_a 12.528125
_cell_length_b 14.932551
_cell_length_c 12.440240
_cell_angle_alpha 24.306874
_cell_angle_beta 46.180369
_cell_angle_gamma 40.589396
_cell_volume 623.283252
_symmetry_space_group_name_H-M "P -1"
_symmetry_group_IT_number 2
_symmetry_cell_setting 'triclinic'
loop_
_space_group_symop_operation_xyz
x,y,z
-x,-y,-z
loop_
_atom_site_type_symbol
_atom_site_label
_atom_site_fract_x
_atom_site_fract_y
_atom_site_fract_z
Si Si1 0.062356 0.403309 0.945657
Si Si2 0.630711 0.082956 0.770167
Si Si3 0.707404 0.742985 0.528036
Si Si4 0.821376 0.231109 0.644462
Si Si5 0.396187 0.442552 0.378244
Si Si6 0.106890 0.722120 0.982367
Si Si7 0.614782 0.218743 0.170752
O O1 0.096519 0.605648 0.639621
O O2 0.000000 0.500000 0.000000
O O3 0.925788 0.345806 0.041150
O O4 0.222523 0.153645 0.120201
O O5 0.685537 0.221370 0.669542
O O6 0.556272 0.274142 0.517110
O O7 0.500000 0.000000 0.000000
O O8 0.680178 0.729666 0.433198
O O9 0.549363 0.770452 0.677510
O O10 0.727747 0.981228 0.283068
O O11 0.868948 0.504306 0.710444
O O12 0.736312 0.349914 0.684546
O O13 0.954278 0.959734 0.871607
O O14 0.441566 0.558929 0.116046
O O15 0.271800 0.761596 0.832903
#
# Coordination Sequence:
#
# PCOD8020805 Si02
#       7
#     2   2   2   2   2   2   2
#     4  11  26  43  68  99 132 177 220 273 332 387
#     4  11  25  45  68  97 136 174 222 274 328 396
#     4  10  23  41  67  95 132 170 221 268 331 392
#     4  11  25  42  66  95 133 174 220 272 331 391
#     4  11  23  39  68  95 126 172 224 265 325 389
#     4  10  22  43  63  91 134 164 216 269 327 389
#     4  10  23  42  64  97 129 175 214 275 327 395
#
# _framework density 22.461698999999999
#
# number of rings (size 3 to 8) (size 9 to 14) (size 15 to 20)
#    0.000    1.429    1.429    3.000    2.000   11.429 
#    0.000    4.286    0.000    0.000    0.000    0.000 
#    0.000    0.000    0.000    0.000    0.000    0.000 
#
# Total GULP energy -173540.281428 kJ/mol
# GULP energy per Si atom -12395.734388 kJ/mol
# Density = 2.241058 g / cm^3
# Si number density = 22.461699 Si / 1000 Ang^3
#
#
#
# Elastic Constant Matrix: (Units=GPa)
#
#
# Indices 1 2 3 4 5 6 
#
# 1 164.1116 66.2633 53.6884 -15.9124 5.9583 15.8136
# 2 66.2633 115.1315 30.6534 -28.8186 7.9074 26.4070
# 3 53.6884 30.6534 72.0003 -30.5048 3.8152 -5.4278
# 4 -15.9124 -28.8186 -30.5048 46.6087 -1.0841 -4.7072
# 5 5.9583 7.9074 3.8152 -1.0841 40.0705 -10.4596
# 6 15.8136 26.4070 -5.4278 -4.7072 -10.4596 41.9828
#
#
#
# Elastic Compliance Matrix: (Units=1/GPa)
#
#
# Indices 1 2 3 4 5 6 
#
# 1 0.010290 -0.004202 -0.008046 -0.004675 -0.000846 -0.003008
# 2 -0.004202 0.015218 -0.001086 0.006305 -0.004323 -0.008500
# 3 -0.008046 -0.001086 0.027601 0.015640 0.001673 0.009453
# 4 -0.004675 0.006305 0.015640 0.034356 -0.000161 0.003629
# 5 -0.000846 -0.004323 0.001673 -0.000161 0.028467 0.010329
# 6 -0.003008 -0.008500 0.009453 0.003629 0.010329 0.034501
#
#
# Mechanical properties :
#
#
# Convention : Reuss Voigt Hill
#
# Bulk Modulus (GPa) = 37.82110 72.49482 55.15796
# Shear Modulus (GPa) = 26.89397 39.10828 33.00113
#
# Velocity S-wave (km/s) = 3.46399 4.17719 3.83720
# Velocity P-wave (km/s) = 5.73355 7.45722 6.65146
#
# Compressibility (1/GPa) = 0.02644027
#
# Stress axis : x y z
#
# Youngs Moduli (GPa) = 97.18510 65.71197 36.23036
#
# Poissons Ratio (x) = 0.27612 0.29152
# Poissons Ratio (y) = 0.40836 0.03935
# Poissons Ratio (z) = 0.78198 0.07136
#
# Static dielectric constant tensor:
#      x y z
#    x 3.102210 -0.145280 -1.614690 
#    y -0.145280 4.111620 -0.904260 
#    z -1.614690 -0.904260 2.999590 
# 
# 
# High freq. dielectric constant tensor:
#      x y z
#    x 1.902450 0.012370 -0.004800 
#    y 0.012370 1.890030 -0.031750 
#    z -0.004800 -0.031750 1.882210 
# 
# From -- ./inp_files/432210.got.cif
#   From: 2010.06.25/outbox.cif.g09.slc.cpg/sg2_217_cif.got.tgz:432210.got - 2010.06.27 13:26:56.
