data_PCOD8020412
_publ_section_title
;
Structure prediction by ZEFSAII (Michael W. Deem and Ramdas Pophale) SiO2 
 PCOD8020412
Probable space group: P -1
;
_chemical_formula_sum "Si O2"
_cell_formula_units_Z 14
_cell_length_a 5.085278
_cell_length_b 17.661378
_cell_length_c 6.828004
_cell_angle_alpha 94.380136
_cell_angle_beta 106.625586
_cell_angle_gamma 80.160735
_cell_volume 578.718516
_symmetry_space_group_name_H-M "P -1"
_symmetry_group_IT_number 2
_symmetry_cell_setting 'triclinic'
loop_
_space_group_symop_operation_xyz
x,y,z
-x,-y,-z
loop_
_atom_site_type_symbol
_atom_site_label
_atom_site_fract_x
_atom_site_fract_y
_atom_site_fract_z
Si Si1 0.376072 0.163400 0.312899
Si Si2 0.509811 0.534942 0.721397
Si Si3 0.140940 0.572301 0.980787
Si Si4 0.797231 0.949613 0.044394
Si Si5 0.690069 0.663941 0.582225
Si Si6 0.925732 0.315820 0.681428
Si Si7 0.007691 0.856901 0.431562
O O1 0.239726 0.127942 0.092577
O O2 0.288084 0.255166 0.295908
O O3 0.250290 0.132607 0.475091
O O4 0.708378 0.137636 0.389378
O O5 0.500000 0.500000 0.500000
O O6 0.566267 0.459353 0.853004
O O7 0.751882 0.594870 0.752782
O O8 0.229674 0.584305 0.770828
O O9 0.027806 0.652364 0.085304
O O10 0.000000 0.500000 0.000000
O O11 0.935223 0.926200 0.278020
O O12 0.500000 0.000000 0.000000
O O13 0.000000 0.000000 0.000000
O O14 0.375694 0.654811 0.466596
O O15 0.863252 0.652636 0.417836
O O16 0.971064 0.223998 0.692155
#
# Coordination Sequence:
#
# PCOD8020412 Si02
#       7
#     2   2   2   2   2   2   2
#     4  10  23  45  67  99 135 178 226 266 345 397
#     4  11  23  41  61  92 132 172 221 275 330 383
#     4  11  25  38  61  95 127 176 222 274 336 392
#     4  12  26  43  69 106 134 174 225 269 333 412
#     4  10  22  42  68  91 130 179 219 278 328 398
#     4  10  22  43  65  93 130 171 227 270 337 394
#     4  10  23  45  68  96 138 177 214 287 328 395
#
# _framework density 24.191381
#
# number of rings (size 3 to 8) (size 9 to 14) (size 15 to 20)
#    0.000    1.429    1.429    2.571    4.000    5.714 
#   12.857    0.000    0.000    0.000    0.000    0.000 
#    0.000    0.000    0.000    0.000    0.000    0.000 
#
# Total GULP energy -173491.218214 kJ/mol
# GULP energy per Si atom -12392.229872 kJ/mol
# Density = 2.413632 g / cm^3
# Si number density = 24.191381 Si / 1000 Ang^3
#
#
#
# Elastic Constant Matrix: (Units=GPa)
#
#
# Indices 1 2 3 4 5 6 
#
# 1 146.9582 30.4594 33.5943 2.5130 -26.7921 18.7455
# 2 30.4594 83.1646 43.3237 -9.7657 -13.7613 13.1737
# 3 33.5943 43.3237 98.9042 7.3912 -10.0586 2.6635
# 4 2.5130 -9.7657 7.3912 60.0939 1.8623 0.1771
# 5 -26.7921 -13.7613 -10.0586 1.8623 34.8584 0.4020
# 6 18.7455 13.1737 2.6635 0.1771 0.4020 36.5836
#
#
#
# Elastic Compliance Matrix: (Units=1/GPa)
#
#
# Indices 1 2 3 4 5 6 
#
# 1 0.009097 -0.000587 -0.002050 -0.000404 0.006240 -0.004367
# 2 -0.000587 0.018221 -0.007456 0.003782 0.004456 -0.005785
# 3 -0.002050 -0.007456 0.014183 -0.002869 -0.000305 0.002720
# 4 -0.000404 0.003782 -0.002869 0.017646 -0.000576 -0.001025
# 5 0.006240 0.004456 -0.000305 -0.000576 0.035245 -0.005164
# 6 -0.004367 -0.005785 0.002720 -0.001025 -0.005164 0.031519
#
#
# Mechanical properties :
#
#
# Convention : Reuss Voigt Hill
#
# Bulk Modulus (GPa) = 46.91492 60.42019 53.66755
# Shear Modulus (GPa) = 32.63663 41.08383 36.86023
#
# Velocity S-wave (km/s) = 3.67700 4.12549 3.90769
# Velocity P-wave (km/s) = 6.12065 6.90819 6.52631
#
# Compressibility (1/GPa) = 0.02131518
#
# Stress axis : x y z
#
# Youngs Moduli (GPa) = 109.93100 54.88181 70.50526
#
# Poissons Ratio (x) = 0.03219 0.14456
# Poissons Ratio (y) = 0.06449 0.52568
# Poissons Ratio (z) = 0.22540 0.40919
#
# Static dielectric constant tensor:
#      x y z
#    x 7.388710 -3.575570 3.445370 
#    y -3.575570 12.106630 -6.635380 
#    z 3.445370 -6.635380 10.634580 
# 
# 
# High freq. dielectric constant tensor:
#      x y z
#    x 1.987700 0.000460 0.001560 
#    y 0.000460 1.967630 -0.000780 
#    z 0.001560 -0.000780 1.967510 
# 
# From -- ./inp_files/8160.got.cif
#   From: 2010.06.25/outbox.cif.g09.slc.cpg/sg2_5_cif.got.tgz:8160.got - 2010.06.27 13:26:56.
