data_PCOD8020523
_publ_section_title
;
Structure prediction by ZEFSAII (Michael W. Deem and Ramdas Pophale) SiO2 
 PCOD8020523
Probable space group: P -1
;
_chemical_formula_sum "Si O2"
_cell_formula_units_Z 16
_cell_length_a 8.977060
_cell_length_b 15.365087
_cell_length_c 15.072056
_cell_angle_alpha 122.126801
_cell_angle_beta 37.834174
_cell_angle_gamma 142.726978
_cell_volume 745.646090
_symmetry_space_group_name_H-M "P -1"
_symmetry_group_IT_number 2
_symmetry_cell_setting 'triclinic'
loop_
_space_group_symop_operation_xyz
x,y,z
-x,-y,-z
loop_
_atom_site_type_symbol
_atom_site_label
_atom_site_fract_x
_atom_site_fract_y
_atom_site_fract_z
Si Si1 0.132203 0.451083 0.343997
Si Si2 0.760695 0.675876 0.479293
Si Si3 0.046021 0.940893 0.027957
Si Si4 0.662010 0.259022 0.288120
Si Si5 0.718787 0.636317 0.035980
Si Si6 0.766035 0.056327 0.729591
Si Si7 0.866831 0.974221 0.316723
Si Si8 0.923741 0.221855 0.437423
O O1 0.526929 0.592398 0.197406
O O2 0.000000 0.500000 0.500000
O O3 0.867941 0.351423 0.331722
O O4 0.188826 0.365348 0.327571
O O5 0.500000 0.500000 0.500000
O O6 0.532825 0.701193 0.634637
O O7 0.046168 0.731973 0.449704
O O8 0.967264 0.779924 0.351692
O O9 0.444401 0.024650 0.901149
O O10 0.775167 0.766214 0.039641
O O11 0.924929 0.961833 0.182589
O O12 0.000000 0.000000 0.000000
O O13 0.388995 0.079977 0.338233
O O14 0.896855 0.299499 0.113224
O O15 0.500000 0.500000 0.000000
O O16 0.973716 0.062928 0.714067
O O17 0.455028 0.863687 0.469757
O O18 0.037753 0.138286 0.336195
#
# Coordination Sequence:
#
# PCOD8020523 Si02
#       8
#     2   2   2   2   2   2   2   2
#     4  11  22  40  67 100 138 179 228 284 347 408
#     4  12  25  43  66 101 134 171 226 287 344 401
#     4  11  24  41  71 101 133 173 230 286 332 408
#     4  10  22  42  69  91 135 183 228 272 345 416
#     4   9  22  41  65  94 134 178 219 268 348 405
#     4  11  24  45  69  95 134 185 225 275 351 406
#     4  11  24  43  67  99 136 174 232 281 330 410
#     4  11  25  39  67 102 131 174 231 281 332 404
#
# _framework density 21.457899999999999
#
# number of rings (size 3 to 8) (size 9 to 14) (size 15 to 20)
#    0.000    1.250    1.250    3.750    8.750    4.000 
#    0.000    0.625    0.000    0.000    0.000    0.000 
#    0.000    0.000    0.000    0.000    0.000    0.000 
#
# Total GULP energy -198235.836089 kJ/mol
# GULP energy per Si atom -12389.739756 kJ/mol
# Density = 2.140906 g / cm^3
# Si number density = 21.457900 Si / 1000 Ang^3
#
#
#
# Elastic Constant Matrix: (Units=GPa)
#
#
# Indices 1 2 3 4 5 6 
#
# 1 108.4117 28.2595 27.9215 -9.6340 7.7241 -16.1136
# 2 28.2595 143.3871 51.9644 -12.4223 11.9255 -20.3110
# 3 27.9215 51.9644 129.8410 -6.0135 8.9860 -17.2401
# 4 -9.6340 -12.4223 -6.0135 31.9864 -1.8407 12.5090
# 5 7.7241 11.9255 8.9860 -1.8407 31.1626 0.6982
# 6 -16.1136 -20.3110 -17.2401 12.5090 0.6982 38.0618
#
#
#
# Elastic Compliance Matrix: (Units=1/GPa)
#
#
# Indices 1 2 3 4 5 6 
#
# 1 0.010487 -0.000904 -0.001310 0.001291 -0.001866 0.002974
# 2 -0.000904 0.008852 -0.002767 0.001476 -0.002338 0.002646
# 3 -0.001310 -0.002767 0.009494 -0.000764 -0.001457 0.002547
# 4 0.001291 0.001476 -0.000764 0.036499 0.001739 -0.011039
# 5 -0.001866 -0.002338 -0.001457 0.001739 0.034057 -0.003893
# 6 0.002974 0.002646 0.002547 -0.011039 -0.003893 0.033797
#
#
# Mechanical properties :
#
#
# Convention : Reuss Voigt Hill
#
# Bulk Modulus (GPa) = 52.98723 66.43673 59.71198
# Shear Modulus (GPa) = 33.45879 38.47511 35.96695
#
# Velocity S-wave (km/s) = 3.95305 4.23904 4.09854
# Velocity P-wave (km/s) = 6.75149 7.41538 7.09121
#
# Compressibility (1/GPa) = 0.01887247
#
# Stress axis : x y z
#
# Youngs Moduli (GPa) = 95.35891 112.96760 105.32567
#
# Poissons Ratio (x) = 0.10211 0.13793
# Poissons Ratio (y) = 0.08619 0.29143
# Poissons Ratio (z) = 0.12488 0.31257
#
# Static dielectric constant tensor:
#      x y z
#    x 3.790840 -0.006710 -0.171630 
#    y -0.006710 4.344350 -0.230370 
#    z -0.171630 -0.230370 4.390750 
# 
# 
# High freq. dielectric constant tensor:
#      x y z
#    x 1.833170 -0.006530 -0.005430 
#    y -0.006530 1.860530 -0.001080 
#    z -0.005430 -0.001080 1.847260 
# 
# From -- ./inp_files/314174.got.cif
#   From: 2010.06.25/outbox.cif.g09.slc.cpg/sg2_158_cif.got.tgz:314174.got - 2010.06.27 13:26:56.
