data_PCOD8020504
_publ_section_title
;
Structure prediction by ZEFSAII (Michael W. Deem and Ramdas Pophale) SiO2 
 PCOD8020504
Probable space group: P -1
;
_chemical_formula_sum "Si O2"
_cell_formula_units_Z 16
_cell_length_a 17.917932
_cell_length_b 12.320167
_cell_length_c 8.770864
_cell_angle_alpha 51.214766
_cell_angle_beta 137.977681
_cell_angle_gamma 151.447820
_cell_volume 617.422753
_symmetry_space_group_name_H-M "P -1"
_symmetry_group_IT_number 2
_symmetry_cell_setting 'triclinic'
loop_
_space_group_symop_operation_xyz
x,y,z
-x,-y,-z
loop_
_atom_site_type_symbol
_atom_site_label
_atom_site_fract_x
_atom_site_fract_y
_atom_site_fract_z
Si Si1 0.250594 0.328311 0.988632
Si Si2 0.387247 0.601031 0.485346
Si Si3 0.424252 0.729105 0.079709
Si Si4 0.725056 0.010693 0.849734
Si Si5 0.879825 0.077251 0.749662
Si Si6 0.794199 0.819921 0.288976
Si Si7 0.876341 0.443161 0.737147
Si Si8 0.787070 0.213685 0.266053
O O1 0.259490 0.302855 0.846498
O O2 0.408778 0.588226 0.058643
O O3 0.250307 0.189556 0.215775
O O4 0.065614 0.229818 0.815768
O O5 0.415967 0.670301 0.293544
O O6 0.557866 0.801268 0.674471
O O7 0.341155 0.389649 0.611611
O O8 0.213395 0.504845 0.384563
O O9 0.615866 0.994557 0.093702
O O10 0.255599 0.670210 0.849718
O O11 0.907209 0.148569 0.906182
O O12 0.717651 0.169903 0.716118
O O13 0.744932 0.937071 0.099310
O O14 0.776187 0.102441 0.492101
O O15 0.000000 0.000000 0.500000
O O16 0.010324 0.602432 0.657718
O O17 0.000000 0.500000 0.000000
#
# Coordination Sequence:
#
# PCOD8020504 Si02
#       8
#     2   2   2   2   2   2   2   2
#     4  10  24  44  72 107 141 188 237 296 361 432
#     4  12  25  48  71 109 145 192 238 304 358 426
#     4  11  25  46  73 108 151 183 244 297 357 432
#     4  11  25  47  70 105 147 187 242 301 358 432
#     4  10  22  42  69 103 137 183 240 288 358 421
#     4  11  26  47  76 105 144 190 242 300 368 430
#     4  12  25  43  71 104 144 193 245 293 357 426
#     4  11  24  46  70 105 147 194 235 296 359 424
#
# _framework density 25.914173999999999
#
# number of rings (size 3 to 8) (size 9 to 14) (size 15 to 20)
#    0.000    1.000    2.500    3.000    5.250    4.500 
#    0.000    0.000    0.000    0.000    0.000    0.000 
#    0.000    0.000    0.000    0.000    0.000    0.000 
#
# Total GULP energy -198264.753376 kJ/mol
# GULP energy per Si atom -12391.547086 kJ/mol
# Density = 2.585519 g / cm^3
# Si number density = 25.914174 Si / 1000 Ang^3
#
#
#
# Elastic Constant Matrix: (Units=GPa)
#
#
# Indices 1 2 3 4 5 6 
#
# 1 68.0165 18.5058 13.6504 -8.5833 4.4063 -0.8410
# 2 18.5058 135.7767 37.0075 -9.4626 -10.1289 -8.9991
# 3 13.6504 37.0075 134.8358 -21.3881 3.6572 -7.2741
# 4 -8.5833 -9.4626 -21.3881 43.3670 -11.1502 1.0061
# 5 4.4063 -10.1289 3.6572 -11.1502 11.3718 3.5029
# 6 -0.8410 -8.9991 -7.2741 1.0061 3.5029 36.1813
#
#
#
# Elastic Compliance Matrix: (Units=1/GPa)
#
#
# Indices 1 2 3 4 5 6 
#
# 1 0.016103 -0.002603 -0.000644 0.000152 -0.008325 0.000399
# 2 -0.002603 0.009682 -0.002087 0.004244 0.014334 0.000422
# 3 -0.000644 -0.002087 0.008684 0.003259 -0.001599 0.001276
# 4 0.000152 0.004244 0.003259 0.035589 0.038494 -0.003002
# 5 -0.008325 0.014334 -0.001599 0.038494 0.145931 -0.012149
# 6 0.000399 0.000422 0.001276 -0.003002 -0.012149 0.029269
#
#
# Mechanical properties :
#
#
# Convention : Reuss Voigt Hill
#
# Bulk Modulus (GPa) = 42.01645 52.99512 47.50579
# Shear Modulus (GPa) = 18.94949 36.14839 27.54894
#
# Velocity S-wave (km/s) = 2.70708 3.73892 3.26403
# Velocity P-wave (km/s) = 5.10097 6.25572 5.70763
#
# Compressibility (1/GPa) = 0.02380020
#
# Stress axis : x y z
#
# Youngs Moduli (GPa) = 62.09895 103.28807 115.16076
#
# Poissons Ratio (x) = 0.26888 0.07421
# Poissons Ratio (y) = 0.16166 0.24029
# Poissons Ratio (z) = 0.04001 0.21551
#
# Static dielectric constant tensor:
#      x y z
#    x 4.231210 0.080430 0.117590 
#    y 0.080430 4.532110 0.010530 
#    z 0.117590 0.010530 4.595010 
# 
# 
# High freq. dielectric constant tensor:
#      x y z
#    x 2.028950 0.004100 0.015120 
#    y 0.004100 2.055260 -0.014930 
#    z 0.015120 -0.014930 2.039180 
# 
# From -- ./inp_files/333059.got.cif
#   From: 2010.06.25/outbox.cif.g09.slc.cpg/sg2_167_cif.got.tgz:333059.got - 2010.06.27 13:26:56.
