data_PCOD8020126
_publ_section_title
;
Structure prediction by ZEFSAII (Michael W. Deem and Ramdas Pophale) SiO2 
 PCOD8020126
Probable space group: P -1
;
_chemical_formula_sum "Si O2"
_cell_formula_units_Z 16
_cell_length_a 17.973712
_cell_length_b 9.524327
_cell_length_c 14.337502
_cell_angle_alpha 39.262705
_cell_angle_beta 150.612698
_cell_angle_gamma 141.346416
_cell_volume 716.183716
_symmetry_space_group_name_H-M "P -1"
_symmetry_group_IT_number 2
_symmetry_cell_setting 'triclinic'
loop_
_space_group_symop_operation_xyz
x,y,z
-x,-y,-z
loop_
_atom_site_type_symbol
_atom_site_label
_atom_site_fract_x
_atom_site_fract_y
_atom_site_fract_z
Si Si1 0.430758 0.581840 0.470504
Si Si2 0.261079 0.703249 0.851197
Si Si3 0.308017 0.220719 0.679482
Si Si4 0.772546 0.148595 0.976046
Si Si5 0.013222 0.358002 0.298723
Si Si6 0.923272 0.143894 0.957938
Si Si7 0.502591 0.689073 0.982526
Si Si8 0.741620 0.752549 0.821261
O O1 0.500000 0.500000 0.500000
O O2 0.350900 0.352027 0.562309
O O3 0.285010 0.663841 0.238052
O O4 0.581407 0.779830 0.585745
O O5 0.066986 0.632351 0.691105
O O6 0.337882 0.972329 0.832842
O O7 0.323269 0.685698 0.821761
O O8 0.311289 0.523816 0.065632
O O9 0.123637 0.196375 0.513635
O O10 0.417153 0.368606 0.806520
O O11 0.892561 0.093097 0.060934
O O12 0.868155 0.242383 0.126808
O O13 0.609854 0.937304 0.929916
O O14 0.113157 0.624312 0.237925
O O15 0.795619 0.918529 0.884587
O O16 0.109283 0.174159 0.126389
O O17 0.500000 0.500000 0.000000
#
# Coordination Sequence:
#
# PCOD8020126 Si02
#       8
#     2   2   2   2   2   2   2   2
#     4  12  25  40  68 105 131 179 231 286 340 409
#     4  11  22  44  70  97 135 182 227 284 338 419
#     4  12  25  44  73 101 140 186 235 282 348 416
#     4  12  25  42  68 101 139 175 235 289 339 406
#     4  11  24  43  70 103 134 183 238 286 348 406
#     4  10  22  42  65  97 142 180 220 292 341 410
#     4  12  27  46  69 103 142 184 228 288 355 418
#     4  10  23  41  68  97 138 183 230 275 359 405
#
# _framework density 22.340634999999999
#
# number of rings (size 3 to 8) (size 9 to 14) (size 15 to 20)
#    0.000    0.750    3.750    4.125    1.750    1.500 
#    0.000    0.625    0.000    0.000    0.000    0.000 
#    0.000    0.000    0.000    0.000    0.000    0.000 
#
# Total GULP energy -198288.691103 kJ/mol
# GULP energy per Si atom -12393.043194 kJ/mol
# Density = 2.228979 g / cm^3
# Si number density = 22.340635 Si / 1000 Ang^3
#
#
#
# Elastic Constant Matrix: (Units=GPa)
#
#
# Indices 1 2 3 4 5 6 
#
# 1 185.1934 49.2581 24.8599 -7.2886 15.0077 6.1672
# 2 49.2581 106.8602 43.0567 -5.1699 -1.0222 -8.3090
# 3 24.8599 43.0567 64.9510 0.4155 9.4444 -7.1929
# 4 -7.2886 -5.1699 0.4155 23.1465 3.4590 0.7965
# 5 15.0077 -1.0222 9.4444 3.4590 32.4331 -2.2406
# 6 6.1672 -8.3090 -7.1929 0.7965 -2.2406 39.4248
#
#
#
# Elastic Compliance Matrix: (Units=1/GPa)
#
#
# Indices 1 2 3 4 5 6 
#
# 1 0.006674 -0.003065 -0.000251 0.002007 -0.003462 -0.001973
# 2 -0.003065 0.014684 -0.008982 0.001735 0.004460 0.002154
# 3 -0.000251 -0.008982 0.022609 -0.001594 -0.006447 0.001937
# 4 0.002007 0.001735 -0.001594 0.045096 -0.005319 -0.001452
# 5 -0.003462 0.004460 -0.006447 -0.005319 0.035187 0.002413
# 6 -0.001973 0.002154 0.001937 -0.001452 0.002413 0.026647
#
#
# Mechanical properties :
#
#
# Convention : Reuss Voigt Hill
#
# Bulk Modulus (GPa) = 51.62317 65.70599 58.66458
# Shear Modulus (GPa) = 27.48022 34.98953 31.23488
#
# Velocity S-wave (km/s) = 3.51102 3.96180 3.74320
# Velocity P-wave (km/s) = 6.29236 7.09948 6.70807
#
# Compressibility (1/GPa) = 0.01937114
#
# Stress axis : x y z
#
# Youngs Moduli (GPa) = 149.83902 68.10095 44.23066
#
# Poissons Ratio (x) = 0.20872 0.01108
# Poissons Ratio (y) = 0.45923 0.39729
# Poissons Ratio (z) = 0.03755 0.61171
#
# Static dielectric constant tensor:
#      x y z
#    x 4.477680 0.265400 0.349600 
#    y 0.265400 4.239710 0.090490 
#    z 0.349600 0.090490 4.260730 
# 
# 
# High freq. dielectric constant tensor:
#      x y z
#    x 1.909110 0.020910 0.018510 
#    y 0.020910 1.874560 -0.006490 
#    z 0.018510 -0.006490 1.856650 
# 
# From -- ./inp_files/537594.got.cif
#   From: 2010.06.25/outbox.cif.g09.slc.cpg/sg2_269_cif.got.tgz:537594.got - 2010.06.27 13:26:56.
