data_PCOD8020396
_publ_section_title
;
Structure prediction by ZEFSAII (Michael W. Deem and Ramdas Pophale) SiO2 
 PCOD8020396
Probable space group: P -1
;
_chemical_formula_sum "Si O2"
_cell_formula_units_Z 14
_cell_length_a 24.590300
_cell_length_b 9.440867
_cell_length_c 18.943097
_cell_angle_alpha 151.622112
_cell_angle_beta 161.992907
_cell_angle_gamma 29.099906
_cell_volume 625.277035
_symmetry_space_group_name_H-M "P -1"
_symmetry_group_IT_number 2
_symmetry_cell_setting 'triclinic'
loop_
_space_group_symop_operation_xyz
x,y,z
-x,-y,-z
loop_
_atom_site_type_symbol
_atom_site_label
_atom_site_fract_x
_atom_site_fract_y
_atom_site_fract_z
Si Si1 0.227260 0.425083 0.820159
Si Si2 0.504070 0.276021 0.972377
Si Si3 0.504300 0.345217 0.645783
Si Si4 0.850444 0.126146 0.427185
Si Si5 0.453061 0.670036 0.589859
Si Si6 0.901042 0.476270 0.763008
Si Si7 0.027808 0.932838 0.202518
O O1 0.316356 0.347622 0.818118
O O2 0.178875 0.129599 0.665128
O O3 0.364817 0.542723 0.090885
O O4 0.042596 0.702135 0.710252
O O5 0.548952 0.942209 0.844526
O O6 0.500000 0.500000 0.000000
O O7 0.663184 0.295026 0.231727
O O8 0.544973 0.397087 0.637348
O O9 0.304043 0.560912 0.504006
O O10 0.500000 0.000000 0.500000
O O11 0.946830 0.367380 0.691614
O O12 0.000000 0.000000 0.500000
O O13 0.500000 0.500000 0.500000
O O14 0.238798 0.825439 0.397722
O O15 0.021649 0.239247 0.864302
O O16 0.921014 0.820642 0.955449
#
# Coordination Sequence:
#
# PCOD8020396 Si02
#       7
#     2   2   2   2   2   2   2
#     4  12  24  48  75 101 146 184 245 293 355 430
#     4  12  29  47  74 108 142 193 238 298 367 423
#     4  11  21  42  72 103 131 192 233 288 356 421
#     4  12  28  46  72 105 145 187 239 299 354 425
#     4  11  27  46  68  99 148 186 240 294 357 428
#     4  10  22  42  68 102 140 176 236 285 353 416
#     4  10  24  41  72 104 135 189 232 290 353 416
#
# _framework density 22.390073999999998
#
# number of rings (size 3 to 8) (size 9 to 14) (size 15 to 20)
#    0.000    0.857    4.286    2.143    8.000    1.143 
#    0.000    1.429    0.000    0.000    0.000    0.000 
#    0.000    0.000    0.000    0.000    0.000    0.000 
#
# Total GULP energy -173499.663741 kJ/mol
# GULP energy per Si atom -12392.833124 kJ/mol
# Density = 2.233911 g / cm^3
# Si number density = 22.390074 Si / 1000 Ang^3
#
#
#
# Elastic Constant Matrix: (Units=GPa)
#
#
# Indices 1 2 3 4 5 6 
#
# 1 159.5841 63.8332 28.4169 13.2177 -14.4112 -0.7221
# 2 63.8332 132.5259 23.4014 10.7768 -8.9477 7.4759
# 3 28.4169 23.4014 79.5967 11.5542 -20.5663 -6.5306
# 4 13.2177 10.7768 11.5542 38.9794 -9.6889 0.2052
# 5 -14.4112 -8.9477 -20.5663 -9.6889 41.6902 7.7777
# 6 -0.7221 7.4759 -6.5306 0.2052 7.7777 44.0710
#
#
#
# Elastic Compliance Matrix: (Units=1/GPa)
#
#
# Indices 1 2 3 4 5 6 
#
# 1 0.008110 -0.003518 -0.001405 -0.001106 0.001034 0.000344
# 2 -0.003518 0.009722 -0.001562 -0.000961 0.000246 -0.001977
# 3 -0.001405 -0.001562 0.015529 -0.002198 0.006052 0.001485
# 4 -0.001106 -0.000961 -0.002198 0.028224 0.005113 -0.001215
# 5 0.001034 0.000246 0.006052 0.005113 0.029379 -0.004337
# 6 0.000344 -0.001977 0.001485 -0.001215 -0.004337 0.024023
#
#
# Mechanical properties :
#
#
# Convention : Reuss Voigt Hill
#
# Bulk Modulus (GPa) = 49.04011 67.00105 58.02058
# Shear Modulus (GPa) = 37.10465 42.01848 39.56156
#
# Velocity S-wave (km/s) = 4.07528 4.33674 4.20804
# Velocity P-wave (km/s) = 6.64033 7.42063 7.04130
#
# Compressibility (1/GPa) = 0.02039147
#
# Stress axis : x y z
#
# Youngs Moduli (GPa) = 123.30139 102.85775 64.39676
#
# Poissons Ratio (x) = 0.36185 0.09049
# Poissons Ratio (y) = 0.43377 0.10056
# Poissons Ratio (z) = 0.17327 0.16063
#
# Static dielectric constant tensor:
#      x y z
#    x 4.217220 0.076400 -0.302760 
#    y 0.076400 4.735280 0.487920 
#    z -0.302760 0.487920 5.298240 
# 
# 
# High freq. dielectric constant tensor:
#      x y z
#    x 1.878300 -0.006930 -0.023030 
#    y -0.006930 1.883570 0.000860 
#    z -0.023030 0.000860 1.898410 
# 
# From -- ./inp_files/156578.got.cif
#   From: 2010.06.25/outbox.cif.g09.slc.cpg/sg2_79_cif.got.tgz:156578.got - 2010.06.27 13:26:56.
