data_PCOD8020256
_publ_section_title
;
Structure prediction by ZEFSAII (Michael W. Deem and Ramdas Pophale) SiO2 
 PCOD8020256
Probable space group: P -1
;
_chemical_formula_sum "Si O2"
_cell_formula_units_Z 10
_cell_length_a 14.902893
_cell_length_b 11.467796
_cell_length_c 6.763599
_cell_angle_alpha 52.924502
_cell_angle_beta 54.526499
_cell_angle_gamma 27.626655
_cell_volume 424.304926
_symmetry_space_group_name_H-M "P -1"
_symmetry_group_IT_number 2
_symmetry_cell_setting 'triclinic'
loop_
_space_group_symop_operation_xyz
x,y,z
-x,-y,-z
loop_
_atom_site_type_symbol
_atom_site_label
_atom_site_fract_x
_atom_site_fract_y
_atom_site_fract_z
Si Si1 0.314314 0.745391 0.357264
Si Si2 0.158322 0.396095 0.043250
Si Si3 0.804712 0.623320 0.563666
Si Si4 0.098451 0.718125 0.525864
Si Si5 0.415314 0.948504 0.906446
O O1 0.500000 0.500000 0.500000
O O2 0.252632 0.682964 0.349235
O O3 0.124030 0.983109 0.493127
O O4 0.369398 0.827686 0.078043
O O5 0.068051 0.459347 0.319025
O O6 0.161919 0.562633 0.804914
O O7 0.352038 0.091816 0.049511
O O8 0.000000 0.500000 0.000000
O O9 0.887053 0.398129 0.567147
O O10 0.696827 0.863004 0.330877
O O11 0.645421 0.727856 0.819004
#
# Coordination Sequence:
#
# PCOD8020256 Si02
#       5
#     2   2   2   2   2
#     4  11  23  45  69  93 141 179 214 272 334 391
#     4  11  21  43  69  95 131 170 215 277 332 378
#     4  10  23  42  70 100 130 165 228 276 320 400
#     4  10  24  45  66 101 131 172 227 268 329 396
#     4  10  22  42  67 101 127 174 218 270 333 388
#
# _framework density 23.567954
#
# number of rings (size 3 to 8) (size 9 to 14) (size 15 to 20)
#    0.000    1.600    2.000    1.800    0.000    7.200 
#    3.600   11.000    0.000    0.000    0.000    0.000 
#    0.000    0.000    0.000    0.000    0.000    0.000 
#
# Total GULP energy -123966.142295 kJ/mol
# GULP energy per Si atom -12396.614229 kJ/mol
# Density = 2.351431 g / cm^3
# Si number density = 23.567954 Si / 1000 Ang^3
#
#
#
# Elastic Constant Matrix: (Units=GPa)
#
#
# Indices 1 2 3 4 5 6 
#
# 1 125.4963 38.2407 57.4432 -11.5105 2.1453 28.8700
# 2 38.2407 95.7719 45.5008 -6.7680 10.0093 16.7765
# 3 57.4432 45.5008 127.5071 7.2238 9.2531 27.3063
# 4 -11.5105 -6.7680 7.2238 37.5959 11.1954 6.3127
# 5 2.1453 10.0093 9.2531 11.1954 55.5383 4.1427
# 6 28.8700 16.7765 27.3063 6.3127 4.1427 34.6879
#
#
#
# Elastic Compliance Matrix: (Units=1/GPa)
#
#
# Indices 1 2 3 4 5 6 
#
# 1 0.012395 -0.001415 -0.003739 0.005596 -0.000155 -0.007689
# 2 -0.001415 0.013829 -0.003699 0.003992 -0.002399 -0.003039
# 3 -0.003739 -0.003699 0.011867 -0.003393 -0.000199 -0.003800
# 4 0.005596 0.003992 -0.003393 0.033119 -0.006361 -0.009184
# 5 -0.000155 -0.002399 -0.000199 -0.006361 0.019741 0.000246
# 6 -0.007689 -0.003039 -0.003800 -0.009184 0.000246 0.041331
#
#
# Mechanical properties :
#
#
# Convention : Reuss Voigt Hill
#
# Bulk Modulus (GPa) = 49.04868 70.12720 59.58794
# Shear Modulus (GPa) = 31.89129 39.40380 35.64754
#
# Velocity S-wave (km/s) = 3.68253 4.09335 3.89336
# Velocity P-wave (km/s) = 6.24004 7.22223 6.74903
#
# Compressibility (1/GPa) = 0.02038791
#
# Stress axis : x y z
#
# Youngs Moduli (GPa) = 80.67475 72.31316 84.26462
#
# Poissons Ratio (x) = 0.10229 0.31503
# Poissons Ratio (y) = 0.11412 0.31167
# Poissons Ratio (z) = 0.30161 0.26746
#
# Static dielectric constant tensor:
#      x y z
#    x 4.724620 -0.670390 -0.208360 
#    y -0.670390 4.377490 1.899670 
#    z -0.208360 1.899670 6.140440 
# 
# 
# High freq. dielectric constant tensor:
#      x y z
#    x 1.961540 -0.028550 -0.011180 
#    y -0.028550 1.955120 0.011710 
#    z -0.011180 0.011710 1.933980 
# 
# From -- ./inp_files/94263.got.cif
#   From: 2010.06.25/outbox.cif.g09.slc.cpg/sg2_48_cif.got.tgz:94263.got - 2010.06.27 13:26:56.
