data_PCOD8020781
_publ_section_title
;
Structure prediction by ZEFSAII (Michael W. Deem and Ramdas Pophale) SiO2 
 PCOD8020781
Probable space group: P -1
;
_chemical_formula_sum "Si O2"
_cell_formula_units_Z 14
_cell_length_a 11.058478
_cell_length_b 22.468610
_cell_length_c 14.497712
_cell_angle_alpha 21.190387
_cell_angle_beta 138.097724
_cell_angle_gamma 147.571655
_cell_volume 681.081088
_symmetry_space_group_name_H-M "P -1"
_symmetry_group_IT_number 2
_symmetry_cell_setting 'triclinic'
loop_
_space_group_symop_operation_xyz
x,y,z
-x,-y,-z
loop_
_atom_site_type_symbol
_atom_site_label
_atom_site_fract_x
_atom_site_fract_y
_atom_site_fract_z
Si Si1 0.875919 0.320836 0.309581
Si Si2 0.523013 0.990830 0.728614
Si Si3 0.821812 0.299164 0.812309
Si Si4 0.040840 0.759055 0.726161
Si Si5 0.347352 0.574163 0.301161
Si Si6 0.684253 0.290114 0.543470
Si Si7 0.812273 0.925873 0.421631
O O1 0.652939 0.127626 0.514500
O O2 0.853342 0.241569 0.308447
O O3 0.106403 0.379781 0.401718
O O4 0.886009 0.526106 0.020654
O O5 0.665747 0.117960 0.717622
O O6 0.263398 0.922905 0.681759
O O7 0.485799 0.772944 0.022536
O O8 0.700907 0.362028 0.720970
O O9 0.693524 0.239588 0.727825
O O10 0.093589 0.483076 0.689076
O O11 0.804342 0.105967 0.119418
O O12 0.887234 0.836028 0.515342
O O13 0.500000 0.500000 0.500000
O O14 0.454138 0.269248 0.422317
O O15 0.000000 0.000000 0.500000
#
# Coordination Sequence:
#
# PCOD8020781 Si02
#       7
#     2   2   2   2   2   2   2
#     4  10  22  43  62  89 132 161 206 264 314 377
#     4  11  21  42  65  90 124 167 208 264 317 374
#     4  11  25  45  61  94 133 169 212 261 320 378
#     4  10  23  40  64  95 124 166 206 261 322 371
#     4  11  24  40  63  90 121 164 211 257 312 375
#     4  11  24  42  67  89 131 173 207 265 317 377
#     4  12  23  41  68  97 127 164 215 264 321 375
#
# _framework density 20.555554999999998
#
# number of rings (size 3 to 8) (size 9 to 14) (size 15 to 20)
#    0.000    1.143    4.286    1.714    2.000    2.286 
#    5.143    0.000    0.000    0.000    0.000    0.000 
#    0.000    0.000    0.000    0.000    0.000    0.000 
#
# Total GULP energy -173551.782919 kJ/mol
# GULP energy per Si atom -12396.555923 kJ/mol
# Density = 2.050877 g / cm^3
# Si number density = 20.555555 Si / 1000 Ang^3
#
#
#
# Elastic Constant Matrix: (Units=GPa)
#
#
# Indices 1 2 3 4 5 6 
#
# 1 102.5950 41.1434 74.3337 7.9707 0.9031 16.4349
# 2 41.1434 97.8245 34.4486 0.9905 3.7880 8.2405
# 3 74.3337 34.4486 104.1400 3.6964 -4.8101 21.8856
# 4 7.9707 0.9905 3.6964 29.8815 9.9868 -0.3397
# 5 0.9031 3.7880 -4.8101 9.9868 40.9826 5.6253
# 6 16.4349 8.2405 21.8856 -0.3397 5.6253 34.9894
#
#
#
# Elastic Compliance Matrix: (Units=1/GPa)
#
#
# Indices 1 2 3 4 5 6 
#
# 1 0.022063 -0.004181 -0.014182 -0.003730 -0.000798 -0.000415
# 2 -0.004181 0.012471 -0.001281 0.001383 -0.001561 0.000093
# 3 -0.014182 -0.001281 0.021906 -0.000339 0.004101 -0.007401
# 4 -0.003730 0.001383 -0.000339 0.037766 -0.009779 0.003577
# 5 -0.000798 -0.001561 0.004101 -0.009779 0.028315 -0.006470
# 6 -0.000415 0.000093 -0.007401 0.003577 -0.006470 0.034458
#
#
# Mechanical properties :
#
#
# Convention : Reuss Voigt Hill
#
# Bulk Modulus (GPa) = 58.30838 67.15676 62.73257
# Shear Modulus (GPa) = 24.75444 31.47962 28.11703
#
# Velocity S-wave (km/s) = 3.47402 3.91761 3.70247
# Velocity P-wave (km/s) = 6.67230 7.29420 6.99017
#
# Compressibility (1/GPa) = 0.01715019
#
# Stress axis : x y z
#
# Youngs Moduli (GPa) = 45.32548 80.18719 45.64939
#
# Poissons Ratio (x) = 0.33529 0.64740
# Poissons Ratio (y) = 0.18952 0.05849
# Poissons Ratio (z) = 0.64281 0.10275
#
# Static dielectric constant tensor:
#      x y z
#    x 3.929360 0.039310 -0.029570 
#    y 0.039310 4.007100 -0.132040 
#    z -0.029570 -0.132040 3.719990 
# 
# 
# High freq. dielectric constant tensor:
#      x y z
#    x 1.806920 -0.006470 -0.008040 
#    y -0.006470 1.821420 -0.013530 
#    z -0.008040 -0.013530 1.794310 
# 
# From -- ./inp_files/415925.got.cif
#   From: 2010.06.25/outbox.cif.g09.slc.cpg/sg2_208_cif.got.tgz:415925.got - 2010.06.27 13:26:56.
