data_PCOD8020050
_publ_section_title
;
Structure prediction by ZEFSAII (Michael W. Deem and Ramdas Pophale) SiO2 
 PCOD8020050
Probable space group: P -1
;
_chemical_formula_sum "Si O2"
_cell_formula_units_Z 14
_cell_length_a 11.506337
_cell_length_b 5.134055
_cell_length_c 20.697352
_cell_angle_alpha 93.904027
_cell_angle_beta 154.158493
_cell_angle_gamma 92.706030
_cell_volume 514.896806
_symmetry_space_group_name_H-M "P -1"
_symmetry_group_IT_number 2
_symmetry_cell_setting 'triclinic'
loop_
_space_group_symop_operation_xyz
x,y,z
-x,-y,-z
loop_
_atom_site_type_symbol
_atom_site_label
_atom_site_fract_x
_atom_site_fract_y
_atom_site_fract_z
Si Si1 0.751018 0.747036 0.876337
Si Si2 0.952593 0.701537 0.674045
Si Si3 0.193888 0.836141 0.326618
Si Si4 0.665680 0.419612 0.943487
Si Si5 0.680232 0.947292 0.326361
Si Si6 0.431754 0.669736 0.323441
Si Si7 0.460826 0.091837 0.053190
O O1 0.849947 0.547606 0.975064
O O2 0.687378 0.625419 0.771009
O O3 0.470341 0.816826 0.767287
O O4 0.000000 0.000000 0.000000
O O5 0.926071 0.419326 0.691984
O O6 0.686121 0.667897 0.496642
O O7 0.218971 0.786966 0.761635
O O8 0.985616 0.945081 0.748515
O O9 0.189551 0.736759 0.248018
O O10 0.500000 0.000000 0.500000
O O11 0.374129 0.290489 0.758175
O O12 0.672135 0.651606 0.004311
O O13 0.727142 0.160266 0.005088
O O14 0.524161 0.877261 0.315446
O O15 0.000000 0.000000 0.500000
O O16 0.500000 0.000000 0.000000
#
# Coordination Sequence:
#
# PCOD8020050 Si02
#       7
#     2   2   2   2   2   2   2
#     4  11  27  49  74 112 153 197 248 307 383 450
#     4  11  24  43  70 104 147 185 248 309 366 441
#     4  10  22  42  65 105 142 185 237 300 368 436
#     4  11  25  49  73 103 154 186 255 306 377 443
#     4  11  25  46  77 112 145 194 250 308 372 445
#     4  10  24  39  74 101 145 189 243 297 376 437
#     4  12  26  48  71 108 139 200 247 312 373 449
#
# _framework density 27.189917000000001
#
# number of rings (size 3 to 8) (size 9 to 14) (size 15 to 20)
#    0.000    1.143    1.429    3.857    8.000    4.571 
#    5.143    0.000    0.000    0.000    0.000    0.000 
#    0.000    0.000    0.000    0.000    0.000    0.000 
#
# Total GULP energy -173450.048767 kJ/mol
# GULP energy per Si atom -12389.289198 kJ/mol
# Density = 2.712803 g / cm^3
# Si number density = 27.189917 Si / 1000 Ang^3
#
#
#
# Elastic Constant Matrix: (Units=GPa)
#
#
# Indices 1 2 3 4 5 6 
#
# 1 109.8142 46.6627 15.9663 11.2573 -8.4240 -9.1051
# 2 46.6627 175.0009 29.7257 22.3322 -3.0540 6.6038
# 3 15.9663 29.7257 43.3899 4.6449 -7.2512 -16.3890
# 4 11.2573 22.3322 4.6449 48.1925 -10.9984 -7.2981
# 5 -8.4240 -3.0540 -7.2512 -10.9984 56.8091 8.3476
# 6 -9.1051 6.6038 -16.3890 -7.2981 8.3476 58.7253
#
#
#
# Elastic Compliance Matrix: (Units=1/GPa)
#
#
# Indices 1 2 3 4 5 6 
#
# 1 0.010649 -0.002526 -0.001461 -0.000770 0.000917 0.001302
# 2 -0.002526 0.007802 -0.005361 -0.003152 -0.000803 -0.003043
# 3 -0.001461 -0.005361 0.030823 0.001758 0.002470 0.008846
# 4 -0.000770 -0.003152 0.001758 0.023615 0.004060 0.003083
# 5 0.000917 -0.000803 0.002470 0.004060 0.018984 -0.001272
# 6 0.001302 -0.003043 0.008846 0.003083 -0.001272 0.020605
#
#
# Mechanical properties :
#
#
# Convention : Reuss Voigt Hill
#
# Bulk Modulus (GPa) = 32.70377 56.99049 44.84713
# Shear Modulus (GPa) = 35.36910 48.46872 41.91891
#
# Velocity S-wave (km/s) = 3.61060 4.22666 3.93072
# Velocity P-wave (km/s) = 5.42549 6.69517 6.09349
#
# Compressibility (1/GPa) = 0.03057751
#
# Stress axis : x y z
#
# Youngs Moduli (GPa) = 93.90274 128.17840 32.44337
#
# Poissons Ratio (x) = 0.32382 0.04739
# Poissons Ratio (y) = 0.23723 0.17393
# Poissons Ratio (z) = 0.13716 0.68718
#
# Static dielectric constant tensor:
#      x y z
#    x 6.259130 -0.001780 -0.200930 
#    y -0.001780 5.869000 -0.340270 
#    z -0.200930 -0.340270 6.031150 
# 
# 
# High freq. dielectric constant tensor:
#      x y z
#    x 2.105140 -0.003420 -0.007360 
#    y -0.003420 2.096980 0.015130 
#    z -0.007360 0.015130 2.125720 
# 
# From -- ./inp_files/592569.got.cif
#   From: 2010.06.25/outbox.cif.g09.slc.cpg/sg2_297_cif.got.tgz:592569.got - 2010.06.27 13:26:56.
