data_PCOD8020947
_publ_section_title
;
Structure prediction by ZEFSAII (Michael W. Deem and Ramdas Pophale) SiO2 
 PCOD8020947
Probable space group: P -1
;
_chemical_formula_sum "Si O2"
_cell_formula_units_Z 16
_cell_length_a 7.847524
_cell_length_b 16.550382
_cell_length_c 19.108575
_cell_angle_alpha 157.253176
_cell_angle_beta 61.719158
_cell_angle_gamma 127.603442
_cell_volume 727.511022
_symmetry_space_group_name_H-M "P -1"
_symmetry_group_IT_number 2
_symmetry_cell_setting 'triclinic'
loop_
_space_group_symop_operation_xyz
x,y,z
-x,-y,-z
loop_
_atom_site_type_symbol
_atom_site_label
_atom_site_fract_x
_atom_site_fract_y
_atom_site_fract_z
Si Si1 0.570058 0.943378 0.131068
Si Si2 0.063538 0.783366 0.117216
Si Si3 0.654601 0.210116 0.544143
Si Si4 0.062105 0.102105 0.492011
Si Si5 0.565467 0.525918 0.716338
Si Si6 0.226760 0.523276 0.500134
Si Si7 0.258204 0.736796 0.282438
Si Si8 0.064037 0.903948 0.694289
O O1 0.306417 0.806019 0.091483
O O2 0.616273 0.192953 0.284398
O O3 0.730484 0.992623 0.206774
O O4 0.617886 0.787223 0.941551
O O5 0.018565 0.881517 0.275317
O O6 0.018769 0.907023 0.157111
O O7 0.874963 0.500688 0.927745
O O8 0.694459 0.425999 0.657671
O O9 0.620083 0.290112 0.693314
O O10 0.855486 0.160102 0.444671
O O11 0.422275 0.952401 0.370112
O O12 0.306749 0.328693 0.614072
O O13 0.898889 0.204140 0.591321
O O14 0.000000 0.000000 0.500000
O O15 0.654314 0.556679 0.644797
O O16 0.000000 0.500000 0.500000
O O17 0.163396 0.338372 0.429303
#
# Coordination Sequence:
#
# PCOD8020947 Si02
#       8
#     2   2   2   2   2   2   2   2
#     4  11  24  42  70  99 133 180 225 272 335 401
#     4  12  25  46  69  99 139 175 225 275 336 404
#     4  11  22  44  67  96 138 173 224 279 330 401
#     4  12  24  42  66  98 134 177 220 278 334 395
#     4  12  22  43  69  96 137 174 225 280 332 401
#     4  10  22  43  66 100 134 178 225 277 338 389
#     4  11  25  42  66 100 132 179 221 271 341 399
#     4  11  24  45  70  98 136 180 221 282 335 391
#
# _framework density 21.992795999999998
#
# number of rings (size 3 to 8) (size 9 to 14) (size 15 to 20)
#    0.000    0.750    7.500    0.750    0.000    4.500 
#    2.250    0.625    0.000    0.000    0.000    0.000 
#    0.000    0.000    0.000    0.000    0.000    0.000 
#
# Total GULP energy -198269.415266 kJ/mol
# GULP energy per Si atom -12391.838454 kJ/mol
# Density = 2.194274 g / cm^3
# Si number density = 21.992796 Si / 1000 Ang^3
#
#
#
# Elastic Constant Matrix: (Units=GPa)
#
#
# Indices 1 2 3 4 5 6 
#
# 1 21.7442 72.5492 0.2467 38.9210 5.8808 -7.6869
# 2 72.5492 34.9029 83.1777 -66.4196 -9.1558 20.0043
# 3 0.2467 83.1777 161.6585 3.5369 10.3185 -7.0254
# 4 38.9210 -66.4196 3.5369 -15.6992 -3.2470 2.0086
# 5 5.8808 -9.1558 10.3185 -3.2470 32.1552 -0.7441
# 6 -7.6869 20.0043 -7.0254 2.0086 -0.7441 23.9628
#
#
#
# Elastic Compliance Matrix: (Units=1/GPa)
#
#
# Indices 1 2 3 4 5 6 
#
# 1 0.011726 0.003972 -0.002419 0.011385 0.000885 -0.001190
# 2 0.003972 0.004933 -0.002406 -0.011930 0.000187 -0.002544
# 3 -0.002419 -0.002406 0.007528 0.006636 -0.001923 0.002823
# 4 0.011385 -0.011930 0.006636 0.019360 -0.005335 0.013768
# 5 0.000885 0.000187 -0.001923 -0.005335 0.031091 0.000977
# 6 -0.001190 -0.002544 0.002823 0.013768 0.000977 0.043177
#
#
# Mechanical properties :
#
#
# Convention : Reuss Voigt Hill
#
# Bulk Modulus (GPa) = 44.48222 58.91697 51.69959
# Shear Modulus (GPa) = 39.36607 12.23923 25.80265
#
# Velocity S-wave (km/s) = 4.23537 2.36161 3.42896
# Velocity P-wave (km/s) = 6.64737 5.85522 6.26383
#
# Compressibility (1/GPa) = 0.02248089
#
# Stress axis : x y z
#
# Youngs Moduli (GPa) = 85.28393 202.71426 132.84426
#
# Poissons Ratio (x) = -0.80516 0.32133
# Poissons Ratio (y) = -0.33874 0.31958
# Poissons Ratio (z) = 0.20629 0.48767
#
# Static dielectric constant tensor:
#      x y z
#    x 4.185630 0.158110 -0.127680 
#    y 0.158110 4.242630 0.342660 
#    z -0.127680 0.342660 4.215220 
# 
# 
# High freq. dielectric constant tensor:
#      x y z
#    x 1.865980 0.007310 -0.003980 
#    y 0.007310 1.870530 0.000510 
#    z -0.003980 0.000510 1.864810 
# 
# From -- ./inp_files/272341.got.cif
#   From: 2010.06.25/outbox.cif.g09.slc.cpg/sg2_137_cif.got.tgz:272341.got - 2010.06.27 13:26:56.
