data_PCOD8020205
_publ_section_title
;
Structure prediction by ZEFSAII (Michael W. Deem and Ramdas Pophale) SiO2 
 PCOD8020205
Probable space group: P -1
;
_chemical_formula_sum "Si O2"
_cell_formula_units_Z 14
_cell_length_a 13.372549
_cell_length_b 27.399842
_cell_length_c 21.831590
_cell_angle_alpha 11.685808
_cell_angle_beta 157.037344
_cell_angle_gamma 157.985691
_cell_volume 598.502755
_symmetry_space_group_name_H-M "P -1"
_symmetry_group_IT_number 2
_symmetry_cell_setting 'triclinic'
loop_
_space_group_symop_operation_xyz
x,y,z
-x,-y,-z
loop_
_atom_site_type_symbol
_atom_site_label
_atom_site_fract_x
_atom_site_fract_y
_atom_site_fract_z
Si Si1 0.180572 0.254225 0.757159
Si Si2 0.817843 0.736153 0.642511
Si Si3 0.206883 0.188429 0.236146
Si Si4 0.990628 0.960941 0.268194
Si Si5 0.770554 0.452995 0.839611
Si Si6 0.752607 0.252432 0.422237
Si Si7 0.231033 0.662382 0.386032
O O1 0.477622 0.242866 0.919279
O O2 0.231054 0.499777 0.525862
O O3 0.031215 0.294623 0.562644
O O4 0.000000 0.000000 0.000000
O O5 0.773503 0.531540 0.815342
O O6 0.518952 0.736929 0.492714
O O7 0.992830 0.012833 0.377380
O O8 0.980631 0.664828 0.879483
O O9 0.486540 0.115279 0.482198
O O10 0.265760 0.472963 0.944375
O O11 0.102233 0.157436 0.144970
O O12 0.805986 0.688030 0.524962
O O13 0.239800 0.917279 0.424554
O O14 0.817385 0.077199 0.982111
O O15 0.000000 0.500000 0.500000
#
# Coordination Sequence:
#
# PCOD8020205 Si02
#       7
#     2   2   2   2   2   2   2
#     4  11  22  40  64  92 136 171 215 272 324 380
#     4   9  20  41  65  91 130 172 217 267 322 384
#     4  10  22  42  66  94 133 173 216 267 320 385
#     4  11  23  42  68  95 129 172 218 269 318 392
#     4   9  21  39  67  95 125 177 218 261 328 382
#     4  11  23  39  65  99 130 170 217 267 324 384
#     4  11  24  41  65  97 130 172 218 268 330 385
#
# _framework density 23.391705999999999
#
# number of rings (size 3 to 8) (size 9 to 14) (size 15 to 20)
#    0.000    1.714    1.429    2.143    2.000    8.000 
#    2.571    0.714    0.000    0.000    0.000    0.000 
#    0.000    0.000    0.000    0.000    0.000    0.000 
#
# Total GULP energy -173555.604314 kJ/mol
# GULP energy per Si atom -12396.828880 kJ/mol
# Density = 2.333847 g / cm^3
# Si number density = 23.391706 Si / 1000 Ang^3
#
#
#
# Elastic Constant Matrix: (Units=GPa)
#
#
# Indices 1 2 3 4 5 6 
#
# 1 66.7756 33.0557 41.1688 9.2626 -5.1555 23.8088
# 2 33.0557 138.1001 57.3954 29.7461 -16.1933 49.7473
# 3 41.1688 57.3954 133.3087 22.2332 -10.6057 22.5305
# 4 9.2626 29.7461 22.2332 41.7614 -2.8215 3.3216
# 5 -5.1555 -16.1933 -10.6057 -2.8215 36.4550 -3.9710
# 6 23.8088 49.7473 22.5305 3.3216 -3.9710 37.7496
#
#
#
# Elastic Compliance Matrix: (Units=1/GPa)
#
#
# Indices 1 2 3 4 5 6 
#
# 1 0.022328 0.002595 -0.005055 -0.002914 0.001077 -0.014115
# 2 0.002595 0.019218 -0.002933 -0.010496 0.004645 -0.023800
# 3 -0.005055 -0.002933 0.010644 -0.002470 0.000999 0.001024
# 4 -0.002914 -0.010496 -0.002470 0.032140 -0.001766 0.014130
# 5 0.001077 0.004645 0.000999 -0.001766 0.029348 -0.004155
# 6 -0.014115 -0.023800 0.001024 0.014130 -0.004155 0.064465
#
#
# Mechanical properties :
#
#
# Convention : Reuss Voigt Hill
#
# Bulk Modulus (GPa) = 24.15292 66.82492 45.48892
# Shear Modulus (GPa) = 24.66335 36.96417 30.81376
#
# Velocity S-wave (km/s) = 3.25062 3.97952 3.63339
# Velocity P-wave (km/s) = 4.94333 7.05303 6.09023
#
# Compressibility (1/GPa) = 0.04140286
#
# Stress axis : x y z
#
# Youngs Moduli (GPa) = 44.78733 52.03559 93.95034
#
# Poissons Ratio (x) = -0.13505 0.47496
# Poissons Ratio (y) = -0.11624 0.27557
# Poissons Ratio (z) = 0.22642 0.15263
#
# Static dielectric constant tensor:
#      x y z
#    x 3.864190 -0.048790 -0.061380 
#    y -0.048790 4.225600 -0.069700 
#    z -0.061380 -0.069700 3.795220 
# 
# 
# High freq. dielectric constant tensor:
#      x y z
#    x 1.907540 0.011230 0.004720 
#    y 0.011230 1.934120 0.007920 
#    z 0.004720 0.007920 1.926110 
# 
# From -- ./inp_files/352289.got.cif
#   From: 2010.06.25/outbox.cif.g09.slc.cpg/sg2_177_cif.got.tgz:352289.got - 2010.06.27 13:26:56.
