data_PCOD8020215
_publ_section_title
;
Structure prediction by ZEFSAII (Michael W. Deem and Ramdas Pophale) SiO2 
 PCOD8020215
Probable space group: P -1
;
_chemical_formula_sum "Si O2"
_cell_formula_units_Z 16
_cell_length_a 9.912619
_cell_length_b 7.028540
_cell_length_c 17.590991
_cell_angle_alpha 90.963788
_cell_angle_beta 73.635874
_cell_angle_gamma 45.155684
_cell_volume 790.833291
_symmetry_space_group_name_H-M "P -1"
_symmetry_group_IT_number 2
_symmetry_cell_setting 'triclinic'
loop_
_space_group_symop_operation_xyz
x,y,z
-x,-y,-z
loop_
_atom_site_type_symbol
_atom_site_label
_atom_site_fract_x
_atom_site_fract_y
_atom_site_fract_z
Si Si1 0.026117 0.372803 0.574790
Si Si2 0.231126 0.407473 0.667227
Si Si3 0.941413 0.762987 0.042121
Si Si4 0.253481 0.763007 0.042109
Si Si5 0.607376 0.247138 0.537778
Si Si6 0.306022 0.592680 0.332772
Si Si7 0.256059 0.029906 0.764963
Si Si8 0.050969 0.970119 0.235028
O O1 0.071277 0.485019 0.631615
O O2 0.000000 0.500000 0.500000
O O3 0.811989 0.484557 0.631365
O O4 0.212667 0.033526 0.541350
O O5 0.444851 0.251960 0.591288
O O6 0.292601 0.194623 0.720344
O O7 0.124059 0.694129 0.725530
O O8 0.791411 0.887956 0.138893
O O9 0.151246 0.667785 0.029732
O O10 0.000000 0.500000 0.000000
O O11 0.812111 0.000031 0.000021
O O12 0.181688 0.888095 0.138880
O O13 0.500000 0.500000 0.000000
O O14 0.500000 0.500000 0.500000
O O15 0.711351 0.251694 0.591481
O O16 0.207670 0.805325 0.279615
O O17 0.543802 0.305845 0.274437
O O18 0.063357 0.118576 0.754650
#
# Coordination Sequence:
#
# PCOD8020215 Si02
#       8
#     2   2   2   2   2   2   2   2
#     4  12  24  40  60  96 124 160 218 264 310 382
#     4  12  23  43  66  92 129 168 213 261 321 373
#     4  10  22  42  66  96 130 167 210 256 312 376
#     4  10  22  42  66  96 130 167 210 256 312 376
#     4  12  24  42  66  92 126 168 212 266 322 372
#     4  12  23  43  66  92 129 168 213 261 321 373
#     4  11  23  43  65  95 132 166 209 264 312 376
#     4  11  23  43  65  95 132 166 209 264 312 376
#
# _framework density 20.231825000000001
#
# number of rings (size 3 to 8) (size 9 to 14) (size 15 to 20)
#    0.000    0.750    2.500    6.000    0.000    0.500 
#    4.500    0.000    0.000    0.000    0.000    0.000 
#    0.000    0.000    0.000    0.000    0.000    0.000 
#
# Total GULP energy -198538.191282 kJ/mol
# GULP energy per Si atom -12408.636955 kJ/mol
# Density = 2.018578 g / cm^3
# Si number density = 20.231825 Si / 1000 Ang^3
#
#
#
# Elastic Constant Matrix: (Units=GPa)
#
#
# Indices 1 2 3 4 5 6 
#
# 1 97.4231 15.8724 39.7194 -8.4116 -0.7123 0.6746
# 2 15.8724 107.4878 37.6367 -12.2143 0.0637 -0.5383
# 3 39.7194 37.6367 120.7352 -11.9487 0.4920 1.1424
# 4 -8.4116 -12.2143 -11.9487 44.7030 -0.2027 0.0365
# 5 -0.7123 0.0637 0.4920 -0.2027 36.9819 2.5333
# 6 0.6746 -0.5383 1.1424 0.0365 2.5333 37.5452
#
#
#
# Elastic Compliance Matrix: (Units=1/GPa)
#
#
# Indices 1 2 3 4 5 6 
#
# 1 0.011934 -0.000333 -0.003707 0.001165 0.000295 -0.000127
# 2 -0.000333 0.010639 -0.003007 0.002040 0.000009 0.000247
# 3 -0.003707 -0.003007 0.010572 0.001306 -0.000180 -0.000287
# 4 0.001165 0.002040 0.001306 0.023496 0.000135 -0.000063
# 5 0.000295 0.000009 -0.000180 0.000135 0.027175 -0.001833
# 6 -0.000127 0.000247 -0.000287 -0.000063 -0.001833 0.026773
#
#
# Mechanical properties :
#
#
# Convention : Reuss Voigt Hill
#
# Bulk Modulus (GPa) = 52.49166 56.90036 54.69601
# Shear Modulus (GPa) = 38.15845 39.34052 38.74949
#
# Velocity S-wave (km/s) = 4.34759 4.41442 4.38113
# Velocity P-wave (km/s) = 7.15566 7.35989 7.25850
#
# Compressibility (1/GPa) = 0.01905064
#
# Stress axis : x y z
#
# Youngs Moduli (GPa) = 83.79660 93.99724 94.58684
#
# Poissons Ratio (x) = 0.03127 0.35063
# Poissons Ratio (y) = 0.02787 0.28446
# Poissons Ratio (z) = 0.31063 0.28269
#
# Static dielectric constant tensor:
#      x y z
#    x 3.829320 0.008800 -0.017080 
#    y 0.008800 3.655610 0.077020 
#    z -0.017080 0.077020 4.049280 
# 
# 
# High freq. dielectric constant tensor:
#      x y z
#    x 1.797680 0.000340 -0.000170 
#    y 0.000340 1.797640 -0.005730 
#    z -0.000170 -0.005730 1.808190 
# 
# From -- ./inp_files/47193.got.cif
#   From: 2010.06.25/outbox.cif.g09.slc.cpg/sg2_24_cif.got.tgz:47193.got - 2010.06.27 13:26:56.
