data_PCOD8020915
_publ_section_title
;
Structure prediction by ZEFSAII (Michael W. Deem and Ramdas Pophale) SiO2 
 PCOD8020915
Probable space group: P -1
;
_chemical_formula_sum "Si O2"
_cell_formula_units_Z 16
_cell_length_a 13.389540
_cell_length_b 8.950491
_cell_length_c 8.724471
_cell_angle_alpha 85.187818
_cell_angle_beta 101.839127
_cell_angle_gamma 50.041641
_cell_volume 751.283429
_symmetry_space_group_name_H-M "P -1"
_symmetry_group_IT_number 2
_symmetry_cell_setting 'triclinic'
loop_
_space_group_symop_operation_xyz
x,y,z
-x,-y,-z
loop_
_atom_site_type_symbol
_atom_site_label
_atom_site_fract_x
_atom_site_fract_y
_atom_site_fract_z
Si Si1 0.812485 0.314043 0.326179
Si Si2 0.056282 0.298707 0.952466
Si Si3 0.715101 0.097594 0.420371
Si Si4 0.913908 0.965481 0.749107
Si Si5 0.161351 0.628437 0.337817
Si Si6 0.322844 0.044174 0.871722
Si Si7 0.461540 0.212426 0.489807
Si Si8 0.564712 0.748350 0.173436
O O1 0.726494 0.258220 0.363552
O O2 0.870162 0.342747 0.492138
O O3 0.702700 0.524624 0.181968
O O4 0.936411 0.146801 0.267423
O O5 0.955781 0.354825 0.778248
O O6 0.204654 0.199790 0.942984
O O7 0.069950 0.142713 0.081491
O O8 0.000000 0.500000 0.000000
O O9 0.748282 0.967888 0.291859
O O10 0.561303 0.215816 0.419076
O O11 0.825293 0.953512 0.602450
O O12 0.840774 0.197773 0.740907
O O13 0.307000 0.402781 0.366325
O O14 0.402008 0.109626 0.829214
O O15 0.439545 0.828276 0.013465
O O16 0.478260 0.249424 0.667045
O O17 0.500000 0.000000 0.500000
#
# Coordination Sequence:
#
# PCOD8020915 Si02
#       8
#     2   2   2   2   2   2   2   2
#     4  10  22  43  65  94 126 166 213 261 316 379
#     4  12  26  39  65  97 126 172 217 259 315 380
#     4  11  23  39  69  91 121 170 209 259 316 380
#     4  11  23  43  66  93 134 164 213 268 312 379
#     4  10  24  42  66  91 129 170 206 267 323 368
#     4  11  23  41  61  91 130 166 214 257 315 379
#     4  11  23  42  66  94 128 165 215 264 316 376
#     4  10  23  40  62  90 133 167 203 267 319 365
#
# _framework density 21.296887999999999
#
# number of rings (size 3 to 8) (size 9 to 14) (size 15 to 20)
#    0.000    1.250    1.250    4.875    3.500    7.000 
#    0.000    3.125    0.000    0.000    0.000    0.000 
#    0.000    0.000    0.000    0.000    0.000    0.000 
#
# Total GULP energy -198442.995216 kJ/mol
# GULP energy per Si atom -12402.687201 kJ/mol
# Density = 2.124842 g / cm^3
# Si number density = 21.296888 Si / 1000 Ang^3
#
#
#
# Elastic Constant Matrix: (Units=GPa)
#
#
# Indices 1 2 3 4 5 6 
#
# 1 77.0286 27.8015 42.6092 3.8155 4.4040 -10.4444
# 2 27.8015 120.7491 39.1627 -11.6966 5.9380 -9.4754
# 3 42.6092 39.1627 90.9594 -5.3873 12.0646 -6.2697
# 4 3.8155 -11.6966 -5.3873 34.2770 -0.5588 3.3194
# 5 4.4040 5.9380 12.0646 -0.5588 36.2539 3.6595
# 6 -10.4444 -9.4754 -6.2697 3.3194 3.6595 29.6919
#
#
#
# Elastic Compliance Matrix: (Units=1/GPa)
#
#
# Indices 1 2 3 4 5 6 
#
# 1 0.018963 -0.001812 -0.008046 -0.004464 0.000109 0.004879
# 2 -0.001812 0.010174 -0.003171 0.003005 -0.000513 0.001667
# 3 -0.008046 -0.003171 0.016803 0.002394 -0.004052 -0.000062
# 4 -0.004464 0.003005 0.002394 0.031426 0.000104 -0.003632
# 5 0.000109 -0.000513 -0.004052 0.000104 0.029471 -0.004625
# 6 0.004879 0.001667 -0.000062 -0.003632 -0.004625 0.036890
#
#
# Mechanical properties :
#
#
# Convention : Reuss Voigt Hill
#
# Bulk Modulus (GPa) = 50.29182 56.43155 53.36169
# Shear Modulus (GPa) = 28.34265 31.98880 30.16573
#
# Velocity S-wave (km/s) = 3.65202 3.87982 3.76764
# Velocity P-wave (km/s) = 6.43808 6.82831 6.63606
#
# Compressibility (1/GPa) = 0.01988395
#
# Stress axis : x y z
#
# Youngs Moduli (GPa) = 52.73418 98.28613 59.51287
#
# Poissons Ratio (x) = 0.17805 0.47882
# Poissons Ratio (y) = 0.09553 0.18872
# Poissons Ratio (z) = 0.42428 0.31167
#
# Static dielectric constant tensor:
#      x y z
#    x 3.747580 -0.062500 0.065540 
#    y -0.062500 3.857830 -0.085220 
#    z 0.065540 -0.085220 4.121720 
# 
# 
# High freq. dielectric constant tensor:
#      x y z
#    x 1.835050 -0.007020 0.002130 
#    y -0.007020 1.836210 -0.005890 
#    z 0.002130 -0.005890 1.843470 
# 
# From -- ./inp_files/279562.got.cif
#   From: 2010.06.25/outbox.cif.g09.slc.cpg/sg2_140_cif.got.tgz:279562.got - 2010.06.27 13:26:56.
