data_PCOD8020969
_publ_section_title
;
Structure prediction by ZEFSAII (Michael W. Deem and Ramdas Pophale) SiO2 
 PCOD8020969
Probable space group: P -1
;
_chemical_formula_sum "Si O2"
_cell_formula_units_Z 14
_cell_length_a 8.801731
_cell_length_b 21.759020
_cell_length_c 11.672123
_cell_angle_alpha 147.354880
_cell_angle_beta 38.730794
_cell_angle_gamma 142.703924
_cell_volume 687.851589
_symmetry_space_group_name_H-M "P -1"
_symmetry_group_IT_number 2
_symmetry_cell_setting 'triclinic'
loop_
_space_group_symop_operation_xyz
x,y,z
-x,-y,-z
loop_
_atom_site_type_symbol
_atom_site_label
_atom_site_fract_x
_atom_site_fract_y
_atom_site_fract_z
Si Si1 0.070187 0.861208 0.027128
Si Si2 0.939478 0.381590 0.271214
Si Si3 0.977035 0.322544 0.674612
Si Si4 0.091209 0.578135 0.896715
Si Si5 0.442299 0.095613 0.603966
Si Si6 0.563340 0.752264 0.767439
Si Si7 0.509343 0.004163 0.822243
O O1 0.220690 0.934716 0.167202
O O2 0.836286 0.901520 0.192124
O O3 0.943331 0.711428 0.888690
O O4 0.278516 0.893057 0.850763
O O5 0.059144 0.422828 0.136702
O O6 0.618173 0.304145 0.327898
O O7 0.000000 0.500000 0.500000
O O8 0.669689 0.234047 0.700105
O O9 0.058954 0.439595 0.725821
O O10 0.149057 0.246114 0.419271
O O11 0.032443 0.368686 0.846123
O O12 0.407736 0.667245 0.834812
O O13 0.500000 0.000000 0.500000
O O14 0.417330 0.053225 0.421566
O O15 0.601553 0.893432 0.987633
#
# Coordination Sequence:
#
# PCOD8020969 Si02
#       7
#     2   2   2   2   2   2   2
#     4  10  23  44  63  90 127 163 204 262 307 361
#     4   9  21  41  65  88 120 163 209 254 301 362
#     4  11  22  39  61  93 123 165 201 250 323 361
#     4   9  22  40  60  90 126 158 204 256 306 365
#     4  12  26  39  64  95 127 160 212 255 302 377
#     4   9  20  39  63  87 123 159 199 259 303 359
#     4  10  22  43  66  90 121 168 207 251 315 360
#
# _framework density 20.353228000000001
#
# number of rings (size 3 to 8) (size 9 to 14) (size 15 to 20)
#    0.857    1.143    0.000    2.571    2.000    5.714 
#    7.714    1.429    0.000    0.000    0.000    0.000 
#    0.000    0.000    0.000    0.000    0.000    0.000 
#
# Total GULP energy -173575.027981 kJ/mol
# GULP energy per Si atom -12398.216284 kJ/mol
# Density = 2.030690 g / cm^3
# Si number density = 20.353228 Si / 1000 Ang^3
#
#
#
# Elastic Constant Matrix: (Units=GPa)
#
#
# Indices 1 2 3 4 5 6 
#
# 1 67.3667 41.4438 32.2279 3.7065 -10.4278 -12.3967
# 2 41.4438 90.9422 31.7241 7.4665 -3.4946 -21.0681
# 3 32.2279 31.7241 78.7398 6.6783 -9.9331 -5.0324
# 4 3.7065 7.4665 6.6783 29.5137 1.5403 -2.3696
# 5 -10.4278 -3.4946 -9.9331 1.5403 38.8267 -3.7113
# 6 -12.3967 -21.0681 -5.0324 -2.3696 -3.7113 29.9765
#
#
#
# Elastic Compliance Matrix: (Units=1/GPa)
#
#
# Indices 1 2 3 4 5 6 
#
# 1 0.023828 -0.007747 -0.005827 0.000370 0.004582 0.004027
# 2 -0.007747 0.017826 -0.003344 -0.002071 -0.000433 0.008546
# 3 -0.005827 -0.003344 0.016825 -0.002500 0.002361 -0.001841
# 4 0.000370 -0.002071 -0.002500 0.035097 -0.002043 0.000799
# 5 0.004582 -0.000433 0.002361 -0.002043 0.028140 0.005309
# 6 0.004027 0.008546 -0.001841 0.000799 0.005309 0.041443
#
#
# Mechanical properties :
#
#
# Convention : Reuss Voigt Hill
#
# Bulk Modulus (GPa) = 40.58146 49.76004 45.17075
# Shear Modulus (GPa) = 24.36532 28.44023 26.40278
#
# Velocity S-wave (km/s) = 3.46370 3.74215 3.60561
# Velocity P-wave (km/s) = 5.99818 6.57061 6.29091
#
# Compressibility (1/GPa) = 0.02464180
#
# Stress axis : x y z
#
# Youngs Moduli (GPa) = 41.96737 56.09664 59.43624
#
# Poissons Ratio (x) = 0.43460 0.34636
# Poissons Ratio (y) = 0.32514 0.19875
# Poissons Ratio (z) = 0.24456 0.18758
#
# Static dielectric constant tensor:
#      x y z
#    x 3.568510 -0.145710 0.040450 
#    y -0.145710 3.731430 0.084580 
#    z 0.040450 0.084580 3.499180 
# 
# 
# High freq. dielectric constant tensor:
#      x y z
#    x 1.782780 -0.013140 0.005170 
#    y -0.013140 1.801130 0.009860 
#    z 0.005170 0.009860 1.792170 
# 
# From -- ./inp_files/65696.got.cif
#   From: 2010.06.25/outbox.cif.g09.slc.cpg/sg2_33_cif.got.tgz:65696.got - 2010.06.27 13:26:56.
