data_PCOD8020100
_publ_section_title
;
Structure prediction by ZEFSAII (Michael W. Deem and Ramdas Pophale) SiO2 
 PCOD8020100
Probable space group: P -1
;
_chemical_formula_sum "Si O2"
_cell_formula_units_Z 12
_cell_length_a 14.227256
_cell_length_b 8.805049
_cell_length_c 6.573162
_cell_angle_alpha 129.824295
_cell_angle_beta 106.620344
_cell_angle_gamma 53.143706
_cell_volume 499.523363
_symmetry_space_group_name_H-M "P -1"
_symmetry_group_IT_number 2
_symmetry_cell_setting 'triclinic'
loop_
_space_group_symop_operation_xyz
x,y,z
-x,-y,-z
loop_
_atom_site_type_symbol
_atom_site_label
_atom_site_fract_x
_atom_site_fract_y
_atom_site_fract_z
Si Si1 0.157394 0.309297 0.208064
Si Si2 0.714586 0.112606 0.362334
Si Si3 0.926573 0.011444 0.657412
Si Si4 0.669233 0.609493 0.763997
Si Si5 0.468725 0.995302 0.702398
Si Si6 0.927693 0.373399 0.229058
O O1 0.196042 0.452214 0.211450
O O2 0.171060 0.368472 0.505604
O O3 0.020020 0.397902 0.171947
O O4 0.239365 0.031636 0.947801
O O5 0.817394 0.005030 0.504096
O O6 0.668345 0.382801 0.509726
O O7 0.607449 0.114211 0.396095
O O8 0.872317 0.265399 0.961695
O O9 0.000000 0.000000 0.500000
O O10 0.004269 0.797924 0.679877
O O11 0.594893 0.829574 0.749659
O O12 0.605792 0.723923 0.037679
O O13 0.500000 0.000000 0.500000
#
# Coordination Sequence:
#
# PCOD8020100 Si02
#       6
#     2   2   2   2   2   2
#     4  10  22  42  65  94 134 179 215 265 329 379
#     4  11  23  43  70  99 132 176 216 279 326 384
#     4  11  22  40  64  94 134 173 224 263 325 382
#     4  10  23  44  66  97 135 164 216 281 328 386
#     4  10  24  45  68  97 128 171 219 269 337 395
#     4  10  23  41  61  97 135 181 216 268 316 394
#
# _framework density 24.022902999999999
#
# number of rings (size 3 to 8) (size 9 to 14) (size 15 to 20)
#    0.000    1.667    1.667    1.500    4.667    2.667 
#    9.000    0.000    0.000    0.000    0.000    0.000 
#    0.000    0.000    0.000    0.000    0.000    0.000 
#
# Total GULP energy -148659.086693 kJ/mol
# GULP energy per Si atom -12388.257224 kJ/mol
# Density = 2.396823 g / cm^3
# Si number density = 24.022903 Si / 1000 Ang^3
#
#
#
# Elastic Constant Matrix: (Units=GPa)
#
#
# Indices 1 2 3 4 5 6 
#
# 1 114.1168 27.0255 70.1581 11.4492 -9.1627 12.6955
# 2 27.0255 56.7169 44.7785 12.8679 -8.9252 7.8424
# 3 70.1581 44.7785 213.3027 30.6395 -8.5713 23.1887
# 4 11.4492 12.8679 30.6395 42.4089 6.8452 12.2182
# 5 -9.1627 -8.9252 -8.5713 6.8452 48.6307 0.1988
# 6 12.6955 7.8424 23.1887 12.2182 0.1988 25.0874
#
#
#
# Elastic Compliance Matrix: (Units=1/GPa)
#
#
# Indices 1 2 3 4 5 6 
#
# 1 0.011561 -0.002736 -0.002973 0.000382 0.001108 -0.002442
# 2 -0.002736 0.023073 -0.003062 -0.004411 0.003804 -0.000880
# 3 -0.002973 -0.003062 0.007002 -0.002617 0.000492 -0.002740
# 4 0.000382 -0.004411 -0.002617 0.030875 -0.005498 -0.011388
# 5 0.001108 0.003804 0.000492 -0.005498 0.022330 0.000296
# 6 -0.002442 -0.000880 -0.002740 -0.011388 0.000296 0.049448
#
#
# Mechanical properties :
#
#
# Convention : Reuss Voigt Hill
#
# Bulk Modulus (GPa) = 41.50211 74.22896 57.86553
# Shear Modulus (GPa) = 29.43553 39.37035 34.40294
#
# Velocity S-wave (km/s) = 3.50424 4.05268 3.78840
# Velocity P-wave (km/s) = 5.80401 7.27085 6.57844
#
# Compressibility (1/GPa) = 0.02409516
#
# Stress axis : x y z
#
# Youngs Moduli (GPa) = 86.49708 43.33981 142.80837
#
# Poissons Ratio (x) = 0.11858 0.42457
# Poissons Ratio (y) = 0.23667 0.43724
# Poissons Ratio (z) = 0.25716 0.13269
#
# Static dielectric constant tensor:
#      x y z
#    x 4.736910 0.125570 0.189400 
#    y 0.125570 4.096700 0.323930 
#    z 0.189400 0.323930 4.939350 
# 
# 
# High freq. dielectric constant tensor:
#      x y z
#    x 1.963260 0.011060 0.001000 
#    y 0.011060 1.915520 0.017570 
#    z 0.001000 0.017570 1.979810 
# 
# From -- ./inp_files/89456.got.cif
#   From: 2010.06.25/outbox.cif.g09.slc.cpg/sg2_45_cif.got.tgz:89456.got - 2010.06.27 13:26:56.
