data_PCOD8020592
_publ_section_title
;
Structure prediction by ZEFSAII (Michael W. Deem and Ramdas Pophale) SiO2 
 PCOD8020592
Probable space group: P -1
;
_chemical_formula_sum "Si O2"
_cell_formula_units_Z 16
_cell_length_a 15.346614
_cell_length_b 10.710824
_cell_length_c 7.318274
_cell_angle_alpha 115.078997
_cell_angle_beta 127.380438
_cell_angle_gamma 102.493985
_cell_volume 651.831462
_symmetry_space_group_name_H-M "P -1"
_symmetry_group_IT_number 2
_symmetry_cell_setting 'triclinic'
loop_
_space_group_symop_operation_xyz
x,y,z
-x,-y,-z
loop_
_atom_site_type_symbol
_atom_site_label
_atom_site_fract_x
_atom_site_fract_y
_atom_site_fract_z
Si Si1 0.329238 0.488479 0.279877
Si Si2 0.475843 0.095792 0.771759
Si Si3 0.033752 0.390564 0.866754
Si Si4 0.183462 0.235559 0.608492
Si Si5 0.834233 0.088286 0.693103
Si Si6 0.423841 0.112137 0.294901
Si Si7 0.613536 0.493340 0.242374
Si Si8 0.097420 0.840824 0.771818
O O1 0.479387 0.685914 0.537946
O O2 0.351837 0.423522 0.457737
O O3 0.205317 0.503763 0.147953
O O4 0.282620 0.335510 0.976999
O O5 0.468566 0.124142 0.566693
O O6 0.314823 0.954166 0.567719
O O7 0.553202 0.014046 0.861312
O O8 0.563463 0.295269 0.093617
O O9 0.952591 0.201597 0.755557
O O10 0.968003 0.338914 0.545044
O O11 0.000000 0.500000 0.000000
O O12 0.240039 0.388982 0.620346
O O13 0.014298 0.123498 0.368311
O O14 0.204725 0.104648 0.463596
O O15 0.893648 0.196618 0.028613
O O16 0.254924 0.016206 0.004436
O O17 0.500000 0.500000 0.000000
#
# Coordination Sequence:
#
# PCOD8020592 Si02
#       8
#     2   2   2   2   2   2   2   2
#     4  11  26  44  72 105 144 187 232 298 350 415
#     4  10  22  42  70 102 140 182 236 292 345 419
#     4  11  26  46  68 108 140 180 236 291 354 423
#     4  11  24  47  68 104 143 182 236 287 353 421
#     4  11  23  45  70  99 137 190 228 290 348 419
#     4  10  22  45  71 104 140 184 235 288 354 416
#     4  12  25  44  69 103 141 185 240 291 349 415
#     4  10  25  43  72 100 138 187 229 282 348 421
#
# _framework density 24.546220000000002
#
# number of rings (size 3 to 8) (size 9 to 14) (size 15 to 20)
#    0.000    1.250    2.500    1.875    3.500    4.500 
#    0.000    0.000    0.000    0.000    0.000    0.000 
#    0.000    0.000    0.000    0.000    0.000    0.000 
#
# Total GULP energy -198420.805777 kJ/mol
# GULP energy per Si atom -12401.300361 kJ/mol
# Density = 2.449035 g / cm^3
# Si number density = 24.546220 Si / 1000 Ang^3
#
#
#
# Elastic Constant Matrix: (Units=GPa)
#
#
# Indices 1 2 3 4 5 6 
#
# 1 128.1858 28.9056 63.0737 -2.5243 10.3229 2.1118
# 2 28.9056 49.6439 52.4577 -8.0266 1.4731 4.3568
# 3 63.0737 52.4577 135.1568 -9.0060 7.1178 6.3818
# 4 -2.5243 -8.0266 -9.0060 25.5567 2.2089 -2.6553
# 5 10.3229 1.4731 7.1178 2.2089 51.4354 4.3513
# 6 2.1118 4.3568 6.3818 -2.6553 4.3513 28.8481
#
#
#
# Elastic Compliance Matrix: (Units=1/GPa)
#
#
# Indices 1 2 3 4 5 6 
#
# 1 0.010329 -0.001788 -0.004131 -0.000811 -0.001464 0.000574
# 2 -0.001788 0.035566 -0.012506 0.006291 0.000973 -0.002042
# 3 -0.004131 -0.012506 0.014303 0.000687 -0.000754 -0.000796
# 4 -0.000811 0.006291 0.000687 0.041780 -0.002172 0.003130
# 5 -0.001464 0.000973 -0.000754 -0.002172 0.020169 -0.003115
# 6 0.000574 -0.002042 -0.000796 0.003130 -0.003115 0.035865
#
#
# Mechanical properties :
#
#
# Convention : Reuss Voigt Hill
#
# Bulk Modulus (GPa) = 42.82442 66.87338 54.84890
# Shear Modulus (GPa) = 24.67394 32.40464 28.53929
#
# Velocity S-wave (km/s) = 3.17393 3.63733 3.41350
# Velocity P-wave (km/s) = 5.56023 6.70397 6.15871
#
# Compressibility (1/GPa) = 0.02335116
#
# Stress axis : x y z
#
# Youngs Moduli (GPa) = 96.81322 28.11665 69.91428
#
# Poissons Ratio (x) = 0.05026 0.28878
# Poissons Ratio (y) = 0.17306 0.87432
# Poissons Ratio (z) = 0.39989 0.35161
#
# Static dielectric constant tensor:
#      x y z
#    x 4.795390 0.268520 0.006790 
#    y 0.268520 4.017350 0.020480 
#    z 0.006790 0.020480 4.635340 
# 
# 
# High freq. dielectric constant tensor:
#      x y z
#    x 1.999900 0.014040 -0.001500 
#    y 0.014040 1.945330 -0.003250 
#    z -0.001500 -0.003250 1.987290 
# 
# From -- ./inp_files/332408.got.cif
#   From: 2010.06.25/outbox.cif.g09.slc.cpg/sg2_167_cif.got.tgz:332408.got - 2010.06.27 13:26:56.
