data_PCOD8020164
_publ_section_title
;
Structure prediction by ZEFSAII (Michael W. Deem and Ramdas Pophale) SiO2 
 PCOD8020164
Probable space group: P -1
;
_chemical_formula_sum "Si O2"
_cell_formula_units_Z 16
_cell_length_a 6.701027
_cell_length_b 25.140953
_cell_length_c 10.882086
_cell_angle_alpha 148.956888
_cell_angle_beta 48.273087
_cell_angle_gamma 131.114028
_cell_volume 687.186991
_symmetry_space_group_name_H-M "P -1"
_symmetry_group_IT_number 2
_symmetry_cell_setting 'triclinic'
loop_
_space_group_symop_operation_xyz
x,y,z
-x,-y,-z
loop_
_atom_site_type_symbol
_atom_site_label
_atom_site_fract_x
_atom_site_fract_y
_atom_site_fract_z
Si Si1 0.749338 0.339091 0.897386
Si Si2 0.215324 0.033532 0.703390
Si Si3 0.941714 0.500502 0.728469
Si Si4 0.251575 0.099079 0.073467
Si Si5 0.094581 0.192672 0.545933
Si Si6 0.323480 0.699279 0.424764
Si Si7 0.157058 0.833713 0.965950
Si Si8 0.840061 0.634290 0.817236
O O1 0.821898 0.330862 0.707132
O O2 0.837141 0.247021 0.759431
O O3 0.429327 0.324666 0.020888
O O4 0.906576 0.449812 0.111361
O O5 0.500000 0.000000 0.500000
O O6 0.262260 0.118453 0.962892
O O7 0.987614 0.926746 0.609695
O O8 0.080311 0.098914 0.788604
O O9 0.699453 0.404780 0.686249
O O10 0.825734 0.586363 0.866115
O O11 0.146285 0.456145 0.467256
O O12 0.197829 0.196372 0.368421
O O13 0.555084 0.084334 0.958720
O O14 0.000000 0.000000 0.000000
O O15 0.352464 0.254247 0.641936
O O16 0.181921 0.784106 0.720949
O O17 0.091337 0.737541 0.902102
#
# Coordination Sequence:
#
# PCOD8020164 Si02
#       8
#     2   2   2   2   2   2   2   2
#     4  12  22  37  63  92 124 160 205 255 308 364
#     4  11  23  39  63  94 125 162 208 254 304 367
#     4  10  23  43  62  88 124 162 206 254 306 366
#     4   9  21  40  61  87 121 163 204 251 306 364
#     4  10  23  39  59  91 127 159 201 254 306 365
#     4  10  23  41  64  92 121 161 207 257 310 364
#     4  10  22  42  66  90 125 168 206 251 311 368
#     4  10  23  41  63  90 125 165 204 250 308 371
#
# _framework density 23.283327
#
# number of rings (size 3 to 8) (size 9 to 14) (size 15 to 20)
#    0.000    1.750    0.000    3.000    0.000   13.000 
#    0.000    5.000    0.000    0.000    0.000    0.000 
#    0.000    0.000    0.000    0.000    0.000    0.000 
#
# Total GULP energy -198238.993706 kJ/mol
# GULP energy per Si atom -12389.937107 kJ/mol
# Density = 2.323033 g / cm^3
# Si number density = 23.283327 Si / 1000 Ang^3
#
#
#
# Elastic Constant Matrix: (Units=GPa)
#
#
# Indices 1 2 3 4 5 6 
#
# 1 119.0051 53.7839 54.5543 11.9758 -4.7992 13.8587
# 2 53.7839 89.5590 31.4644 18.0793 -1.1897 8.0293
# 3 54.5543 31.4644 79.7447 14.6426 -13.2467 6.5071
# 4 11.9758 18.0793 14.6426 18.9749 4.6294 -3.7905
# 5 -4.7992 -1.1897 -13.2467 4.6294 52.1338 -2.8481
# 6 13.8587 8.0293 6.5071 -3.7905 -2.8481 37.4461
#
#
#
# Elastic Compliance Matrix: (Units=1/GPa)
#
#
# Indices 1 2 3 4 5 6 
#
# 1 0.015113 -0.006532 -0.008291 0.002880 -0.001260 -0.002556
# 2 -0.006532 0.018113 0.000334 -0.014214 0.001001 -0.002887
# 3 -0.008291 0.000334 0.021691 -0.013596 0.005870 -0.001702
# 4 0.002880 -0.014214 -0.013596 0.079674 -0.009952 0.011652
# 5 -0.001260 0.001001 0.005870 -0.009952 0.021456 -0.000144
# 6 -0.002556 -0.002887 -0.001702 0.011652 -0.000144 0.029734
#
#
# Mechanical properties :
#
#
# Convention : Reuss Voigt Hill
#
# Bulk Modulus (GPa) = 38.55399 63.10156 50.82777
# Shear Modulus (GPa) = 22.38082 31.61136 26.99609
#
# Velocity S-wave (km/s) = 3.10375 3.68867 3.40878
# Velocity P-wave (km/s) = 5.42576 6.73069 6.11314
#
# Compressibility (1/GPa) = 0.02593765
#
# Stress axis : x y z
#
# Youngs Moduli (GPa) = 66.16786 55.20961 46.10220
#
# Poissons Ratio (x) = 0.36064 0.38225
# Poissons Ratio (y) = 0.43222 -0.01539
# Poissons Ratio (z) = 0.54862 -0.01843
#
# Static dielectric constant tensor:
#      x y z
#    x 4.141180 0.051280 0.320110 
#    y 0.051280 3.987520 -0.138510 
#    z 0.320110 -0.138510 4.483250 
# 
# 
# High freq. dielectric constant tensor:
#      x y z
#    x 1.912720 0.008540 0.009860 
#    y 0.008540 1.905790 -0.005830 
#    z 0.009860 -0.005830 1.936020 
# 
# From -- ./inp_files/371448.got.cif
#   From: 2010.06.25/outbox.cif.g09.slc.cpg/sg2_186_cif.got.tgz:371448.got - 2010.06.27 13:26:56.
