data_PCOD8020968
_publ_section_title
;
Structure prediction by ZEFSAII (Michael W. Deem and Ramdas Pophale) SiO2 
 PCOD8020968
Probable space group: P -1
;
_chemical_formula_sum "Si O2"
_cell_formula_units_Z 16
_cell_length_a 10.964625
_cell_length_b 18.182605
_cell_length_c 6.717897
_cell_angle_alpha 98.084813
_cell_angle_beta 122.977957
_cell_angle_gamma 121.713371
_cell_volume 766.024768
_symmetry_space_group_name_H-M "P -1"
_symmetry_group_IT_number 2
_symmetry_cell_setting 'triclinic'
loop_
_space_group_symop_operation_xyz
x,y,z
-x,-y,-z
loop_
_atom_site_type_symbol
_atom_site_label
_atom_site_fract_x
_atom_site_fract_y
_atom_site_fract_z
Si Si1 0.540463 0.768352 0.082939
Si Si2 0.150180 0.551543 0.463783
Si Si3 0.444262 0.090439 0.122830
Si Si4 0.275604 0.313917 0.714367
Si Si5 0.781427 0.141734 0.189592
Si Si6 0.366007 0.814211 0.267152
Si Si7 0.975122 0.600040 0.018767
Si Si8 0.573362 0.514563 0.788435
O O1 0.379802 0.655820 0.782761
O O2 0.628770 0.862574 0.043012
O O3 0.718641 0.774446 0.308468
O O4 0.433886 0.767479 0.179918
O O5 0.000000 0.500000 0.500000
O O6 0.099778 0.584694 0.245231
O O7 0.137535 0.466344 0.315222
O O8 0.676570 0.150313 0.278259
O O9 0.453552 0.106424 0.375336
O O10 0.268455 0.963695 0.869007
O O11 0.402612 0.392415 0.669518
O O12 0.031444 0.248086 0.457408
O O13 0.401919 0.398522 0.041663
O O14 0.667030 0.126486 0.879288
O O15 0.145406 0.723172 0.149286
O O16 0.807071 0.567096 0.015346
O O17 0.500000 0.500000 0.500000
#
# Coordination Sequence:
#
# PCOD8020968 Si02
#       8
#     2   2   2   2   2   2   2   2
#     4  11  23  38  60  90 128 159 197 258 308 361
#     4  11  21  35  55  90 124 155 197 251 296 351
#     4  10  22  43  66  90 116 154 214 259 306 359
#     4  11  25  41  60  90 130 163 201 248 312 366
#     4  10  23  42  66  89 118 161 202 260 310 362
#     4  11  21  38  64  92 119 155 209 257 301 358
#     4  11  22  34  62  89 116 163 208 241 294 361
#     4  11  24  40  59  88 129 168 204 242 302 371
#
# _framework density 20.887053000000002
#
# number of rings (size 3 to 8) (size 9 to 14) (size 15 to 20)
#    0.000    1.250    2.500    3.375    3.500    3.500 
#    0.000    0.625    0.000    0.000    0.000    0.000 
#    0.000    0.000    0.000    0.000    0.000    0.000 
#
# Total GULP energy -198326.581134 kJ/mol
# GULP energy per Si atom -12395.411321 kJ/mol
# Density = 2.083951 g / cm^3
# Si number density = 20.887053 Si / 1000 Ang^3
#
#
#
# Elastic Constant Matrix: (Units=GPa)
#
#
# Indices 1 2 3 4 5 6 
#
# 1 74.9141 35.1559 22.1563 -5.4846 -0.1634 -4.0945
# 2 35.1559 105.8209 22.8282 -11.9742 -4.9320 -8.7018
# 3 22.1563 22.8282 78.3880 -17.1607 -13.0772 0.0485
# 4 -5.4846 -11.9742 -17.1607 26.5069 5.2527 -1.7785
# 5 -0.1634 -4.9320 -13.0772 5.2527 29.8886 -1.5650
# 6 -4.0945 -8.7018 0.0485 -1.7785 -1.5650 33.5314
#
#
#
# Elastic Compliance Matrix: (Units=1/GPa)
#
#
# Indices 1 2 3 4 5 6 
#
# 1 0.016748 -0.004868 -0.003851 -0.000742 -0.002233 0.000644
# 2 -0.004868 0.012003 -0.001162 0.003660 0.000947 0.002761
# 3 -0.003851 -0.001162 0.017011 0.008552 0.005723 -0.000076
# 4 -0.000742 0.003660 0.008552 0.045669 -0.003522 0.003105
# 5 -0.002233 0.000947 0.005723 -0.003522 0.036803 0.001496
# 6 0.000644 0.002761 -0.000076 0.003105 0.001496 0.030852
#
#
# Mechanical properties :
#
#
# Convention : Reuss Voigt Hill
#
# Bulk Modulus (GPa) = 38.46255 46.60042 42.53148
# Shear Modulus (GPa) = 26.66427 29.91756 28.29092
#
# Velocity S-wave (km/s) = 3.57682 3.78874 3.68431
# Velocity P-wave (km/s) = 5.95925 6.44194 6.20529
#
# Compressibility (1/GPa) = 0.02599932
#
# Stress axis : x y z
#
# Youngs Moduli (GPa) = 59.70739 83.31051 58.78527
#
# Poissons Ratio (x) = 0.40558 0.22640
# Poissons Ratio (y) = 0.29068 0.06831
# Poissons Ratio (z) = 0.22995 0.09681
#
# Static dielectric constant tensor:
#      x y z
#    x 3.306230 -0.003520 -0.274390 
#    y -0.003520 3.836960 -0.134670 
#    z -0.274390 -0.134670 3.736920 
# 
# 
# High freq. dielectric constant tensor:
#      x y z
#    x 1.809190 -0.001720 -0.014920 
#    y -0.001720 1.822750 -0.008750 
#    z -0.014920 -0.008750 1.817180 
# 
# From -- ./inp_files/81423.got.cif
#   From: 2010.06.25/outbox.cif.g09.slc.cpg/sg2_41_cif.got.tgz:81423.got - 2010.06.27 13:26:56.
