data_PCOD8020855
_publ_section_title
;
Structure prediction by ZEFSAII (Michael W. Deem and Ramdas Pophale) SiO2 
 PCOD8020855
Probable space group: P -1
;
_chemical_formula_sum "Si O2"
_cell_formula_units_Z 14
_cell_length_a 12.265150
_cell_length_b 6.977232
_cell_length_c 15.300961
_cell_angle_alpha 81.468358
_cell_angle_beta 144.199857
_cell_angle_gamma 114.932533
_cell_volume 646.680348
_symmetry_space_group_name_H-M "P -1"
_symmetry_group_IT_number 2
_symmetry_cell_setting 'triclinic'
loop_
_space_group_symop_operation_xyz
x,y,z
-x,-y,-z
loop_
_atom_site_type_symbol
_atom_site_label
_atom_site_fract_x
_atom_site_fract_y
_atom_site_fract_z
Si Si1 0.698749 0.259377 0.322724
Si Si2 0.949272 0.859819 0.759524
Si Si3 0.192219 0.459011 0.150470
Si Si4 0.265723 0.934649 0.818211
Si Si5 0.703119 0.685304 0.292277
Si Si6 0.667606 0.879054 0.429588
Si Si7 0.718751 0.742640 0.938302
O O1 0.820377 0.535917 0.382608
O O2 0.435922 0.150068 0.169042
O O3 0.775823 0.206847 0.286506
O O4 0.743014 0.141580 0.441583
O O5 0.840433 0.649727 0.768352
O O6 0.759326 0.864397 0.582955
O O7 0.094379 0.805223 0.792739
O O8 0.084443 0.104273 0.878580
O O9 0.409040 0.705801 0.274016
O O10 0.191722 0.273765 0.097176
O O11 0.000000 0.500000 0.000000
O O12 0.230812 0.144616 0.757741
O O13 0.500000 0.000000 0.000000
O O14 0.767396 0.810824 0.418628
O O15 0.440026 0.520478 0.117589
#
# Coordination Sequence:
#
# PCOD8020855 Si02
#       7
#     2   2   2   2   2   2   2
#     4   9  19  41  70  85 130 174 204 254 313 379
#     4  12  24  38  63 102 128 161 214 271 311 373
#     4  11  24  44  68  88 127 173 214 261 321 380
#     4  11  21  37  66  99 131 164 213 259 311 374
#     4   8  20  40  65  87 131 171 204 252 309 383
#     4  10  22  43  64  94 132 164 208 268 322 362
#     4   9  20  41  67  89 121 170 220 253 310 376
#
# _framework density 21.649025000000002
#
# number of rings (size 3 to 8) (size 9 to 14) (size 15 to 20)
#    0.857    1.143    1.429    1.714    4.000    4.571 
#    2.571    2.857    0.000    0.000    0.000    0.000 
#    0.000    0.000    0.000    0.000    0.000    0.000 
#
# Total GULP energy -173452.814207 kJ/mol
# GULP energy per Si atom -12389.486729 kJ/mol
# Density = 2.159975 g / cm^3
# Si number density = 21.649025 Si / 1000 Ang^3
#
#
#
# Elastic Constant Matrix: (Units=GPa)
#
#
# Indices 1 2 3 4 5 6 
#
# 1 132.8319 40.7851 18.1879 -17.1013 -11.3539 -1.0463
# 2 40.7851 122.0393 26.2960 -22.3084 -15.1794 -7.1027
# 3 18.1879 26.2960 77.2850 -11.8229 -19.9908 -9.2686
# 4 -17.1013 -22.3084 -11.8229 29.9171 4.0594 0.7399
# 5 -11.3539 -15.1794 -19.9908 4.0594 24.1057 -10.9081
# 6 -1.0463 -7.1027 -9.2686 0.7399 -10.9081 23.8596
#
#
#
# Elastic Compliance Matrix: (Units=1/GPa)
#
#
# Indices 1 2 3 4 5 6 
#
# 1 0.008784 -0.001952 -0.000127 0.003131 0.002674 0.000880
# 2 -0.001952 0.011442 0.000951 0.006298 0.009576 0.007872
# 3 -0.000127 0.000951 0.024031 0.005486 0.030029 0.023171
# 4 0.003131 0.006298 0.005486 0.041203 0.005481 0.005371
# 5 0.002674 0.009576 0.030029 0.005481 0.099981 0.060172
# 6 0.000880 0.007872 0.023171 0.005371 0.060172 0.080638
#
#
# Mechanical properties :
#
#
# Convention : Reuss Voigt Hill
#
# Bulk Modulus (GPa) = 23.80941 55.85491 39.83216
# Shear Modulus (GPa) = 17.70949 32.03563 24.87256
#
# Velocity S-wave (km/s) = 2.86322 3.85095 3.39322
# Velocity P-wave (km/s) = 4.68535 6.75495 5.81300
#
# Compressibility (1/GPa) = 0.04200020
#
# Stress axis : x y z
#
# Youngs Moduli (GPa) = 113.84904 87.39673 41.61317
#
# Poissons Ratio (x) = 0.17060 0.00528
# Poissons Ratio (y) = 0.22224 -0.03956
# Poissons Ratio (z) = 0.01444 -0.08309
#
# Static dielectric constant tensor:
#      x y z
#    x 4.218440 -0.053930 -0.020200 
#    y -0.053930 3.901390 -0.028500 
#    z -0.020200 -0.028500 3.763320 
# 
# 
# High freq. dielectric constant tensor:
#      x y z
#    x 1.853100 0.003760 0.007440 
#    y 0.003760 1.846990 -0.000310 
#    z 0.007440 -0.000310 1.848040 
# 
# From -- ./inp_files/510910.got.cif
#   From: 2010.06.25/outbox.cif.g09.slc.cpg/sg2_256_cif.got.tgz:510910.got - 2010.06.27 13:26:56.
