data_PCOD8020352
_publ_section_title
;
Structure prediction by ZEFSAII (Michael W. Deem and Ramdas Pophale) SiO2 
 PCOD8020352
Probable space group: P -1
;
_chemical_formula_sum "Si O2"
_cell_formula_units_Z 14
_cell_length_a 13.828791
_cell_length_b 8.946866
_cell_length_c 15.227563
_cell_angle_alpha 151.118386
_cell_angle_beta 133.965337
_cell_angle_gamma 43.115198
_cell_volume 613.239996
_symmetry_space_group_name_H-M "P -1"
_symmetry_group_IT_number 2
_symmetry_cell_setting 'triclinic'
loop_
_space_group_symop_operation_xyz
x,y,z
-x,-y,-z
loop_
_atom_site_type_symbol
_atom_site_label
_atom_site_fract_x
_atom_site_fract_y
_atom_site_fract_z
Si Si1 0.495743 0.043551 0.417635
Si Si2 0.658534 0.426872 0.527089
Si Si3 0.799845 0.848089 0.546760
Si Si4 0.270983 0.791513 0.128847
Si Si5 0.872298 0.746883 0.874859
Si Si6 0.832115 0.784910 0.216773
Si Si7 0.090007 0.913986 0.750298
O O1 0.376895 0.396066 0.499527
O O2 0.500000 0.000000 0.500000
O O3 0.659590 0.007147 0.476136
O O4 0.435405 0.765939 0.196453
O O5 0.500000 0.500000 0.500000
O O6 0.741015 0.612573 0.734180
O O7 0.758546 0.048880 0.382033
O O8 0.825117 0.460791 0.362161
O O9 0.928737 0.943895 0.635655
O O10 0.780522 0.968625 0.696659
O O11 0.165496 0.952040 0.063434
O O12 0.268961 0.434044 0.968680
O O13 0.009931 0.445527 0.770650
O O14 0.914126 0.853846 0.049882
O O15 0.836084 0.965417 0.220647
#
# Coordination Sequence:
#
# PCOD8020352 Si02
#       7
#     2   2   2   2   2   2   2
#     4   9  20  42  66  88 132 176 212 263 327 390
#     4  11  27  45  66  98 132 175 223 275 330 389
#     4  10  22  42  67  96 136 174 221 263 331 393
#     4  10  22  42  68  99 133 175 217 269 332 393
#     4  11  24  44  67  99 138 169 220 273 333 388
#     4  12  24  43  68 100 134 172 223 272 330 386
#     4  11  24  40  70 102 129 174 223 271 323 397
#
# _framework density 22.829561000000002
#
# number of rings (size 3 to 8) (size 9 to 14) (size 15 to 20)
#    0.000    1.429    1.429    3.857    2.000    3.429 
#    0.000    7.143    0.000    0.000    0.000    0.000 
#    0.000    0.000    0.000    0.000    0.000    0.000 
#
# Total GULP energy -173505.100433 kJ/mol
# GULP energy per Si atom -12393.221459 kJ/mol
# Density = 2.277760 g / cm^3
# Si number density = 22.829561 Si / 1000 Ang^3
#
#
#
# Elastic Constant Matrix: (Units=GPa)
#
#
# Indices 1 2 3 4 5 6 
#
# 1 83.6691 18.4097 61.6835 5.9633 17.4327 -7.1827
# 2 18.4097 81.7672 58.4333 -4.7070 13.2253 -11.7322
# 3 61.6835 58.4333 131.1190 12.6493 28.6791 -14.1154
# 4 5.9633 -4.7070 12.6493 34.3021 -3.7096 4.3218
# 5 17.4327 13.2253 28.6791 -3.7096 40.1658 -5.1128
# 6 -7.1827 -11.7322 -14.1154 4.3218 -5.1128 31.8684
#
#
#
# Elastic Compliance Matrix: (Units=1/GPa)
#
#
# Indices 1 2 3 4 5 6 
#
# 1 0.019001 0.003270 -0.009904 0.000481 -0.002119 0.000694
# 2 0.003270 0.019813 -0.010800 0.005880 0.000636 0.002552
# 3 -0.009904 -0.010800 0.019569 -0.007998 -0.006539 0.002495
# 4 0.000481 0.005880 -0.007998 0.034103 0.006090 -0.004917
# 5 -0.002119 0.000636 -0.006539 0.006090 0.030966 0.001002
# 6 0.000694 0.002552 0.002495 -0.004917 0.001002 0.034408
#
#
# Mechanical properties :
#
#
# Convention : Reuss Voigt Hill
#
# Bulk Modulus (GPa) = 42.52525 63.73427 53.12976
# Shear Modulus (GPa) = 24.92924 31.80251 28.36588
#
# Velocity S-wave (km/s) = 3.30808 3.73640 3.52874
# Velocity P-wave (km/s) = 5.76706 6.82585 6.31867
#
# Compressibility (1/GPa) = 0.02351544
#
# Stress axis : x y z
#
# Youngs Moduli (GPa) = 52.62934 50.47129 51.10013
#
# Poissons Ratio (x) = -0.16503 0.50610
# Poissons Ratio (y) = -0.17209 0.55187
# Poissons Ratio (z) = 0.52125 0.54507
#
# Static dielectric constant tensor:
#      x y z
#    x 5.168390 -0.891620 0.666790 
#    y -0.891620 5.129600 -0.232400 
#    z 0.666790 -0.232400 4.275670 
# 
# 
# High freq. dielectric constant tensor:
#      x y z
#    x 1.903720 0.001590 0.027900 
#    y 0.001590 1.907500 -0.005360 
#    z 0.027900 -0.005360 1.899920 
# 
# From -- ./inp_files/530313.got.cif
#   From: 2010.06.25/outbox.cif.g09.slc.cpg/sg2_266_cif.got.tgz:530313.got - 2010.06.27 13:26:56.
