data_PCOD8020576
_publ_section_title
;
Structure prediction by ZEFSAII (Michael W. Deem and Ramdas Pophale) SiO2 
 PCOD8020576
Probable space group: P -1
;
_chemical_formula_sum "Si O2"
_cell_formula_units_Z 16
_cell_length_a 11.091060
_cell_length_b 8.701191
_cell_length_c 14.074642
_cell_angle_alpha 127.453793
_cell_angle_beta 51.152073
_cell_angle_gamma 135.766150
_cell_volume 705.758943
_symmetry_space_group_name_H-M "P -1"
_symmetry_group_IT_number 2
_symmetry_cell_setting 'triclinic'
loop_
_space_group_symop_operation_xyz
x,y,z
-x,-y,-z
loop_
_atom_site_type_symbol
_atom_site_label
_atom_site_fract_x
_atom_site_fract_y
_atom_site_fract_z
Si Si1 0.394596 0.229495 0.881780
Si Si2 0.334540 0.772064 0.724550
Si Si3 0.430986 0.134382 0.525187
Si Si4 0.719592 0.440832 0.931505
Si Si5 0.990686 0.295783 0.671933
Si Si6 0.362812 0.452476 0.290213
Si Si7 0.976150 0.089436 0.401432
Si Si8 0.573945 0.229436 0.106375
O O1 0.512545 0.251705 0.925406
O O2 0.549297 0.395335 0.790109
O O3 0.280972 0.962695 0.804904
O O4 0.251940 0.307812 0.006508
O O5 0.525702 0.862262 0.607639
O O6 0.343637 0.751075 0.824272
O O7 0.191736 0.525906 0.658125
O O8 0.545150 0.393627 0.604057
O O9 0.500000 0.000000 0.500000
O O10 0.212989 0.017759 0.604577
O O11 0.857758 0.385711 0.794186
O O12 0.732210 0.427975 0.034941
O O13 0.943058 0.178187 0.549356
O O14 0.980290 0.109975 0.681317
O O15 0.400654 0.252393 0.208383
O O16 0.139565 0.312163 0.347902
O O17 0.500000 0.000000 0.000000
#
# Coordination Sequence:
#
# PCOD8020576 Si02
#       8
#     2   2   2   2   2   2   2   2
#     4  10  22  42  70 100 137 184 232 281 346 426
#     4  12  24  43  70 105 140 183 235 293 353 410
#     4  12  26  45  70 105 148 182 227 293 356 422
#     4  10  22  44  65  98 137 186 237 275 348 411
#     4  11  25  43  70 103 140 183 234 299 342 413
#     4  11  24  45  71 104 140 187 231 285 354 416
#     4  11  26  44  69 106 140 183 240 284 351 421
#     4  11  23  40  71  97 137 190 232 283 343 417
#
# _framework density 22.670629999999999
#
# number of rings (size 3 to 8) (size 9 to 14) (size 15 to 20)
#    0.000    1.000    3.750    2.250    3.500    3.500 
#    0.000    2.500    0.000    0.000    0.000    0.000 
#    0.000    0.000    0.000    0.000    0.000    0.000 
#
# Total GULP energy -198272.357514 kJ/mol
# GULP energy per Si atom -12392.022345 kJ/mol
# Density = 2.261903 g / cm^3
# Si number density = 22.670630 Si / 1000 Ang^3
#
#
#
# Elastic Constant Matrix: (Units=GPa)
#
#
# Indices 1 2 3 4 5 6 
#
# 1 101.6745 47.0047 48.4064 -3.5082 -12.5154 -3.2464
# 2 47.0047 113.9991 39.8209 10.4997 -6.6329 5.0024
# 3 48.4064 39.8209 125.1842 7.2311 -12.7277 -6.7246
# 4 -3.5082 10.4997 7.2311 31.1431 4.7841 5.1099
# 5 -12.5154 -6.6329 -12.7277 4.7841 31.6077 -2.2027
# 6 -3.2464 5.0024 -6.7246 5.1099 -2.2027 30.2566
#
#
#
# Elastic Compliance Matrix: (Units=1/GPa)
#
#
# Indices 1 2 3 4 5 6 
#
# 1 0.014400 -0.004787 -0.003926 0.003567 0.002650 0.001055
# 2 -0.004787 0.011832 -0.001782 -0.003798 0.000291 -0.002203
# 3 -0.003926 -0.001782 0.010745 -0.003314 0.003112 0.003048
# 4 0.003567 -0.003798 -0.003314 0.036643 -0.006711 -0.006403
# 5 0.002650 0.000291 0.003112 -0.006711 0.035340 0.004634
# 6 0.001055 -0.002203 0.003048 -0.006403 0.004634 0.035624
#
#
# Mechanical properties :
#
#
# Convention : Reuss Voigt Hill
#
# Bulk Modulus (GPa) = 62.54892 67.92465 65.23679
# Shear Modulus (GPa) = 29.25643 32.30985 30.78314
#
# Velocity S-wave (km/s) = 3.59625 3.77926 3.68889
# Velocity P-wave (km/s) = 6.70031 7.00502 6.85436
#
# Compressibility (1/GPa) = 0.01598749
#
# Stress axis : x y z
#
# Youngs Moduli (GPa) = 69.44309 84.51894 93.06991
#
# Poissons Ratio (x) = 0.40459 0.36535
# Poissons Ratio (y) = 0.33243 0.16585
# Poissons Ratio (z) = 0.27260 0.15061
#
# Static dielectric constant tensor:
#      x y z
#    x 4.269800 -0.532620 0.146730 
#    y -0.532620 4.538330 0.137900 
#    z 0.146730 0.137900 4.369100 
# 
# 
# High freq. dielectric constant tensor:
#      x y z
#    x 1.878020 -0.019020 0.000480 
#    y -0.019020 1.890230 0.017440 
#    z 0.000480 0.017440 1.913810 
# 
# From -- ./inp_files/516236.got.cif
#   From: 2010.06.25/outbox.cif.g09.slc.cpg/sg2_259_cif.got.tgz:516236.got - 2010.06.27 13:26:56.
