data_PCOD8020085
_publ_section_title
;
Structure prediction by ZEFSAII (Michael W. Deem and Ramdas Pophale) SiO2 
 PCOD8020085
Probable space group: P -1
;
_chemical_formula_sum "Si O2"
_cell_formula_units_Z 16
_cell_length_a 21.751470
_cell_length_b 26.848219
_cell_length_c 6.801027
_cell_angle_alpha 96.449280
_cell_angle_beta 82.175568
_cell_angle_gamma 168.386587
_cell_volume 787.677096
_symmetry_space_group_name_H-M "P -1"
_symmetry_group_IT_number 2
_symmetry_cell_setting 'triclinic'
loop_
_space_group_symop_operation_xyz
x,y,z
-x,-y,-z
loop_
_atom_site_type_symbol
_atom_site_label
_atom_site_fract_x
_atom_site_fract_y
_atom_site_fract_z
Si Si1 0.835371 0.485847 0.746123
Si Si2 0.717705 0.078819 0.167141
Si Si3 0.866083 0.665874 0.675122
Si Si4 0.658855 0.830805 0.310177
Si Si5 0.917495 0.388354 0.616877
Si Si6 0.099812 0.918108 0.345898
Si Si7 0.178630 0.272745 0.015470
Si Si8 0.594150 0.239612 0.098324
O O1 0.525163 0.263868 0.697022
O O2 0.014575 0.669232 0.877229
O O3 0.036025 0.625311 0.536330
O O4 0.750199 0.373375 0.878183
O O5 0.841421 0.136377 0.299072
O O6 0.433634 0.886042 0.286877
O O7 0.639068 0.990753 0.952403
O O8 0.553722 0.386170 0.677490
O O9 0.813118 0.667188 0.856270
O O10 0.935021 0.743860 0.466282
O O11 0.823585 0.972243 0.509050
O O12 0.914856 0.027888 0.114482
O O13 0.000000 0.500000 0.500000
O O14 0.140179 0.566510 0.785676
O O15 0.411561 0.143198 0.213724
O O16 0.873232 0.758639 0.205978
O O17 0.500000 0.500000 0.000000
#
# Coordination Sequence:
#
# PCOD8020085 Si02
#       8
#     2   2   2   2   2   2   2   2
#     4  11  23  41  61  88 123 164 207 252 307 359
#     4  11  23  41  60  91 126 160 208 259 299 361
#     4  10  23  42  65  93 127 165 205 250 309 368
#     4  10  22  42  65  93 127 162 204 253 306 371
#     4  12  24  40  61  86 127 164 205 258 306 349
#     4  11  21  40  67  90 124 164 208 247 311 370
#     4  11  24  43  67  94 126 160 202 257 310 369
#     4  12  22  41  62  89 120 166 208 253 304 362
#
# _framework density 20.312891
#
# number of rings (size 3 to 8) (size 9 to 14) (size 15 to 20)
#    0.000    1.000    5.000    2.250    0.000    5.000 
#    2.250    1.250    0.000    0.000    0.000    0.000 
#    0.000    0.000    0.000    0.000    0.000    0.000 
#
# Total GULP energy -198449.114118 kJ/mol
# GULP energy per Si atom -12403.069632 kJ/mol
# Density = 2.026666 g / cm^3
# Si number density = 20.312891 Si / 1000 Ang^3
#
#
#
# Elastic Constant Matrix: (Units=GPa)
#
#
# Indices 1 2 3 4 5 6 
#
# 1 57.8536 53.9827 39.0648 17.2133 2.8199 3.8001
# 2 53.9827 117.4927 55.3942 11.1682 8.5809 10.4089
# 3 39.0648 55.3942 123.9611 21.4295 10.5219 -0.3877
# 4 17.2133 11.1682 21.4295 27.7812 0.9022 0.0523
# 5 2.8199 8.5809 10.5219 0.9022 26.3252 7.6683
# 6 3.8001 10.4089 -0.3877 0.0523 7.6683 43.0665
#
#
#
# Elastic Compliance Matrix: (Units=1/GPa)
#
#
# Indices 1 2 3 4 5 6 
#
# 1 0.036995 -0.014389 -0.002839 -0.015027 0.002444 -0.000229
# 2 -0.014389 0.016725 -0.003665 0.005085 -0.001899 -0.002474
# 3 -0.002839 -0.003665 0.011924 -0.005852 -0.003619 0.001895
# 4 -0.015027 0.005085 -0.005852 0.047753 0.000694 -0.000137
# 5 0.002444 -0.001899 -0.003619 0.000694 0.041877 -0.007247
# 6 -0.000229 -0.002474 0.001895 -0.000137 -0.007247 0.025146
#
#
# Mechanical properties :
#
#
# Convention : Reuss Voigt Hill
#
# Bulk Modulus (GPa) = 41.91433 66.24340 54.07886
# Shear Modulus (GPa) = 21.72423 29.49229 25.60826
#
# Velocity S-wave (km/s) = 3.27384 3.81451 3.55447
# Velocity P-wave (km/s) = 5.91353 7.21686 6.59746
#
# Compressibility (1/GPa) = 0.02385819
#
# Stress axis : x y z
#
# Youngs Moduli (GPa) = 27.03065 59.79245 83.86391
#
# Poissons Ratio (x) = 0.86035 0.23809
# Poissons Ratio (y) = 0.38894 0.30735
# Poissons Ratio (z) = 0.07674 0.21913
#
# Static dielectric constant tensor:
#      x y z
#    x 3.631500 0.044850 -0.108550 
#    y 0.044850 3.615020 -0.022330 
#    z -0.108550 -0.022330 3.980220 
# 
# 
# High freq. dielectric constant tensor:
#      x y z
#    x 1.785290 -0.002030 -0.005810 
#    y -0.002030 1.799340 0.008450 
#    z -0.005810 0.008450 1.797660 
# 
# From -- ./inp_files/44870.got.cif
#   From: 2010.06.25/outbox.cif.g09.slc.cpg/sg2_23_cif.got.tgz:44870.got - 2010.06.27 13:26:56.
