data_PCOD8020552
_publ_section_title
;
Structure prediction by ZEFSAII (Michael W. Deem and Ramdas Pophale) SiO2 
 PCOD8020552
Probable space group: P -1
;
_chemical_formula_sum "Si O2"
_cell_formula_units_Z 14
_cell_length_a 8.656832
_cell_length_b 10.369302
_cell_length_c 21.799194
_cell_angle_alpha 34.163261
_cell_angle_beta 34.997170
_cell_angle_gamma 50.614996
_cell_volume 624.511486
_symmetry_space_group_name_H-M "P -1"
_symmetry_group_IT_number 2
_symmetry_cell_setting 'triclinic'
loop_
_space_group_symop_operation_xyz
x,y,z
-x,-y,-z
loop_
_atom_site_type_symbol
_atom_site_label
_atom_site_fract_x
_atom_site_fract_y
_atom_site_fract_z
Si Si1 0.159192 0.078030 0.815809
Si Si2 0.436049 0.076031 0.607442
Si Si3 0.308299 0.624409 0.969633
Si Si4 0.270125 0.300867 0.867583
Si Si5 0.479941 0.417665 0.214799
Si Si6 0.146246 0.576715 0.597453
Si Si7 0.719939 0.497329 0.557249
O O1 0.176190 0.047794 0.748575
O O2 0.217202 0.353080 0.702421
O O3 0.368999 0.909378 0.842764
O O4 0.853459 0.972047 0.978506
O O5 0.702140 0.193680 0.511552
O O6 0.366282 0.243752 0.509143
O O7 0.491630 0.825806 0.664437
O O8 0.347923 0.547097 0.917270
O O9 0.500000 0.500000 0.000000
O O10 0.986097 0.553051 0.118074
O O11 0.423373 0.378626 0.849902
O O12 0.482048 0.318656 0.735794
O O13 0.170422 0.421944 0.296512
O O14 0.255323 0.566967 0.496571
O O15 0.000000 0.500000 0.500000
#
# Coordination Sequence:
#
# PCOD8020552 Si02
#       7
#     2   2   2   2   2   2   2
#     4   8  20  40  66  89 129 166 216 260 324 376
#     4  10  23  42  65  89 137 174 218 262 318 395
#     4   9  21  41  65  98 130 164 216 267 327 380
#     4  10  22  42  69  96 135 160 220 271 325 385
#     4  11  22  42  68  94 131 178 213 261 335 388
#     4  11  22  43  68  93 133 176 219 261 325 388
#     4  11  22  43  64  99 131 166 219 271 321 385
#
# _framework density 22.417521000000001
#
# number of rings (size 3 to 8) (size 9 to 14) (size 15 to 20)
#    0.857    1.143    1.429    2.571    2.000    1.143 
#    0.000    9.286    0.000    0.000    0.000    0.000 
#    0.000    0.000    0.000    0.000    0.000    0.000 
#
# Total GULP energy -173433.957305 kJ/mol
# GULP energy per Si atom -12388.139807 kJ/mol
# Density = 2.236650 g / cm^3
# Si number density = 22.417521 Si / 1000 Ang^3
#
#
#
# Elastic Constant Matrix: (Units=GPa)
#
#
# Indices 1 2 3 4 5 6 
#
# 1 89.3385 10.2983 24.4998 4.6395 2.4017 -13.3641
# 2 10.2983 55.2010 21.4581 11.5618 2.8909 -6.9631
# 3 24.4998 21.4581 120.4146 17.0907 2.1101 -1.6787
# 4 4.6395 11.5618 17.0907 43.5019 -12.1991 -6.4133
# 5 2.4017 2.8909 2.1101 -12.1991 23.7572 1.5839
# 6 -13.3641 -6.9631 -1.6787 -6.4133 1.5839 34.6507
#
#
#
# Elastic Compliance Matrix: (Units=1/GPa)
#
#
# Indices 1 2 3 4 5 6 
#
# 1 0.012662 -0.000820 -0.002365 0.000149 -0.001206 0.004687
# 2 -0.000820 0.021122 -0.002681 -0.005508 -0.005279 0.003020
# 3 -0.002365 -0.002681 0.009805 -0.003709 -0.002106 -0.001566
# 4 0.000149 -0.005508 -0.003709 0.031138 0.016722 0.003770
# 5 -0.001206 -0.005279 -0.002106 0.016722 0.051690 -0.000896
# 6 0.004687 0.003020 -0.001566 0.003770 -0.000896 0.031937
#
#
# Mechanical properties :
#
#
# Convention : Reuss Voigt Hill
#
# Bulk Modulus (GPa) = 31.38932 41.94072 36.66502
# Shear Modulus (GPa) = 27.66958 34.29517 30.98237
#
# Velocity S-wave (km/s) = 3.51705 3.91556 3.72164
# Velocity P-wave (km/s) = 5.52498 6.26032 5.90411
#
# Compressibility (1/GPa) = 0.03185797
#
# Stress axis : x y z
#
# Youngs Moduli (GPa) = 78.97510 47.34455 101.98912
#
# Poissons Ratio (x) = 0.03882 0.24119
# Poissons Ratio (y) = 0.06475 0.27340
# Poissons Ratio (z) = 0.18677 0.12692
#
# Static dielectric constant tensor:
#      x y z
#    x 3.753950 -0.225460 0.142040 
#    y -0.225460 4.074520 -0.013270 
#    z 0.142040 -0.013270 4.352200 
# 
# 
# High freq. dielectric constant tensor:
#      x y z
#    x 1.864010 -0.009680 0.004100 
#    y -0.009680 1.874600 0.009500 
#    z 0.004100 0.009500 1.893190 
# 
# From -- ./inp_files/607155.got.cif
#   From: 2010.06.25/outbox.cif.g09.slc.cpg/sg2_304_cif.got.tgz:607155.got - 2010.06.27 13:26:56.
