data_PCOD8020118
_publ_section_title
;
Structure prediction by ZEFSAII (Michael W. Deem and Ramdas Pophale) SiO2 
 PCOD8020118
Probable space group: P -1
;
_chemical_formula_sum "Si O2"
_cell_formula_units_Z 16
_cell_length_a 14.740612
_cell_length_b 22.675136
_cell_length_c 6.237953
_cell_angle_alpha 77.277782
_cell_angle_beta 104.563696
_cell_angle_gamma 159.679964
_cell_volume 700.028875
_symmetry_space_group_name_H-M "P -1"
_symmetry_group_IT_number 2
_symmetry_cell_setting 'triclinic'
loop_
_space_group_symop_operation_xyz
x,y,z
-x,-y,-z
loop_
_atom_site_type_symbol
_atom_site_label
_atom_site_fract_x
_atom_site_fract_y
_atom_site_fract_z
Si Si1 0.652042 0.302341 0.594634
Si Si2 0.461854 0.263162 0.886844
Si Si3 0.747590 0.961976 0.789994
Si Si4 0.682097 0.607416 0.815811
Si Si5 0.268157 0.945881 0.952602
Si Si6 0.058338 0.446284 0.754948
Si Si7 0.711081 0.712729 0.385731
Si Si8 0.413909 0.919543 0.292679
O O1 0.479254 0.222201 0.750537
O O2 0.470337 0.159137 0.425710
O O3 0.786200 0.441905 0.456268
O O4 0.869509 0.388332 0.753017
O O5 0.334419 0.243715 0.707574
O O6 0.269110 0.117661 0.069895
O O7 0.744013 0.449103 0.013859
O O8 0.673293 0.959575 0.948618
O O9 0.034618 0.151371 0.714671
O O10 0.742865 0.709881 0.656106
O O11 0.548239 0.479684 0.680087
O O12 0.500000 0.500000 0.000000
O O13 0.959584 0.746037 0.930854
O O14 0.434593 0.991292 0.105045
O O15 0.393412 0.019981 0.724545
O O16 0.888406 0.285263 0.721249
O O17 0.500000 0.000000 0.500000
#
# Coordination Sequence:
#
# PCOD8020118 Si02
#       8
#     2   2   2   2   2   2   2   2
#     4  10  23  40  67  99 133 185 224 284 349 411
#     4  11  24  43  68 100 139 177 234 287 342 407
#     4  11  24  43  68 101 141 180 233 286 342 417
#     4  11  25  46  70  97 135 186 230 288 347 411
#     4  11  25  43  66 101 135 181 228 285 348 414
#     4  10  22  42  65  96 136 178 226 280 349 414
#     4  11  26  43  69 101 131 184 234 285 350 406
#     4  11  25  41  70 101 138 176 226 287 348 416
#
# _framework density 22.856200999999999
#
# number of rings (size 3 to 8) (size 9 to 14) (size 15 to 20)
#    0.000    1.250    1.250    3.000    5.250    8.500 
#    0.000    0.000    0.000    0.000    0.000    0.000 
#    0.000    0.000    0.000    0.000    0.000    0.000 
#
# Total GULP energy -198263.533114 kJ/mol
# GULP energy per Si atom -12391.470820 kJ/mol
# Density = 2.280418 g / cm^3
# Si number density = 22.856201 Si / 1000 Ang^3
#
#
#
# Elastic Constant Matrix: (Units=GPa)
#
#
# Indices 1 2 3 4 5 6 
#
# 1 85.6898 37.1102 62.0528 -3.9826 2.3330 1.8841
# 2 37.1102 118.6079 39.0748 -2.1231 -18.8613 -4.8780
# 3 62.0528 39.0748 110.4214 -11.2604 -10.2657 3.0352
# 4 -3.9826 -2.1231 -11.2604 39.6093 -11.5076 -1.0075
# 5 2.3330 -18.8613 -10.2657 -11.5076 40.6464 1.6975
# 6 1.8841 -4.8780 3.0352 -1.0075 1.6975 37.3757
#
#
#
# Elastic Compliance Matrix: (Units=1/GPa)
#
#
# Indices 1 2 3 4 5 6 
#
# 1 0.022265 -0.004239 -0.012035 -0.003532 -0.007265 -0.000464
# 2 -0.004239 0.011016 -0.000888 0.001550 0.005506 0.001515
# 3 -0.012035 -0.000888 0.017297 0.005444 0.006233 -0.001050
# 4 -0.003532 0.001550 0.005444 0.029630 0.010675 0.000252
# 5 -0.007265 0.005506 0.006233 0.010675 0.032196 -0.000596
# 6 -0.000464 0.001515 -0.001050 0.000252 -0.000596 0.027096
#
#
# Mechanical properties :
#
#
# Convention : Reuss Voigt Hill
#
# Bulk Modulus (GPa) = 61.52213 65.68832 63.60522
# Shear Modulus (GPa) = 27.89564 35.29171 31.59367
#
# Velocity S-wave (km/s) = 3.49733 3.93374 3.72194
# Velocity P-wave (km/s) = 6.57905 7.03097 6.80876
#
# Compressibility (1/GPa) = 0.01625431
#
# Stress axis : x y z
#
# Youngs Moduli (GPa) = 44.91399 90.78076 57.81398
#
# Poissons Ratio (x) = 0.38482 0.69578
# Poissons Ratio (y) = 0.19039 0.05131
# Poissons Ratio (z) = 0.54053 0.08057
#
# Static dielectric constant tensor:
#      x y z
#    x 3.655250 -0.280560 0.623600 
#    y -0.280560 3.951940 0.419510 
#    z 0.623600 0.419510 3.346250 
# 
# 
# High freq. dielectric constant tensor:
#      x y z
#    x 1.889160 -0.007160 0.011010 
#    y -0.007160 1.912190 -0.007760 
#    z 0.011010 -0.007760 1.914170 
# 
# From -- ./inp_files/101104.got.cif
#   From: 2010.06.25/outbox.cif.g09.slc.cpg/sg2_51_cif.got.tgz:101104.got - 2010.06.27 13:26:56.
