data_PCOD8020992
_publ_section_title
;
Structure prediction by ZEFSAII (Michael W. Deem and Ramdas Pophale) SiO2 
 PCOD8020992
Probable space group: P -1
;
_chemical_formula_sum "Si O2"
_cell_formula_units_Z 16
_cell_length_a 21.036725
_cell_length_b 7.016708
_cell_length_c 9.622068
_cell_angle_alpha 52.148182
_cell_angle_beta 43.915257
_cell_angle_gamma 52.736558
_cell_volume 742.394383
_symmetry_space_group_name_H-M "P -1"
_symmetry_group_IT_number 2
_symmetry_cell_setting 'triclinic'
loop_
_space_group_symop_operation_xyz
x,y,z
-x,-y,-z
loop_
_atom_site_type_symbol
_atom_site_label
_atom_site_fract_x
_atom_site_fract_y
_atom_site_fract_z
Si Si1 0.597715 0.294887 0.899960
Si Si2 0.889764 0.599916 0.166326
Si Si3 0.292722 0.517326 0.128973
Si Si4 0.570051 0.747245 0.206936
Si Si5 0.800159 0.883479 0.445155
Si Si6 0.093967 0.939128 0.565280
Si Si7 0.124391 0.973745 0.183129
Si Si8 0.374841 0.671145 0.478137
O O1 0.678123 0.324356 0.864878
O O2 0.627938 0.348599 0.674486
O O3 0.500000 0.500000 0.000000
O O4 0.590807 0.013181 0.052490
O O5 0.873443 0.751231 0.268903
O O6 0.852345 0.355590 0.349123
O O7 0.000000 0.500000 0.000000
O O8 0.838910 0.795515 0.037119
O O9 0.273097 0.269045 0.329710
O O10 0.194811 0.708188 0.136968
O O11 0.374943 0.437608 0.919491
O O12 0.456752 0.795454 0.342071
O O13 0.604263 0.607047 0.362535
O O14 0.867392 0.892140 0.465850
O O15 0.729997 0.154549 0.384931
O O16 0.122179 0.998261 0.340797
O O17 0.979206 0.008362 0.726722
#
# Coordination Sequence:
#
# PCOD8020992 Si02
#       8
#     2   2   2   2   2   2   2   2
#     4  12  24  44  68  95 135 178 210 271 328 380
#     4  10  23  44  64  95 130 168 219 272 325 383
#     4  12  24  43  67  98 133 173 222 263 329 388
#     4  11  25  46  66 101 134 168 220 271 322 390
#     4  12  24  43  70  95 132 178 217 269 325 392
#     4  10  23  45  64  95 131 171 219 268 330 380
#     4  10  22  43  66  94 132 168 217 276 319 389
#     4  11  24  45  69  99 133 171 221 268 323 389
#
# _framework density 21.551887000000001
#
# number of rings (size 3 to 8) (size 9 to 14) (size 15 to 20)
#    0.000    1.000    3.750    2.625    0.000    4.000 
#    4.500    0.000    0.000    0.000    0.000    0.000 
#    0.000    0.000    0.000    0.000    0.000    0.000 
#
# Total GULP energy -198418.679618 kJ/mol
# GULP energy per Si atom -12401.167476 kJ/mol
# Density = 2.150283 g / cm^3
# Si number density = 21.551887 Si / 1000 Ang^3
#
#
#
# Elastic Constant Matrix: (Units=GPa)
#
#
# Indices 1 2 3 4 5 6 
#
# 1 98.2894 54.7294 48.2560 -5.8031 -0.3323 4.2310
# 2 54.7294 118.3934 45.9847 6.9523 9.0740 -3.7270
# 3 48.2560 45.9847 112.1227 -3.3629 26.9099 6.4934
# 4 -5.8031 6.9523 -3.3629 40.1471 -14.6951 -2.3760
# 5 -0.3323 9.0740 26.9099 -14.6951 25.0120 1.0850
# 6 4.2310 -3.7270 6.4934 -2.3760 1.0850 38.4428
#
#
#
# Elastic Compliance Matrix: (Units=1/GPa)
#
#
# Indices 1 2 3 4 5 6 
#
# 1 0.020008 -0.007593 -0.009901 0.010614 0.019960 -0.001173
# 2 -0.007593 0.013209 -0.000505 -0.006282 -0.008129 0.002043
# 3 -0.009901 -0.000505 0.019594 -0.009543 -0.026544 -0.002110
# 4 0.010614 -0.006282 -0.009543 0.040042 0.036157 0.001289
# 5 0.019960 -0.008129 -0.026544 0.036157 0.092948 0.001110
# 6 -0.001173 0.002043 -0.002110 0.001289 0.001110 0.026745
#
#
# Mechanical properties :
#
#
# Convention : Reuss Voigt Hill
#
# Bulk Modulus (GPa) = 59.48171 69.63842 64.56007
# Shear Modulus (GPa) = 19.67362 32.70942 26.19152
#
# Velocity S-wave (km/s) = 3.02462 3.90000 3.48986
# Velocity P-wave (km/s) = 6.31324 7.25687 6.80144
#
# Compressibility (1/GPa) = 0.01681189
#
# Stress axis : x y z
#
# Youngs Moduli (GPa) = 49.98077 75.70643 51.03648
#
# Poissons Ratio (x) = 0.57486 0.50531
# Poissons Ratio (y) = 0.37952 0.02578
# Poissons Ratio (z) = 0.49485 0.03824
#
# Static dielectric constant tensor:
#      x y z
#    x 4.142560 0.247460 -0.053830 
#    y 0.247460 5.094390 -0.461460 
#    z -0.053830 -0.461460 4.274930 
# 
# 
# High freq. dielectric constant tensor:
#      x y z
#    x 1.839770 -0.018010 0.003920 
#    y -0.018010 1.854760 0.002100 
#    z 0.003920 0.002100 1.858400 
# 
# From -- ./inp_files/52362.got.cif
#   From: 2010.06.25/outbox.cif.g09.slc.cpg/sg2_27_cif.got.tgz:52362.got - 2010.06.27 13:26:56.
