data_PCOD8020462
_publ_section_title
;
Structure prediction by ZEFSAII (Michael W. Deem and Ramdas Pophale) SiO2 
 PCOD8020462
Probable space group: P -1
;
_chemical_formula_sum "Si O2"
_cell_formula_units_Z 16
_cell_length_a 6.925367
_cell_length_b 18.176123
_cell_length_c 9.802754
_cell_angle_alpha 114.440481
_cell_angle_beta 130.586143
_cell_angle_gamma 57.646849
_cell_volume 787.469076
_symmetry_space_group_name_H-M "P -1"
_symmetry_group_IT_number 2
_symmetry_cell_setting 'triclinic'
loop_
_space_group_symop_operation_xyz
x,y,z
-x,-y,-z
loop_
_atom_site_type_symbol
_atom_site_label
_atom_site_fract_x
_atom_site_fract_y
_atom_site_fract_z
Si Si1 0.443759 0.767468 0.642942
Si Si2 0.841387 0.953667 0.979913
Si Si3 0.189606 0.520272 0.207883
Si Si4 0.958306 0.248664 0.074690
Si Si5 0.302765 0.655501 0.717107
Si Si6 0.762256 0.029740 0.297735
Si Si7 0.917001 0.572543 0.402872
Si Si8 0.310630 0.675016 0.264717
O O1 0.769517 0.734844 0.751729
O O2 0.377683 0.719467 0.703319
O O3 0.302481 0.869708 0.687824
O O4 0.333048 0.746329 0.433826
O O5 0.003543 0.850525 0.957125
O O6 0.523658 0.981835 0.802524
O O7 0.867998 0.975385 0.166751
O O8 0.000000 0.000000 0.000000
O O9 0.489734 0.444575 0.280836
O O10 0.196773 0.614136 0.252370
O O11 0.055819 0.520564 0.292006
O O12 0.000000 0.500000 0.000000
O O13 0.714255 0.309817 0.108830
O O14 0.899241 0.272499 0.907873
O O15 0.011166 0.652671 0.538590
O O16 0.000000 0.000000 0.500000
O O17 0.589704 0.615882 0.271441
O O18 0.000000 0.500000 0.500000
#
# Coordination Sequence:
#
# PCOD8020462 Si02
#       8
#     2   2   2   2   2   2   2   2
#     4  11  23  43  65  91 129 163 207 264 311 371
#     4  10  22  44  66  96 134 165 208 263 323 387
#     4  12  26  40  62  90 123 170 213 257 311 370
#     4  11  25  41  66  95 124 166 209 261 314 372
#     4  12  23  41  62  89 125 165 212 255 314 365
#     4  10  22  42  68  97 128 168 210 260 323 386
#     4  12  24  41  62  87 123 169 210 258 313 364
#     4  12  24  42  63  91 129 163 215 260 308 374
#
# _framework density 20.318258
#
# number of rings (size 3 to 8) (size 9 to 14) (size 15 to 20)
#    0.000    0.750    3.750    4.125    1.750    1.500 
#    2.250    0.000    0.000    0.000    0.000    0.000 
#    0.000    0.000    0.000    0.000    0.000    0.000 
#
# Total GULP energy -198437.979819 kJ/mol
# GULP energy per Si atom -12402.373739 kJ/mol
# Density = 2.027201 g / cm^3
# Si number density = 20.318258 Si / 1000 Ang^3
#
#
#
# Elastic Constant Matrix: (Units=GPa)
#
#
# Indices 1 2 3 4 5 6 
#
# 1 111.1559 41.6778 38.2946 10.0358 -12.6737 18.0370
# 2 41.6778 65.3385 24.0759 6.3104 0.4936 16.5788
# 3 38.2946 24.0759 127.9402 7.8634 -8.7519 5.5234
# 4 10.0358 6.3104 7.8634 36.3362 -1.3107 -2.6819
# 5 -12.6737 0.4936 -8.7519 -1.3107 37.1089 5.3350
# 6 18.0370 16.5788 5.5234 -2.6819 5.3350 37.7021
#
#
#
# Elastic Compliance Matrix: (Units=1/GPa)
#
#
# Indices 1 2 3 4 5 6 
#
# 1 0.013673 -0.006687 -0.002192 -0.002273 0.004753 -0.004114
# 2 -0.006687 0.022024 -0.001906 -0.002092 -0.002232 -0.006039
# 3 -0.002192 -0.001906 0.008964 -0.000932 0.001312 0.000322
# 4 -0.002273 -0.002092 -0.000932 0.029010 -0.000560 0.004287
# 5 0.004753 -0.002232 0.001312 -0.000560 0.029714 -0.005729
# 6 -0.004114 -0.006039 0.000322 0.004287 -0.005729 0.032216
#
#
# Mechanical properties :
#
#
# Convention : Reuss Voigt Hill
#
# Bulk Modulus (GPa) = 43.30605 56.94792 50.12699
# Shear Modulus (GPa) = 30.32715 35.58853 32.95784
#
# Velocity S-wave (km/s) = 3.86762 4.18970 4.03187
# Velocity P-wave (km/s) = 6.42688 7.17590 6.81169
#
# Compressibility (1/GPa) = 0.02309146
#
# Stress axis : x y z
#
# Youngs Moduli (GPa) = 73.13440 45.40509 111.55582
#
# Poissons Ratio (x) = 0.30361 0.24452
# Poissons Ratio (y) = 0.48903 0.21267
# Poissons Ratio (z) = 0.16030 0.08656
#
# Static dielectric constant tensor:
#      x y z
#    x 3.831200 -0.058440 0.144030 
#    y -0.058440 3.894730 0.172300 
#    z 0.144030 0.172300 3.819140 
# 
# 
# High freq. dielectric constant tensor:
#      x y z
#    x 1.805780 0.001650 0.000260 
#    y 0.001650 1.796490 0.013920 
#    z 0.000260 0.013920 1.805700 
# 
# From -- ./inp_files/46969.got.cif
#   From: 2010.06.25/outbox.cif.g09.slc.cpg/sg2_24_cif.got.tgz:46969.got - 2010.06.27 13:26:56.
