data_PCOD8020424
_publ_section_title
;
Structure prediction by ZEFSAII (Michael W. Deem and Ramdas Pophale) SiO2 
 PCOD8020424
Probable space group: P -1
;
_chemical_formula_sum "Si O2"
_cell_formula_units_Z 16
_cell_length_a 21.166421
_cell_length_b 9.022319
_cell_length_c 8.068664
_cell_angle_alpha 98.362297
_cell_angle_beta 115.139237
_cell_angle_gamma 134.713877
_cell_volume 716.855484
_symmetry_space_group_name_H-M "P -1"
_symmetry_group_IT_number 2
_symmetry_cell_setting 'triclinic'
loop_
_space_group_symop_operation_xyz
x,y,z
-x,-y,-z
loop_
_atom_site_type_symbol
_atom_site_label
_atom_site_fract_x
_atom_site_fract_y
_atom_site_fract_z
Si Si1 0.629272 0.875567 0.021580
Si Si2 0.633326 0.116933 0.533470
Si Si3 0.386420 0.830291 0.098751
Si Si4 0.910328 0.733684 0.965284
Si Si5 0.137874 0.189294 0.750516
Si Si6 0.363062 0.201545 0.608589
Si Si7 0.086744 0.799242 0.105703
Si Si8 0.884271 0.182669 0.241415
O O1 0.487707 0.539000 0.774098
O O2 0.616045 0.028819 0.998888
O O3 0.668809 0.912083 0.259880
O O4 0.745878 0.022790 0.057699
O O5 0.626928 0.153209 0.721981
O O6 0.528194 0.003103 0.272583
O O7 0.607233 0.892220 0.478157
O O8 0.781806 0.426198 0.677617
O O9 0.267571 0.498856 0.852259
O O10 0.850214 0.728064 0.038001
O O11 0.014614 0.793577 0.136795
O O12 0.000000 0.000000 0.000000
O O13 0.137996 0.009286 0.706692
O O14 0.000000 0.000000 0.500000
O O15 0.238388 0.065495 0.378244
O O16 0.079811 0.808961 0.901068
O O17 0.000000 0.500000 0.000000
O O18 0.000000 0.500000 0.500000
#
# Coordination Sequence:
#
# PCOD8020424 Si02
#       8
#     2   2   2   2   2   2   2   2
#     4  11  26  43  65 100 134 175 225 277 333 400
#     4  10  22  42  68  93 131 174 223 278 323 403
#     4  10  23  43  68  97 128 173 227 271 338 391
#     4  11  24  43  65  99 133 175 224 269 335 391
#     4  11  25  42  66  98 136 175 217 277 329 398
#     4  11  25  44  66  96 136 176 225 274 334 396
#     4  12  25  43  71  98 136 181 222 278 329 402
#     4  12  26  44  71  99 136 176 223 278 337 400
#
# _framework density 22.319700999999998
#
# number of rings (size 3 to 8) (size 9 to 14) (size 15 to 20)
#    0.000    1.000    2.500    3.000    7.000    4.500 
#    0.000    0.000    0.000    0.000    0.000    0.000 
#    0.000    0.000    0.000    0.000    0.000    0.000 
#
# Total GULP energy -198330.193388 kJ/mol
# GULP energy per Si atom -12395.637087 kJ/mol
# Density = 2.226890 g / cm^3
# Si number density = 22.319701 Si / 1000 Ang^3
#
#
#
# Elastic Constant Matrix: (Units=GPa)
#
#
# Indices 1 2 3 4 5 6 
#
# 1 91.2549 28.6303 36.8111 17.2042 25.4549 -26.2486
# 2 28.6303 139.6246 55.4017 29.0342 8.8940 -30.0555
# 3 36.8111 55.4017 142.7257 23.7003 23.9270 -15.4621
# 4 17.2042 29.0342 23.7003 31.5805 -2.4787 -2.5454
# 5 25.4549 8.8940 23.9270 -2.4787 40.9634 -1.4438
# 6 -26.2486 -30.0555 -15.4621 -2.5454 -1.4438 46.2948
#
#
#
# Elastic Compliance Matrix: (Units=1/GPa)
#
#
# Indices 1 2 3 4 5 6 
#
# 1 0.019559 0.001888 -0.000432 -0.012164 -0.012656 0.011107
# 2 0.001888 0.011264 -0.002057 -0.009484 -0.002741 0.007089
# 3 -0.000432 -0.002057 0.009879 -0.005607 -0.005351 0.001244
# 4 -0.012164 -0.009484 -0.005607 0.051508 0.015601 -0.011609
# 5 -0.012656 -0.002741 -0.005351 0.015601 0.036633 -0.008742
# 6 0.011107 0.007089 0.001244 -0.011609 -0.008742 0.032005
#
#
# Mechanical properties :
#
#
# Convention : Reuss Voigt Hill
#
# Bulk Modulus (GPa) = 25.31701 68.36573 46.84137
# Shear Modulus (GPa) = 28.53584 40.61855 34.57719
#
# Velocity S-wave (km/s) = 3.57950 4.27060 3.94023
# Velocity P-wave (km/s) = 5.33397 7.41715 6.46008
#
# Compressibility (1/GPa) = 0.03949913
#
# Stress axis : x y z
#
# Youngs Moduli (GPa) = 51.12740 88.77916 101.22264
#
# Poissons Ratio (x) = -0.16757 0.04376
# Poissons Ratio (y) = -0.09650 0.20818
# Poissons Ratio (z) = 0.02210 0.18259
#
# Static dielectric constant tensor:
#      x y z
#    x 3.902440 -0.339170 0.018490 
#    y -0.339170 4.061240 0.343780 
#    z 0.018490 0.343780 4.280850 
# 
# 
# High freq. dielectric constant tensor:
#      x y z
#    x 1.886810 -0.010350 0.009190 
#    y -0.010350 1.884380 0.018530 
#    z 0.009190 0.018530 1.886110 
# 
# From -- ./inp_files/223210.got.cif
#   From: 2010.06.25/outbox.cif.g09.slc.cpg/sg2_112_cif.got.tgz:223210.got - 2010.06.27 13:26:56.
