data_PCOD8020357
_publ_section_title
;
Structure prediction by ZEFSAII (Michael W. Deem and Ramdas Pophale) SiO2 
 PCOD8020357
Probable space group: P -1
;
_chemical_formula_sum "Si O2"
_cell_formula_units_Z 16
_cell_length_a 9.709340
_cell_length_b 16.121071
_cell_length_c 22.173243
_cell_angle_alpha 161.172228
_cell_angle_beta 136.330653
_cell_angle_gamma 40.695319
_cell_volume 730.056185
_symmetry_space_group_name_H-M "P -1"
_symmetry_group_IT_number 2
_symmetry_cell_setting 'triclinic'
loop_
_space_group_symop_operation_xyz
x,y,z
-x,-y,-z
loop_
_atom_site_type_symbol
_atom_site_label
_atom_site_fract_x
_atom_site_fract_y
_atom_site_fract_z
Si Si1 0.346492 0.983068 0.992764
Si Si2 0.845166 0.556160 0.081213
Si Si3 0.606354 0.003224 0.757544
Si Si4 0.794145 0.547982 0.422742
Si Si5 0.892413 0.347065 0.083455
Si Si6 0.480104 0.811050 0.699179
Si Si7 0.999421 0.119016 0.733082
Si Si8 0.271889 0.230081 0.580128
O O1 0.472229 0.011870 0.110944
O O2 0.134864 0.240565 0.106151
O O3 0.500000 0.000000 0.000000
O O4 0.285422 0.710203 0.782188
O O5 0.602746 0.740268 0.127284
O O6 0.892963 0.507005 0.132369
O O7 0.012042 0.686983 0.194972
O O8 0.875691 0.280443 0.863557
O O9 0.601978 0.798850 0.561402
O O10 0.638710 0.823827 0.704859
O O11 0.809074 0.095021 0.872806
O O12 0.812806 0.644819 0.426550
O O13 0.000000 0.500000 0.500000
O O14 0.740815 0.524497 0.209578
O O15 0.500000 0.500000 0.500000
O O16 0.241779 0.972229 0.720223
O O17 0.893692 0.896494 0.530299
O O18 0.500000 0.000000 0.500000
#
# Coordination Sequence:
#
# PCOD8020357 Si02
#       8
#     2   2   2   2   2   2   2   2
#     4  12  27  43  68 105 138 184 236 287 348 425
#     4  10  22  42  67  97 130 182 231 280 352 418
#     4  11  23  42  69  96 131 183 229 279 353 419
#     4  12  27  46  71 100 145 187 230 293 355 416
#     4  12  24  41  68  98 139 178 229 294 342 418
#     4  11  24  42  69 100 139 180 233 287 353 419
#     4  10  23  43  70  96 139 183 225 290 354 420
#     4  12  27  44  71 104 139 182 238 292 351 420
#
# _framework density 21.916122000000001
#
# number of rings (size 3 to 8) (size 9 to 14) (size 15 to 20)
#    0.000    0.750    1.250    5.625    5.250    5.500 
#    0.000    0.000    0.000    0.000    0.000    0.000 
#    0.000    0.000    0.000    0.000    0.000    0.000 
#
# Total GULP energy -198321.918801 kJ/mol
# GULP energy per Si atom -12395.119925 kJ/mol
# Density = 2.186624 g / cm^3
# Si number density = 21.916122 Si / 1000 Ang^3
#
#
#
# Elastic Constant Matrix: (Units=GPa)
#
#
# Indices 1 2 3 4 5 6 
#
# 1 122.5280 42.5415 44.0000 1.3159 -2.6487 18.2525
# 2 42.5415 88.7055 29.9609 1.6767 9.6747 15.1076
# 3 44.0000 29.9609 131.9501 -3.1905 4.2151 12.8618
# 4 1.3159 1.6767 -3.1905 33.0410 -3.2174 -3.0638
# 5 -2.6487 9.6747 4.2151 -3.2174 51.4345 -0.2230
# 6 18.2525 15.1076 12.8618 -3.0638 -0.2230 46.1419
#
#
#
# Elastic Compliance Matrix: (Units=1/GPa)
#
#
# Indices 1 2 3 4 5 6 
#
# 1 0.010881 -0.004130 -0.002530 -0.000533 0.001501 -0.002275
# 2 -0.004130 0.014617 -0.001606 -0.001277 -0.002922 -0.002803
# 3 -0.002530 -0.001606 0.008913 0.000910 -0.000506 -0.000900
# 4 -0.000533 -0.001277 0.000910 0.030868 0.002080 0.002435
# 5 0.001501 -0.002922 -0.000506 0.002080 0.020244 0.000740
# 6 -0.002275 -0.002803 -0.000900 0.002435 0.000740 0.023906
#
#
# Mechanical properties :
#
#
# Convention : Reuss Voigt Hill
#
# Bulk Modulus (GPa) = 55.93190 64.02091 59.97640
# Shear Modulus (GPa) = 37.90215 41.23556 39.56886
#
# Velocity S-wave (km/s) = 4.16314 4.34235 4.25369
# Velocity P-wave (km/s) = 6.97748 7.37676 7.17990
#
# Compressibility (1/GPa) = 0.01787888
#
# Stress axis : x y z
#
# Youngs Moduli (GPa) = 91.90508 68.41508 112.19979
#
# Poissons Ratio (x) = 0.28256 0.28382
# Poissons Ratio (y) = 0.37957 0.18019
# Poissons Ratio (z) = 0.23248 0.10987
#
# Static dielectric constant tensor:
#      x y z
#    x 4.083700 0.075540 -0.004050 
#    y 0.075540 4.011750 0.026110 
#    z -0.004050 0.026110 4.208290 
# 
# 
# High freq. dielectric constant tensor:
#      x y z
#    x 1.881300 0.001520 -0.003600 
#    y 0.001520 1.861580 0.010890 
#    z -0.003600 0.010890 1.876820 
# 
# From -- ./inp_files/184819.got.cif
#   From: 2010.06.25/outbox.cif.g09.slc.cpg/sg2_93_cif.got.tgz:184819.got - 2010.06.27 13:26:56.
