data_PCOD8020051
_publ_section_title
;
Structure prediction by ZEFSAII (Michael W. Deem and Ramdas Pophale) SiO2 
 PCOD8020051
Probable space group: P -1
;
_chemical_formula_sum "Si O2"
_cell_formula_units_Z 14
_cell_length_a 13.766837
_cell_length_b 11.472617
_cell_length_c 7.650302
_cell_angle_alpha 112.597788
_cell_angle_beta 73.211800
_cell_angle_gamma 148.272460
_cell_volume 584.837948
_symmetry_space_group_name_H-M "P -1"
_symmetry_group_IT_number 2
_symmetry_cell_setting 'triclinic'
loop_
_space_group_symop_operation_xyz
x,y,z
-x,-y,-z
loop_
_atom_site_type_symbol
_atom_site_label
_atom_site_fract_x
_atom_site_fract_y
_atom_site_fract_z
Si Si1 0.281950 0.389514 0.593609
Si Si2 0.871204 0.005912 0.698737
Si Si3 0.293710 0.667206 0.568743
Si Si4 0.893080 0.196071 0.474180
Si Si5 0.569240 0.445148 0.025939
Si Si6 0.021881 0.168971 0.068424
Si Si7 0.559181 0.929758 0.278654
O O1 0.336244 0.576354 0.580664
O O2 0.428785 0.522414 0.750306
O O3 0.079650 0.176242 0.658984
O O4 0.278830 0.265824 0.392343
O O5 0.817913 0.054060 0.609698
O O6 0.881692 0.071066 0.929766
O O7 0.365507 0.735852 0.371315
O O8 0.073854 0.469193 0.578051
O O9 0.399989 0.894885 0.743421
O O10 0.724754 0.101623 0.435071
O O11 0.963253 0.165131 0.281440
O O12 0.761755 0.584922 0.940688
O O13 0.500000 0.500000 0.000000
O O14 0.428193 0.181478 0.912446
O O15 0.000000 0.000000 0.000000
#
# Coordination Sequence:
#
# PCOD8020051 Si02
#       7
#     2   2   2   2   2   2   2
#     4   9  18  37  60  85 126 164 197 259 311 354
#     4   9  19  35  62  93 121 159 213 249 304 386
#     4  10  22  42  65  85 124 172 203 253 308 363
#     4  11  21  42  65  90 125 166 205 258 313 362
#     4  11  22  38  60  95 126 155 209 261 306 377
#     4  11  20  35  63  87 127 169 192 252 321 360
#     4  11  23  40  63  94 121 160 218 249 302 380
#
# _framework density 23.938254000000001
#
# number of rings (size 3 to 8) (size 9 to 14) (size 15 to 20)
#    0.000    1.714    1.429    5.571    0.000    0.571 
#    5.143    1.429    0.000    3.429    0.000    0.000 
#    0.000    0.000    0.000    0.000    0.000    0.000 
#
# Total GULP energy -173464.347362 kJ/mol
# GULP energy per Si atom -12390.310526 kJ/mol
# Density = 2.388377 g / cm^3
# Si number density = 23.938254 Si / 1000 Ang^3
#
#
#
# Elastic Constant Matrix: (Units=GPa)
#
#
# Indices 1 2 3 4 5 6 
#
# 1 71.3797 46.1852 23.8264 12.6011 8.7003 -17.9839
# 2 46.1852 108.0354 38.1125 18.1061 -3.9124 -40.2900
# 3 23.8264 38.1125 91.0710 21.3753 13.7358 -20.2533
# 4 12.6011 18.1061 21.3753 37.0313 -5.8330 -13.0089
# 5 8.7003 -3.9124 13.7358 -5.8330 38.6524 1.0619
# 6 -17.9839 -40.2900 -20.2533 -13.0089 1.0619 41.3497
#
#
#
# Elastic Compliance Matrix: (Units=1/GPa)
#
#
# Indices 1 2 3 4 5 6 
#
# 1 0.020985 -0.008660 -0.000107 -0.003973 -0.006149 -0.000456
# 2 -0.008660 0.019305 -0.003904 0.001275 0.005115 0.013401
# 3 -0.000107 -0.003904 0.015946 -0.007810 -0.007263 0.001690
# 4 -0.003973 0.001275 -0.007810 0.036056 0.009053 0.006799
# 5 -0.006149 0.005115 -0.007263 0.009053 0.031699 0.000786
# 6 -0.000456 0.013401 0.001690 0.006799 0.000786 0.039990
#
#
# Mechanical properties :
#
#
# Convention : Reuss Voigt Hill
#
# Bulk Modulus (GPa) = 32.36846 54.08159 43.22502
# Shear Modulus (GPa) = 25.04753 34.23082 29.63918
#
# Velocity S-wave (km/s) = 3.23823 3.78559 3.52255
# Velocity P-wave (km/s) = 5.24714 6.46133 5.88563
#
# Compressibility (1/GPa) = 0.03089427
#
# Stress axis : x y z
#
# Youngs Moduli (GPa) = 47.65370 51.80055 62.71002
#
# Poissons Ratio (x) = 0.44859 0.00674
# Poissons Ratio (y) = 0.41268 0.24479
# Poissons Ratio (z) = 0.00512 0.20220
#
# Static dielectric constant tensor:
#      x y z
#    x 4.010930 -0.139360 0.300680 
#    y -0.139360 4.498550 0.043310 
#    z 0.300680 0.043310 4.951660 
# 
# 
# High freq. dielectric constant tensor:
#      x y z
#    x 1.934450 0.004540 0.004290 
#    y 0.004540 1.965290 0.015160 
#    z 0.004290 0.015160 1.934790 
# 
# From -- ./inp_files/308005.got.cif
#   From: 2010.06.25/outbox.cif.g09.slc.cpg/sg2_155_cif.got.tgz:308005.got - 2010.06.27 13:26:56.
