data_PCOD8020372
_publ_section_title
;
Structure prediction by ZEFSAII (Michael W. Deem and Ramdas Pophale) SiO2 
 PCOD8020372
Probable space group: P -1
;
_chemical_formula_sum "Si O2"
_cell_formula_units_Z 14
_cell_length_a 17.093530
_cell_length_b 7.046628
_cell_length_c 11.345491
_cell_angle_alpha 52.322224
_cell_angle_beta 128.009429
_cell_angle_gamma 143.532900
_cell_volume 620.030252
_symmetry_space_group_name_H-M "P -1"
_symmetry_group_IT_number 2
_symmetry_cell_setting 'triclinic'
loop_
_space_group_symop_operation_xyz
x,y,z
-x,-y,-z
loop_
_atom_site_type_symbol
_atom_site_label
_atom_site_fract_x
_atom_site_fract_y
_atom_site_fract_z
Si Si1 0.838939 0.513763 0.180768
Si Si2 0.272005 0.581275 0.140625
Si Si3 0.932130 0.479460 0.668244
Si Si4 0.510451 0.705623 0.827927
Si Si5 0.707656 0.270135 0.384607
Si Si6 0.998807 0.774279 0.854397
Si Si7 0.345637 0.189793 0.309314
O O1 0.726862 0.238726 0.276251
O O2 0.965570 0.541009 0.288053
O O3 0.766512 0.386758 0.036197
O O4 0.880059 0.856985 0.122954
O O5 0.137560 0.321455 0.192006
O O6 0.356303 0.477675 0.253173
O O7 0.367868 0.919536 0.168743
O O8 0.861741 0.530301 0.483712
O O9 0.006152 0.776144 0.718291
O O10 0.810685 0.128743 0.755347
O O11 0.365361 0.595552 0.720291
O O12 0.546657 0.652349 0.756059
O O13 0.500000 0.500000 0.000000
O O14 0.617112 0.920944 0.502703
O O15 0.000000 0.500000 0.000000
#
# Coordination Sequence:
#
# PCOD8020372 Si02
#       7
#     2   2   2   2   2   2   2
#     4  12  24  41  69 106 140 173 227 276 343 408
#     4  12  24  42  71 101 135 180 228 284 337 399
#     4  10  22  42  67  98 135 177 219 279 338 398
#     4  12  27  47  71  99 134 181 238 282 333 403
#     4  10  25  45  67  99 141 181 226 280 336 410
#     4  12  22  38  69 103 137 179 221 277 340 400
#     4  10  23  45  68  96 136 178 225 277 339 399
#
# _framework density 22.579543999999999
#
# number of rings (size 3 to 8) (size 9 to 14) (size 15 to 20)
#    0.857    0.000    4.286    3.000    2.000    3.429 
#    0.000    7.143    0.000    0.000    0.000    0.000 
#    0.000    0.000    0.000    0.000    0.000    0.000 
#
# Total GULP energy -173553.648362 kJ/mol
# GULP energy per Si atom -12396.689169 kJ/mol
# Density = 2.252815 g / cm^3
# Si number density = 22.579544 Si / 1000 Ang^3
#
#
#
# Elastic Constant Matrix: (Units=GPa)
#
#
# Indices 1 2 3 4 5 6 
#
# 1 163.1977 -5.7716 52.0293 -20.9662 -3.7194 -2.0694
# 2 -5.7716 24.9039 5.0657 1.1493 -9.7616 -6.7587
# 3 52.0293 5.0657 116.9704 -19.2542 12.4181 0.4964
# 4 -20.9662 1.1493 -19.2542 23.5214 3.9139 -4.7725
# 5 -3.7194 -9.7616 12.4181 3.9139 42.8421 1.0311
# 6 -2.0694 -6.7587 0.4964 -4.7725 1.0311 21.7898
#
#
#
# Elastic Compliance Matrix: (Units=1/GPa)
#
#
# Indices 1 2 3 4 5 6 
#
# 1 0.007944 0.003856 -0.003176 0.004553 0.002003 0.002925
# 2 0.003856 0.052004 -0.006040 -0.003259 0.013865 0.015264
# 3 -0.003176 -0.006040 0.012242 0.008410 -0.005961 -0.000330
# 4 0.004553 -0.003259 0.008410 0.057481 -0.008330 0.012214
# 5 0.002003 0.013865 -0.005961 -0.008330 0.029129 0.001424
# 6 0.002925 0.015264 -0.000330 0.012214 0.001424 0.053521
#
#
# Mechanical properties :
#
#
# Convention : Reuss Voigt Hill
#
# Bulk Modulus (GPa) = 16.26833 45.30210 30.78521
# Shear Modulus (GPa) = 20.53112 34.54724 27.53918
#
# Velocity S-wave (km/s) = 3.01870 3.91580 3.49614
# Velocity P-wave (km/s) = 4.40120 6.36801 5.47367
#
# Compressibility (1/GPa) = 0.06146914
#
# Stress axis : x y z
#
# Youngs Moduli (GPa) = 125.87845 19.22915 81.68500
#
# Poissons Ratio (x) = -0.07414 0.25944
# Poissons Ratio (y) = -0.48537 0.49342
# Poissons Ratio (z) = 0.39981 0.11615
#
# Static dielectric constant tensor:
#      x y z
#    x 4.226690 -0.030690 -0.044360 
#    y -0.030690 3.921640 -0.084680 
#    z -0.044360 -0.084680 4.150580 
# 
# 
# High freq. dielectric constant tensor:
#      x y z
#    x 1.905690 -0.007670 0.000090 
#    y -0.007670 1.866660 0.001730 
#    z 0.000090 0.001730 1.894170 
# 
# From -- ./inp_files/75285.got.cif
#   From: 2010.06.25/outbox.cif.g09.slc.cpg/sg2_38_cif.got.tgz:75285.got - 2010.06.27 13:26:56.
