data_PCOD8020297
_publ_section_title
;
Structure prediction by ZEFSAII (Michael W. Deem and Ramdas Pophale) SiO2 
 PCOD8020297
Probable space group: P -1
;
_chemical_formula_sum "Si O2"
_cell_formula_units_Z 16
_cell_length_a 25.045270
_cell_length_b 17.139079
_cell_length_c 24.521432
_cell_angle_alpha 20.537350
_cell_angle_beta 168.202845
_cell_angle_gamma 160.263948
_cell_volume 709.184099
_symmetry_space_group_name_H-M "P -1"
_symmetry_group_IT_number 2
_symmetry_cell_setting 'triclinic'
loop_
_space_group_symop_operation_xyz
x,y,z
-x,-y,-z
loop_
_atom_site_type_symbol
_atom_site_label
_atom_site_fract_x
_atom_site_fract_y
_atom_site_fract_z
Si Si1 0.978853 0.410272 0.100158
Si Si2 0.064156 0.220897 0.882127
Si Si3 0.620885 0.389017 0.382980
Si Si4 0.578746 0.639950 0.595386
Si Si5 0.316292 0.912659 0.662296
Si Si6 0.186321 0.097029 0.764386
Si Si7 0.687598 0.348805 0.274478
Si Si8 0.660394 0.927955 0.590939
O O1 0.249292 0.546461 0.317008
O O2 0.945344 0.132738 0.254722
O O3 0.712731 0.445202 0.839556
O O4 0.000000 0.500000 0.000000
O O5 0.891664 0.380878 0.627602
O O6 0.965276 0.108126 0.797008
O O7 0.392748 0.361100 0.125055
O O8 0.000000 0.000000 0.000000
O O9 0.666673 0.649758 0.284867
O O10 0.527553 0.186399 0.469202
O O11 0.661690 0.712649 0.693888
O O12 0.713805 0.868076 0.544163
O O13 0.309255 0.697490 0.756683
O O14 0.049926 0.837675 0.482950
O O15 0.602608 0.983161 0.935150
O O16 0.000000 0.500000 0.500000
O O17 0.546562 0.100894 0.328209
O O18 0.500000 0.500000 0.000000
#
# Coordination Sequence:
#
# PCOD8020297 Si02
#       8
#     2   2   2   2   2   2   2   2
#     4  12  22  41  67  95 127 164 216 266 330 384
#     4  10  22  42  67  93 124 174 221 252 309 375
#     4  11  25  43  65  96 128 177 213 264 311 379
#     4  11  23  41  67  95 125 170 209 270 329 380
#     4  11  22  40  60  93 127 167 206 270 317 375
#     4  12  24  39  66  92 130 159 220 264 317 375
#     4  11  26  40  61  92 129 169 210 257 321 376
#     4  10  25  45  66  93 136 168 218 259 321 386
#
# _framework density 22.561136999999999
#
# number of rings (size 3 to 8) (size 9 to 14) (size 15 to 20)
#    0.000    1.000    2.500    4.125    5.250    8.000 
#    0.000    1.250    0.000    0.000    0.000    0.000 
#    0.000    0.000    0.000    0.000    0.000    0.000 
#
# Total GULP energy -198286.194852 kJ/mol
# GULP energy per Si atom -12392.887178 kJ/mol
# Density = 2.250979 g / cm^3
# Si number density = 22.561137 Si / 1000 Ang^3
#
#
#
# Elastic Constant Matrix: (Units=GPa)
#
#
# Indices 1 2 3 4 5 6 
#
# 1 82.0144 20.7263 32.0286 -7.8275 0.6839 -16.9737
# 2 20.7263 114.4648 25.2907 -15.9267 2.9127 -21.9818
# 3 32.0286 25.2907 133.4403 -5.3683 20.3146 -11.1753
# 4 -7.8275 -15.9267 -5.3683 37.5716 -4.0805 -0.9900
# 5 0.6839 2.9127 20.3146 -4.0805 21.7732 -7.2479
# 6 -16.9737 -21.9818 -11.1753 -0.9900 -7.2479 41.3078
#
#
#
# Elastic Compliance Matrix: (Units=1/GPa)
#
#
# Indices 1 2 3 4 5 6 
#
# 1 0.015332 -0.000450 -0.003835 0.003247 0.005802 0.006119
# 2 -0.000450 0.010898 -0.001738 0.004755 0.002994 0.005784
# 3 -0.003835 -0.001738 0.010054 -0.001199 -0.009759 -0.001522
# 4 0.003247 0.004755 -0.001199 0.030145 0.007911 0.005651
# 5 0.005802 0.002994 -0.009759 0.007911 0.059942 0.012045
# 6 0.006119 0.005784 -0.001522 0.005651 0.012045 0.031638
#
#
# Mechanical properties :
#
#
# Convention : Reuss Voigt Hill
#
# Bulk Modulus (GPa) = 41.25549 54.00117 47.62833
# Shear Modulus (GPa) = 28.06887 36.92211 32.49549
#
# Velocity S-wave (km/s) = 3.53104 4.04980 3.79929
# Velocity P-wave (km/s) = 5.91186 6.77165 6.35631
#
# Compressibility (1/GPa) = 0.02423920
#
# Stress axis : x y z
#
# Youngs Moduli (GPa) = 65.22193 91.76158 99.46496
#
# Poissons Ratio (x) = 0.04125 0.38146
# Poissons Ratio (y) = 0.02932 0.17284
# Poissons Ratio (z) = 0.25013 0.15945
#
# Static dielectric constant tensor:
#      x y z
#    x 3.912560 -0.284200 -1.018110 
#    y -0.284200 5.371600 2.521100 
#    z -1.018110 2.521100 9.700450 
# 
# 
# High freq. dielectric constant tensor:
#      x y z
#    x 1.859060 -0.005440 -0.000580 
#    y -0.005440 1.912330 -0.004890 
#    z -0.000580 -0.004890 1.895280 
# 
# From -- ./inp_files/621351.got.cif
#   From: 2010.06.25/outbox.cif.g09.slc.cpg/sg2_311_cif.got.tgz:621351.got - 2010.06.27 13:26:56.
