data_PCOD8020990
_publ_section_title
;
Structure prediction by ZEFSAII (Michael W. Deem and Ramdas Pophale) SiO2 
 PCOD8020990
Probable space group: P -1
;
_chemical_formula_sum "Si O2"
_cell_formula_units_Z 16
_cell_length_a 8.688661
_cell_length_b 12.656600
_cell_length_c 11.871532
_cell_angle_alpha 105.442528
_cell_angle_beta 52.754960
_cell_angle_gamma 132.105961
_cell_volume 749.197170
_symmetry_space_group_name_H-M "P -1"
_symmetry_group_IT_number 2
_symmetry_cell_setting 'triclinic'
loop_
_space_group_symop_operation_xyz
x,y,z
-x,-y,-z
loop_
_atom_site_type_symbol
_atom_site_label
_atom_site_fract_x
_atom_site_fract_y
_atom_site_fract_z
Si Si1 0.785190 0.083325 0.939967
Si Si2 0.741407 0.607858 0.260606
Si Si3 0.889047 0.173364 0.516060
Si Si4 0.434872 0.432506 0.132122
Si Si5 0.237407 0.489231 0.557078
Si Si6 0.565517 0.115938 0.239942
Si Si7 0.874534 0.314578 0.371662
Si Si8 0.259242 0.150339 0.216939
O O1 0.986443 0.229370 0.820676
O O2 0.856937 0.983483 0.856293
O O3 0.774240 0.114297 0.085098
O O4 0.500000 0.000000 0.000000
O O5 0.656681 0.547824 0.154743
O O6 0.531219 0.605020 0.415478
O O7 0.771939 0.513174 0.302180
O O8 0.738856 0.196517 0.500206
O O9 0.099380 0.325497 0.531927
O O10 0.030225 0.123740 0.379317
O O11 0.677196 0.046999 0.658794
O O12 0.410432 0.291984 0.109124
O O13 0.167143 0.385141 0.272494
O O14 0.500000 0.500000 0.000000
O O15 0.104882 0.547416 0.582296
O O16 0.721806 0.231499 0.302798
O O17 0.461277 0.171958 0.220196
#
# Coordination Sequence:
#
# PCOD8020990 Si02
#       8
#     2   2   2   2   2   2   2   2
#     4  10  23  43  64  97 127 164 219 272 325 383
#     4  11  23  42  69  96 128 170 224 267 324 387
#     4  11  23  42  64  98 132 168 220 272 327 382
#     4  11  24  44  64  94 138 173 216 267 331 395
#     4  11  23  41  69  98 129 170 225 272 320 385
#     4  11  23  41  67  93 131 171 221 268 324 389
#     4  11  24  40  61  98 134 170 217 269 330 386
#     4  10  22  43  66  94 126 171 222 267 323 386
#
# _framework density 21.356193999999999
#
# number of rings (size 3 to 8) (size 9 to 14) (size 15 to 20)
#    0.000    1.250    2.500    4.125    3.500    3.000 
#    0.000    7.500    0.000    0.000    0.000    0.000 
#    0.000    0.000    0.000    0.000    0.000    0.000 
#
# Total GULP energy -198327.051777 kJ/mol
# GULP energy per Si atom -12395.440736 kJ/mol
# Density = 2.130759 g / cm^3
# Si number density = 21.356194 Si / 1000 Ang^3
#
#
#
# Elastic Constant Matrix: (Units=GPa)
#
#
# Indices 1 2 3 4 5 6 
#
# 1 104.7559 43.1334 39.7874 1.2506 13.3570 -25.1855
# 2 43.1334 114.0094 65.5207 -14.8175 -9.2407 -17.5881
# 3 39.7874 65.5207 114.5259 -12.0112 13.7134 -12.9469
# 4 1.2506 -14.8175 -12.0112 34.8229 -4.6246 -1.4366
# 5 13.3570 -9.2407 13.7134 -4.6246 37.2657 -3.3670
# 6 -25.1855 -17.5881 -12.9469 -1.4366 -3.3670 38.0515
#
#
#
# Elastic Compliance Matrix: (Units=1/GPa)
#
#
# Indices 1 2 3 4 5 6 
#
# 1 0.014153 -0.004537 -0.001306 -0.003374 -0.005575 0.006206
# 2 -0.004537 0.017655 -0.008732 0.006166 0.010283 0.003329
# 3 -0.001306 -0.008732 0.015057 0.000552 -0.007205 -0.000394
# 4 -0.003374 0.006166 0.000552 0.032668 0.006828 0.002642
# 5 -0.005575 0.010283 -0.007205 0.006828 0.035060 0.001971
# 6 0.006206 0.003329 -0.000394 0.002642 0.001971 0.032066
#
#
# Mechanical properties :
#
#
# Convention : Reuss Voigt Hill
#
# Bulk Modulus (GPa) = 56.45194 70.01939 63.23566
# Shear Modulus (GPa) = 27.51568 34.35132 30.93350
#
# Velocity S-wave (km/s) = 3.59335 4.01495 3.80999
# Velocity P-wave (km/s) = 6.61113 7.37230 7.00207
#
# Compressibility (1/GPa) = 0.01771418
#
# Stress axis : x y z
#
# Youngs Moduli (GPa) = 70.65466 56.64233 66.41323
#
# Poissons Ratio (x) = 0.25700 0.08673
# Poissons Ratio (y) = 0.32057 0.57994
# Poissons Ratio (z) = 0.09227 0.49462
#
# Static dielectric constant tensor:
#      x y z
#    x 4.148850 -0.265140 0.452240 
#    y -0.265140 4.071810 -0.024070 
#    z 0.452240 -0.024070 4.501120 
# 
# 
# High freq. dielectric constant tensor:
#      x y z
#    x 1.839860 -0.001580 0.014060 
#    y -0.001580 1.844440 -0.001730 
#    z 0.014060 -0.001730 1.838890 
# 
# From -- ./inp_files/392719.got.cif
#   From: 2010.06.25/outbox.cif.g09.slc.cpg/sg2_197_cif.got.tgz:392719.got - 2010.06.27 13:26:56.
