data_PCOD8020174
_publ_section_title
;
Structure prediction by ZEFSAII (Michael W. Deem and Ramdas Pophale) SiO2 
 PCOD8020174
Probable space group: P -1
;
_chemical_formula_sum "Si O2"
_cell_formula_units_Z 12
_cell_length_a 16.751878
_cell_length_b 9.738174
_cell_length_c 5.047932
_cell_angle_alpha 86.630614
_cell_angle_beta 83.055878
_cell_angle_gamma 144.006763
_cell_volume 462.772095
_symmetry_space_group_name_H-M "P -1"
_symmetry_group_IT_number 2
_symmetry_cell_setting 'triclinic'
loop_
_space_group_symop_operation_xyz
x,y,z
-x,-y,-z
loop_
_atom_site_type_symbol
_atom_site_label
_atom_site_fract_x
_atom_site_fract_y
_atom_site_fract_z
Si Si1 0.714741 0.871335 0.019138
Si Si2 0.841422 0.298589 0.177842
Si Si3 0.342455 0.529638 0.378928
Si Si4 0.161439 0.535435 0.323937
Si Si5 0.491659 0.651136 0.784047
Si Si6 0.903162 0.996493 0.544814
O O1 0.656416 0.870247 0.777964
O O2 0.848596 0.965181 0.864831
O O3 0.576856 0.596065 0.213640
O O4 0.757845 0.036706 0.214631
O O5 0.836943 0.340062 0.476934
O O6 0.776439 0.319988 0.994389
O O7 0.000000 0.500000 0.000000
O O8 0.254803 0.546806 0.412844
O O9 0.469519 0.713093 0.522726
O O10 0.238626 0.251937 0.530214
O O11 0.403317 0.601225 0.055272
O O12 0.998256 0.255228 0.363726
O O13 0.000000 0.000000 0.500000
#
# Coordination Sequence:
#
# PCOD8020174 Si02
#       6
#     2   2   2   2   2   2
#     4  10  23  41  65  96 128 165 215 258 317 376
#     4  12  25  40  64  95 134 168 203 257 321 385
#     4  10  22  42  66  92 127 166 217 260 311 366
#     4  11  24  42  62  97 129 168 210 257 317 380
#     4  10  23  42  67  93 124 168 214 266 305 367
#     4   9  20  38  65  93 126 163 207 265 313 364
#
# _framework density 25.930692000000001
#
# number of rings (size 3 to 8) (size 9 to 14) (size 15 to 20)
#    0.000    1.667    1.667    1.500    2.333    8.667 
#    0.000   11.667    0.000    0.000    0.000    0.000 
#    0.000    0.000    0.000    0.000    0.000    0.000 
#
# Total GULP energy -148723.891689 kJ/mol
# GULP energy per Si atom -12393.657641 kJ/mol
# Density = 2.587167 g / cm^3
# Si number density = 25.930692 Si / 1000 Ang^3
#
#
#
# Elastic Constant Matrix: (Units=GPa)
#
#
# Indices 1 2 3 4 5 6 
#
# 1 86.4693 36.0062 8.5439 17.8986 -12.0989 1.8594
# 2 36.0062 96.2759 16.9899 21.2099 -13.8703 -12.8234
# 3 8.5439 16.9899 74.0244 17.5865 2.0294 -3.3918
# 4 17.8986 21.2099 17.5865 35.9278 9.1921 4.6782
# 5 -12.0989 -13.8703 2.0294 9.1921 29.0511 13.7574
# 6 1.8594 -12.8234 -3.3918 4.6782 13.7574 32.1448
#
#
#
# Elastic Compliance Matrix: (Units=1/GPa)
#
#
# Indices 1 2 3 4 5 6 
#
# 1 0.016242 -0.003654 0.000324 -0.007966 0.010144 -0.005545
# 2 -0.003654 0.015539 -0.000913 -0.009222 0.006589 0.004836
# 3 0.000324 -0.000913 0.015585 -0.007527 -0.000155 0.002423
# 4 -0.007966 -0.009222 -0.007527 0.046557 -0.021092 -0.001761
# 5 0.010144 0.006589 -0.000155 -0.021092 0.057774 -0.019631
# 6 -0.005545 0.004836 0.002423 -0.001761 -0.019631 0.042273
#
#
# Mechanical properties :
#
#
# Convention : Reuss Voigt Hill
#
# Bulk Modulus (GPa) = 25.71902 42.20549 33.96225
# Shear Modulus (GPa) = 23.21109 32.44004 27.82557
#
# Velocity S-wave (km/s) = 2.99510 3.54083 3.27934
# Velocity P-wave (km/s) = 4.67982 5.74702 5.24066
#
# Compressibility (1/GPa) = 0.03888174
#
# Stress axis : x y z
#
# Youngs Moduli (GPa) = 61.57010 64.35230 64.16540
#
# Poissons Ratio (x) = 0.23512 -0.02082
# Poissons Ratio (y) = 0.22495 0.05858
# Poissons Ratio (z) = -0.01998 0.05875
#
# Static dielectric constant tensor:
#      x y z
#    x 4.762810 0.071150 0.104490 
#    y 0.071150 5.096620 0.023020 
#    z 0.104490 0.023020 4.529260 
# 
# 
# High freq. dielectric constant tensor:
#      x y z
#    x 2.044530 0.003910 -0.005160 
#    y 0.003910 2.037410 0.010540 
#    z -0.005160 0.010540 2.024850 
# 
# From -- ./inp_files/62348.got.cif
#   From: 2010.06.25/outbox.cif.g09.slc.cpg/sg2_32_cif.got.tgz:62348.got - 2010.06.27 13:26:56.
