data_PCOD8020269
_publ_section_title
;
Structure prediction by ZEFSAII (Michael W. Deem and Ramdas Pophale) SiO2 
 PCOD8020269
Probable space group: P -1
;
_chemical_formula_sum "Si O2"
_cell_formula_units_Z 14
_cell_length_a 15.868035
_cell_length_b 11.178235
_cell_length_c 10.904058
_cell_angle_alpha 144.683837
_cell_angle_beta 137.375579
_cell_angle_gamma 33.512387
_cell_volume 607.922643
_symmetry_space_group_name_H-M "P -1"
_symmetry_group_IT_number 2
_symmetry_cell_setting 'triclinic'
loop_
_space_group_symop_operation_xyz
x,y,z
-x,-y,-z
loop_
_atom_site_type_symbol
_atom_site_label
_atom_site_fract_x
_atom_site_fract_y
_atom_site_fract_z
Si Si1 0.101091 0.718729 0.762268
Si Si2 0.354039 0.214567 0.944045
Si Si3 0.547445 0.302702 0.056941
Si Si4 0.196474 0.205655 0.550768
Si Si5 0.170278 0.778275 0.632216
Si Si6 0.913996 0.370403 0.820287
Si Si7 0.685987 0.142224 0.825805
O O1 0.132193 0.500692 0.707738
O O2 0.200883 0.623728 0.663039
O O3 0.928099 0.856608 0.640290
O O4 0.148610 0.889835 0.022205
O O5 0.271881 0.113493 0.691270
O O6 0.417056 0.291839 0.966768
O O7 0.229151 0.457520 0.096192
O O8 0.500000 0.000000 0.000000
O O9 0.672468 0.247601 0.248033
O O10 0.459146 0.582175 0.140349
O O11 0.645948 0.093672 0.878016
O O12 0.308415 0.051541 0.426375
O O13 0.150152 0.633500 0.382955
O O14 0.027561 0.079873 0.748541
O O15 0.000000 0.500000 0.000000
#
# Coordination Sequence:
#
# PCOD8020269 Si02
#       7
#     2   2   2   2   2   2   2
#     4  10  22  42  67 105 130 168 236 282 337 408
#     4  12  27  44  67 104 142 180 230 280 337 413
#     4  10  23  44  63 101 135 173 227 277 343 404
#     4  11  24  40  68 101 136 180 223 279 350 395
#     4  10  24  44  72  96 132 190 224 280 346 395
#     4  11  25  47  69  98 139 180 237 279 329 414
#     4  10  22  43  68  93 140 173 222 284 339 409
#
# _framework density 23.029247000000002
#
# number of rings (size 3 to 8) (size 9 to 14) (size 15 to 20)
#    0.000    1.429    1.429    2.143    4.000   10.286 
#    0.000    0.000    0.000    0.000    0.000    0.000 
#    0.000    0.000    0.000    0.000    0.000    0.000 
#
# Total GULP energy -173464.474974 kJ/mol
# GULP energy per Si atom -12390.319641 kJ/mol
# Density = 2.297683 g / cm^3
# Si number density = 23.029247 Si / 1000 Ang^3
#
#
#
# Elastic Constant Matrix: (Units=GPa)
#
#
# Indices 1 2 3 4 5 6 
#
# 1 85.8282 19.9734 38.1397 -0.6522 -2.8208 -8.9443
# 2 19.9734 100.3339 51.1484 -34.7223 -5.4003 -10.9504
# 3 38.1397 51.1484 146.6368 -23.7521 -27.3680 -6.6107
# 4 -0.6522 -34.7223 -23.7521 34.9006 6.8818 0.1321
# 5 -2.8208 -5.4003 -27.3680 6.8818 18.9693 -6.2630
# 6 -8.9443 -10.9504 -6.6107 0.1321 -6.2630 32.0810
#
#
#
# Elastic Compliance Matrix: (Units=1/GPa)
#
#
# Indices 1 2 3 4 5 6 
#
# 1 0.013958 -0.002133 -0.003806 -0.004091 -0.001868 0.002031
# 2 -0.002133 0.018241 -0.004051 0.016471 -0.005754 0.003606
# 3 -0.003806 -0.004051 0.012864 0.001165 0.017620 0.003642
# 4 -0.004091 0.016471 0.001165 0.047879 -0.010811 0.002414
# 5 -0.001868 -0.005754 0.017620 -0.010811 0.086086 0.017996
# 6 0.002031 0.003606 0.003642 0.002414 0.017996 0.037222
#
#
# Mechanical properties :
#
#
# Convention : Reuss Voigt Hill
#
# Bulk Modulus (GPa) = 39.86866 61.25800 50.56333
# Shear Modulus (GPa) = 20.44226 32.09266 26.26746
#
# Velocity S-wave (km/s) = 2.98260 3.73709 3.38096
# Velocity P-wave (km/s) = 5.40472 6.72897 6.10287
#
# Compressibility (1/GPa) = 0.02508236
#
# Stress axis : x y z
#
# Youngs Moduli (GPa) = 71.64285 54.82305 77.73546
#
# Poissons Ratio (x) = 0.11693 0.29588
# Poissons Ratio (y) = 0.15280 0.31492
# Poissons Ratio (z) = 0.27269 0.22210
#
# Static dielectric constant tensor:
#      x y z
#    x 4.408540 -0.128290 -0.087290 
#    y -0.128290 4.175960 -0.332840 
#    z -0.087290 -0.332840 4.180630 
# 
# 
# High freq. dielectric constant tensor:
#      x y z
#    x 1.916200 -0.010520 -0.006030 
#    y -0.010520 1.907060 -0.029170 
#    z -0.006030 -0.029170 1.909280 
# 
# From -- ./inp_files/72450.got.cif
#   From: 2010.06.25/outbox.cif.g09.slc.cpg/sg2_37_cif.got.tgz:72450.got - 2010.06.27 13:26:56.
