data_PCOD8020955
_publ_section_title
;
Structure prediction by ZEFSAII (Michael W. Deem and Ramdas Pophale) SiO2 
 PCOD8020955
Probable space group: P -1
;
_chemical_formula_sum "Si O2"
_cell_formula_units_Z 14
_cell_length_a 6.551614
_cell_length_b 8.500269
_cell_length_c 23.194436
_cell_angle_alpha 28.745629
_cell_angle_beta 63.505023
_cell_angle_gamma 60.252326
_cell_volume 539.157279
_symmetry_space_group_name_H-M "P -1"
_symmetry_group_IT_number 2
_symmetry_cell_setting 'triclinic'
loop_
_space_group_symop_operation_xyz
x,y,z
-x,-y,-z
loop_
_atom_site_type_symbol
_atom_site_label
_atom_site_fract_x
_atom_site_fract_y
_atom_site_fract_z
Si Si1 0.816490 0.168554 0.703510
Si Si2 0.605285 0.159921 0.514804
Si Si3 0.392556 0.598832 0.683451
Si Si4 0.992862 0.253540 0.866659
Si Si5 0.222716 0.449026 0.542598
Si Si6 0.432521 0.193329 0.231901
Si Si7 0.117373 0.805734 0.882113
O O1 0.589619 0.293039 0.731880
O O2 0.958544 0.423063 0.573316
O O3 0.775373 0.902606 0.747743
O O4 0.024608 0.008297 0.772022
O O5 0.712230 0.178396 0.431861
O O6 0.368191 0.476440 0.454204
O O7 0.792357 0.222036 0.519628
O O8 0.516763 0.814059 0.642092
O O9 0.186901 0.473971 0.781815
O O10 0.727776 0.487452 0.815362
O O11 0.066720 0.043321 0.867255
O O12 0.000000 0.000000 0.000000
O O13 0.419341 0.113968 0.648698
O O14 0.602343 0.321001 0.124074
O O15 0.000000 0.500000 0.000000
#
# Coordination Sequence:
#
# PCOD8020955 Si02
#       7
#     2   2   2   2   2   2   2
#     4  11  22  43  72  94 150 181 226 296 344 418
#     4  10  22  43  66 101 148 177 238 285 338 424
#     4  11  23  44  68 104 141 188 231 286 353 408
#     4  12  27  47  75 104 140 186 238 288 352 421
#     4  10  22  43  66 107 134 187 234 277 352 413
#     4  11  24  47  71 101 145 184 229 293 346 417
#     4  11  26  45  70 103 135 184 240 289 354 408
#
# _framework density 25.966449000000001
#
# number of rings (size 3 to 8) (size 9 to 14) (size 15 to 20)
#    0.000    1.143    2.857    2.571    4.000    4.000 
#   10.286    0.000    0.000    0.000    0.000    0.000 
#    0.000    0.000    0.000    0.000    0.000    0.000 
#
# Total GULP energy -173439.191914 kJ/mol
# GULP energy per Si atom -12388.513708 kJ/mol
# Density = 2.590735 g / cm^3
# Si number density = 25.966449 Si / 1000 Ang^3
#
#
#
# Elastic Constant Matrix: (Units=GPa)
#
#
# Indices 1 2 3 4 5 6 
#
# 1 103.7090 44.2743 47.3982 19.7798 -27.9430 -21.3497
# 2 44.2743 138.7171 45.7995 12.8817 -14.2335 -17.9302
# 3 47.3982 45.7995 130.0625 19.8752 -32.5696 -7.0442
# 4 19.7798 12.8817 19.8752 38.4047 -2.5404 0.4057
# 5 -27.9430 -14.2335 -32.5696 -2.5404 55.3016 0.9770
# 6 -21.3497 -17.9302 -7.0442 0.4057 0.9770 42.9473
#
#
#
# Elastic Compliance Matrix: (Units=1/GPa)
#
#
# Indices 1 2 3 4 5 6 
#
# 1 0.015554 -0.002298 -0.002237 -0.005780 0.005573 0.006333
# 2 -0.002298 0.008994 -0.002134 -0.000764 -0.000179 0.002273
# 3 -0.002237 -0.002134 0.010923 -0.003478 0.004599 -0.000283
# 4 -0.005780 -0.000764 -0.003478 0.030870 -0.003677 -0.003971
# 5 0.005573 -0.000179 0.004599 -0.003677 0.023340 0.002954
# 6 0.006333 0.002273 -0.000283 -0.003971 0.002954 0.027306
#
#
# Mechanical properties :
#
#
# Convention : Reuss Voigt Hill
#
# Bulk Modulus (GPa) = 45.18573 71.93696 58.56134
# Shear Modulus (GPa) = 36.31020 42.99850 39.65435
#
# Velocity S-wave (km/s) = 3.74351 4.07372 3.91210
# Velocity P-wave (km/s) = 6.01037 7.06335 6.55803
#
# Compressibility (1/GPa) = 0.02213088
#
# Stress axis : x y z
#
# Youngs Moduli (GPa) = 64.29353 111.18973 91.54960
#
# Poissons Ratio (x) = 0.25557 0.20480
# Poissons Ratio (y) = 0.14778 0.19539
# Poissons Ratio (z) = 0.14383 0.23730
#
# Static dielectric constant tensor:
#      x y z
#    x 5.092240 0.136820 -0.299340 
#    y 0.136820 4.994190 0.312810 
#    z -0.299340 0.312810 5.073900 
# 
# 
# High freq. dielectric constant tensor:
#      x y z
#    x 2.063170 0.004090 -0.011490 
#    y 0.004090 2.057990 0.020530 
#    z -0.011490 0.020530 2.031040 
# 
# From -- ./inp_files/89719.got.cif
#   From: 2010.06.25/outbox.cif.g09.slc.cpg/sg2_45_cif.got.tgz:89719.got - 2010.06.27 13:26:56.
