data_PCOD8020353
_publ_section_title
;
Structure prediction by ZEFSAII (Michael W. Deem and Ramdas Pophale) SiO2 
 PCOD8020353
Probable space group: P -1
;
_chemical_formula_sum "Si O2"
_cell_formula_units_Z 16
_cell_length_a 8.858817
_cell_length_b 13.765387
_cell_length_c 14.414946
_cell_angle_alpha 53.793226
_cell_angle_beta 129.067020
_cell_angle_gamma 148.597576
_cell_volume 705.042576
_symmetry_space_group_name_H-M "P -1"
_symmetry_group_IT_number 2
_symmetry_cell_setting 'triclinic'
loop_
_space_group_symop_operation_xyz
x,y,z
-x,-y,-z
loop_
_atom_site_type_symbol
_atom_site_label
_atom_site_fract_x
_atom_site_fract_y
_atom_site_fract_z
Si Si1 0.617380 0.855703 0.847166
Si Si2 0.741701 0.527973 0.127228
Si Si3 0.392250 0.769617 0.199947
Si Si4 0.707785 0.561473 0.632251
Si Si5 0.727468 0.888185 0.077153
Si Si6 0.210052 0.989157 0.609425
Si Si7 0.304138 0.403507 0.729867
Si Si8 0.344153 0.897360 0.402442
O O1 0.321387 0.638941 0.830685
O O2 0.608221 0.975890 0.724767
O O3 0.602064 0.879396 0.936996
O O4 0.909726 0.915030 0.893847
O O5 0.700144 0.512222 0.230737
O O6 0.095501 0.715566 0.127541
O O7 0.500000 0.500000 0.000000
O O8 0.292122 0.583512 0.282389
O O9 0.541568 0.859867 0.105324
O O10 0.658489 0.938715 0.276787
O O11 0.500000 0.500000 0.500000
O O12 0.582597 0.557758 0.682308
O O13 0.040422 0.781394 0.635691
O O14 0.687913 0.726257 0.153207
O O15 0.490012 0.136922 0.562014
O O16 0.000000 0.000000 0.500000
O O17 0.011843 0.292997 0.614334
O O18 0.500000 0.000000 0.500000
#
# Coordination Sequence:
#
# PCOD8020353 Si02
#       8
#     2   2   2   2   2   2   2   2
#     4  10  22  42  71  96 135 177 228 282 348 411
#     4  12  24  44  66 101 138 178 231 290 340 412
#     4  11  25  45  68 101 142 181 230 287 349 412
#     4  11  23  44  69 102 139 181 228 281 349 416
#     4   9  21  43  69  95 130 179 225 279 347 405
#     4  12  25  43  69 100 139 178 229 286 337 411
#     4  10  22  42  67  96 137 174 224 282 338 410
#     4  11  24  44  69  96 135 183 224 275 349 413
#
# _framework density 22.693666
#
# number of rings (size 3 to 8) (size 9 to 14) (size 15 to 20)
#    0.000    1.250    3.750    1.500    5.250    0.500 
#    2.250    3.125    0.000    0.000    0.000    0.000 
#    0.000    0.000    0.000    0.000    0.000    0.000 
#
# Total GULP energy -198327.531113 kJ/mol
# GULP energy per Si atom -12395.470695 kJ/mol
# Density = 2.264201 g / cm^3
# Si number density = 22.693666 Si / 1000 Ang^3
#
#
#
# Elastic Constant Matrix: (Units=GPa)
#
#
# Indices 1 2 3 4 5 6 
#
# 1 121.1004 17.4188 48.5341 18.9562 -20.4501 17.7481
# 2 17.4188 89.0045 20.1638 23.1993 -5.5725 -4.0581
# 3 48.5341 20.1638 96.9876 30.2298 -20.5410 4.3800
# 4 18.9562 23.1993 30.2298 32.3114 0.0989 -0.2684
# 5 -20.4501 -5.5725 -20.5410 0.0989 40.3305 1.1954
# 6 17.7481 -4.0581 4.3800 -0.2684 1.1954 39.9060
#
#
#
# Elastic Compliance Matrix: (Units=1/GPa)
#
#
# Indices 1 2 3 4 5 6 
#
# 1 0.011740 -0.000642 -0.003696 -0.003023 0.004138 -0.005025
# 2 -0.000642 0.014131 0.001169 -0.010857 0.002206 0.001455
# 3 -0.003696 0.001169 0.018633 -0.016134 0.007836 -0.000626
# 4 -0.003023 -0.010857 -0.016134 0.055670 -0.011468 0.002729
# 5 0.004138 0.002206 0.007836 -0.011468 0.031321 -0.003492
# 6 -0.005025 0.001455 -0.000626 0.002729 -0.003492 0.027633
#
#
# Mechanical properties :
#
#
# Convention : Reuss Voigt Hill
#
# Bulk Modulus (GPa) = 26.20122 53.25841 39.72982
# Shear Modulus (GPa) = 28.06042 37.24130 32.65086
#
# Velocity S-wave (km/s) = 3.52019 4.05537 3.79722
# Velocity P-wave (km/s) = 5.30028 6.74147 6.06384
#
# Compressibility (1/GPa) = 0.03816616
#
# Stress axis : x y z
#
# Youngs Moduli (GPa) = 85.18224 70.76803 53.66739
#
# Poissons Ratio (x) = 0.04546 0.19833
# Poissons Ratio (y) = 0.05472 -0.06275
# Poissons Ratio (z) = 0.31479 -0.08274
#
# Static dielectric constant tensor:
#      x y z
#    x 4.257310 0.223110 -0.013090 
#    y 0.223110 4.307980 0.140770 
#    z -0.013090 0.140770 4.013900 
# 
# 
# High freq. dielectric constant tensor:
#      x y z
#    x 1.906050 0.009090 -0.004100 
#    y 0.009090 1.897910 0.013660 
#    z -0.004100 0.013660 1.892370 
# 
# From -- ./inp_files/180735.got.cif
#   From: 2010.06.25/outbox.cif.g09.slc.cpg/sg2_91_cif.got.tgz:180735.got - 2010.06.27 13:26:56.
