data_PCOD8020837
_publ_section_title
;
Structure prediction by ZEFSAII (Michael W. Deem and Ramdas Pophale) SiO2 
 PCOD8020837
Probable space group: P -1
;
_chemical_formula_sum "Si O2"
_cell_formula_units_Z 16
_cell_length_a 8.416549
_cell_length_b 11.705669
_cell_length_c 14.922411
_cell_angle_alpha 39.906966
_cell_angle_beta 63.957545
_cell_angle_gamma 83.083185
_cell_volume 785.459771
_symmetry_space_group_name_H-M "P -1"
_symmetry_group_IT_number 2
_symmetry_cell_setting 'triclinic'
loop_
_space_group_symop_operation_xyz
x,y,z
-x,-y,-z
loop_
_atom_site_type_symbol
_atom_site_label
_atom_site_fract_x
_atom_site_fract_y
_atom_site_fract_z
Si Si1 0.677768 0.359394 0.505922
Si Si2 0.832105 0.050540 0.691487
Si Si3 0.924804 0.917386 0.926337
Si Si4 0.229842 0.066081 0.502415
Si Si5 0.385716 0.753771 0.608790
Si Si6 0.332970 0.292863 0.164462
Si Si7 0.853608 0.583082 0.018585
Si Si8 0.737769 0.780954 0.241815
O O1 0.827253 0.260850 0.552859
O O2 0.632719 0.350154 0.418011
O O3 0.772070 0.584369 0.371505
O O4 0.483259 0.252774 0.672681
O O5 0.026916 0.037746 0.611488
O O6 0.822950 0.009860 0.824448
O O7 0.646289 0.893066 0.779537
O O8 0.943825 0.731272 0.987978
O O9 0.792371 0.858463 0.081529
O O10 0.135574 0.063934 0.811304
O O11 0.391602 0.120799 0.506295
O O12 0.264809 0.230481 0.319472
O O13 0.245250 0.873461 0.571775
O O14 0.333236 0.592057 0.796407
O O15 0.500000 0.500000 0.000000
O O16 0.174516 0.313105 0.125906
O O17 0.000000 0.500000 0.000000
#
# Coordination Sequence:
#
# PCOD8020837 Si02
#       8
#     2   2   2   2   2   2   2   2
#     4  11  23  40  65  91 119 161 212 260 309 360
#     4  11  24  40  62  92 126 163 203 260 314 368
#     4  10  22  43  64  89 125 158 208 257 309 362
#     4  11  23  39  62  90 131 169 202 251 308 385
#     4  11  21  39  62  91 124 169 209 245 311 376
#     4  11  22  38  55  89 130 162 201 246 304 370
#     4  11  23  37  64  94 128 162 200 252 315 376
#     4  10  23  43  67  88 119 164 214 259 298 370
#
# _framework density 20.370235000000001
#
# number of rings (size 3 to 8) (size 9 to 14) (size 15 to 20)
#    0.000    1.250    3.750    2.625    1.750    3.000 
#    0.000    1.250    0.000    0.000    0.000    0.000 
#    0.000    0.000    0.000    0.000    0.000    0.000 
#
# Total GULP energy -198268.614934 kJ/mol
# GULP energy per Si atom -12391.788433 kJ/mol
# Density = 2.032387 g / cm^3
# Si number density = 20.370235 Si / 1000 Ang^3
#
#
#
# Elastic Constant Matrix: (Units=GPa)
#
#
# Indices 1 2 3 4 5 6 
#
# 1 68.2040 46.9639 39.9438 0.3480 -2.6233 0.4276
# 2 46.9639 94.6588 32.2218 -8.2533 -7.1177 -0.3368
# 3 39.9438 32.2218 121.8908 -2.3395 3.2634 -0.2369
# 4 0.3480 -8.2533 -2.3395 33.0374 6.5466 2.6523
# 5 -2.6233 -7.1177 3.2634 6.5466 31.8485 -4.1488
# 6 0.4276 -0.3368 -0.2369 2.6523 -4.1488 34.1444
#
#
#
# Elastic Compliance Matrix: (Units=1/GPa)
#
#
# Indices 1 2 3 4 5 6 
#
# 1 0.025573 -0.011040 -0.005556 -0.003601 0.000939 -0.000074
# 2 -0.011040 0.016815 -0.000812 0.003805 0.002185 0.000268
# 3 -0.005556 -0.000812 0.010309 0.000980 -0.001920 -0.000176
# 4 -0.003601 0.003805 0.000980 0.032927 -0.006743 -0.003288
# 5 0.000939 0.002185 -0.001920 -0.006743 0.034155 0.004670
# 6 -0.000074 0.000268 -0.000176 -0.003288 0.004670 0.030113
#
#
# Mechanical properties :
#
#
# Convention : Reuss Voigt Hill
#
# Bulk Modulus (GPa) = 55.92671 58.11251 57.01961
# Shear Modulus (GPa) = 26.22349 30.84769 28.53559
#
# Velocity S-wave (km/s) = 3.59185 3.89569 3.74685
# Velocity P-wave (km/s) = 6.68704 6.98751 6.83893
#
# Compressibility (1/GPa) = 0.01788054
#
# Stress axis : x y z
#
# Youngs Moduli (GPa) = 39.10415 59.47053 96.99864
#
# Poissons Ratio (x) = 0.65655 0.53895
# Poissons Ratio (y) = 0.43171 0.07878
# Poissons Ratio (z) = 0.21727 0.04830
#
# Static dielectric constant tensor:
#      x y z
#    x 3.492460 0.249300 0.036970 
#    y 0.249300 3.738960 0.056570 
#    z 0.036970 0.056570 3.528160 
# 
# 
# High freq. dielectric constant tensor:
#      x y z
#    x 1.778020 0.014800 0.012010 
#    y 0.014800 1.797420 -0.008090 
#    z 0.012010 -0.008090 1.818400 
# 
# From -- ./inp_files/304775.got.cif
#   From: 2010.06.25/outbox.cif.g09.slc.cpg/sg2_153_cif.got.tgz:304775.got - 2010.06.27 13:26:56.
