data_PCOD8020457
_publ_section_title
;
Structure prediction by ZEFSAII (Michael W. Deem and Ramdas Pophale) SiO2 
 PCOD8020457
Probable space group: P -1
;
_chemical_formula_sum "Si O2"
_cell_formula_units_Z 16
_cell_length_a 15.990963
_cell_length_b 8.064001
_cell_length_c 9.524768
_cell_angle_alpha 110.736100
_cell_angle_beta 142.593657
_cell_angle_gamma 70.049406
_cell_volume 693.876052
_symmetry_space_group_name_H-M "P -1"
_symmetry_group_IT_number 2
_symmetry_cell_setting 'triclinic'
loop_
_space_group_symop_operation_xyz
x,y,z
-x,-y,-z
loop_
_atom_site_type_symbol
_atom_site_label
_atom_site_fract_x
_atom_site_fract_y
_atom_site_fract_z
Si Si1 0.678688 0.783700 0.734540
Si Si2 0.335425 0.526893 0.855200
Si Si3 0.816676 0.873774 0.209868
Si Si4 0.411624 0.519442 0.654999
Si Si5 0.099052 0.781233 0.684366
Si Si6 0.870054 0.066607 0.944700
Si Si7 0.395345 0.830871 0.512475
Si Si8 0.375021 0.113656 0.791493
O O1 0.684273 0.604656 0.595871
O O2 0.776294 0.912853 0.825613
O O3 0.514668 0.849444 0.560502
O O4 0.740269 0.748722 0.964154
O O5 0.334883 0.604420 0.718372
O O6 0.182552 0.583387 0.729522
O O7 0.390514 0.319504 0.849175
O O8 0.445480 0.594051 0.133870
O O9 0.759724 0.887305 0.294041
O O10 0.974164 0.788023 0.409968
O O11 0.799392 0.074126 0.185708
O O12 0.447160 0.679136 0.648513
O O13 0.056769 0.833196 0.802619
O O14 0.753988 0.209823 0.761580
O O15 0.000000 0.000000 0.000000
O O16 0.358814 0.024953 0.592613
O O17 0.500000 0.000000 0.000000
#
# Coordination Sequence:
#
# PCOD8020457 Si02
#       8
#     2   2   2   2   2   2   2   2
#     4  11  23  42  68 100 133 176 231 284 339 406
#     4  11  24  41  64 101 136 177 223 285 340 398
#     4  10  22  42  68  96 131 177 223 270 345 407
#     4  11  24  40  65 101 139 174 228 284 346 391
#     4  10  23  43  67  95 136 179 222 272 339 417
#     4  11  25  44  68  99 138 180 226 278 343 413
#     4  12  23  42  69  98 136 179 227 288 339 404
#     4  12  22  40  66 100 132 172 227 280 338 400
#
# _framework density 23.058873999999999
#
# number of rings (size 3 to 8) (size 9 to 14) (size 15 to 20)
#    0.000    1.000    2.500    3.750    1.750    4.500 
#    0.000    3.750    0.000    0.000    0.000    0.000 
#    0.000    0.000    0.000    0.000    0.000    0.000 
#
# Total GULP energy -198224.615348 kJ/mol
# GULP energy per Si atom -12389.038459 kJ/mol
# Density = 2.300639 g / cm^3
# Si number density = 23.058874 Si / 1000 Ang^3
#
#
#
# Elastic Constant Matrix: (Units=GPa)
#
#
# Indices 1 2 3 4 5 6 
#
# 1 136.4431 33.2330 30.5443 -6.0608 7.2739 -9.5210
# 2 33.2330 86.2443 37.8109 -2.6412 -0.6066 -11.9264
# 3 30.5443 37.8109 128.7197 -2.5248 -2.3410 -17.4896
# 4 -6.0608 -2.6412 -2.5248 34.9481 -7.6294 -0.8519
# 5 7.2739 -0.6066 -2.3410 -7.6294 33.7118 -2.4273
# 6 -9.5210 -11.9264 -17.4896 -0.8519 -2.4273 32.5607
#
#
#
# Elastic Compliance Matrix: (Units=1/GPa)
#
#
# Indices 1 2 3 4 5 6 
#
# 1 0.008402 -0.002619 -0.001132 0.000826 -0.001695 0.000784
# 2 -0.002619 0.014433 -0.003194 0.000687 0.000967 0.002895
# 3 -0.001132 -0.003194 0.009516 0.000614 0.001255 0.003720
# 4 0.000826 0.000687 0.000614 0.030415 0.006914 0.002135
# 5 -0.001695 0.000967 0.001255 0.006914 0.031921 0.003093
# 6 0.000784 0.002895 0.003720 0.002135 0.003093 0.034286
#
#
# Mechanical properties :
#
#
# Convention : Reuss Voigt Hill
#
# Bulk Modulus (GPa) = 54.17028 61.62040 57.89534
# Shear Modulus (GPa) = 33.55320 36.89872 35.22596
#
# Velocity S-wave (km/s) = 3.81873 4.00458 3.91276
# Velocity P-wave (km/s) = 6.55643 6.93998 6.75093
#
# Compressibility (1/GPa) = 0.01846031
#
# Stress axis : x y z
#
# Youngs Moduli (GPa) = 119.01371 69.28749 105.08682
#
# Poissons Ratio (x) = 0.18149 0.11900
# Poissons Ratio (y) = 0.31174 0.33559
# Poissons Ratio (z) = 0.13477 0.22127
#
# Static dielectric constant tensor:
#      x y z
#    x 4.663650 -0.165980 -0.541930 
#    y -0.165980 3.992620 0.051190 
#    z -0.541930 0.051190 4.638170 
# 
# 
# High freq. dielectric constant tensor:
#      x y z
#    x 1.918050 -0.000220 -0.015520 
#    y -0.000220 1.886650 -0.002600 
#    z -0.015520 -0.002600 1.923960 
# 
# From -- ./inp_files/299390.got.cif
#   From: 2010.06.25/outbox.cif.g09.slc.cpg/sg2_150_cif.got.tgz:299390.got - 2010.06.27 13:26:56.
