data_PCOD8020398
_publ_section_title
;
Structure prediction by ZEFSAII (Michael W. Deem and Ramdas Pophale) SiO2 
 PCOD8020398
Probable space group: P -1
;
_chemical_formula_sum "Si O2"
_cell_formula_units_Z 16
_cell_length_a 9.539075
_cell_length_b 14.387404
_cell_length_c 8.549572
_cell_angle_alpha 110.694202
_cell_angle_beta 140.256410
_cell_angle_gamma 60.139487
_cell_volume 649.679993
_symmetry_space_group_name_H-M "P -1"
_symmetry_group_IT_number 2
_symmetry_cell_setting 'triclinic'
loop_
_space_group_symop_operation_xyz
x,y,z
-x,-y,-z
loop_
_atom_site_type_symbol
_atom_site_label
_atom_site_fract_x
_atom_site_fract_y
_atom_site_fract_z
Si Si1 0.617697 0.150253 0.930971
Si Si2 0.691327 0.392471 0.665156
Si Si3 0.272760 0.547956 0.944581
Si Si4 0.403371 0.785948 0.711966
Si Si5 0.116109 0.087575 0.216729
Si Si6 0.512359 0.041756 0.311411
Si Si7 0.130954 0.371138 0.873901
Si Si8 0.878985 0.711977 0.504714
O O1 0.698863 0.193031 0.185060
O O2 0.849586 0.082298 0.977921
O O3 0.413784 0.247656 0.718690
O O4 0.492222 0.068881 0.829897
O O5 0.500000 0.500000 0.500000
O O6 0.710058 0.281951 0.531369
O O7 0.920895 0.420510 0.844615
O O8 0.673227 0.379213 0.830134
O O9 0.248972 0.449492 0.956036
O O10 0.023947 0.610561 0.679491
O O11 0.500000 0.500000 0.000000
O O12 0.378613 0.898316 0.679247
O O13 0.680748 0.720920 0.918508
O O14 0.240809 0.109584 0.178912
O O15 0.039961 0.193454 0.320403
O O16 0.308348 0.984360 0.403780
O O17 0.035760 0.321340 0.618043
#
# Coordination Sequence:
#
# PCOD8020398 Si02
#       8
#     2   2   2   2   2   2   2   2
#     4  10  22  45  72  99 142 185 230 297 345 420
#     4  12  26  47  71  98 144 184 233 292 351 419
#     4  12  27  46  73 103 141 189 236 292 356 413
#     4  11  25  44  71 100 139 185 234 279 360 414
#     4  10  22  42  68 102 146 178 231 290 356 411
#     4  10  23  42  67 107 140 182 233 293 348 423
#     4  11  25  47  68 100 143 183 233 295 339 423
#     4  10  24  42  69 104 139 182 237 285 351 415
#
# _framework density 24.627510000000001
#
# number of rings (size 3 to 8) (size 9 to 14) (size 15 to 20)
#    0.000    1.250    1.250    3.000    5.250    2.500 
#    4.500    0.000    0.000    0.000    0.000    0.000 
#    0.000    0.000    0.000    0.000    0.000    0.000 
#
# Total GULP energy -198232.100284 kJ/mol
# GULP energy per Si atom -12389.506268 kJ/mol
# Density = 2.457146 g / cm^3
# Si number density = 24.627510 Si / 1000 Ang^3
#
#
#
# Elastic Constant Matrix: (Units=GPa)
#
#
# Indices 1 2 3 4 5 6 
#
# 1 131.3365 22.3636 50.7153 -12.2415 11.3243 -22.2008
# 2 22.3636 79.1297 25.7307 1.8405 0.4860 -2.5186
# 3 50.7153 25.7307 106.9004 -2.5092 -12.3524 -14.2062
# 4 -12.2415 1.8405 -2.5092 50.1531 -7.8540 5.3282
# 5 11.3243 0.4860 -12.3524 -7.8540 28.9738 -5.8891
# 6 -22.2008 -2.5186 -14.2062 5.3282 -5.8891 30.8274
#
#
#
# Elastic Compliance Matrix: (Units=1/GPa)
#
#
# Indices 1 2 3 4 5 6 
#
# 1 0.011037 -0.001388 -0.004885 0.001228 -0.005148 0.004388
# 2 -0.001388 0.014035 -0.003119 -0.001113 -0.001610 -0.001405
# 3 -0.004885 -0.003119 0.014048 0.000573 0.008984 0.004318
# 4 0.001228 -0.001113 0.000573 0.021299 0.005226 -0.001625
# 5 -0.005148 -0.001610 0.008984 0.005226 0.043361 0.007681
# 6 0.004388 -0.001405 0.004318 -0.001625 0.007681 0.039222
#
#
# Mechanical properties :
#
#
# Convention : Reuss Voigt Hill
#
# Bulk Modulus (GPa) = 49.17204 57.22064 53.19634
# Shear Modulus (GPa) = 29.66236 36.56132 33.11184
#
# Velocity S-wave (km/s) = 3.47427 3.85719 3.67073
# Velocity P-wave (km/s) = 6.00864 6.56675 6.29388
#
# Compressibility (1/GPa) = 0.02033676
#
# Stress axis : x y z
#
# Youngs Moduli (GPa) = 90.60635 71.25119 71.18494
#
# Poissons Ratio (x) = 0.09890 0.34773
# Poissons Ratio (y) = 0.12577 0.22199
# Poissons Ratio (z) = 0.44260 0.22220
#
# Static dielectric constant tensor:
#      x y z
#    x 4.281360 -0.377910 -0.151360 
#    y -0.377910 4.505210 0.289180 
#    z -0.151360 0.289180 4.961870 
# 
# 
# High freq. dielectric constant tensor:
#      x y z
#    x 1.972210 -0.023850 0.000940 
#    y -0.023850 1.986230 0.014820 
#    z 0.000940 0.014820 1.990270 
# 
# From -- ./inp_files/208084.got.cif
#   From: 2010.06.25/outbox.cif.g09.slc.cpg/sg2_105_cif.got.tgz:208084.got - 2010.06.27 13:26:56.
