data_PCOD8020049
_publ_section_title
;
Structure prediction by ZEFSAII (Michael W. Deem and Ramdas Pophale) SiO2 
 PCOD8020049
Probable space group: P -1
;
_chemical_formula_sum "Si O2"
_cell_formula_units_Z 16
_cell_length_a 5.450401
_cell_length_b 11.711646
_cell_length_c 11.705443
_cell_angle_alpha 67.840489
_cell_angle_beta 71.837983
_cell_angle_gamma 82.624072
_cell_volume 657.479588
_symmetry_space_group_name_H-M "P -1"
_symmetry_group_IT_number 2
_symmetry_cell_setting 'triclinic'
loop_
_space_group_symop_operation_xyz
x,y,z
-x,-y,-z
loop_
_atom_site_type_symbol
_atom_site_label
_atom_site_fract_x
_atom_site_fract_y
_atom_site_fract_z
Si Si1 0.891404 0.543552 0.739744
Si Si2 0.546160 0.840915 0.438304
Si Si3 0.232696 0.246272 0.157519
Si Si4 0.293882 0.890350 0.968825
Si Si5 0.133329 0.950967 0.611959
Si Si6 0.082532 0.312785 0.919644
Si Si7 0.537522 0.848644 0.184879
Si Si8 0.499134 0.569809 0.591152
O O1 0.745612 0.660352 0.774347
O O2 0.891507 0.420129 0.863741
O O3 0.706127 0.508410 0.673097
O O4 0.195464 0.577103 0.668158
O O5 0.380902 0.876525 0.559189
O O6 0.407629 0.847574 0.330458
O O7 0.629701 0.701281 0.501339
O O8 0.790812 0.931871 0.365177
O O9 0.490513 0.170491 0.121933
O O10 0.025577 0.141386 0.252622
O O11 0.171597 0.339226 0.025744
O O12 0.267057 0.035295 0.893074
O O13 0.037443 0.822070 0.997654
O O14 0.330891 0.867404 0.107876
O O15 0.000000 0.000000 0.500000
O O16 0.316275 0.284207 0.806944
O O17 0.500000 0.500000 0.500000
#
# Coordination Sequence:
#
# PCOD8020049 Si02
#       8
#     2   2   2   2   2   2   2   2
#     4  12  28  48  76 105 150 194 255 303 369 437
#     4  11  24  41  72  97 142 185 240 296 373 430
#     4  11  24  44  69 108 147 187 246 302 371 442
#     4  10  23  41  68 100 142 184 235 306 361 439
#     4  11  23  42  68 105 138 184 240 299 370 439
#     4  11  25  42  71  99 142 191 247 302 368 435
#     4  10  22  42  65 104 134 186 238 300 369 437
#     4  12  28  50  73 109 149 199 248 306 364 444
#
# _framework density 24.335359
#
# number of rings (size 3 to 8) (size 9 to 14) (size 15 to 20)
#    0.000    1.000    1.250    4.125    7.000    5.500 
#    0.000    0.000    0.000    0.000    0.000    0.000 
#    0.000    0.000    0.000    0.000    0.000    0.000 
#
# Total GULP energy -198254.095623 kJ/mol
# GULP energy per Si atom -12390.880976 kJ/mol
# Density = 2.427997 g / cm^3
# Si number density = 24.335359 Si / 1000 Ang^3
#
#
#
# Elastic Constant Matrix: (Units=GPa)
#
#
# Indices 1 2 3 4 5 6 
#
# 1 81.9601 25.0878 23.1075 10.1012 12.4503 1.1799
# 2 25.0878 121.8316 32.3925 2.6338 10.2049 -0.4351
# 3 23.1075 32.3925 106.1185 13.9736 11.3361 -3.8102
# 4 10.1012 2.6338 13.9736 36.1179 1.1458 7.7681
# 5 12.4503 10.2049 11.3361 1.1458 30.2428 -5.0164
# 6 1.1799 -0.4351 -3.8102 7.7681 -5.0164 29.4048
#
#
#
# Elastic Compliance Matrix: (Units=1/GPa)
#
#
# Indices 1 2 3 4 5 6 
#
# 1 0.014374 -0.002074 -0.001651 -0.002902 -0.004629 -0.000845
# 2 -0.002074 0.009379 -0.002401 0.001007 -0.001552 -0.000620
# 3 -0.001651 -0.002401 0.011386 -0.004175 -0.002251 0.002225
# 4 -0.002902 0.001007 -0.004175 0.031963 -0.000267 -0.008899
# 5 -0.004629 -0.001552 -0.002251 -0.000267 0.037398 0.006322
# 6 -0.000845 -0.000620 0.002225 -0.008899 0.006322 0.037751
#
#
# Mechanical properties :
#
#
# Convention : Reuss Voigt Hill
#
# Bulk Modulus (GPa) = 43.68811 52.34286 48.01549
# Shear Modulus (GPa) = 30.83938 34.44128 32.64033
#
# Velocity S-wave (km/s) = 3.56373 3.76610 3.66631
# Velocity P-wave (km/s) = 5.90974 6.36137 6.13971
#
# Compressibility (1/GPa) = 0.02288952
#
# Stress axis : x y z
#
# Youngs Moduli (GPa) = 69.56924 106.61714 87.82852
#
# Poissons Ratio (x) = 0.22108 0.14498
# Poissons Ratio (y) = 0.14426 0.21084
# Poissons Ratio (z) = 0.11484 0.25594
#
# Static dielectric constant tensor:
#      x y z
#    x 4.292800 0.107460 -0.090050 
#    y 0.107460 4.339110 -0.012040 
#    z -0.090050 -0.012040 4.498280 
# 
# 
# High freq. dielectric constant tensor:
#      x y z
#    x 1.948490 0.006500 0.008980 
#    y 0.006500 1.982760 0.003090 
#    z 0.008980 0.003090 1.976070 
# 
# From -- ./inp_files/111047.got.cif
#   From: 2010.06.25/outbox.cif.g09.slc.cpg/sg2_56_cif.got.tgz:111047.got - 2010.06.27 13:26:56.
