data_PCOD8020618
_publ_section_title
;
Structure prediction by ZEFSAII (Michael W. Deem and Ramdas Pophale) SiO2 
 PCOD8020618
Probable space group: P -1
;
_chemical_formula_sum "Si O2"
_cell_formula_units_Z 16
_cell_length_a 17.185326
_cell_length_b 10.912553
_cell_length_c 8.616093
_cell_angle_alpha 81.059208
_cell_angle_beta 130.971452
_cell_angle_gamma 134.992820
_cell_volume 704.591030
_symmetry_space_group_name_H-M "P -1"
_symmetry_group_IT_number 2
_symmetry_cell_setting 'triclinic'
loop_
_space_group_symop_operation_xyz
x,y,z
-x,-y,-z
loop_
_atom_site_type_symbol
_atom_site_label
_atom_site_fract_x
_atom_site_fract_y
_atom_site_fract_z
Si Si1 0.373188 0.471827 0.926082
Si Si2 0.066301 0.424174 0.093944
Si Si3 0.579872 0.889394 0.223229
Si Si4 0.627300 0.182506 0.760492
Si Si5 0.966678 0.766095 0.621578
Si Si6 0.139877 0.982899 0.269257
Si Si7 0.848124 0.262768 0.282941
Si Si8 0.829737 0.831189 0.015428
O O1 0.187662 0.295962 0.629066
O O2 0.338787 0.393043 0.074330
O O3 0.500000 0.500000 0.000000
O O4 0.442017 0.681520 0.974664
O O5 0.250825 0.596990 0.208476
O O6 0.106448 0.407464 0.318771
O O7 0.000000 0.500000 0.000000
O O8 0.918930 0.198976 0.860326
O O9 0.489348 0.867119 0.252853
O O10 0.700804 0.894686 0.435893
O O11 0.688600 0.099624 0.230102
O O12 0.500000 0.000000 0.500000
O O13 0.763101 0.219412 0.014811
O O14 0.063546 0.786058 0.606818
O O15 0.111231 0.994370 0.841268
O O16 0.982498 0.878433 0.191186
O O17 0.213235 0.161454 0.214875
O O18 0.000000 0.500000 0.500000
#
# Coordination Sequence:
#
# PCOD8020618 Si02
#       8
#     2   2   2   2   2   2   2   2
#     4  12  25  42  67 101 143 175 227 297 357 403
#     4  11  22  43  68  98 136 183 236 271 344 425
#     4  12  26  42  66 102 140 175 232 292 357 401
#     4  12  27  41  69 101 144 180 228 298 349 405
#     4  11  24  42  73  96 133 189 235 274 341 435
#     4  10  22  42  70  95 131 182 228 284 334 426
#     4  12  26  46  70  96 142 193 236 278 347 438
#     4  10  22  43  69  96 130 179 241 272 345 415
#
# _framework density 22.708207000000002
#
# number of rings (size 3 to 8) (size 9 to 14) (size 15 to 20)
#    0.000    0.750    1.250    6.000    5.250    1.500 
#    0.000    0.000    0.000    0.000    0.000    0.000 
#    0.000    0.000    0.000    0.000    0.000    0.000 
#
# Total GULP energy -198436.914748 kJ/mol
# GULP energy per Si atom -12402.307172 kJ/mol
# Density = 2.265652 g / cm^3
# Si number density = 22.708207 Si / 1000 Ang^3
#
#
#
# Elastic Constant Matrix: (Units=GPa)
#
#
# Indices 1 2 3 4 5 6 
#
# 1 134.4400 25.3958 5.2775 6.4769 3.5649 5.2057
# 2 25.3958 121.7892 11.3940 12.4176 2.5472 21.5901
# 3 5.2775 11.3940 83.4270 -3.8442 -1.3926 0.1419
# 4 6.4769 12.4176 -3.8442 32.6855 -6.2117 3.6184
# 5 3.5649 2.5472 -1.3926 -6.2117 33.1057 4.1823
# 6 5.2057 21.5901 0.1419 3.6184 4.1823 44.4378
#
#
#
# Elastic Compliance Matrix: (Units=1/GPa)
#
#
# Indices 1 2 3 4 5 6 
#
# 1 0.007811 -0.001445 -0.000369 -0.001225 -0.000973 -0.000020
# 2 -0.001445 0.009738 -0.001393 -0.003248 -0.000728 -0.004224
# 3 -0.000369 -0.001393 0.012318 0.002202 0.001027 0.000405
# 4 -0.001225 -0.003248 0.002202 0.033857 0.007043 -0.001705
# 5 -0.000973 -0.000728 0.001027 0.007043 0.032127 -0.003133
# 6 -0.000020 -0.004224 0.000405 -0.001705 -0.003133 0.024991
#
#
# Mechanical properties :
#
#
# Convention : Reuss Voigt Hill
#
# Bulk Modulus (GPa) = 42.64132 47.08786 44.86459
# Shear Modulus (GPa) = 37.01630 41.88506 39.45068
#
# Velocity S-wave (km/s) = 4.04181 4.29941 4.17260
# Velocity P-wave (km/s) = 6.37184 6.74000 6.55851
#
# Compressibility (1/GPa) = 0.02345143
#
# Stress axis : x y z
#
# Youngs Moduli (GPa) = 128.01805 102.69165 81.18161
#
# Poissons Ratio (x) = 0.14844 0.02999
# Poissons Ratio (y) = 0.18505 0.11310
# Poissons Ratio (z) = 0.04729 0.14306
#
# Static dielectric constant tensor:
#      x y z
#    x 4.121590 0.145190 0.003200 
#    y 0.145190 4.432260 -0.039870 
#    z 0.003200 -0.039870 4.090820 
# 
# 
# High freq. dielectric constant tensor:
#      x y z
#    x 1.909150 0.006910 0.000870 
#    y 0.006910 1.909030 -0.002580 
#    z 0.000870 -0.002580 1.888220 
# 
# From -- ./inp_files/333279.got.cif
#   From: 2010.06.25/outbox.cif.g09.slc.cpg/sg2_167_cif.got.tgz:333279.got - 2010.06.27 13:26:56.
