data_PCOD8020212
_publ_section_title
;
Structure prediction by ZEFSAII (Michael W. Deem and Ramdas Pophale) SiO2 
 PCOD8020212
Probable space group: P -1
;
_chemical_formula_sum "Si O2"
_cell_formula_units_Z 14
_cell_length_a 14.085856
_cell_length_b 5.088089
_cell_length_c 16.345669
_cell_angle_alpha 104.088847
_cell_angle_beta 28.490109
_cell_angle_gamma 105.271903
_cell_volume 538.897128
_symmetry_space_group_name_H-M "P -1"
_symmetry_group_IT_number 2
_symmetry_cell_setting 'triclinic'
loop_
_space_group_symop_operation_xyz
x,y,z
-x,-y,-z
loop_
_atom_site_type_symbol
_atom_site_label
_atom_site_fract_x
_atom_site_fract_y
_atom_site_fract_z
Si Si1 0.502545 0.689419 0.939573
Si Si2 0.553733 0.698530 0.586140
Si Si3 0.777108 0.807222 0.590420
Si Si4 0.166005 0.433113 0.057633
Si Si5 0.085861 0.112562 0.780854
Si Si6 0.830526 0.335226 0.667290
Si Si7 0.685004 0.823696 0.233135
O O1 0.682773 0.662021 0.734304
O O2 0.643000 0.463469 0.870292
O O3 0.302731 0.579962 0.035166
O O4 0.500000 0.000000 0.000000
O O5 0.663339 0.692030 0.589194
O O6 0.698140 0.843608 0.420107
O O7 0.473362 0.379935 0.607604
O O8 0.374192 0.888254 0.732850
O O9 0.019154 0.799881 0.392963
O O10 0.725210 0.115131 0.667214
O O11 0.026301 0.641148 0.143898
O O12 0.289484 0.346367 0.880519
O O13 0.032626 0.174228 0.178748
O O14 0.117025 0.110695 0.855681
O O15 0.000000 0.500000 0.500000
#
# Coordination Sequence:
#
# PCOD8020212 Si02
#       7
#     2   2   2   2   2   2   2
#     4  11  25  42  67  95 137 179 228 280 346 415
#     4  12  25  43  77 101 143 181 242 287 347 415
#     4  10  22  42  66  96 128 182 226 287 338 409
#     4  12  26  46  70 105 146 187 231 288 357 420
#     4  12  27  45  71 108 145 182 236 292 352 413
#     4   9  21  40  64  91 127 171 231 277 337 396
#     4  12  24  48  74 103 140 191 234 290 349 420
#
# _framework density 25.978981999999998
#
# number of rings (size 3 to 8) (size 9 to 14) (size 15 to 20)
#    0.000    0.857    1.429    5.143    6.000    4.000 
#    0.000    0.000    0.000    0.000    0.000    0.000 
#    0.000    0.000    0.000    0.000    0.000    0.000 
#
# Total GULP energy -173460.406184 kJ/mol
# GULP energy per Si atom -12390.029013 kJ/mol
# Density = 2.591985 g / cm^3
# Si number density = 25.978982 Si / 1000 Ang^3
#
#
#
# Elastic Constant Matrix: (Units=GPa)
#
#
# Indices 1 2 3 4 5 6 
#
# 1 22.5883 -85.7002 150.0924 -24.6929 35.8810 -19.7230
# 2 -85.7002 30.4227 118.4550 -33.0233 32.8417 -25.8128
# 3 150.0924 118.4550 60.3875 46.8280 -39.9887 20.7710
# 4 -24.6929 -33.0233 46.8280 31.4400 -0.7486 -16.5922
# 5 35.8810 32.8417 -39.9887 -0.7486 28.7061 9.7560
# 6 -19.7230 -25.8128 20.7710 -16.5922 9.7560 43.7820
#
#
#
# Elastic Compliance Matrix: (Units=1/GPa)
#
#
# Indices 1 2 3 4 5 6 
#
# 1 0.004915 -0.003980 0.001909 -0.004883 0.002081 -0.003352
# 2 -0.003980 0.005507 0.002657 -0.001811 0.002699 -0.001094
# 3 0.001909 0.002657 0.002515 0.001815 -0.002735 0.002531
# 4 -0.004883 -0.001811 0.001815 0.025278 0.010289 0.003158
# 5 0.002081 0.002699 -0.002735 0.010289 0.024861 0.002186
# 6 -0.003352 -0.001094 0.002531 0.003158 0.002186 0.020194
#
#
# Mechanical properties :
#
#
# Convention : Reuss Voigt Hill
#
# Bulk Modulus (GPa) = 70.87940 53.23256 62.05598
# Shear Modulus (GPa) = 57.60248 16.15569 36.87909
#
# Velocity S-wave (km/s) = 4.71390 2.49645 3.77181
# Velocity P-wave (km/s) = 7.54787 5.37073 6.55039
#
# Compressibility (1/GPa) = 0.01410847
#
# Stress axis : x y z
#
# Youngs Moduli (GPa) = 203.46518 181.57420 397.67848
#
# Poissons Ratio (x) = 0.72264 -0.75918
# Poissons Ratio (y) = 0.80976 -1.05649
# Poissons Ratio (z) = -0.38842 -0.48238
#
# Static dielectric constant tensor:
#      x y z
#    x 5.175800 -0.421120 -0.122990 
#    y -0.421120 5.068710 0.167490 
#    z -0.122990 0.167490 5.277690 
# 
# 
# High freq. dielectric constant tensor:
#      x y z
#    x 2.063030 -0.016090 0.000400 
#    y -0.016090 2.057750 -0.012470 
#    z 0.000400 -0.012470 2.073530 
# 
# From -- ./inp_files/571566.got.cif
#   From: 2010.06.25/outbox.cif.g09.slc.cpg/sg2_286_cif.got.tgz:571566.got - 2010.06.27 13:26:56.
