data_PCOD8020222
_publ_section_title
;
Structure prediction by ZEFSAII (Michael W. Deem and Ramdas Pophale) SiO2 
 PCOD8020222
Probable space group: P -1
;
_chemical_formula_sum "Si O2"
_cell_formula_units_Z 16
_cell_length_a 17.667746
_cell_length_b 9.477550
_cell_length_c 24.528486
_cell_angle_alpha 144.218858
_cell_angle_beta 18.961660
_cell_angle_gamma 145.951563
_cell_volume 738.541279
_symmetry_space_group_name_H-M "P -1"
_symmetry_group_IT_number 2
_symmetry_cell_setting 'triclinic'
loop_
_space_group_symop_operation_xyz
x,y,z
-x,-y,-z
loop_
_atom_site_type_symbol
_atom_site_label
_atom_site_fract_x
_atom_site_fract_y
_atom_site_fract_z
Si Si1 0.247683 0.995707 0.465539
Si Si2 0.989756 0.780927 0.394783
Si Si3 0.036320 0.070493 0.747734
Si Si4 0.295677 0.583886 0.695699
Si Si5 0.540830 0.829173 0.042498
Si Si6 0.777454 0.185430 0.364115
Si Si7 0.030824 0.220683 0.090988
Si Si8 0.476199 0.674617 0.153092
O O1 0.126233 0.969649 0.599374
O O2 0.549334 0.135405 0.300573
O O3 0.116099 0.151145 0.567559
O O4 0.244371 0.723158 0.357804
O O5 0.266698 0.790069 0.196074
O O6 0.823364 0.492150 0.434935
O O7 0.000000 0.000000 0.500000
O O8 0.186335 0.369885 0.749391
O O9 0.068770 0.893293 0.718674
O O10 0.748038 0.055392 0.940533
O O11 0.500000 0.500000 0.500000
O O12 0.071978 0.574180 0.804328
O O13 0.566188 0.879447 0.106368
O O14 0.627288 0.589557 0.891136
O O15 0.868101 0.119065 0.223376
O O16 0.500000 0.000000 0.500000
O O17 0.314306 0.340680 0.952263
O O18 0.000000 0.000000 0.000000
#
# Coordination Sequence:
#
# PCOD8020222 Si02
#       8
#     2   2   2   2   2   2   2   2
#     4  11  23  43  68 100 136 179 227 281 347 415
#     4  12  25  46  73  99 138 192 232 279 356 421
#     4  11  24  42  68 102 135 175 229 290 340 398
#     4  10  22  42  66  96 138 176 219 274 347 408
#     4  11  23  45  69  94 135 187 224 279 345 409
#     4  12  24  45  71 102 138 178 233 291 340 412
#     4  12  23  43  71 103 134 187 226 275 357 421
#     4  11  22  43  69  93 136 182 224 273 347 421
#
# _framework density 21.664325999999999
#
# number of rings (size 3 to 8) (size 9 to 14) (size 15 to 20)
#    0.000    0.750    5.000    4.500    0.000    1.000 
#    2.250    1.250    0.000    0.000    0.000    0.000 
#    0.000    0.000    0.000    0.000    0.000    0.000 
#
# Total GULP energy -198228.088265 kJ/mol
# GULP energy per Si atom -12389.255517 kJ/mol
# Density = 2.161502 g / cm^3
# Si number density = 21.664326 Si / 1000 Ang^3
#
#
#
# Elastic Constant Matrix: (Units=GPa)
#
#
# Indices 1 2 3 4 5 6 
#
# 1 121.1545 28.7980 37.0927 8.2140 -2.7554 -11.1366
# 2 28.7980 88.0788 47.5152 -7.2659 4.4090 0.4469
# 3 37.0927 47.5152 110.1785 -3.6704 1.3598 -1.0249
# 4 8.2140 -7.2659 -3.6704 38.0317 3.3331 -5.1811
# 5 -2.7554 4.4090 1.3598 3.3331 53.9106 4.7548
# 6 -11.1366 0.4469 -1.0249 -5.1811 4.7548 31.1420
#
#
#
# Elastic Compliance Matrix: (Units=1/GPa)
#
#
# Indices 1 2 3 4 5 6 
#
# 1 0.009991 -0.002175 -0.002487 -0.002458 0.000637 0.003016
# 2 -0.002175 0.015538 -0.005859 0.002925 -0.001371 -0.000497
# 3 -0.002487 -0.005859 0.012456 0.000576 0.000029 -0.000304
# 4 -0.002458 0.002925 0.000576 0.028226 -0.002493 0.004174
# 5 0.000637 -0.001371 0.000029 -0.002493 0.019119 -0.003085
# 6 0.003016 -0.000497 -0.000304 0.004174 -0.003085 0.034352
#
#
# Mechanical properties :
#
#
# Convention : Reuss Voigt Hill
#
# Bulk Modulus (GPa) = 59.02198 60.69149 59.85673
# Shear Modulus (GPa) = 34.15960 38.35060 36.25510
#
# Velocity S-wave (km/s) = 3.97516 4.21196 4.09527
# Velocity P-wave (km/s) = 6.95501 7.19232 7.07466
#
# Compressibility (1/GPa) = 0.01694284
#
# Stress axis : x y z
#
# Youngs Moduli (GPa) = 100.09267 64.36017 80.28131
#
# Poissons Ratio (x) = 0.13997 0.19969
# Poissons Ratio (y) = 0.21767 0.47035
# Poissons Ratio (z) = 0.24896 0.37707
#
# Static dielectric constant tensor:
#      x y z
#    x 4.495380 0.940130 -0.022770 
#    y 0.940130 5.214440 -0.005620 
#    z -0.022770 -0.005620 4.081460 
# 
# 
# High freq. dielectric constant tensor:
#      x y z
#    x 1.860650 0.008360 -0.007450 
#    y 0.008360 1.839040 0.007440 
#    z -0.007450 0.007440 1.860530 
# 
# From -- ./inp_files/613000.got.cif
#   From: 2010.06.25/outbox.cif.g09.slc.cpg/sg2_307_cif.got.tgz:613000.got - 2010.06.27 13:26:56.
