data_PCOD8020356
_publ_section_title
;
Structure prediction by ZEFSAII (Michael W. Deem and Ramdas Pophale) SiO2 
 PCOD8020356
Probable space group: P -1
;
_chemical_formula_sum "Si O2"
_cell_formula_units_Z 16
_cell_length_a 5.447687
_cell_length_b 11.928012
_cell_length_c 13.156261
_cell_angle_alpha 76.896831
_cell_angle_beta 122.697929
_cell_angle_gamma 83.926436
_cell_volume 672.964433
_symmetry_space_group_name_H-M "P -1"
_symmetry_group_IT_number 2
_symmetry_cell_setting 'triclinic'
loop_
_space_group_symop_operation_xyz
x,y,z
-x,-y,-z
loop_
_atom_site_type_symbol
_atom_site_label
_atom_site_fract_x
_atom_site_fract_y
_atom_site_fract_z
Si Si1 0.083074 0.416318 0.776874
Si Si2 0.261300 0.239168 0.154794
Si Si3 0.699452 0.963321 0.650041
Si Si4 0.338715 0.780953 0.044376
Si Si5 0.478755 0.440234 0.255198
Si Si6 0.678159 0.049241 0.159710
Si Si7 0.468036 0.158062 0.728357
Si Si8 0.071552 0.621651 0.462977
O O1 0.325047 0.298131 0.897801
O O2 0.289967 0.498454 0.761304
O O3 0.850383 0.473510 0.802908
O O4 0.880307 0.381165 0.647893
O O5 0.407326 0.348385 0.176995
O O6 0.385964 0.153679 0.105458
O O7 0.349488 0.158679 0.292735
O O8 0.899754 0.284506 0.042943
O O9 0.636652 0.070528 0.696616
O O10 0.500000 0.000000 0.500000
O O11 0.051283 0.940298 0.705858
O O12 0.316256 0.785847 0.162877
O O13 0.261472 0.916447 0.950411
O O14 0.634997 0.372095 0.407356
O O15 0.655833 0.915109 0.196235
O O16 0.205791 0.262258 0.595609
O O17 0.000000 0.500000 0.500000
#
# Coordination Sequence:
#
# PCOD8020356 Si02
#       8
#     2   2   2   2   2   2   2   2
#     4  10  24  43  68 100 134 182 227 287 337 409
#     4  10  25  40  65  94 135 178 221 286 328 413
#     4  10  24  40  63  97 137 172 222 278 341 413
#     4  10  23  44  64  94 135 170 233 277 337 402
#     4  11  24  42  68  99 137 181 229 277 354 398
#     4  10  23  41  63  97 127 175 224 281 336 399
#     4  10  22  42  67  97 127 182 217 279 344 401
#     4   9  21  43  66  99 134 173 227 285 337 414
#
# _framework density 23.775403000000001
#
# number of rings (size 3 to 8) (size 9 to 14) (size 15 to 20)
#    0.000    2.000    0.000    0.750    8.750    8.500 
#   11.250    0.000    0.000    0.000    0.000    0.000 
#    0.000    0.000    0.000    0.000    0.000    0.000 
#
# Total GULP energy -198260.591024 kJ/mol
# GULP energy per Si atom -12391.286939 kJ/mol
# Density = 2.372129 g / cm^3
# Si number density = 23.775403 Si / 1000 Ang^3
#
#
#
# Elastic Constant Matrix: (Units=GPa)
#
#
# Indices 1 2 3 4 5 6 
#
# 1 58.7878 8.5299 18.1330 -0.4814 7.4788 -3.0407
# 2 8.5299 88.9233 29.1007 -5.5402 6.0259 -0.1755
# 3 18.1330 29.1007 151.7484 -1.3394 8.4057 1.6870
# 4 -0.4814 -5.5402 -1.3394 32.5238 -3.0842 2.8157
# 5 7.4788 6.0259 8.4057 -3.0842 24.2887 -3.4668
# 6 -3.0407 -0.1755 1.6870 2.8157 -3.4668 25.6893
#
#
#
# Elastic Compliance Matrix: (Units=1/GPa)
#
#
# Indices 1 2 3 4 5 6 
#
# 1 0.018367 -0.000892 -0.001791 -0.000542 -0.004638 0.001719
# 2 -0.000892 0.012265 -0.002123 0.001842 -0.001847 -0.000334
# 3 -0.001791 -0.002123 0.007308 -0.000161 -0.001601 -0.000905
# 4 -0.000542 0.001842 -0.000161 0.031628 0.003345 -0.003056
# 5 -0.004638 -0.001847 -0.001601 0.003345 0.044781 0.005220
# 6 0.001719 -0.000334 -0.000905 -0.003056 0.005220 0.040227
#
#
# Mechanical properties :
#
#
# Convention : Reuss Voigt Hill
#
# Bulk Modulus (GPa) = 35.30004 45.66519 40.48261
# Shear Modulus (GPa) = 28.79674 32.74675 30.77175
#
# Velocity S-wave (km/s) = 3.48400 3.71528 3.60150
# Velocity P-wave (km/s) = 5.57350 6.13620 5.86161
#
# Compressibility (1/GPa) = 0.02832858
#
# Stress axis : x y z
#
# Youngs Moduli (GPa) = 54.44683 81.53043 136.83062
#
# Poissons Ratio (x) = 0.07272 0.24502
# Poissons Ratio (y) = 0.04856 0.29053
# Poissons Ratio (z) = 0.09749 0.17311
#
# Static dielectric constant tensor:
#      x y z
#    x 4.050850 0.129290 0.074110 
#    y 0.129290 4.174790 -0.087930 
#    z 0.074110 -0.087930 4.666900 
# 
# 
# High freq. dielectric constant tensor:
#      x y z
#    x 1.920110 0.004540 0.005990 
#    y 0.004540 1.934290 -0.009240 
#    z 0.005990 -0.009240 1.963990 
# 
# From -- ./inp_files/71238.got.cif
#   From: 2010.06.25/outbox.cif.g09.slc.cpg/sg2_36_cif.got.tgz:71238.got - 2010.06.27 13:26:56.
