data_PCOD8020460
_publ_section_title
;
Structure prediction by ZEFSAII (Michael W. Deem and Ramdas Pophale) SiO2 
 PCOD8020460
Probable space group: P -1
;
_chemical_formula_sum "Si O2"
_cell_formula_units_Z 14
_cell_length_a 9.384717
_cell_length_b 12.402036
_cell_length_c 8.699980
_cell_angle_alpha 88.403974
_cell_angle_beta 137.321899
_cell_angle_gamma 85.858757
_cell_volume 679.695209
_symmetry_space_group_name_H-M "P -1"
_symmetry_group_IT_number 2
_symmetry_cell_setting 'triclinic'
loop_
_space_group_symop_operation_xyz
x,y,z
-x,-y,-z
loop_
_atom_site_type_symbol
_atom_site_label
_atom_site_fract_x
_atom_site_fract_y
_atom_site_fract_z
Si Si1 0.888436 0.371886 0.023670
Si Si2 0.357366 0.707107 0.443523
Si Si3 0.991238 0.821068 0.648216
Si Si4 0.451561 0.103676 0.562161
Si Si5 0.305836 0.979791 0.952339
Si Si6 0.079532 0.213566 0.752909
Si Si7 0.748982 0.612309 0.919039
O O1 0.715099 0.357282 0.756867
O O2 0.820997 0.489990 0.042315
O O3 0.892678 0.281978 0.162639
O O4 0.118504 0.365111 0.128728
O O5 0.507621 0.793018 0.506850
O O6 0.501059 0.625221 0.675271
O O7 0.159683 0.766817 0.378199
O O8 0.792383 0.882065 0.580855
O O9 0.912796 0.780747 0.425234
O O10 0.152122 0.908751 0.742274
O O11 0.500000 0.000000 0.500000
O O12 0.612086 0.089978 0.832405
O O13 0.181099 0.095709 0.900207
O O14 0.500000 0.000000 0.000000
O O15 0.214579 0.304851 0.918949
#
# Coordination Sequence:
#
# PCOD8020460 Si02
#       7
#     2   2   2   2   2   2   2
#     4  10  22  42  68  97 127 171 220 265 318 381
#     4  11  22  42  66  98 128 169 218 266 321 379
#     4  12  25  44  64 100 132 168 215 264 322 392
#     4  12  25  39  68  96 129 172 214 266 316 384
#     4  12  26  43  65  93 133 173 208 264 326 381
#     4  11  26  40  66  97 132 171 215 263 324 385
#     4  10  22  43  68  94 131 170 216 269 318 379
#
# _framework density 20.597467000000002
#
# number of rings (size 3 to 8) (size 9 to 14) (size 15 to 20)
#    0.000    0.857    4.286    2.571    6.000    1.714 
#    0.000    0.714    0.000    0.000    0.000    0.000 
#    0.000    0.000    0.000    0.000    0.000    0.000 
#
# Total GULP energy -173685.359150 kJ/mol
# GULP energy per Si atom -12406.097082 kJ/mol
# Density = 2.055059 g / cm^3
# Si number density = 20.597467 Si / 1000 Ang^3
#
#
#
# Elastic Constant Matrix: (Units=GPa)
#
#
# Indices 1 2 3 4 5 6 
#
# 1 78.9744 34.0744 31.0523 -3.0330 7.2335 -1.8630
# 2 34.0744 139.2374 49.2676 -1.3276 2.0962 -12.6733
# 3 31.0523 49.2676 116.1824 -8.0479 6.7083 -10.5122
# 4 -3.0330 -1.3276 -8.0479 30.2862 -1.4335 1.5929
# 5 7.2335 2.0962 6.7083 -1.4335 35.6133 3.1976
# 6 -1.8630 -12.6733 -10.5122 1.5929 3.1976 24.5619
#
#
#
# Elastic Compliance Matrix: (Units=1/GPa)
#
#
# Indices 1 2 3 4 5 6 
#
# 1 0.015173 -0.002791 -0.002811 0.000609 -0.002252 -0.001239
# 2 -0.002791 0.009188 -0.002922 -0.000815 0.000248 0.003299
# 3 -0.002811 -0.002922 0.011126 0.002312 -0.001537 0.003091
# 4 0.000609 -0.000815 0.002312 0.033795 0.001002 -0.001707
# 5 -0.002252 0.000248 -0.001537 0.001002 0.029263 -0.004576
# 6 -0.001239 0.003299 0.003091 -0.001707 -0.004576 0.044351
#
#
# Mechanical properties :
#
#
# Convention : Reuss Voigt Hill
#
# Bulk Modulus (GPa) = 54.24016 62.57587 58.40801
# Shear Modulus (GPa) = 30.10388 32.75894 31.43141
#
# Velocity S-wave (km/s) = 3.82715 3.99235 3.91062
# Velocity P-wave (km/s) = 6.77643 7.19014 6.98635
#
# Compressibility (1/GPa) = 0.01843652
#
# Stress axis : x y z
#
# Youngs Moduli (GPa) = 65.90855 108.83879 89.87643
#
# Poissons Ratio (x) = 0.30380 0.25268
# Poissons Ratio (y) = 0.18397 0.26266
# Poissons Ratio (z) = 0.18530 0.31807
#
# Static dielectric constant tensor:
#      x y z
#    x 3.560100 -0.129670 0.147730 
#    y -0.129670 3.631820 0.137150 
#    z 0.147730 0.137150 4.006240 
# 
# 
# High freq. dielectric constant tensor:
#      x y z
#    x 1.792620 -0.007770 0.008070 
#    y -0.007770 1.815040 -0.003970 
#    z 0.008070 -0.003970 1.820960 
# 
# From -- ./inp_files/26829.got.cif
#   From: 2010.06.25/outbox.cif.g09.slc.cpg/sg2_14_cif.got.tgz:26829.got - 2010.06.27 13:26:56.
