data_PCOD8020634
_publ_section_title
;
Structure prediction by ZEFSAII (Michael W. Deem and Ramdas Pophale) SiO2 
 PCOD8020634
Probable space group: P -1
;
_chemical_formula_sum "Si O2"
_cell_formula_units_Z 16
_cell_length_a 9.316986
_cell_length_b 20.965041
_cell_length_c 8.691271
_cell_angle_alpha 60.870159
_cell_angle_beta 116.013508
_cell_angle_gamma 151.186972
_cell_volume 714.419165
_symmetry_space_group_name_H-M "P -1"
_symmetry_group_IT_number 2
_symmetry_cell_setting 'triclinic'
loop_
_space_group_symop_operation_xyz
x,y,z
-x,-y,-z
loop_
_atom_site_type_symbol
_atom_site_label
_atom_site_fract_x
_atom_site_fract_y
_atom_site_fract_z
Si Si1 0.289384 0.743204 0.535415
Si Si2 0.158554 0.995126 0.659895
Si Si3 0.805832 0.724641 0.727920
Si Si4 0.379638 0.885074 0.683296
Si Si5 0.375825 0.525678 0.484597
Si Si6 0.738006 0.939739 0.028793
Si Si7 0.316387 0.650076 0.128823
Si Si8 0.633466 0.376482 0.149507
O O1 0.488919 0.864567 0.366879
O O2 0.321412 0.792471 0.659253
O O3 0.389120 0.696775 0.648071
O O4 0.961154 0.621617 0.453024
O O5 0.122949 0.972949 0.852327
O O6 0.000000 0.000000 0.500000
O O7 0.017503 0.875878 0.637589
O O8 0.558269 0.622036 0.603005
O O9 0.610919 0.655294 0.877753
O O10 0.063999 0.765104 0.770581
O O11 0.500000 0.000000 0.500000
O O12 0.624715 0.961229 0.839366
O O13 0.500000 0.500000 0.500000
O O14 0.381761 0.595560 0.289983
O O15 0.486502 0.782100 0.137064
O O16 0.000000 0.000000 0.000000
O O17 0.967808 0.537294 0.107879
O O18 0.442787 0.691033 0.968067
#
# Coordination Sequence:
#
# PCOD8020634 Si02
#       8
#     2   2   2   2   2   2   2   2
#     4  11  22  44  70  98 141 187 238 288 358 432
#     4  12  24  43  72 106 142 185 244 298 353 423
#     4  12  25  43  68 105 145 181 236 296 367 414
#     4  12  26  47  72 107 148 187 233 308 364 424
#     4  11  25  43  69 103 140 192 235 291 365 427
#     4  12  27  45  75 104 142 196 248 287 362 440
#     4  10  23  43  69  98 139 187 247 286 353 428
#     4  10  22  42  70  98 139 184 235 295 349 423
#
# _framework density 22.395814000000001
#
# number of rings (size 3 to 8) (size 9 to 14) (size 15 to 20)
#    0.000    0.750    5.000    2.250    3.500    1.500 
#    2.250    1.250    0.000    0.000    0.000    0.000 
#    0.000    0.000    0.000    0.000    0.000    0.000 
#
# Total GULP energy -198222.991138 kJ/mol
# GULP energy per Si atom -12388.936946 kJ/mol
# Density = 2.234484 g / cm^3
# Si number density = 22.395814 Si / 1000 Ang^3
#
#
#
# Elastic Constant Matrix: (Units=GPa)
#
#
# Indices 1 2 3 4 5 6 
#
# 1 100.3213 32.2307 37.1390 -1.0662 -16.2200 21.9900
# 2 32.2307 130.2969 40.3382 7.0106 -9.1635 -0.8242
# 3 37.1390 40.3382 95.7200 14.9479 2.2756 7.4259
# 4 -1.0662 7.0106 14.9479 38.5125 -0.6377 -3.4738
# 5 -16.2200 -9.1635 2.2756 -0.6377 35.8182 -2.4953
# 6 21.9900 -0.8242 7.4259 -3.4738 -2.4953 48.6143
#
#
#
# Elastic Compliance Matrix: (Units=1/GPa)
#
#
# Indices 1 2 3 4 5 6 
#
# 1 0.014586 -0.001789 -0.004989 0.002282 0.006130 -0.005388
# 2 -0.001789 0.009313 -0.003354 -0.000271 0.001889 0.001557
# 3 -0.004989 -0.003354 0.014790 -0.005397 -0.004199 -0.000660
# 4 0.002282 -0.000271 -0.005397 0.028378 0.001945 0.001915
# 5 0.006130 0.001889 -0.004199 0.001945 0.031455 -0.000346
# 6 -0.005388 0.001557 -0.000660 0.001915 -0.000346 0.023254
#
#
# Mechanical properties :
#
#
# Convention : Reuss Voigt Hill
#
# Bulk Modulus (GPa) = 54.27482 60.63934 57.45708
# Shear Modulus (GPa) = 33.74206 39.03102 36.38654
#
# Velocity S-wave (km/s) = 3.88574 4.17919 4.03513
# Velocity P-wave (km/s) = 6.66475 7.10088 6.88627
#
# Compressibility (1/GPa) = 0.01842475
#
# Stress axis : x y z
#
# Youngs Moduli (GPa) = 68.55738 107.37735 67.61206
#
# Poissons Ratio (x) = 0.19212 0.33734
# Poissons Ratio (y) = 0.12266 0.22676
# Poissons Ratio (z) = 0.34206 0.36012
#
# Static dielectric constant tensor:
#      x y z
#    x 4.275740 -0.023600 -0.067810 
#    y -0.023600 4.490230 -0.035410 
#    z -0.067810 -0.035410 3.926240 
# 
# 
# High freq. dielectric constant tensor:
#      x y z
#    x 1.893420 0.005530 -0.009470 
#    y 0.005530 1.907890 0.002220 
#    z -0.009470 0.002220 1.854910 
# 
# From -- ./inp_files/223494.got.cif
#   From: 2010.06.25/outbox.cif.g09.slc.cpg/sg2_112_cif.got.tgz:223494.got - 2010.06.27 13:26:56.
