data_PCOD8020645
_publ_section_title
;
Structure prediction by ZEFSAII (Michael W. Deem and Ramdas Pophale) SiO2 
 PCOD8020645
Probable space group: P -1
;
_chemical_formula_sum "Si O2"
_cell_formula_units_Z 16
_cell_length_a 23.349515
_cell_length_b 9.170127
_cell_length_c 9.354948
_cell_angle_alpha 131.048357
_cell_angle_beta 153.405253
_cell_angle_gamma 47.474283
_cell_volume 652.510317
_symmetry_space_group_name_H-M "P -1"
_symmetry_group_IT_number 2
_symmetry_cell_setting 'triclinic'
loop_
_space_group_symop_operation_xyz
x,y,z
-x,-y,-z
loop_
_atom_site_type_symbol
_atom_site_label
_atom_site_fract_x
_atom_site_fract_y
_atom_site_fract_z
Si Si1 0.650645 0.141003 0.864823
Si Si2 0.407293 0.453006 0.886801
Si Si3 0.866286 0.480169 0.257989
Si Si4 0.630140 0.839794 0.847298
Si Si5 0.037721 0.391910 0.164977
Si Si6 0.877659 0.188599 0.864417
Si Si7 0.605547 0.109918 0.216873
Si Si8 0.720271 0.887295 0.595521
O O1 0.490123 0.218526 0.540768
O O2 0.698963 0.962859 0.971720
O O3 0.726758 0.055772 0.834610
O O4 0.688345 0.342523 0.130161
O O5 0.314253 0.309038 0.537416
O O6 0.500000 0.500000 0.000000
O O7 0.504979 0.330271 0.149044
O O8 0.885334 0.488166 0.478136
O O9 0.000000 0.500000 0.500000
O O10 0.739001 0.653734 0.035669
O O11 0.850943 0.270784 0.022375
O O12 0.555781 0.989603 0.901406
O O13 0.139570 0.177646 0.216376
O O14 0.000000 0.500000 0.000000
O O15 0.908092 0.357173 0.933593
O O16 0.746831 0.130197 0.487261
O O17 0.000000 0.000000 0.000000
O O18 0.610805 0.988251 0.297152
#
# Coordination Sequence:
#
# PCOD8020645 Si02
#       8
#     2   2   2   2   2   2   2   2
#     4  11  25  41  71 105 139 185 233 287 357 419
#     4  12  25  44  70 104 135 184 236 284 353 421
#     4  10  22  42  70  99 137 191 233 283 355 416
#     4  11  21  45  68 101 141 182 233 286 349 425
#     4  11  26  45  70 102 140 183 235 299 350 412
#     4  11  23  46  71 101 135 185 241 278 353 425
#     4  12  23  44  72  97 143 184 227 295 347 423
#     4  12  26  46  67 102 148 176 231 298 355 413
#
# _framework density 24.520686000000001
#
# number of rings (size 3 to 8) (size 9 to 14) (size 15 to 20)
#    0.000    0.750    5.000    2.625    5.250    1.500 
#    0.000    0.625    0.000    0.000    0.000    0.000 
#    0.000    0.000    0.000    0.000    0.000    0.000 
#
# Total GULP energy -198326.926385 kJ/mol
# GULP energy per Si atom -12395.432899 kJ/mol
# Density = 2.446488 g / cm^3
# Si number density = 24.520686 Si / 1000 Ang^3
#
#
#
# Elastic Constant Matrix: (Units=GPa)
#
#
# Indices 1 2 3 4 5 6 
#
# 1 119.0953 34.4985 22.1080 11.5931 -22.4235 -1.1789
# 2 34.4985 116.8972 29.6720 8.1885 -27.6723 -13.0991
# 3 22.1080 29.6720 56.2049 -2.6407 -14.6120 0.7817
# 4 11.5931 8.1885 -2.6407 40.7251 1.0834 -8.3135
# 5 -22.4235 -27.6723 -14.6120 1.0834 54.2797 4.2092
# 6 -1.1789 -13.0991 0.7817 -8.3135 4.2092 47.8882
#
#
#
# Elastic Compliance Matrix: (Units=1/GPa)
#
#
# Indices 1 2 3 4 5 6 
#
# 1 0.010141 -0.001565 -0.002554 -0.002998 0.002834 -0.000906
# 2 -0.001565 0.011488 -0.004574 -0.001744 0.003816 0.002540
# 3 -0.002554 -0.004574 0.022035 0.002714 0.002602 -0.001431
# 4 -0.002998 -0.001744 0.002714 0.026866 -0.002264 0.004268
# 5 0.002834 0.003816 0.002602 -0.002264 0.022385 -0.001289
# 6 -0.000906 0.002540 -0.001431 0.004268 -0.001289 0.022432
#
#
# Mechanical properties :
#
#
# Convention : Reuss Voigt Hill
#
# Bulk Modulus (GPa) = 38.05597 51.63938 44.84767
# Shear Modulus (GPa) = 35.33756 42.30650 38.82203
#
# Velocity S-wave (km/s) = 3.80034 4.15823 3.98331
# Velocity P-wave (km/s) = 5.90004 6.64528 6.28372
#
# Compressibility (1/GPa) = 0.02627708
#
# Stress axis : x y z
#
# Youngs Moduli (GPa) = 98.61419 87.04961 45.38185
#
# Poissons Ratio (x) = 0.13624 0.11591
# Poissons Ratio (y) = 0.15434 0.20758
# Poissons Ratio (z) = 0.25186 0.39817
#
# Static dielectric constant tensor:
#      x y z
#    x 8.712160 -3.992150 -3.450670 
#    y -3.992150 8.201510 3.324640 
#    z -3.450670 3.324640 7.281210 
# 
# 
# High freq. dielectric constant tensor:
#      x y z
#    x 1.985850 -0.007660 -0.000220 
#    y -0.007660 1.975160 0.001770 
#    z -0.000220 0.001770 1.965850 
# 
# From -- ./inp_files/352462.got.cif
#   From: 2010.06.25/outbox.cif.g09.slc.cpg/sg2_177_cif.got.tgz:352462.got - 2010.06.27 13:26:56.
