data_PCOD8020488
_publ_section_title
;
Structure prediction by ZEFSAII (Michael W. Deem and Ramdas Pophale) SiO2 
 PCOD8020488
Probable space group: P -1
;
_chemical_formula_sum "Si O2"
_cell_formula_units_Z 14
_cell_length_a 14.695801
_cell_length_b 13.950638
_cell_length_c 23.552995
_cell_angle_alpha 20.438466
_cell_angle_beta 20.930859
_cell_angle_gamma 31.110083
_cell_volume 595.324212
_symmetry_space_group_name_H-M "P -1"
_symmetry_group_IT_number 2
_symmetry_cell_setting 'triclinic'
loop_
_space_group_symop_operation_xyz
x,y,z
-x,-y,-z
loop_
_atom_site_type_symbol
_atom_site_label
_atom_site_fract_x
_atom_site_fract_y
_atom_site_fract_z
Si Si1 0.228270 0.234582 0.757075
Si Si2 0.937494 0.705875 0.056116
Si Si3 0.546027 0.977749 0.418662
Si Si4 0.742244 0.108998 0.473110
Si Si5 0.288898 0.806179 0.120597
Si Si6 0.799211 0.166496 0.612909
Si Si7 0.800696 0.451414 0.564974
O O1 0.239436 0.275593 0.795554
O O2 0.484111 0.117197 0.654497
O O3 0.204069 0.538624 0.578440
O O4 0.000000 0.000000 0.000000
O O5 0.895258 0.417693 0.208097
O O6 0.869988 0.935396 0.923235
O O7 0.235807 0.765463 0.867248
O O8 0.308693 0.002159 0.500601
O O9 0.642684 0.692075 0.503831
O O10 0.500000 0.000000 0.500000
O O11 0.920183 0.926647 0.506431
O O12 0.317596 0.665256 0.242244
O O13 0.108224 0.573319 0.317815
O O14 0.567571 0.920114 0.866135
O O15 0.749920 0.201886 0.688807
#
# Coordination Sequence:
#
# PCOD8020488 Si02
#       7
#     2   2   2   2   2   2   2
#     4  12  24  53  72  99 148 188 239 296 350 418
#     4  11  24  47  74  98 146 192 229 297 352 414
#     4  11  25  46  70 105 146 185 235 294 356 421
#     4  12  27  44  72 108 136 188 240 285 358 423
#     4  10  22  42  68  99 135 189 234 282 355 412
#     4  12  26  43  71 106 142 183 238 292 353 422
#     4  10  22  44  69  98 145 190 232 293 351 417
#
# _framework density 23.516597999999998
#
# number of rings (size 3 to 8) (size 9 to 14) (size 15 to 20)
#    0.000    0.857    4.286    1.714    8.000    1.714 
#    0.000    0.000    0.000    0.000    0.000    0.000 
#    0.000    0.000    0.000    0.000    0.000    0.000 
#
# Total GULP energy -173540.985991 kJ/mol
# GULP energy per Si atom -12395.784714 kJ/mol
# Density = 2.346307 g / cm^3
# Si number density = 23.516598 Si / 1000 Ang^3
#
#
#
# Elastic Constant Matrix: (Units=GPa)
#
#
# Indices 1 2 3 4 5 6 
#
# 1 68.2231 14.8552 28.3119 8.8003 -10.2280 -4.2763
# 2 14.8552 88.4978 42.9144 14.3065 -12.9968 -11.5423
# 3 28.3119 42.9144 135.2503 -4.5615 -11.4520 -18.2925
# 4 8.8003 14.3065 -4.5615 26.6722 2.7416 -2.0906
# 5 -10.2280 -12.9968 -11.4520 2.7416 29.3334 2.4888
# 6 -4.2763 -11.5423 -18.2925 -2.0906 2.4888 36.5809
#
#
#
# Elastic Compliance Matrix: (Units=1/GPa)
#
#
# Indices 1 2 3 4 5 6 
#
# 1 0.017910 0.000924 -0.003854 -0.007701 0.005902 -0.000384
# 2 0.000924 0.016439 -0.004975 -0.010503 0.006496 0.001765
# 3 -0.003854 -0.004975 0.010436 0.006040 -0.000341 0.003567
# 4 -0.007701 -0.010503 0.006040 0.047863 -0.009641 0.002197
# 5 0.005902 0.006496 -0.000341 -0.009641 0.039853 -0.000693
# 6 -0.000384 0.001765 0.003567 0.002197 -0.000693 0.029805
#
#
# Mechanical properties :
#
#
# Convention : Reuss Voigt Hill
#
# Bulk Modulus (GPa) = 34.51188 51.57047 43.04117
# Shear Modulus (GPa) = 26.62755 32.24329 29.43542
#
# Velocity S-wave (km/s) = 3.36860 3.70684 3.54176
# Velocity P-wave (km/s) = 5.46236 6.34806 5.92179
#
# Compressibility (1/GPa) = 0.02897553
#
# Stress axis : x y z
#
# Youngs Moduli (GPa) = 55.83412 60.83069 95.81926
#
# Poissons Ratio (x) = -0.05623 0.36932
# Poissons Ratio (y) = -0.05161 0.47670
# Poissons Ratio (z) = 0.21520 0.30264
#
# Static dielectric constant tensor:
#      x y z
#    x 4.353520 -0.132060 -0.275960 
#    y -0.132060 4.114800 -0.044180 
#    z -0.275960 -0.044180 4.431390 
# 
# 
# High freq. dielectric constant tensor:
#      x y z
#    x 1.934040 -0.012240 -0.016450 
#    y -0.012240 1.917130 -0.009220 
#    z -0.016450 -0.009220 1.941230 
# 
# From -- ./inp_files/427041.got.cif
#   From: 2010.06.25/outbox.cif.g09.slc.cpg/sg2_214_cif.got.tgz:427041.got - 2010.06.27 13:26:56.
