data_PCOD8020989
_publ_section_title
;
Structure prediction by ZEFSAII (Michael W. Deem and Ramdas Pophale) SiO2 
 PCOD8020989
Probable space group: P -1
;
_chemical_formula_sum "Si O2"
_cell_formula_units_Z 14
_cell_length_a 5.376084
_cell_length_b 16.788885
_cell_length_c 9.786869
_cell_angle_alpha 63.781631
_cell_angle_beta 61.719895
_cell_angle_gamma 55.951445
_cell_volume 625.403817
_symmetry_space_group_name_H-M "P -1"
_symmetry_group_IT_number 2
_symmetry_cell_setting 'triclinic'
loop_
_space_group_symop_operation_xyz
x,y,z
-x,-y,-z
loop_
_atom_site_type_symbol
_atom_site_label
_atom_site_fract_x
_atom_site_fract_y
_atom_site_fract_z
Si Si1 0.271940 0.759575 0.039975
Si Si2 0.795943 0.838614 0.870366
Si Si3 0.123288 0.226156 0.607339
Si Si4 0.356221 0.982718 0.408110
Si Si5 0.899772 0.286852 0.347080
Si Si6 0.232614 0.419063 0.399748
Si Si7 0.762969 0.586946 0.900771
O O1 0.530479 0.798969 0.977295
O O2 0.424730 0.647882 0.018125
O O3 0.972051 0.834167 0.970982
O O4 0.131109 0.750988 0.227233
O O5 0.095823 0.775696 0.740492
O O6 0.617615 0.948270 0.771418
O O7 0.444985 0.127845 0.619460
O O8 0.177862 0.322310 0.495207
O O9 0.978120 0.212919 0.511206
O O10 0.500000 0.000000 0.500000
O O11 0.000000 0.000000 0.500000
O O12 0.584742 0.386098 0.385208
O O13 0.162004 0.322024 0.217855
O O14 0.232950 0.460220 0.214075
O O15 0.000000 0.500000 0.500000
O O16 0.000000 0.500000 0.000000
#
# Coordination Sequence:
#
# PCOD8020989 Si02
#       7
#     2   2   2   2   2   2   2
#     4  11  26  44  69 102 147 179 227 295 352 412
#     4  11  23  46  69 101 140 184 229 285 353 413
#     4  11  27  43  68 105 137 183 235 294 346 422
#     4  12  25  43  78 105 137 186 238 285 350 422
#     4  10  22  43  66  93 137 178 235 281 345 417
#     4  11  25  42  69  97 138 185 237 290 343 422
#     4  10  24  41  63  94 134 183 230 285 347 410
#
# _framework density 22.385535999999998
#
# number of rings (size 3 to 8) (size 9 to 14) (size 15 to 20)
#    0.000    1.143    2.857    1.714    8.000    4.000 
#    0.000    0.000    0.000    0.000    0.000    0.000 
#    0.000    0.000    0.000    0.000    0.000    0.000 
#
# Total GULP energy -173445.210603 kJ/mol
# GULP energy per Si atom -12388.943615 kJ/mol
# Density = 2.233459 g / cm^3
# Si number density = 22.385536 Si / 1000 Ang^3
#
#
#
# Elastic Constant Matrix: (Units=GPa)
#
#
# Indices 1 2 3 4 5 6 
#
# 1 102.4615 20.1174 35.6592 4.5473 7.5266 -18.2618
# 2 20.1174 131.1124 53.1533 7.5908 -1.7344 -22.3415
# 3 35.6592 53.1533 147.3595 9.1626 12.2933 -15.2882
# 4 4.5473 7.5908 9.1626 39.4717 -16.4197 1.2242
# 5 7.5266 -1.7344 12.2933 -16.4197 22.1889 -5.5059
# 6 -18.2618 -22.3415 -15.2882 1.2242 -5.5059 32.2975
#
#
#
# Elastic Compliance Matrix: (Units=1/GPa)
#
#
# Indices 1 2 3 4 5 6 
#
# 1 0.011708 -0.000077 -0.001807 -0.002567 -0.003586 0.005197
# 2 -0.000077 0.010088 -0.003417 0.000619 0.004677 0.006091
# 3 -0.001807 -0.003417 0.009453 -0.004879 -0.008547 -0.000183
# 4 -0.002567 0.000619 -0.004879 0.040767 0.034018 0.000921
# 5 -0.003586 0.004677 -0.008547 0.034018 0.078870 0.009317
# 6 0.005197 0.006091 -0.000183 0.000921 0.009317 0.039581
#
#
# Mechanical properties :
#
#
# Convention : Reuss Voigt Hill
#
# Bulk Modulus (GPa) = 48.43374 66.53258 57.48316
# Shear Modulus (GPa) = 24.04408 36.92518 30.48463
#
# Velocity S-wave (km/s) = 3.28089 4.06582 3.69426
# Velocity P-wave (km/s) = 6.00295 7.19910 6.62806
#
# Compressibility (1/GPa) = 0.02064676
#
# Stress axis : x y z
#
# Youngs Moduli (GPa) = 85.41521 99.12700 105.78190
#
# Poissons Ratio (x) = 0.00762 0.19118
# Poissons Ratio (y) = 0.00657 0.36144
# Poissons Ratio (z) = 0.15437 0.33871
#
# Static dielectric constant tensor:
#      x y z
#    x 4.120590 -0.098200 0.113450 
#    y -0.098200 4.144090 0.130650 
#    z 0.113450 0.130650 4.302860 
# 
# 
# High freq. dielectric constant tensor:
#      x y z
#    x 1.878150 -0.012910 0.005000 
#    y -0.012910 1.881900 0.000180 
#    z 0.005000 0.000180 1.895890 
# 
# From -- ./inp_files/27179.got.cif
#   From: 2010.06.25/outbox.cif.g09.slc.cpg/sg2_14_cif.got.tgz:27179.got - 2010.06.27 13:26:56.
