data_PCOD8020580
_publ_section_title
;
Structure prediction by ZEFSAII (Michael W. Deem and Ramdas Pophale) SiO2 
 PCOD8020580
Probable space group: P -1
;
_chemical_formula_sum "Si O2"
_cell_formula_units_Z 14
_cell_length_a 11.671602
_cell_length_b 6.472983
_cell_length_c 11.821529
_cell_angle_alpha 60.426508
_cell_angle_beta 50.097822
_cell_angle_gamma 78.801236
_cell_volume 585.778061
_symmetry_space_group_name_H-M "P -1"
_symmetry_group_IT_number 2
_symmetry_cell_setting 'triclinic'
loop_
_space_group_symop_operation_xyz
x,y,z
-x,-y,-z
loop_
_atom_site_type_symbol
_atom_site_label
_atom_site_fract_x
_atom_site_fract_y
_atom_site_fract_z
Si Si1 0.354219 0.587900 0.119916
Si Si2 0.295460 0.010398 0.889572
Si Si3 0.881914 0.582482 0.137681
Si Si4 0.061314 0.235297 0.465435
Si Si5 0.878264 0.601372 0.387830
Si Si6 0.445363 0.605387 0.297465
Si Si7 0.627211 0.209963 0.316362
O O1 0.223858 0.353091 0.278777
O O2 0.394944 0.708819 0.183715
O O3 0.500000 0.500000 0.000000
O O4 0.282382 0.787685 0.043715
O O5 0.271871 0.905588 0.806391
O O6 0.169470 0.177571 0.946053
O O7 0.463586 0.174130 0.747206
O O8 0.951008 0.646504 0.203666
O O9 0.740937 0.354940 0.298909
O O10 0.000000 0.500000 0.000000
O O11 0.079579 0.180426 0.604926
O O12 0.932768 0.391767 0.481019
O O13 0.000000 0.000000 0.500000
O O14 0.697175 0.529169 0.502457
O O15 0.547079 0.407958 0.252053
O O16 0.500000 0.000000 0.500000
#
# Coordination Sequence:
#
# PCOD8020580 Si02
#       7
#     2   2   2   2   2   2   2
#     4  11  23  43  71 103 139 177 234 292 357 414
#     4  11  24  43  70 102 140 180 232 294 348 417
#     4  11  27  47  68 101 144 189 235 287 355 412
#     4  10  25  46  73 102 138 186 237 289 346 429
#     4  10  23  46  68 101 139 186 238 282 352 417
#     4  10  22  42  70 101 136 183 231 285 359 415
#     4  11  23  42  68 105 135 182 238 281 343 435
#
# _framework density 23.899836000000001
#
# number of rings (size 3 to 8) (size 9 to 14) (size 15 to 20)
#    0.000    1.429    1.429    2.143    4.000    6.286 
#   12.857    0.000    0.000    0.000    0.000    0.000 
#    0.000    0.000    0.000    0.000    0.000    0.000 
#
# Total GULP energy -173521.234849 kJ/mol
# GULP energy per Si atom -12394.373918 kJ/mol
# Density = 2.384544 g / cm^3
# Si number density = 23.899836 Si / 1000 Ang^3
#
#
#
# Elastic Constant Matrix: (Units=GPa)
#
#
# Indices 1 2 3 4 5 6 
#
# 1 120.6890 60.7391 45.0692 7.3954 14.0566 16.1601
# 2 60.7391 129.1004 54.4678 11.5660 10.8727 14.5375
# 3 45.0692 54.4678 99.0029 19.1869 16.0169 5.7441
# 4 7.3954 11.5660 19.1869 40.2103 -0.7059 -3.4372
# 5 14.0566 10.8727 16.0169 -0.7059 41.5567 6.9969
# 6 16.1601 14.5375 5.7441 -3.4372 6.9969 46.8054
#
#
#
# Elastic Compliance Matrix: (Units=1/GPa)
#
#
# Indices 1 2 3 4 5 6 
#
# 1 0.011825 -0.003998 -0.002834 0.000108 -0.001478 -0.002264
# 2 -0.003998 0.011746 -0.004454 -0.000668 0.000290 -0.001814
# 3 -0.002834 -0.004454 0.015556 -0.005636 -0.004076 0.000648
# 4 0.000108 -0.000668 -0.005636 0.027992 0.002354 0.002566
# 5 -0.001478 0.000290 -0.004076 0.002354 0.026584 -0.002880
# 6 -0.002264 -0.001814 0.000648 0.002566 -0.002880 0.023250
#
#
# Mechanical properties :
#
#
# Convention : Reuss Voigt Hill
#
# Bulk Modulus (GPa) = 60.40901 74.37161 67.39031
# Shear Modulus (GPa) = 34.47290 38.28223 36.37757
#
# Velocity S-wave (km/s) = 3.80200 4.00656 3.90562
# Velocity P-wave (km/s) = 6.67865 7.25183 6.97113
#
# Compressibility (1/GPa) = 0.01655382
#
# Stress axis : x y z
#
# Youngs Moduli (GPa) = 84.56807 85.13685 64.28539
#
# Poissons Ratio (x) = 0.34037 0.18218
# Poissons Ratio (y) = 0.33809 0.28636
# Poissons Ratio (z) = 0.23965 0.37924
#
# Static dielectric constant tensor:
#      x y z
#    x 4.541590 -0.624550 -0.606960 
#    y -0.624550 -1.086850 -3.773740 
#    z -0.606960 -3.773740 1.410260 
# 
# 
# High freq. dielectric constant tensor:
#      x y z
#    x 1.963920 0.008490 -0.006460 
#    y 0.008490 1.949560 0.010040 
#    z -0.006460 0.010040 1.934170 
# 
# From -- ./inp_files/409965.got.cif
#   From: 2010.06.25/outbox.cif.g09.slc.cpg/sg2_205_cif.got.tgz:409965.got - 2010.06.27 13:26:56.
