data_PCOD8020267
_publ_section_title
;
Structure prediction by ZEFSAII (Michael W. Deem and Ramdas Pophale) SiO2 
 PCOD8020267
Probable space group: P -1
;
_chemical_formula_sum "Si O2"
_cell_formula_units_Z 12
_cell_length_a 15.213691
_cell_length_b 9.110356
_cell_length_c 11.881594
_cell_angle_alpha 104.122346
_cell_angle_beta 161.136211
_cell_angle_gamma 74.033083
_cell_volume 511.200121
_symmetry_space_group_name_H-M "P -1"
_symmetry_group_IT_number 2
_symmetry_cell_setting 'triclinic'
loop_
_space_group_symop_operation_xyz
x,y,z
-x,-y,-z
loop_
_atom_site_type_symbol
_atom_site_label
_atom_site_fract_x
_atom_site_fract_y
_atom_site_fract_z
Si Si1 0.042049 0.037580 0.429952
Si Si2 0.805940 0.800972 0.787160
Si Si3 0.535646 0.947514 0.690420
Si Si4 0.691841 0.219167 0.442613
Si Si5 0.349700 0.433422 0.603249
Si Si6 0.991427 0.368873 0.374922
O O1 0.137358 0.205226 0.567638
O O2 0.000000 0.000000 0.500000
O O3 0.266524 0.902004 0.630601
O O4 0.781289 0.043798 0.032009
O O5 0.561777 0.846073 0.589734
O O6 0.799853 0.633124 0.696530
O O7 0.744475 0.929138 0.636451
O O8 0.086286 0.803550 0.192248
O O9 0.563744 0.826776 0.806016
O O10 0.653981 0.386026 0.377228
O O11 0.172553 0.404129 0.493247
O O12 0.667253 0.357824 0.965374
O O13 0.000000 0.500000 0.500000
#
# Coordination Sequence:
#
# PCOD8020267 Si02
#       6
#     2   2   2   2   2   2
#     4  11  25  45  71 101 137 186 239 291 349 419
#     4  10  22  42  67 104 138 186 230 288 352 416
#     4  10  22  42  68 102 137 182 235 290 348 418
#     4  11  25  41  71 103 142 182 237 289 351 422
#     4  12  27  46  74 105 145 185 234 292 354 417
#     4  12  28  50  72 102 145 189 236 290 354 416
#
# _framework density 23.474173
#
# number of rings (size 3 to 8) (size 9 to 14) (size 15 to 20)
#    0.000    1.000    1.667    3.500    9.333    1.333 
#    0.000    0.000    0.000    0.000    0.000    0.000 
#    0.000    0.000    0.000    0.000    0.000    0.000 
#
# Total GULP energy -148673.903004 kJ/mol
# GULP energy per Si atom -12389.491917 kJ/mol
# Density = 2.342074 g / cm^3
# Si number density = 23.474173 Si / 1000 Ang^3
#
#
#
# Elastic Constant Matrix: (Units=GPa)
#
#
# Indices 1 2 3 4 5 6 
#
# 1 143.1314 75.8592 13.1389 10.7229 7.0549 2.8442
# 2 75.8592 199.8955 -4.4430 11.8878 -0.0638 -1.9484
# 3 13.1389 -4.4430 31.7271 -2.2338 7.4566 -6.0715
# 4 10.7229 11.8878 -2.2338 34.5591 -4.5522 -8.8466
# 5 7.0549 -0.0638 7.4566 -4.5522 36.5849 10.0606
# 6 2.8442 -1.9484 -6.0715 -8.8466 10.0606 47.7101
#
#
#
# Elastic Compliance Matrix: (Units=1/GPa)
#
#
# Indices 1 2 3 4 5 6 
#
# 1 0.009606 -0.003616 -0.004806 -0.002568 -0.000745 -0.001651
# 2 -0.003616 0.006484 0.002498 -0.000786 -0.000082 0.000670
# 3 -0.004806 0.002498 0.037560 0.003921 -0.008341 0.007654
# 4 -0.002568 -0.000786 0.003921 0.032094 0.001997 0.006150
# 5 -0.000745 -0.000082 -0.008341 0.001997 0.031427 -0.007277
# 6 -0.001651 0.000670 0.007654 0.006150 -0.007277 0.024735
#
#
# Mechanical properties :
#
#
# Convention : Reuss Voigt Hill
#
# Bulk Modulus (GPa) = 23.92306 60.42936 42.17621
# Shear Modulus (GPa) = 29.81729 43.11742 36.46736
#
# Velocity S-wave (km/s) = 3.56788 4.29044 3.94573
# Velocity P-wave (km/s) = 5.21405 7.09526 6.22611
#
# Compressibility (1/GPa) = 0.04180067
#
# Stress axis : x y z
#
# Youngs Moduli (GPa) = 104.10053 154.23535 26.62398
#
# Poissons Ratio (x) = 0.55770 0.12796
# Poissons Ratio (y) = 0.37642 -0.06649
# Poissons Ratio (z) = 0.50033 -0.38521
#
# Static dielectric constant tensor:
#      x y z
#    x 4.425670 -0.149950 0.053340 
#    y -0.149950 4.402540 0.077820 
#    z 0.053340 0.077820 4.329190 
# 
# 
# High freq. dielectric constant tensor:
#      x y z
#    x 1.937380 -0.005970 -0.006880 
#    y -0.005970 1.943360 0.010420 
#    z -0.006880 0.010420 1.924490 
# 
# From -- ./inp_files/17736.got.cif
#   From: 2010.06.25/outbox.cif.g09.slc.cpg/sg2_9_cif.got.tgz:17736.got - 2010.06.27 13:26:56.
