data_PCOD8020718
_publ_section_title
;
Structure prediction by ZEFSAII (Michael W. Deem and Ramdas Pophale) SiO2 
 PCOD8020718
Probable space group: P -1
;
_chemical_formula_sum "Si O2"
_cell_formula_units_Z 16
_cell_length_a 11.467981
_cell_length_b 6.975374
_cell_length_c 22.174192
_cell_angle_alpha 112.811082
_cell_angle_beta 148.583632
_cell_angle_gamma 54.692836
_cell_volume 730.937644
_symmetry_space_group_name_H-M "P -1"
_symmetry_group_IT_number 2
_symmetry_cell_setting 'triclinic'
loop_
_space_group_symop_operation_xyz
x,y,z
-x,-y,-z
loop_
_atom_site_type_symbol
_atom_site_label
_atom_site_fract_x
_atom_site_fract_y
_atom_site_fract_z
Si Si1 0.713723 0.050799 0.394219
Si Si2 0.116717 0.066578 0.852659
Si Si3 0.549418 0.998026 0.117011
Si Si4 0.790163 0.523286 0.826430
Si Si5 0.340622 0.298184 0.751979
Si Si6 0.910219 0.796009 0.668730
Si Si7 0.449035 0.767901 0.519379
Si Si8 0.742283 0.448890 0.929131
O O1 0.505073 0.262790 0.284878
O O2 0.630962 0.131784 0.436056
O O3 0.699010 0.813417 0.341021
O O4 0.000000 0.000000 0.500000
O O5 0.235079 0.127887 0.854750
O O6 0.848358 0.319997 0.777184
O O7 0.079170 0.839598 0.797898
O O8 0.294353 0.996502 0.982199
O O9 0.661226 0.854245 0.210540
O O10 0.482776 0.271519 0.129037
O O11 0.830712 0.392813 0.892358
O O12 0.999868 0.615269 0.925415
O O13 0.615348 0.290067 0.872632
O O14 0.091215 0.567732 0.678775
O O15 0.712026 0.755120 0.614581
O O16 0.781427 0.038697 0.601123
O O17 0.500000 0.500000 0.500000
#
# Coordination Sequence:
#
# PCOD8020718 Si02
#       8
#     2   2   2   2   2   2   2   2
#     4  12  28  45  71 101 135 191 231 283 348 407
#     4  10  22  42  72  98 140 179 226 284 338 412
#     4  10  22  44  65 106 140 179 221 278 349 407
#     4  10  23  44  70 100 139 181 230 284 345 406
#     4  12  26  42  73 101 142 181 226 285 345 428
#     4  11  26  44  70 102 133 182 230 286 343 407
#     4  11  27  50  70  97 135 179 237 292 339 398
#     4  10  22  45  69 100 144 181 219 286 350 416
#
# _framework density 21.889693000000001
#
# number of rings (size 3 to 8) (size 9 to 14) (size 15 to 20)
#    0.000    1.250    2.500    1.500    8.750    3.500 
#    0.000    0.000    0.000    0.000    0.000    0.000 
#    0.000    0.000    0.000    0.000    0.000    0.000 
#
# Total GULP energy -198395.773242 kJ/mol
# GULP energy per Si atom -12399.735828 kJ/mol
# Density = 2.183987 g / cm^3
# Si number density = 21.889693 Si / 1000 Ang^3
#
#
#
# Elastic Constant Matrix: (Units=GPa)
#
#
# Indices 1 2 3 4 5 6 
#
# 1 110.4140 52.1264 38.4330 5.0320 -3.9972 -22.0298
# 2 52.1264 141.1253 57.3219 13.7128 -1.5952 -23.0058
# 3 38.4330 57.3219 89.9542 4.8424 10.0336 -6.4841
# 4 5.0320 13.7128 4.8424 33.6061 -10.5087 -3.3957
# 5 -3.9972 -1.5952 10.0336 -10.5087 31.6209 0.3198
# 6 -22.0298 -23.0058 -6.4841 -3.3957 0.3198 43.3236
#
#
#
# Elastic Compliance Matrix: (Units=1/GPa)
#
#
# Indices 1 2 3 4 5 6 
#
# 1 0.012502 -0.002354 -0.003903 0.001053 0.003004 0.004583
# 2 -0.002354 0.011202 -0.005864 -0.002622 0.001220 0.003660
# 3 -0.003903 -0.005864 0.017199 -0.001910 -0.006855 -0.002623
# 4 0.001053 -0.002622 -0.001910 0.034909 0.012193 0.001503
# 5 0.003004 0.001220 -0.006855 0.012193 0.038275 0.001822
# 6 0.004583 0.003660 -0.002623 0.001503 0.001822 0.027068
#
#
# Mechanical properties :
#
#
# Convention : Reuss Voigt Hill
#
# Bulk Modulus (GPa) = 60.01566 70.80623 65.41095
# Shear Modulus (GPa) = 29.24838 34.61759 31.93299
#
# Velocity S-wave (km/s) = 3.65933 3.98107 3.82359
# Velocity P-wave (km/s) = 6.73284 7.31771 7.03136
#
# Compressibility (1/GPa) = 0.01666232
#
# Stress axis : x y z
#
# Youngs Moduli (GPa) = 79.98905 89.26792 58.14186
#
# Poissons Ratio (x) = 0.21010 0.22692
# Poissons Ratio (y) = 0.18826 0.34094
# Poissons Ratio (z) = 0.31219 0.52346
#
# Static dielectric constant tensor:
#      x y z
#    x 3.999320 -0.289370 0.097800 
#    y -0.289370 3.994990 0.119840 
#    z 0.097800 0.119840 4.068060 
# 
# 
# High freq. dielectric constant tensor:
#      x y z
#    x 1.867750 -0.023470 0.008490 
#    y -0.023470 1.859850 0.009050 
#    z 0.008490 0.009050 1.863610 
# 
# From -- ./inp_files/364583.got.cif
#   From: 2010.06.25/outbox.cif.g09.slc.cpg/sg2_183_cif.got.tgz:364583.got - 2010.06.27 13:26:56.
