data_PCOD8020063
_publ_section_title
;
Structure prediction by ZEFSAII (Michael W. Deem and Ramdas Pophale) SiO2 
 PCOD8020063
Probable space group: P -1
;
_chemical_formula_sum "Si O2"
_cell_formula_units_Z 12
_cell_length_a 10.774391
_cell_length_b 8.996531
_cell_length_c 15.573550
_cell_angle_alpha 92.154271
_cell_angle_beta 134.516549
_cell_angle_gamma 124.112628
_cell_volume 609.358379
_symmetry_space_group_name_H-M "P -1"
_symmetry_group_IT_number 2
_symmetry_cell_setting 'triclinic'
loop_
_space_group_symop_operation_xyz
x,y,z
-x,-y,-z
loop_
_atom_site_type_symbol
_atom_site_label
_atom_site_fract_x
_atom_site_fract_y
_atom_site_fract_z
Si Si1 0.365806 0.822001 0.205376
Si Si2 0.910081 0.067814 0.393668
Si Si3 0.400743 0.552289 0.519941
Si Si4 0.243037 0.707254 0.335186
Si Si5 0.305455 0.564082 0.022775
Si Si6 0.096851 0.946620 0.113332
O O1 0.727425 0.065073 0.358759
O O2 0.279103 0.935494 0.160002
O O3 0.343164 0.736769 0.287863
O O4 0.183421 0.587275 0.042790
O O5 0.204932 0.344247 0.497522
O O6 0.000000 0.000000 0.500000
O O7 0.674145 0.838238 0.199584
O O8 0.500000 0.500000 0.500000
O O9 0.207974 0.540121 0.375056
O O10 0.703256 0.838381 0.711202
O O11 0.896810 0.534544 0.161164
O O12 0.500000 0.000000 0.500000
O O13 0.216616 0.333483 0.000871
O O14 0.000000 0.000000 0.000000
#
# Coordination Sequence:
#
# PCOD8020063 Si02
#       6
#     2   2   2   2   2   2
#     4   9  21  40  69  84 123 172 206 247 316 369
#     4  10  22  42  65  90 125 165 214 257 309 373
#     4  12  26  37  63  94 124 165 208 264 318 358
#     4  11  19  39  62  93 126 157 205 260 310 372
#     4   9  21  40  66  85 121 171 207 246 316 367
#     4  11  21  38  62  96 120 162 215 250 302 388
#
# _framework density 19.692844999999998
#
# number of rings (size 3 to 8) (size 9 to 14) (size 15 to 20)
#    1.000    0.667    3.333    4.000    4.667    1.333 
#    0.000    0.833    0.000    0.000    0.000    0.000 
#    0.000    0.000    0.000    0.000    0.000    0.000 
#
# Total GULP energy -148672.944323 kJ/mol
# GULP energy per Si atom -12389.412027 kJ/mol
# Density = 1.964802 g / cm^3
# Si number density = 19.692845 Si / 1000 Ang^3
#
#
#
# Elastic Constant Matrix: (Units=GPa)
#
#
# Indices 1 2 3 4 5 6 
#
# 1 58.2280 30.9459 15.5392 2.2344 -3.9394 -7.3854
# 2 30.9459 136.2850 26.6300 -18.0955 -1.9776 -16.1221
# 3 15.5392 26.6300 116.9605 -1.7613 -13.1277 -15.1802
# 4 2.2344 -18.0955 -1.7613 45.2775 -4.9194 4.6181
# 5 -3.9394 -1.9776 -13.1277 -4.9194 26.1714 0.0854
# 6 -7.3854 -16.1221 -15.1802 4.6181 0.0854 32.4723
#
#
#
# Elastic Compliance Matrix: (Units=1/GPa)
#
#
# Indices 1 2 3 4 5 6 
#
# 1 0.020394 -0.004483 -0.001271 -0.002907 0.001540 0.002228
# 2 -0.004483 0.009372 -0.001131 0.003676 0.000149 0.002582
# 3 -0.001271 -0.001131 0.010004 0.000129 0.004753 0.003795
# 4 -0.002907 0.003676 0.000129 0.024423 0.004503 -0.002261
# 5 0.001540 0.000149 0.004753 0.004503 0.041677 0.001896
# 6 0.002228 0.002582 0.003795 -0.002261 0.001896 0.034675
#
#
# Mechanical properties :
#
#
# Convention : Reuss Voigt Hill
#
# Bulk Modulus (GPa) = 38.45972 50.85595 44.65784
# Shear Modulus (GPa) = 30.67839 36.67482 33.67660
#
# Velocity S-wave (km/s) = 3.95124 4.32017 4.13981
# Velocity P-wave (km/s) = 6.35520 7.12501 6.75109
#
# Compressibility (1/GPa) = 0.02600123
#
# Stress axis : x y z
#
# Youngs Moduli (GPa) = 49.03502 106.70046 99.95671
#
# Poissons Ratio (x) = 0.47829 0.12701
# Poissons Ratio (y) = 0.21980 0.11307
# Poissons Ratio (z) = 0.06230 0.12070
#
# Static dielectric constant tensor:
#      x y z
#    x 3.351840 -0.092770 0.050410 
#    y -0.092770 3.618840 -0.050080 
#    z 0.050410 -0.050080 3.920820 
# 
# 
# High freq. dielectric constant tensor:
#      x y z
#    x 1.738100 -0.012290 0.003230 
#    y -0.012290 1.765690 -0.001460 
#    z 0.003230 -0.001460 1.792430 
# 
# From -- ./inp_files/170331.got.cif
#   From: 2010.06.25/outbox.cif.g09.slc.cpg/sg2_86_cif.got.tgz:170331.got - 2010.06.27 13:26:56.
