data_PCOD8020934
_publ_section_title
;
Structure prediction by ZEFSAII (Michael W. Deem and Ramdas Pophale) SiO2 
 PCOD8020934
Probable space group: P -1
;
_chemical_formula_sum "Si O2"
_cell_formula_units_Z 16
_cell_length_a 8.842314
_cell_length_b 17.663709
_cell_length_c 6.846394
_cell_angle_alpha 113.695647
_cell_angle_beta 103.264332
_cell_angle_gamma 46.177540
_cell_volume 704.530769
_symmetry_space_group_name_H-M "P -1"
_symmetry_group_IT_number 2
_symmetry_cell_setting 'triclinic'
loop_
_space_group_symop_operation_xyz
x,y,z
-x,-y,-z
loop_
_atom_site_type_symbol
_atom_site_label
_atom_site_fract_x
_atom_site_fract_y
_atom_site_fract_z
Si Si1 0.739287 0.946814 0.395031
Si Si2 0.718964 0.376326 0.910094
Si Si3 0.700378 0.888411 0.712224
Si Si4 0.957733 0.163245 0.972646
Si Si5 0.368977 0.852379 0.182737
Si Si6 0.525577 0.674565 0.364598
Si Si7 0.351989 0.252931 0.206143
Si Si8 0.057207 0.545537 0.903746
O O1 0.763736 0.863803 0.474661
O O2 0.948292 0.878432 0.261216
O O3 0.545822 0.995859 0.239735
O O4 0.701602 0.043991 0.605942
O O5 0.805568 0.298914 0.053488
O O6 0.666395 0.323086 0.681233
O O7 0.500000 0.500000 0.000000
O O8 0.887725 0.385457 0.905346
O O9 0.721914 0.792033 0.716237
O O10 0.856343 0.896225 0.875506
O O11 0.831959 0.124476 0.940661
O O12 0.501418 0.743133 0.243009
O O13 0.514203 0.829558 0.021438
O O14 0.507646 0.731116 0.618773
O O15 0.751255 0.550295 0.277567
O O16 0.142866 0.374008 0.207865
O O17 0.000000 0.500000 0.000000
#
# Coordination Sequence:
#
# PCOD8020934 Si02
#       8
#     2   2   2   2   2   2   2   2
#     4  11  26  44  69  99 133 181 229 281 340 391
#     4   9  21  41  69  93 133 174 214 272 336 394
#     4  11  26  42  70  98 135 174 231 280 335 399
#     4  11  24  45  70  97 137 179 226 278 338 407
#     4  11  25  43  67  97 140 178 223 281 333 402
#     4  10  22  43  65  96 138 179 220 274 339 399
#     4  12  24  42  68  99 138 179 227 277 338 402
#     4  11  21  40  71 100 132 176 225 280 335 399
#
# _framework density 22.710151
#
# number of rings (size 3 to 8) (size 9 to 14) (size 15 to 20)
#    0.000    1.250    3.750    1.125    5.250    3.500 
#    0.000    0.625    0.000    0.000    0.000    0.000 
#    0.000    0.000    0.000    0.000    0.000    0.000 
#
# Total GULP energy -198318.068218 kJ/mol
# GULP energy per Si atom -12394.879264 kJ/mol
# Density = 2.265846 g / cm^3
# Si number density = 22.710151 Si / 1000 Ang^3
#
#
#
# Elastic Constant Matrix: (Units=GPa)
#
#
# Indices 1 2 3 4 5 6 
#
# 1 104.5439 27.5751 35.3389 -19.7553 23.5822 9.9405
# 2 27.5751 93.3103 43.1925 -21.4158 4.3967 1.7498
# 3 35.3389 43.1925 86.1410 -15.5711 16.3210 -2.1070
# 4 -19.7553 -21.4158 -15.5711 33.3930 -3.0827 -1.3460
# 5 23.5822 4.3967 16.3210 -3.0827 45.5005 -3.3755
# 6 9.9405 1.7498 -2.1070 -1.3460 -3.3755 38.2987
#
#
#
# Elastic Compliance Matrix: (Units=1/GPa)
#
#
# Indices 1 2 3 4 5 6 
#
# 1 0.013545 -0.001020 -0.003110 0.005218 -0.005746 -0.003963
# 2 -0.001020 0.015422 -0.006504 0.006401 0.001774 -0.000416
# 3 -0.003110 -0.006504 0.017202 0.001743 -0.003679 0.001788
# 4 0.005218 0.006401 0.001743 0.037807 -0.001413 -0.000347
# 5 -0.005746 0.001774 -0.003679 -0.001413 0.026266 0.003473
# 6 -0.003963 -0.000416 0.001788 -0.000347 0.003473 0.027550
#
#
# Mechanical properties :
#
#
# Convention : Reuss Voigt Hill
#
# Bulk Modulus (GPa) = 40.15927 55.13424 47.64676
# Shear Modulus (GPa) = 29.87550 35.29769 32.58659
#
# Velocity S-wave (km/s) = 3.63093 3.94670 3.79211
# Velocity P-wave (km/s) = 5.94138 6.71555 6.34029
#
# Compressibility (1/GPa) = 0.02490085
#
# Stress axis : x y z
#
# Youngs Moduli (GPa) = 73.82826 64.84089 58.13431
#
# Poissons Ratio (x) = 0.06617 0.18079
# Poissons Ratio (y) = 0.07534 0.37808
# Poissons Ratio (z) = 0.22960 0.42170
#
# Static dielectric constant tensor:
#      x y z
#    x 4.513400 0.106380 0.291180 
#    y 0.106380 4.281980 -0.268970 
#    z 0.291180 -0.268970 4.048150 
# 
# 
# High freq. dielectric constant tensor:
#      x y z
#    x 1.911370 0.000990 0.021980 
#    y 0.000990 1.908250 -0.014330 
#    z 0.021980 -0.014330 1.871970 
# 
# From -- ./inp_files/48355.got.cif
#   From: 2010.06.25/outbox.cif.g09.slc.cpg/sg2_25_cif.got.tgz:48355.got - 2010.06.27 13:26:56.
