data_PCOD8020265
_publ_section_title
;
Structure prediction by ZEFSAII (Michael W. Deem and Ramdas Pophale) SiO2 
 PCOD8020265
Probable space group: P -1
;
_chemical_formula_sum "Si O2"
_cell_formula_units_Z 16
_cell_length_a 8.317674
_cell_length_b 15.279998
_cell_length_c 11.584466
_cell_angle_alpha 51.525376
_cell_angle_beta 33.582666
_cell_angle_gamma 68.331516
_cell_volume 598.602399
_symmetry_space_group_name_H-M "P -1"
_symmetry_group_IT_number 2
_symmetry_cell_setting 'triclinic'
loop_
_space_group_symop_operation_xyz
x,y,z
-x,-y,-z
loop_
_atom_site_type_symbol
_atom_site_label
_atom_site_fract_x
_atom_site_fract_y
_atom_site_fract_z
Si Si1 0.815109 0.208342 0.193195
Si Si2 0.627474 0.206749 0.059521
Si Si3 0.367000 0.040321 0.758581
Si Si4 0.552853 0.435825 0.859028
Si Si5 0.996655 0.553007 0.683620
Si Si6 0.197811 0.049264 0.096415
Si Si7 0.223734 0.452709 0.829073
Si Si8 0.207625 0.810472 0.264675
O O1 0.511038 0.156204 0.497054
O O2 0.923374 0.096900 0.195048
O O3 0.762705 0.261606 0.057942
O O4 0.068880 0.311517 0.024935
O O5 0.433656 0.291123 0.066466
O O6 0.877794 0.224265 0.790498
O O7 0.481646 0.062378 0.279006
O O8 0.434304 0.074157 0.824840
O O9 0.000000 0.000000 0.000000
O O10 0.896912 0.496499 0.660960
O O11 0.541639 0.466430 0.701696
O O12 0.316499 0.490512 0.016497
O O13 0.259212 0.515427 0.628424
O O14 0.114854 0.695051 0.493330
O O15 0.044738 0.904963 0.326719
O O16 0.418239 0.118886 0.011592
O O17 0.000000 0.500000 0.000000
#
# Coordination Sequence:
#
# PCOD8020265 Si02
#       8
#     2   2   2   2   2   2   2   2
#     4  12  24  45  77 101 151 194 237 307 370 440
#     4  11  23  43  65 104 145 185 244 293 365 438
#     4  11  25  43  72 110 143 191 246 299 370 438
#     4  10  22  42  67 103 139 186 255 292 370 439
#     4  10  22  44  70 101 141 195 240 308 362 426
#     4  10  24  47  67 111 142 190 248 299 371 439
#     4  10  23  45  70 108 142 189 253 295 373 436
#     4  10  24  45  69 100 155 182 249 311 356 438
#
# _framework density 26.728928
#
# number of rings (size 3 to 8) (size 9 to 14) (size 15 to 20)
#    0.000    1.500    2.500    1.125    5.250    1.500 
#    2.250    3.750    0.000    0.000    0.000    0.000 
#    0.000    0.000    0.000    0.000    0.000    0.000 
#
# Total GULP energy -198216.952346 kJ/mol
# GULP energy per Si atom -12388.559522 kJ/mol
# Density = 2.666809 g / cm^3
# Si number density = 26.728928 Si / 1000 Ang^3
#
#
#
# Elastic Constant Matrix: (Units=GPa)
#
#
# Indices 1 2 3 4 5 6 
#
# 1 204.8640 54.5009 69.2609 -13.1426 31.9980 -4.8344
# 2 54.5009 108.5771 28.8766 -23.8580 12.7509 -2.3088
# 3 69.2609 28.8766 76.1195 -30.7559 18.2975 -0.2614
# 4 -13.1426 -23.8580 -30.7559 31.3997 -4.4462 6.5296
# 5 31.9980 12.7509 18.2975 -4.4462 32.6920 -6.8276
# 6 -4.8344 -2.3088 -0.2614 6.5296 -6.8276 44.0983
#
#
#
# Elastic Compliance Matrix: (Units=1/GPa)
#
#
# Indices 1 2 3 4 5 6 
#
# 1 0.009144 -0.003644 -0.010161 -0.009653 -0.002789 0.001749
# 2 -0.003644 0.012914 0.003894 0.012152 -0.002388 -0.001869
# 3 -0.010161 0.003894 0.037532 0.035696 -0.009272 -0.007409
# 4 -0.009653 0.012152 0.035696 0.073451 -0.007850 -0.012301
# 5 -0.002789 -0.002388 -0.009272 -0.007850 0.039799 0.006839
# 6 0.001749 -0.001869 -0.007409 -0.012301 0.006839 0.025607
#
#
# Mechanical properties :
#
#
# Convention : Reuss Voigt Hill
#
# Bulk Modulus (GPa) = 25.14646 77.20414 51.17530
# Shear Modulus (GPa) = 21.59592 37.43281 29.51437
#
# Velocity S-wave (km/s) = 2.84555 3.74633 3.32657
# Velocity P-wave (km/s) = 4.49717 6.90363 5.82601
#
# Compressibility (1/GPa) = 0.03976703
#
# Stress axis : x y z
#
# Youngs Moduli (GPa) = 109.36645 77.43385 26.64385
#
# Poissons Ratio (x) = 0.28214 0.27074
# Poissons Ratio (y) = 0.39849 -0.10374
# Poissons Ratio (z) = 1.11132 -0.30149
#
# Static dielectric constant tensor:
#      x y z
#    x 5.392400 0.127410 0.550210 
#    y 0.127410 5.008180 -0.012880 
#    z 0.550210 -0.012880 4.305420 
# 
# 
# High freq. dielectric constant tensor:
#      x y z
#    x 2.092020 0.001710 0.031990 
#    y 0.001710 2.092510 -0.002150 
#    z 0.031990 -0.002150 2.040180 
# 
# From -- ./inp_files/398519.got.cif
#   From: 2010.06.25/outbox.cif.g09.slc.cpg/sg2_200_cif.got.tgz:398519.got - 2010.06.27 13:26:56.
