data_PCOD8020778
_publ_section_title
;
Structure prediction by ZEFSAII (Michael W. Deem and Ramdas Pophale) SiO2 
 PCOD8020778
Probable space group: P -1
;
_chemical_formula_sum "Si O2"
_cell_formula_units_Z 16
_cell_length_a 16.725945
_cell_length_b 14.404244
_cell_length_c 22.519295
_cell_angle_alpha 21.313256
_cell_angle_beta 158.301302
_cell_angle_gamma 149.496853
_cell_volume 728.766507
_symmetry_space_group_name_H-M "P -1"
_symmetry_group_IT_number 2
_symmetry_cell_setting 'triclinic'
loop_
_space_group_symop_operation_xyz
x,y,z
-x,-y,-z
loop_
_atom_site_type_symbol
_atom_site_label
_atom_site_fract_x
_atom_site_fract_y
_atom_site_fract_z
Si Si1 0.922033 0.573404 0.466396
Si Si2 0.808280 0.425941 0.955188
Si Si3 0.195995 0.500411 0.903137
Si Si4 0.560237 0.018462 0.237649
Si Si5 0.275675 0.897896 0.010424
Si Si6 0.484748 0.294568 0.328938
Si Si7 0.287105 0.343401 0.937848
Si Si8 0.873078 0.563880 0.739408
O O1 0.711651 0.413673 0.431465
O O2 0.000000 0.500000 0.500000
O O3 0.107589 0.507505 0.680823
O O4 0.883813 0.877776 0.257160
O O5 0.653573 0.246956 0.915829
O O6 0.665958 0.662993 0.742054
O O7 0.000000 0.500000 0.000000
O O8 0.933627 0.293435 0.176858
O O9 0.249039 0.780069 0.747101
O O10 0.194496 0.296690 0.968540
O O11 0.958702 0.510355 0.763524
O O12 0.386375 0.428602 0.122954
O O13 0.477126 0.015801 0.113565
O O14 0.654317 0.736601 0.486799
O O15 0.361185 0.087797 0.104480
O O16 0.162474 0.709426 0.091430
O O17 0.500000 0.000000 0.500000
O O18 0.500000 0.500000 0.000000
#
# Coordination Sequence:
#
# PCOD8020778 Si02
#       8
#     2   2   2   2   2   2   2   2
#     4  12  24  43  72 100 139 186 229 292 342 409
#     4   9  23  42  65 101 133 177 227 281 340 405
#     4  10  22  43  61  99 130 170 229 278 341 410
#     4  11  21  42  63  95 131 175 220 275 343 404
#     4  11  23  42  66  97 137 170 234 270 344 405
#     4  11  25  45  71 102 139 182 233 286 349 410
#     4  10  23  41  67  99 133 180 231 281 350 405
#     4  10  23  41  66  92 132 180 215 278 342 404
#
# _framework density 21.954905
#
# number of rings (size 3 to 8) (size 9 to 14) (size 15 to 20)
#    0.000    1.500    2.500    1.500    8.750    3.500 
#    0.000    2.500    0.000    0.000    0.000    0.000 
#    0.000    0.000    0.000    0.000    0.000    0.000 
#
# Total GULP energy -198259.543428 kJ/mol
# GULP energy per Si atom -12391.221464 kJ/mol
# Density = 2.190493 g / cm^3
# Si number density = 21.954905 Si / 1000 Ang^3
#
#
#
# Elastic Constant Matrix: (Units=GPa)
#
#
# Indices 1 2 3 4 5 6 
#
# 1 147.3146 42.2518 66.7274 -6.4977 25.1690 -22.3683
# 2 42.2518 79.9821 59.3511 -5.0192 4.0336 -14.9000
# 3 66.7274 59.3511 160.9556 -1.6689 18.3487 -7.8338
# 4 -6.4977 -5.0192 -1.6689 38.0030 -8.4391 -4.8456
# 5 25.1690 4.0336 18.3487 -8.4391 32.0248 -5.0062
# 6 -22.3683 -14.9000 -7.8338 -4.8456 -5.0062 44.0266
#
#
#
# Elastic Compliance Matrix: (Units=1/GPa)
#
#
# Indices 1 2 3 4 5 6 
#
# 1 0.010105 -0.002633 -0.002418 0.000440 -0.005605 0.003224
# 2 -0.002633 0.019582 -0.006416 0.003625 0.005035 0.005119
# 3 -0.002418 -0.006416 0.009886 -0.001971 -0.003834 -0.002294
# 4 0.000440 0.003625 -0.001971 0.029446 0.008923 0.005355
# 5 -0.005605 0.005035 -0.003834 0.008923 0.040126 0.003719
# 6 0.003224 0.005119 -0.002294 0.005355 0.003719 0.026688
#
#
# Mechanical properties :
#
#
# Convention : Reuss Voigt Hill
#
# Bulk Modulus (GPa) = 60.10031 80.54588 70.32310
# Shear Modulus (GPa) = 30.42939 37.47235 33.95087
#
# Velocity S-wave (km/s) = 3.72693 4.13581 3.93668
# Velocity P-wave (km/s) = 6.77893 7.71837 7.26385
#
# Compressibility (1/GPa) = 0.01663885
#
# Stress axis : x y z
#
# Youngs Moduli (GPa) = 98.95933 51.06620 101.15011
#
# Poissons Ratio (x) = 0.13446 0.24458
# Poissons Ratio (y) = 0.26057 0.64903
# Poissons Ratio (z) = 0.23928 0.32767
#
# Static dielectric constant tensor:
#      x y z
#    x 4.561040 -0.660260 0.128660 
#    y -0.660260 4.203230 0.044470 
#    z 0.128660 0.044470 3.843800 
# 
# 
# High freq. dielectric constant tensor:
#      x y z
#    x 1.871940 -0.023910 0.008650 
#    y -0.023910 1.853940 0.007080 
#    z 0.008650 0.007080 1.859330 
# 
# From -- ./inp_files/461579.got.cif
#   From: 2010.06.25/outbox.cif.g09.slc.cpg/sg2_231_cif.got.tgz:461579.got - 2010.06.27 13:26:56.
