data_PCOD8020756
_publ_section_title
;
Structure prediction by ZEFSAII (Michael W. Deem and Ramdas Pophale) SiO2 
 PCOD8020756
Probable space group: P -1
;
_chemical_formula_sum "Si O2"
_cell_formula_units_Z 14
_cell_length_a 7.864746
_cell_length_b 10.486672
_cell_length_c 11.761464
_cell_angle_alpha 73.827211
_cell_angle_beta 143.423616
_cell_angle_gamma 90.161677
_cell_volume 512.154181
_symmetry_space_group_name_H-M "P -1"
_symmetry_group_IT_number 2
_symmetry_cell_setting 'triclinic'
loop_
_space_group_symop_operation_xyz
x,y,z
-x,-y,-z
loop_
_atom_site_type_symbol
_atom_site_label
_atom_site_fract_x
_atom_site_fract_y
_atom_site_fract_z
Si Si1 0.097151 0.985757 0.742691
Si Si2 0.826150 0.533979 0.186888
Si Si3 0.544669 0.028769 0.271263
Si Si4 0.297330 0.678614 0.030706
Si Si5 0.246315 0.328332 0.124563
Si Si6 0.208736 0.714390 0.402739
Si Si7 0.407504 0.281494 0.600662
O O1 0.405553 0.966482 0.840157
O O2 0.014863 0.116649 0.755310
O O3 0.833856 0.028965 0.496615
O O4 0.121552 0.843047 0.856843
O O5 0.483986 0.578388 0.049615
O O6 0.001507 0.620593 0.326770
O O7 0.040655 0.362635 0.355213
O O8 0.792881 0.568904 0.028046
O O9 0.479844 0.889679 0.304680
O O10 0.263847 0.173829 0.123435
O O11 0.546988 0.668793 0.262339
O O12 0.050554 0.617176 0.964531
O O13 0.547773 0.325186 0.353630
O O14 0.387634 0.673240 0.389603
#
# Coordination Sequence:
#
# PCOD8020756 Si02
#       7
#     2   2   2   2   2   2   2
#     4  10  22  42  74 109 140 189 246 305 360 426
#     4  12  27  51  70 109 152 194 241 301 362 441
#     4  10  22  45  71 107 147 182 247 307 358 430
#     4  12  25  44  76 108 144 192 248 298 361 440
#     4  11  25  49  79 106 143 194 247 301 364 429
#     4  11  25  47  75 106 151 189 241 306 363 429
#     4  12  26  44  71 107 151 192 237 303 367 432
#
# _framework density 27.335515999999998
#
# number of rings (size 3 to 8) (size 9 to 14) (size 15 to 20)
#    0.000    0.857    2.857    3.429    2.000    5.143 
#    5.143    2.857    0.000    0.000    0.000    0.000 
#    0.000    0.000    0.000    0.000    0.000    0.000 
#
# Total GULP energy -173709.156824 kJ/mol
# GULP energy per Si atom -12407.796916 kJ/mol
# Density = 2.727330 g / cm^3
# Si number density = 27.335516 Si / 1000 Ang^3
#
#
#
# Elastic Constant Matrix: (Units=GPa)
#
#
# Indices 1 2 3 4 5 6 
#
# 1 173.3094 54.9344 56.5812 -6.9844 3.5522 -13.1827
# 2 54.9344 127.4760 32.2527 -0.9714 -1.9306 -17.3107
# 3 56.5812 32.2527 93.8338 -17.7400 -2.9164 -16.3862
# 4 -6.9844 -0.9714 -17.7400 10.4148 -0.1490 4.6697
# 5 3.5522 -1.9306 -2.9164 -0.1490 43.3966 4.3360
# 6 -13.1827 -17.3107 -16.3862 4.6697 4.3360 56.6443
#
#
#
# Elastic Compliance Matrix: (Units=1/GPa)
#
#
# Indices 1 2 3 4 5 6 
#
# 1 0.007880 -0.002281 -0.004472 -0.002625 -0.001070 0.000141
# 2 -0.002281 0.009786 -0.002809 -0.006365 0.000196 0.002157
# 3 -0.004472 -0.002809 0.020469 0.031024 0.001589 0.001343
# 4 -0.002625 -0.006365 0.031024 0.149301 0.003142 -0.006130
# 5 -0.001070 0.000196 0.001589 0.003142 0.023435 -0.001782
# 6 0.000141 0.002157 0.001343 -0.006130 -0.001782 0.019376
#
#
# Mechanical properties :
#
#
# Convention : Reuss Voigt Hill
#
# Bulk Modulus (GPa) = 52.60439 75.79510 64.19975
# Shear Modulus (GPa) = 19.55349 38.81452 29.18401
#
# Velocity S-wave (km/s) = 2.67744 3.77228 3.27099
# Velocity P-wave (km/s) = 5.37066 6.83823 6.14839
#
# Compressibility (1/GPa) = 0.01900982
#
# Stress axis : x y z
#
# Youngs Moduli (GPa) = 126.90075 102.18993 48.85525
#
# Poissons Ratio (x) = 0.23313 0.21850
# Poissons Ratio (y) = 0.28950 0.13722
# Poissons Ratio (z) = 0.56755 0.28701
#
# Static dielectric constant tensor:
#      x y z
#    x 4.941500 -0.253800 0.010510 
#    y -0.253800 5.211100 -0.094550 
#    z 0.010510 -0.094550 5.073650 
# 
# 
# High freq. dielectric constant tensor:
#      x y z
#    x 2.102240 -0.012330 -0.004590 
#    y -0.012330 2.131890 0.004430 
#    z -0.004590 0.004430 2.115560 
# 
# From -- ./inp_files/390111.got.cif
#   From: 2010.06.25/outbox.cif.g09.slc.cpg/sg2_196_cif.got.tgz:390111.got - 2010.06.27 13:26:56.
