data_PCOD8020739
_publ_section_title
;
Structure prediction by ZEFSAII (Michael W. Deem and Ramdas Pophale) SiO2 
 PCOD8020739
Probable space group: P -1
;
_chemical_formula_sum "Si O2"
_cell_formula_units_Z 16
_cell_length_a 12.095264
_cell_length_b 8.174198
_cell_length_c 14.295392
_cell_angle_alpha 34.030198
_cell_angle_beta 107.955198
_cell_angle_gamma 93.673545
_cell_volume 702.128630
_symmetry_space_group_name_H-M "P -1"
_symmetry_group_IT_number 2
_symmetry_cell_setting 'triclinic'
loop_
_space_group_symop_operation_xyz
x,y,z
-x,-y,-z
loop_
_atom_site_type_symbol
_atom_site_label
_atom_site_fract_x
_atom_site_fract_y
_atom_site_fract_z
Si Si1 0.744691 0.872102 0.107417
Si Si2 0.477760 0.605581 0.105205
Si Si3 0.718490 0.808136 0.451853
Si Si4 0.919558 0.855662 0.793120
Si Si5 0.436259 0.173078 0.156834
Si Si6 0.724556 0.208306 0.430774
Si Si7 0.761404 0.106569 0.802574
Si Si8 0.901679 0.832760 0.330531
O O1 0.765988 0.508279 0.302993
O O2 0.838343 0.968219 0.151336
O O3 0.605604 0.106844 0.988349
O O4 0.787262 0.906424 0.998130
O O5 0.395803 0.460607 0.085986
O O6 0.571682 0.346148 0.323643
O O7 0.569069 0.706491 0.009884
O O8 0.730292 0.465521 0.651866
O O9 0.794703 0.810102 0.379158
O O10 0.576284 0.970530 0.312077
O O11 0.768697 0.991559 0.453867
O O12 0.789676 0.970089 0.645733
O O13 0.882017 0.003136 0.816546
O O14 0.019285 0.961547 0.712136
O O15 0.000000 0.500000 0.000000
O O16 0.350755 0.965226 0.245214
O O17 0.000000 0.500000 0.500000
#
# Coordination Sequence:
#
# PCOD8020739 Si02
#       8
#     2   2   2   2   2   2   2   2
#     4  12  25  42  77 106 144 188 237 295 351 429
#     4  10  22  42  75 110 142 187 235 289 358 434
#     4  11  25  46  73 106 146 187 236 296 355 424
#     4  12  31  49  72 101 145 193 239 299 350 423
#     4  10  22  42  73 108 147 183 234 292 362 420
#     4  11  25  47  72 107 140 190 239 287 358 430
#     4  12  27  44  70 110 142 187 240 300 353 412
#     4  12  25  50  73  98 143 195 238 287 357 432
#
# _framework density 22.787845999999998
#
# number of rings (size 3 to 8) (size 9 to 14) (size 15 to 20)
#    0.000    0.750    5.000    0.750    5.250    3.000 
#    0.000    2.500    0.000    0.000    0.000    0.000 
#    0.000    0.000    0.000    0.000    0.000    0.000 
#
# Total GULP energy -198272.453274 kJ/mol
# GULP energy per Si atom -12392.028330 kJ/mol
# Density = 2.273598 g / cm^3
# Si number density = 22.787846 Si / 1000 Ang^3
#
#
#
# Elastic Constant Matrix: (Units=GPa)
#
#
# Indices 1 2 3 4 5 6 
#
# 1 75.9881 28.8835 29.6191 0.9924 -4.5040 6.5262
# 2 28.8835 99.9860 48.4657 -5.2132 2.6350 -2.5281
# 3 29.6191 48.4657 136.0722 -4.5350 18.3298 -3.7985
# 4 0.9924 -5.2132 -4.5350 47.5983 5.7443 -3.1195
# 5 -4.5040 2.6350 18.3298 5.7443 32.8232 -0.4640
# 6 6.5262 -2.5281 -3.7985 -3.1195 -0.4640 26.2402
#
#
#
# Elastic Compliance Matrix: (Units=1/GPa)
#
#
# Indices 1 2 3 4 5 6 
#
# 1 0.016471 -0.003591 -0.003125 -0.001915 0.004557 -0.005042
# 2 -0.003591 0.012980 -0.003808 0.001199 0.000406 0.001742
# 3 -0.003125 -0.003808 0.010315 0.001498 -0.006117 0.001973
# 4 -0.001915 0.001199 0.001498 0.022149 -0.005025 0.003353
# 5 0.004557 0.000406 -0.006117 -0.005025 0.035327 -0.001953
# 6 -0.005042 0.001742 0.001973 0.003353 -0.001953 0.040181
#
#
# Mechanical properties :
#
#
# Convention : Reuss Voigt Hill
#
# Bulk Modulus (GPa) = 53.42160 58.44255 55.93207
# Shear Modulus (GPa) = 30.35648 35.00422 32.68035
#
# Velocity S-wave (km/s) = 3.65380 3.92355 3.79108
# Velocity P-wave (km/s) = 6.42606 6.79910 6.61521
#
# Compressibility (1/GPa) = 0.01871902
#
# Stress axis : x y z
#
# Youngs Moduli (GPa) = 60.71289 77.03988 96.95043
#
# Poissons Ratio (x) = 0.27664 0.30295
# Poissons Ratio (y) = 0.21801 0.36917
# Poissons Ratio (z) = 0.18971 0.29335
#
# Static dielectric constant tensor:
#      x y z
#    x 3.800460 0.087700 0.182130 
#    y 0.087700 4.368450 -0.077540 
#    z 0.182130 -0.077540 4.192390 
# 
# 
# High freq. dielectric constant tensor:
#      x y z
#    x 1.888410 0.006130 0.009650 
#    y 0.006130 1.909710 -0.005190 
#    z 0.009650 -0.005190 1.904470 
# 
# From -- ./inp_files/514826.got.cif
#   From: 2010.06.25/outbox.cif.g09.slc.cpg/sg2_258_cif.got.tgz:514826.got - 2010.06.27 13:26:56.
