data_PCOD8020744
_publ_section_title
;
Structure prediction by ZEFSAII (Michael W. Deem and Ramdas Pophale) SiO2 
 PCOD8020744
Probable space group: P -1
;
_chemical_formula_sum "Si O2"
_cell_formula_units_Z 16
_cell_length_a 9.145259
_cell_length_b 9.275551
_cell_length_c 14.566478
_cell_angle_alpha 108.062199
_cell_angle_beta 141.238921
_cell_angle_gamma 83.665026
_cell_volume 717.324843
_symmetry_space_group_name_H-M "P -1"
_symmetry_group_IT_number 2
_symmetry_cell_setting 'triclinic'
loop_
_space_group_symop_operation_xyz
x,y,z
-x,-y,-z
loop_
_atom_site_type_symbol
_atom_site_label
_atom_site_fract_x
_atom_site_fract_y
_atom_site_fract_z
Si Si1 0.473985 0.673851 0.507233
Si Si2 0.721653 0.795104 0.831806
Si Si3 0.635158 0.417511 0.275099
Si Si4 0.495567 0.326604 0.995155
Si Si5 0.123955 0.121448 0.359038
Si Si6 0.810304 0.120301 0.025848
Si Si7 0.963507 0.200991 0.677653
Si Si8 0.030035 0.276523 0.520697
O O1 0.500000 0.500000 0.500000
O O2 0.568259 0.784052 0.661494
O O3 0.633743 0.748581 0.513539
O O4 0.193600 0.670698 0.354062
O O5 0.625978 0.640922 0.816867
O O6 0.999395 0.805302 0.945406
O O7 0.679725 0.947436 0.895341
O O8 0.637633 0.332487 0.161609
O O9 0.709332 0.602988 0.331518
O O10 0.822133 0.372331 0.429857
O O11 0.619181 0.229064 0.964209
O O12 0.500000 0.500000 0.000000
O O13 0.219833 0.244842 0.860790
O O14 0.996814 0.159144 0.396872
O O15 0.940783 0.109459 0.183405
O O16 0.184704 0.955477 0.377884
O O17 0.003802 0.184184 0.585104
#
# Coordination Sequence:
#
# PCOD8020744 Si02
#       8
#     2   2   2   2   2   2   2   2
#     4  11  25  45  73 100 138 184 232 281 347 417
#     4  10  22  42  73  95 134 182 236 273 338 426
#     4  11  22  42  67  99 138 184 225 284 341 416
#     4  12  26  44  68 102 145 178 236 291 342 413
#     4  11  24  43  72 101 138 180 231 287 341 416
#     4  10  24  44  68 101 137 191 224 281 358 409
#     4  12  26  43  68 106 137 178 231 292 344 403
#     4  11  23  40  68 101 137 173 235 275 349 403
#
# _framework density 22.305097
#
# number of rings (size 3 to 8) (size 9 to 14) (size 15 to 20)
#    0.000    1.000    3.750    2.250    7.000    2.000 
#    0.000    3.125    0.000    0.000    0.000    0.000 
#    0.000    0.000    0.000    0.000    0.000    0.000 
#
# Total GULP energy -198389.939336 kJ/mol
# GULP energy per Si atom -12399.371209 kJ/mol
# Density = 2.225433 g / cm^3
# Si number density = 22.305097 Si / 1000 Ang^3
#
#
#
# Elastic Constant Matrix: (Units=GPa)
#
#
# Indices 1 2 3 4 5 6 
#
# 1 94.7790 63.1548 28.5376 3.2759 11.7232 8.5592
# 2 63.1548 137.2972 34.4684 5.3359 18.3988 5.2841
# 3 28.5376 34.4684 90.0467 5.7781 1.8447 -4.7291
# 4 3.2759 5.3359 5.7781 26.8554 0.1200 3.6829
# 5 11.7232 18.3988 1.8447 0.1200 40.2504 2.6376
# 6 8.5592 5.2841 -4.7291 3.6829 2.6376 48.5410
#
#
#
# Elastic Compliance Matrix: (Units=1/GPa)
#
#
# Indices 1 2 3 4 5 6 
#
# 1 0.016029 -0.006410 -0.002734 0.000233 -0.001461 -0.002333
# 2 -0.006410 0.011234 -0.002145 -0.000967 -0.003163 -0.000056
# 3 -0.002734 -0.002145 0.013032 -0.002338 0.001048 0.002106
# 4 0.000233 -0.000967 -0.002338 0.038326 0.000570 -0.003102
# 5 -0.001461 -0.003163 0.001048 0.000570 0.026718 -0.000791
# 6 -0.002333 -0.000056 0.002106 -0.003102 -0.000791 0.021502
#
#
# Mechanical properties :
#
#
# Convention : Reuss Voigt Hill
#
# Bulk Modulus (GPa) = 56.44209 63.82714 60.13462
# Shear Modulus (GPa) = 32.19080 36.19351 34.19216
#
# Velocity S-wave (km/s) = 3.80307 4.03259 3.91951
# Velocity P-wave (km/s) = 6.68162 7.09648 6.89217
#
# Compressibility (1/GPa) = 0.01771727
#
# Stress axis : x y z
#
# Youngs Moduli (GPa) = 62.38842 89.01408 76.73525
#
# Poissons Ratio (x) = 0.57059 0.20977
# Poissons Ratio (y) = 0.39992 0.16459
# Poissons Ratio (z) = 0.17055 0.19092
#
# Static dielectric constant tensor:
#      x y z
#    x 4.190170 0.199320 0.006950 
#    y 0.199320 3.851640 0.197000 
#    z 0.006950 0.197000 4.098980 
# 
# 
# High freq. dielectric constant tensor:
#      x y z
#    x 1.887410 0.014740 -0.001750 
#    y 0.014740 1.865270 0.014070 
#    z -0.001750 0.014070 1.875050 
# 
# From -- ./inp_files/209463.got.cif
#   From: 2010.06.25/outbox.cif.g09.slc.cpg/sg2_105_cif.got.tgz:209463.got - 2010.06.27 13:26:56.
