data_PCOD8020761
_publ_section_title
;
Structure prediction by ZEFSAII (Michael W. Deem and Ramdas Pophale) SiO2 
 PCOD8020761
Probable space group: P -1
;
_chemical_formula_sum "Si O2"
_cell_formula_units_Z 16
_cell_length_a 17.600218
_cell_length_b 12.490099
_cell_length_c 8.965272
_cell_angle_alpha 136.461977
_cell_angle_beta 143.709458
_cell_angle_gamma 39.456652
_cell_volume 713.197721
_symmetry_space_group_name_H-M "P -1"
_symmetry_group_IT_number 2
_symmetry_cell_setting 'triclinic'
loop_
_space_group_symop_operation_xyz
x,y,z
-x,-y,-z
loop_
_atom_site_type_symbol
_atom_site_label
_atom_site_fract_x
_atom_site_fract_y
_atom_site_fract_z
Si Si1 0.519578 0.927341 0.298446
Si Si2 0.915383 0.856704 0.549401
Si Si3 0.464306 0.439389 0.036304
Si Si4 0.177856 0.524436 0.553755
Si Si5 0.848258 0.796328 0.699251
Si Si6 0.037464 0.880739 0.289947
Si Si7 0.363097 0.147885 0.018506
Si Si8 0.703375 0.495996 0.601945
O O1 0.681935 0.889797 0.473646
O O2 0.500000 0.000000 0.500000
O O3 0.391469 0.083084 0.166199
O O4 0.485101 0.765487 0.076078
O O5 0.939535 0.810339 0.716651
O O6 0.049835 0.717108 0.526040
O O7 0.902593 0.043380 0.671847
O O8 0.776246 0.846384 0.265140
O O9 0.552829 0.482743 0.346140
O O10 0.500000 0.500000 0.000000
O O11 0.289493 0.534195 0.863559
O O12 0.112344 0.400712 0.388738
O O13 0.256339 0.455256 0.448124
O O14 0.891018 0.880336 0.993993
O O15 0.162169 0.683704 0.314435
O O16 0.000000 0.000000 0.500000
O O17 0.334586 0.349705 0.180467
O O18 0.500000 0.000000 0.000000
#
# Coordination Sequence:
#
# PCOD8020761 Si02
#       8
#     2   2   2   2   2   2   2   2
#     4  11  23  41  74 100 139 190 239 291 343 427
#     4  12  25  46  70 100 150 184 237 294 361 430
#     4   9  20  40  65 106 138 173 230 291 349 407
#     4  10  22  42  75 105 137 188 239 296 344 431
#     4  11  25  44  67 103 142 189 233 291 361 419
#     4  12  27  45  72 107 143 184 237 300 352 427
#     4  12  26  47  71 103 142 186 236 294 361 423
#     4  11  24  45  71 107 139 186 240 300 355 419
#
# _framework density 22.434170999999999
#
# number of rings (size 3 to 8) (size 9 to 14) (size 15 to 20)
#    0.000    1.000    2.500    4.500    5.250    2.000 
#    2.250    1.250    0.000    0.000    0.000    0.000 
#    0.000    0.000    0.000    0.000    0.000    0.000 
#
# Total GULP energy -198235.551665 kJ/mol
# GULP energy per Si atom -12389.721979 kJ/mol
# Density = 2.238311 g / cm^3
# Si number density = 22.434171 Si / 1000 Ang^3
#
#
#
# Elastic Constant Matrix: (Units=GPa)
#
#
# Indices 1 2 3 4 5 6 
#
# 1 86.5325 33.5607 38.9593 15.0575 1.8460 9.1656
# 2 33.5607 140.6474 56.7335 12.1471 1.0923 0.1752
# 3 38.9593 56.7335 149.8937 1.2164 21.0491 2.0461
# 4 15.0575 12.1471 1.2164 32.2418 3.4180 -1.2702
# 5 1.8460 1.0923 21.0491 3.4180 30.5198 3.8989
# 6 9.1656 0.1752 2.0461 -1.2702 3.8989 42.7897
#
#
#
# Elastic Compliance Matrix: (Units=1/GPa)
#
#
# Indices 1 2 3 4 5 6 
#
# 1 0.015349 -0.001600 -0.003686 -0.006875 0.002898 -0.003573
# 2 -0.001600 0.009053 -0.003321 -0.002781 0.002353 0.000167
# 3 -0.003686 -0.003321 0.009820 0.003381 -0.006946 0.001067
# 4 -0.006875 -0.002781 0.003381 0.035922 -0.006217 0.002955
# 5 0.002898 0.002353 -0.006946 -0.006217 0.038503 -0.003991
# 6 -0.003573 0.000167 0.001067 0.002955 -0.003991 0.024535
#
#
# Mechanical properties :
#
#
# Convention : Reuss Voigt Hill
#
# Bulk Modulus (GPa) = 58.79560 70.62006 64.70783
# Shear Modulus (GPa) = 32.03789 37.63160 34.83475
#
# Velocity S-wave (km/s) = 3.78310 4.10008 3.94477
# Velocity P-wave (km/s) = 6.73405 7.34584 7.04659
#
# Compressibility (1/GPa) = 0.01700808
#
# Stress axis : x y z
#
# Youngs Moduli (GPa) = 65.14888 110.46076 101.83558
#
# Poissons Ratio (x) = 0.17674 0.37539
# Poissons Ratio (y) = 0.10424 0.33817
# Poissons Ratio (z) = 0.24016 0.36682
#
# Static dielectric constant tensor:
#      x y z
#    x 3.873250 0.620030 0.089470 
#    y 0.620030 3.669480 -0.160350 
#    z 0.089470 -0.160350 4.421470 
# 
# 
# High freq. dielectric constant tensor:
#      x y z
#    x 1.871820 0.013210 0.010700 
#    y 0.013210 1.896600 -0.010310 
#    z 0.010700 -0.010310 1.897570 
# 
# From -- ./inp_files/333956.got.cif
#   From: 2010.06.25/outbox.cif.g09.slc.cpg/sg2_167_cif.got.tgz:333956.got - 2010.06.27 13:26:56.
