data_PCOD8020803
_publ_section_title
;
Structure prediction by ZEFSAII (Michael W. Deem and Ramdas Pophale) SiO2 
 PCOD8020803
Probable space group: P -1
;
_chemical_formula_sum "Si O2"
_cell_formula_units_Z 14
_cell_length_a 18.919724
_cell_length_b 8.757600
_cell_length_c 7.925495
_cell_angle_alpha 130.806997
_cell_angle_beta 39.886374
_cell_angle_gamma 132.531979
_cell_volume 594.760231
_symmetry_space_group_name_H-M "P -1"
_symmetry_group_IT_number 2
_symmetry_cell_setting 'triclinic'
loop_
_space_group_symop_operation_xyz
x,y,z
-x,-y,-z
loop_
_atom_site_type_symbol
_atom_site_label
_atom_site_fract_x
_atom_site_fract_y
_atom_site_fract_z
Si Si1 0.497930 0.812939 0.492372
Si Si2 0.825773 0.529615 0.481578
Si Si3 0.642876 0.631025 0.698459
Si Si4 0.929008 0.811945 0.812947
Si Si5 0.386228 0.961921 0.069384
Si Si6 0.116921 0.249671 0.788787
Si Si7 0.743622 0.045593 0.378224
O O1 0.470575 0.585366 0.283794
O O2 0.500000 0.000000 0.500000
O O3 0.622240 0.876776 0.405524
O O4 0.388263 0.777862 0.799846
O O5 0.710389 0.601013 0.723709
O O6 0.893157 0.635824 0.604741
O O7 0.908907 0.616537 0.225467
O O8 0.785880 0.272475 0.366682
O O9 0.597382 0.829648 0.930141
O O10 0.741150 0.687893 0.408802
O O11 0.932926 0.695168 0.901924
O O12 0.056085 0.993227 0.671052
O O13 0.841140 0.940656 0.099143
O O14 0.272782 0.900433 0.355169
O O15 0.500000 0.000000 0.000000
#
# Coordination Sequence:
#
# PCOD8020803 Si02
#       7
#     2   2   2   2   2   2   2
#     4  11  23  40  63  93 128 165 207 261 315 374
#     4  10  23  39  65  97 127 162 216 256 319 379
#     4  10  22  43  63  91 132 166 209 260 320 372
#     4  11  22  43  69  87 132 166 207 269 317 371
#     4  10  24  40  60  91 128 167 218 256 305 386
#     4   9  22  44  64  95 123 168 214 256 321 384
#     4  11  23  40  60  98 125 163 218 256 310 385
#
# _framework density 23.538899000000001
#
# number of rings (size 3 to 8) (size 9 to 14) (size 15 to 20)
#    0.857    0.857    2.857    0.429    4.000    5.714 
#    0.000    4.286    0.000    0.000    0.000    0.000 
#    0.000    0.000    0.000    0.000    0.000    0.000 
#
# Total GULP energy -173435.996729 kJ/mol
# GULP energy per Si atom -12388.285481 kJ/mol
# Density = 2.348532 g / cm^3
# Si number density = 23.538899 Si / 1000 Ang^3
#
#
#
# Elastic Constant Matrix: (Units=GPa)
#
#
# Indices 1 2 3 4 5 6 
#
# 1 73.2556 27.1532 17.8230 5.4510 22.8729 6.5025
# 2 27.1532 114.0199 17.5088 -2.2764 12.8452 8.7945
# 3 17.8230 17.5088 39.6502 0.6991 9.9779 -10.2532
# 4 5.4510 -2.2764 0.6991 31.0910 -1.3292 3.2640
# 5 22.8729 12.8452 9.9779 -1.3292 38.4897 1.7043
# 6 6.5025 8.7945 -10.2532 3.2640 1.7043 35.8784
#
#
#
# Elastic Compliance Matrix: (Units=1/GPa)
#
#
# Indices 1 2 3 4 5 6 
#
# 1 0.019559 -0.002402 -0.006430 -0.003424 -0.009094 -0.004050
# 2 -0.002402 0.010371 -0.004231 0.001604 -0.000730 -0.003427
# 3 -0.006430 -0.004231 0.034259 -0.001428 -0.004243 0.012324
# 4 -0.003424 0.001604 -0.001428 0.033403 0.003172 -0.003370
# 5 -0.009094 -0.000730 -0.004243 0.003172 0.032893 -0.001237
# 6 -0.004050 -0.003427 0.012324 -0.003370 -0.001237 0.033333
#
#
# Mechanical properties :
#
#
# Convention : Reuss Voigt Hill
#
# Bulk Modulus (GPa) = 26.27165 39.09952 32.68558
# Shear Modulus (GPa) = 24.67541 32.05452 28.36497
#
# Velocity S-wave (km/s) = 3.24123 3.69422 3.47511
# Velocity P-wave (km/s) = 5.01922 5.90279 5.47885
#
# Compressibility (1/GPa) = 0.03806385
#
# Stress axis : x y z
#
# Youngs Moduli (GPa) = 51.12679 96.42605 29.18946
#
# Poissons Ratio (x) = 0.23162 0.18768
# Poissons Ratio (y) = 0.12281 0.12349
# Poissons Ratio (z) = 0.32874 0.40794
#
# Static dielectric constant tensor:
#      x y z
#    x 4.351060 -0.181060 0.230440 
#    y -0.181060 3.695010 -0.235980 
#    z 0.230440 -0.235980 4.315410 
# 
# 
# High freq. dielectric constant tensor:
#      x y z
#    x 1.933510 -0.011570 0.004790 
#    y -0.011570 1.931080 -0.015010 
#    z 0.004790 -0.015010 1.914930 
# 
# From -- ./inp_files/202840.got.cif
#   From: 2010.06.25/outbox.cif.g09.slc.cpg/sg2_102_cif.got.tgz:202840.got - 2010.06.27 13:26:56.
