data_PCOD8020201
_publ_section_title
;
Structure prediction by ZEFSAII (Michael W. Deem and Ramdas Pophale) SiO2 
 PCOD8020201
Probable space group: P -1
;
_chemical_formula_sum "Si O2"
_cell_formula_units_Z 14
_cell_length_a 11.881169
_cell_length_b 19.393611
_cell_length_c 8.203751
_cell_angle_alpha 47.678096
_cell_angle_beta 35.777895
_cell_angle_gamma 32.274735
_cell_volume 589.644553
_symmetry_space_group_name_H-M "P -1"
_symmetry_group_IT_number 2
_symmetry_cell_setting 'triclinic'
loop_
_space_group_symop_operation_xyz
x,y,z
-x,-y,-z
loop_
_atom_site_type_symbol
_atom_site_label
_atom_site_fract_x
_atom_site_fract_y
_atom_site_fract_z
Si Si1 0.486603 0.258038 0.024216
Si Si2 0.578348 0.838213 0.415979
Si Si3 0.296770 0.295410 0.846714
Si Si4 0.586924 0.551953 0.662088
Si Si5 0.045241 0.086935 0.734712
Si Si6 0.709054 0.474919 0.175000
Si Si7 0.094166 0.716322 0.156062
O O1 0.412605 0.225463 0.997464
O O2 0.305658 0.409801 0.013926
O O3 0.794843 0.186666 0.749545
O O4 0.444094 0.213495 0.308510
O O5 0.544102 0.793614 0.357698
O O6 0.874185 0.784527 0.159962
O O7 0.332963 0.994312 0.453868
O O8 0.310710 0.404568 0.653275
O O9 0.000883 0.354106 0.090776
O O10 0.361075 0.552858 0.866472
O O11 0.848963 0.407608 0.642002
O O12 0.386311 0.664628 0.853658
O O13 0.046096 0.169406 0.732109
O O14 0.000000 0.000000 0.000000
O O15 0.500000 0.500000 0.500000
#
# Coordination Sequence:
#
# PCOD8020201 Si02
#       7
#     2   2   2   2   2   2   2
#     4  11  24  42  68  96 137 177 219 281 331 390
#     4  11  25  43  69  96 136 181 226 274 325 394
#     4  12  26  44  67 105 137 172 222 274 336 402
#     4  11  23  39  69 101 138 174 217 276 338 401
#     4  10  22  42  66  94 130 181 228 272 328 387
#     4  12  24  42  64 103 139 172 219 274 340 405
#     4  11  22  41  67 102 134 176 225 275 334 398
#
# _framework density 23.743120000000001
#
# number of rings (size 3 to 8) (size 9 to 14) (size 15 to 20)
#    0.000    0.857    4.286    3.429    4.000    1.714 
#    0.000    0.000    0.000    6.000    0.000    0.000 
#    0.000    0.000    0.000    0.000    0.000    0.000 
#
# Total GULP energy -173453.333978 kJ/mol
# GULP energy per Si atom -12389.523856 kJ/mol
# Density = 2.368908 g / cm^3
# Si number density = 23.743120 Si / 1000 Ang^3
#
#
#
# Elastic Constant Matrix: (Units=GPa)
#
#
# Indices 1 2 3 4 5 6 
#
# 1 143.3101 25.5101 8.6814 14.1683 7.2439 -0.7765
# 2 25.5101 71.2073 4.2598 29.7562 1.4117 13.2094
# 3 8.6814 4.2598 67.9125 7.8033 6.8640 10.1275
# 4 14.1683 29.7562 7.8033 31.4540 -7.3265 -5.2903
# 5 7.2439 1.4117 6.8640 -7.3265 37.9252 6.1547
# 6 -0.7765 13.2094 10.1275 -5.2903 6.1547 34.0071
#
#
#
# Elastic Compliance Matrix: (Units=1/GPa)
#
#
# Indices 1 2 3 4 5 6 
#
# 1 0.007667 -0.002538 -0.000767 -0.000994 -0.001673 0.001537
# 2 -0.002538 0.033822 0.005976 -0.037000 -0.005810 -0.019680
# 3 -0.000767 0.005976 0.017557 -0.012100 -0.004180 -0.008693
# 4 -0.000994 -0.037000 -0.012100 0.078227 0.014404 0.027515
# 5 -0.001673 -0.005810 -0.004180 0.014404 0.030410 0.000201
# 6 0.001537 -0.019680 -0.008693 0.027515 0.000201 0.043918
#
#
# Mechanical properties :
#
#
# Convention : Reuss Voigt Hill
#
# Bulk Modulus (GPa) = 15.53036 39.92583 27.72809
# Shear Modulus (GPa) = 21.95657 36.94248 29.44952
#
# Velocity S-wave (km/s) = 3.04428 3.94880 3.52567
# Velocity P-wave (km/s) = 4.34880 6.13538 5.31766
#
# Compressibility (1/GPa) = 0.06439003
#
# Stress axis : x y z
#
# Youngs Moduli (GPa) = 130.42617 29.56614 56.95673
#
# Poissons Ratio (x) = 0.07503 0.04368
# Poissons Ratio (y) = 0.33098 -0.34038
# Poissons Ratio (z) = 0.10003 -0.17669
#
# Static dielectric constant tensor:
#      x y z
#    x 13.541650 1.969990 0.867850 
#    y 1.969990 5.136590 0.656600 
#    z 0.867850 0.656600 4.189790 
# 
# 
# High freq. dielectric constant tensor:
#      x y z
#    x 1.953230 -0.000260 -0.006740 
#    y -0.000260 1.933890 0.027070 
#    z -0.006740 0.027070 1.928660 
# 
# From -- ./inp_files/281586.got.cif
#   From: 2010.06.25/outbox.cif.g09.slc.cpg/sg2_141_cif.got.tgz:281586.got - 2010.06.27 13:26:56.
