data_PCOD8020422
_publ_section_title
;
Structure prediction by ZEFSAII (Michael W. Deem and Ramdas Pophale) SiO2 
 PCOD8020422
Probable space group: P -1
;
_chemical_formula_sum "Si O2"
_cell_formula_units_Z 16
_cell_length_a 10.236514
_cell_length_b 12.759266
_cell_length_c 11.939690
_cell_angle_alpha 80.965292
_cell_angle_beta 24.276018
_cell_angle_gamma 77.640564
_cell_volume 623.458781
_symmetry_space_group_name_H-M "P -1"
_symmetry_group_IT_number 2
_symmetry_cell_setting 'triclinic'
loop_
_space_group_symop_operation_xyz
x,y,z
-x,-y,-z
loop_
_atom_site_type_symbol
_atom_site_label
_atom_site_fract_x
_atom_site_fract_y
_atom_site_fract_z
Si Si1 0.230737 0.712381 0.322693
Si Si2 0.802128 0.045733 0.398656
Si Si3 0.635592 0.510079 0.139201
Si Si4 0.277921 0.151411 0.156702
Si Si5 0.168547 0.620937 0.782915
Si Si6 0.674404 0.749894 0.312715
Si Si7 0.399477 0.915609 0.873729
Si Si8 0.178872 0.699050 0.103636
O O1 0.337728 0.601358 0.324228
O O2 0.158140 0.692510 0.253689
O O3 0.892649 0.763141 0.632644
O O4 0.502120 0.790132 0.108295
O O5 0.489707 0.124705 0.582608
O O6 0.992142 0.109166 0.324980
O O7 0.675225 0.946170 0.573714
O O8 0.051358 0.994115 0.115581
O O9 0.615824 0.465535 0.288835
O O10 0.637414 0.415352 0.064404
O O11 0.965214 0.559724 0.867754
O O12 0.506856 0.063947 0.071515
O O13 0.401193 0.677678 0.514739
O O14 0.946073 0.716575 0.011573
O O15 0.820328 0.724608 0.326499
O O16 0.368360 0.792431 0.897228
#
# Coordination Sequence:
#
# PCOD8020422 Si02
#       8
#     2   2   2   2   2   2   2   2
#     4  11  23  41  66  95 126 165 208 249 312 381
#     4  12  23  41  69  92 121 166 211 258 314 368
#     4  10  22  42  68  93 127 167 207 252 312 372
#     4  11  23  42  66  95 128 155 205 271 311 360
#     4  10  23  41  66  98 126 158 206 263 311 363
#     4  11  24  43  65  94 127 161 208 261 312 365
#     4  11  24  41  62  94 127 164 209 253 312 373
#     4  10  25  43  61  91 134 168 205 257 304 367
#
# _framework density 25.663285999999999
#
# number of rings (size 3 to 8) (size 9 to 14) (size 15 to 20)
#    0.000    1.250    0.000    5.625    0.000   13.500 
#    0.000    3.750    0.000    0.000    0.000    0.000 
#    0.000    0.000    0.000    0.000    0.000    0.000 
#
# Total GULP energy -198441.352052 kJ/mol
# GULP energy per Si atom -12402.584503 kJ/mol
# Density = 2.560488 g / cm^3
# Si number density = 25.663286 Si / 1000 Ang^3
#
#
#
# Elastic Constant Matrix: (Units=GPa)
#
#
# Indices 1 2 3 4 5 6 
#
# 1 46.9782 21.6802 -10.3189 -1.3811 -13.9675 3.2738
# 2 21.6802 66.5733 19.6004 -2.5289 -15.1129 -19.8983
# 3 -10.3189 19.6004 79.8121 -2.0851 -4.9250 -5.3223
# 4 -1.3811 -2.5289 -2.0851 35.0738 -0.3113 -12.5271
# 5 -13.9675 -15.1129 -4.9250 -0.3113 22.9995 0.1890
# 6 3.2738 -19.8983 -5.3223 -12.5271 0.1890 40.1263
#
#
#
# Elastic Compliance Matrix: (Units=1/GPa)
#
#
# Indices 1 2 3 4 5 6 
#
# 1 0.033457 -0.012769 0.007659 -0.002165 0.013611 -0.008786
# 2 -0.012769 0.028524 -0.006786 0.007115 0.009497 0.016463
# 3 0.007659 -0.006786 0.015271 0.000049 0.003479 -0.001966
# 4 -0.002165 0.007115 0.000049 0.034096 0.003714 0.014338
# 5 0.013611 0.009497 0.003479 0.003714 0.058740 0.004943
# 6 -0.008786 0.016463 -0.001966 0.014338 0.004943 0.037994
#
#
# Mechanical properties :
#
#
# Convention : Reuss Voigt Hill
#
# Bulk Modulus (GPa) = 18.70575 28.36523 23.53549
# Shear Modulus (GPa) = 20.02451 30.46671 25.24561
#
# Velocity S-wave (km/s) = 2.79638 3.44927 3.13984
# Velocity P-wave (km/s) = 4.21082 5.19039 4.72605
#
# Compressibility (1/GPa) = 0.05345950
#
# Stress axis : x y z
#
# Youngs Moduli (GPa) = 29.88933 35.05813 65.48330
#
# Poissons Ratio (x) = 0.44765 -0.50153
# Poissons Ratio (y) = 0.38165 0.44438
# Poissons Ratio (z) = -0.22892 0.23791
#
# Static dielectric constant tensor:
#      x y z
#    x 4.481390 -0.083270 -0.299140 
#    y -0.083270 4.817900 0.063580 
#    z -0.299140 0.063580 4.490080 
# 
# 
# High freq. dielectric constant tensor:
#      x y z
#    x 2.015810 -0.001070 -0.014470 
#    y -0.001070 2.037680 0.007530 
#    z -0.014470 0.007530 2.027290 
# 
# From -- ./inp_files/519663.got.cif
#   From: 2010.06.25/outbox.cif.g09.slc.cpg/sg2_260_cif.got.tgz:519663.got - 2010.06.27 13:26:56.
