data_PCOD8020868
_publ_section_title
;
Structure prediction by ZEFSAII (Michael W. Deem and Ramdas Pophale) SiO2 
 PCOD8020868
Probable space group: P -1
;
_chemical_formula_sum "Si O2"
_cell_formula_units_Z 16
_cell_length_a 23.533226
_cell_length_b 14.685099
_cell_length_c 9.476758
_cell_angle_alpha 129.017871
_cell_angle_beta 147.911059
_cell_angle_gamma 28.497843
_cell_volume 739.742403
_symmetry_space_group_name_H-M "P -1"
_symmetry_group_IT_number 2
_symmetry_cell_setting 'triclinic'
loop_
_space_group_symop_operation_xyz
x,y,z
-x,-y,-z
loop_
_atom_site_type_symbol
_atom_site_label
_atom_site_fract_x
_atom_site_fract_y
_atom_site_fract_z
Si Si1 0.529843 0.093267 0.228449
Si Si2 0.902140 0.767770 0.876716
Si Si3 0.015489 0.923266 0.306554
Si Si4 0.454317 0.380724 0.182476
Si Si5 0.714327 0.725158 0.837551
Si Si6 0.400884 0.685763 0.870372
Si Si7 0.809276 0.189600 0.874535
Si Si8 0.636260 0.022788 0.825201
O O1 0.462157 0.239016 0.101035
O O2 0.380066 0.241560 0.187660
O O3 0.753873 0.913289 0.573002
O O4 0.500000 0.000000 0.000000
O O5 0.771951 0.850573 0.816545
O O6 0.019609 0.778652 0.174396
O O7 0.061037 0.521375 0.939505
O O8 0.211513 0.792142 0.515069
O O9 0.000000 0.000000 0.500000
O O10 0.833507 0.126085 0.025154
O O11 0.455351 0.404009 0.039233
O O12 0.642132 0.265789 0.532916
O O13 0.257745 0.613740 0.065695
O O14 0.697539 0.883992 0.952193
O O15 0.591847 0.787853 0.507319
O O16 0.500000 0.500000 0.000000
O O17 0.328812 0.870452 0.976955
O O18 0.000000 0.000000 0.000000
#
# Coordination Sequence:
#
# PCOD8020868 Si02
#       8
#     2   2   2   2   2   2   2   2
#     4  11  25  45  65  95 133 176 229 280 329 398
#     4  11  23  41  70  94 134 174 226 277 337 405
#     4  12  23  41  66 101 136 174 223 278 335 408
#     4  11  25  42  68  93 136 177 223 277 341 402
#     4  10  23  42  69  95 129 180 223 278 340 392
#     4  12  24  41  67 100 137 175 222 282 342 406
#     4  11  24  43  65  97 133 178 222 275 342 406
#     4  10  22  43  64  97 138 168 221 282 337 395
#
# _framework density 21.629151
#
# number of rings (size 3 to 8) (size 9 to 14) (size 15 to 20)
#    0.000    1.000    3.750    2.625    1.750    1.500 
#    2.250    0.000    0.000    0.000    0.000    0.000 
#    0.000    0.000    0.000    0.000    0.000    0.000 
#
# Total GULP energy -198342.282604 kJ/mol
# GULP energy per Si atom -12396.392663 kJ/mol
# Density = 2.157992 g / cm^3
# Si number density = 21.629151 Si / 1000 Ang^3
#
#
#
# Elastic Constant Matrix: (Units=GPa)
#
#
# Indices 1 2 3 4 5 6 
#
# 1 122.7068 64.4926 23.9349 -7.3730 -9.5808 15.9669
# 2 64.4926 154.2506 43.6154 -8.8328 0.7030 10.5519
# 3 23.9349 43.6154 57.4019 3.9410 -5.1493 -0.4166
# 4 -7.3730 -8.8328 3.9410 37.8003 0.8898 7.8419
# 5 -9.5808 0.7030 -5.1493 0.8898 33.4726 -1.0623
# 6 15.9669 10.5519 -0.4166 7.8419 -1.0623 46.5071
#
#
#
# Elastic Compliance Matrix: (Units=1/GPa)
#
#
# Indices 1 2 3 4 5 6 
#
# 1 0.011319 -0.003941 -0.001630 0.002070 0.002912 -0.003289
# 2 -0.003941 0.010260 -0.006570 0.002692 -0.002475 -0.001544
# 3 -0.001630 -0.006570 0.023785 -0.005081 0.003567 0.003201
# 4 0.002070 0.002692 -0.005081 0.029363 -0.001228 -0.006346
# 5 0.002912 -0.002475 0.003567 -0.001228 0.031359 0.000517
# 6 -0.003289 -0.001544 0.003201 -0.006346 0.000517 0.024092
#
#
# Mechanical properties :
#
#
# Convention : Reuss Voigt Hill
#
# Bulk Modulus (GPa) = 47.43632 66.49390 56.96511
# Shear Modulus (GPa) = 30.96249 37.04376 34.00312
#
# Velocity S-wave (km/s) = 3.78764 4.14294 3.96927
# Velocity P-wave (km/s) = 6.41152 7.32767 6.88485
#
# Compressibility (1/GPa) = 0.02108089
#
# Stress axis : x y z
#
# Youngs Moduli (GPa) = 88.35020 97.46926 42.04372
#
# Poissons Ratio (x) = 0.38415 0.06851
# Poissons Ratio (y) = 0.34821 0.27623
# Poissons Ratio (z) = 0.14397 0.64039
#
# Static dielectric constant tensor:
#      x y z
#    x 3.488870 0.270050 0.020440 
#    y 0.270050 3.992590 -0.187130 
#    z 0.020440 -0.187130 3.968640 
# 
# 
# High freq. dielectric constant tensor:
#      x y z
#    x 1.856030 0.007100 0.000220 
#    y 0.007100 1.853780 -0.004860 
#    z 0.000220 -0.004860 1.844250 
# 
# From -- ./inp_files/354607.got.cif
#   From: 2010.06.25/outbox.cif.g09.slc.cpg/sg2_178_cif.got.tgz:354607.got - 2010.06.27 13:26:56.
