data_PCOD8020005
_publ_section_title
;
Structure prediction by ZEFSAII (Michael W. Deem and Ramdas Pophale) SiO2 
 PCOD8020005
Probable space group: P -1
;
_chemical_formula_sum "Si O2"
_cell_formula_units_Z 12
_cell_length_a 8.418026
_cell_length_b 15.303596
_cell_length_c 5.058365
_cell_angle_alpha 82.285784
_cell_angle_beta 92.247525
_cell_angle_gamma 137.891651
_cell_volume 431.208358
_symmetry_space_group_name_H-M "P -1"
_symmetry_group_IT_number 2
_symmetry_cell_setting 'triclinic'
loop_
_space_group_symop_operation_xyz
x,y,z
-x,-y,-z
loop_
_atom_site_type_symbol
_atom_site_label
_atom_site_fract_x
_atom_site_fract_y
_atom_site_fract_z
Si Si1 0.269426 0.588189 0.030153
Si Si2 0.524587 0.633750 0.500352
Si Si3 0.674297 0.046807 0.261169
Si Si4 0.188349 0.735391 0.121884
Si Si5 0.928003 0.679513 0.639992
Si Si6 0.832966 0.925153 0.268935
O O1 0.418982 0.624231 0.770300
O O2 0.927032 0.313639 0.578387
O O3 0.312772 0.535284 0.300652
O O4 0.000000 0.500000 0.000000
O O5 0.360150 0.721551 0.092864
O O6 0.663185 0.598904 0.564009
O O7 0.939111 0.172978 0.346108
O O8 0.500000 0.000000 0.500000
O O9 0.649942 0.933131 0.241915
O O10 0.656732 0.109928 0.980920
O O11 0.958464 0.636823 0.937741
O O12 0.693656 0.775385 0.317671
O O13 0.000000 0.000000 0.500000
O O14 0.000000 0.000000 0.000000
#
# Coordination Sequence:
#
# PCOD8020005 Si02
#       6
#     2   2   2   2   2   2
#     4  12  27  47  71  96 127 175 230 288 343 380
#     4  12  24  45  69  99 138 173 223 278 323 400
#     4  10  23  38  63  94 137 173 217 254 327 391
#     4  10  22  43  63  92 134 163 225 266 324 389
#     4  10  22  42  64  93 134 174 207 266 324 390
#     4  12  23  40  65 102 138 178 215 258 324 406
#
# _framework density 27.828773000000002
#
# number of rings (size 3 to 8) (size 9 to 14) (size 15 to 20)
#    1.000    0.000    1.667    5.500    2.333    0.667 
#    0.000    5.000    0.000    0.000    0.000    0.000 
#    0.000    0.000    0.000    0.000    0.000    0.000 
#
# Total GULP energy -148827.613215 kJ/mol
# GULP energy per Si atom -12402.301101 kJ/mol
# Density = 2.776543 g / cm^3
# Si number density = 27.828773 Si / 1000 Ang^3
#
#
#
# Elastic Constant Matrix: (Units=GPa)
#
#
# Indices 1 2 3 4 5 6 
#
# 1 159.1548 4.4925 63.0592 -25.7806 -0.9526 -16.0802
# 2 4.4925 74.7654 22.5744 -17.3145 19.4978 -6.3736
# 3 63.0592 22.5744 177.7996 -12.2855 -11.8874 -9.8977
# 4 -25.7806 -17.3145 -12.2855 42.6032 0.5548 -2.9605
# 5 -0.9526 19.4978 -11.8874 0.5548 76.2583 -3.7636
# 6 -16.0802 -6.3736 -9.8977 -2.9605 -3.7636 31.9733
#
#
#
# Elastic Compliance Matrix: (Units=1/GPa)
#
#
# Indices 1 2 3 4 5 6 
#
# 1 0.008670 0.002179 -0.002765 0.005648 -0.000705 0.004379
# 2 0.002179 0.017421 -0.002523 0.008008 -0.004682 0.003978
# 3 -0.002765 -0.002523 0.007018 -0.000668 0.001730 0.000421
# 4 0.005648 0.008008 -0.000668 0.030452 -0.001966 0.006819
# 5 -0.000705 -0.004682 0.001730 -0.001966 0.014625 0.000787
# 6 0.004379 0.003978 0.000421 0.006819 0.000787 0.035126
#
#
# Mechanical properties :
#
#
# Convention : Reuss Voigt Hill
#
# Bulk Modulus (GPa) = 37.18582 65.77467 51.48025
# Shear Modulus (GPa) = 38.91263 51.60652 45.25958
#
# Velocity S-wave (km/s) = 3.74343 4.31098 4.03719
# Velocity P-wave (km/s) = 5.66354 6.96177 6.34594
#
# Compressibility (1/GPa) = 0.02689197
#
# Stress axis : x y z
#
# Youngs Moduli (GPa) = 115.33619 57.40270 142.48756
#
# Poissons Ratio (x) = -0.12508 0.39394
# Poissons Ratio (y) = -0.25132 0.35948
# Poissons Ratio (z) = 0.31888 0.14482
#
# Static dielectric constant tensor:
#      x y z
#    x 5.557590 -0.549650 0.676240 
#    y -0.549650 6.817300 0.105200 
#    z 0.676240 0.105200 5.112750 
# 
# 
# High freq. dielectric constant tensor:
#      x y z
#    x 2.130100 -0.007160 0.031330 
#    y -0.007160 2.205490 0.007400 
#    z 0.031330 0.007400 2.136980 
# 
# From -- ./inp_files/46783.got.cif
#   From: 2010.06.25/outbox.cif.g09.slc.cpg/sg2_24_cif.got.tgz:46783.got - 2010.06.27 13:26:56.
