data_PCOD8020994
_publ_section_title
;
Structure prediction by ZEFSAII (Michael W. Deem and Ramdas Pophale) SiO2 
 PCOD8020994
Probable space group: P -1
;
_chemical_formula_sum "Si O2"
_cell_formula_units_Z 16
_cell_length_a 11.969110
_cell_length_b 12.731693
_cell_length_c 12.532103
_cell_angle_alpha 116.204622
_cell_angle_beta 142.493902
_cell_angle_gamma 92.702498
_cell_volume 715.691887
_symmetry_space_group_name_H-M "P -1"
_symmetry_group_IT_number 2
_symmetry_cell_setting 'triclinic'
loop_
_space_group_symop_operation_xyz
x,y,z
-x,-y,-z
loop_
_atom_site_type_symbol
_atom_site_label
_atom_site_fract_x
_atom_site_fract_y
_atom_site_fract_z
Si Si1 0.020451 0.872939 0.985404
Si Si2 0.483048 0.630353 0.388941
Si Si3 0.597286 0.163060 0.200301
Si Si4 0.153910 0.467758 0.672770
Si Si5 0.523076 0.136170 0.375754
Si Si6 0.972312 0.760864 0.127544
Si Si7 0.647874 0.694447 0.305087
Si Si8 0.112661 0.061766 0.728967
O O1 0.749279 0.685784 0.655481
O O2 0.060867 0.872249 0.140307
O O3 0.000000 0.000000 0.000000
O O4 0.274151 0.943056 0.143753
O O5 0.444409 0.730974 0.471660
O O6 0.510533 0.667108 0.300396
O O7 0.236361 0.436119 0.146879
O O8 0.488019 0.139464 0.225360
O O9 0.917545 0.321387 0.509602
O O10 0.426746 0.176429 0.009182
O O11 0.500000 0.000000 0.000000
O O12 0.256714 0.398042 0.657942
O O13 0.000000 0.500000 0.500000
O O14 0.419429 0.625014 0.013016
O O15 0.775856 0.174783 0.596517
O O16 0.859993 0.793605 0.146600
O O17 0.918750 0.894798 0.583195
O O18 0.000000 0.000000 0.500000
#
# Coordination Sequence:
#
# PCOD8020994 Si02
#       8
#     2   2   2   2   2   2   2   2
#     4  10  22  43  66  94 134 175 220 278 343 410
#     4  11  24  45  69 100 139 181 228 291 355 409
#     4  12  24  45  71 100 140 181 229 285 349 421
#     4  11  26  46  72 106 140 190 239 285 356 422
#     4  11  24  45  69 100 139 179 228 288 353 419
#     4  12  25  42  70 102 132 182 235 282 350 424
#     4  11  25  48  71 100 152 183 232 301 349 415
#     4  12  25  43  69 101 138 185 235 287 353 419
#
# _framework density 22.355991
#
# number of rings (size 3 to 8) (size 9 to 14) (size 15 to 20)
#    0.000    0.750    1.250    7.125    5.250    0.000 
#    2.250    0.000    0.000    0.000    0.000    0.000 
#    0.000    0.000    0.000    0.000    0.000    0.000 
#
# Total GULP energy -198215.456743 kJ/mol
# GULP energy per Si atom -12388.466046 kJ/mol
# Density = 2.230511 g / cm^3
# Si number density = 22.355991 Si / 1000 Ang^3
#
#
#
# Elastic Constant Matrix: (Units=GPa)
#
#
# Indices 1 2 3 4 5 6 
#
# 1 148.9302 35.7902 41.6420 11.9974 -18.7877 -8.9945
# 2 35.7902 74.8714 18.7716 -6.4578 -6.9154 -8.3301
# 3 41.6420 18.7716 130.3884 10.4034 6.0457 -24.3707
# 4 11.9974 -6.4578 10.4034 59.1629 -4.7584 -0.9112
# 5 -18.7877 -6.9154 6.0457 -4.7584 48.7058 -4.2099
# 6 -8.9945 -8.3301 -24.3707 -0.9112 -4.2099 42.0685
#
#
#
# Elastic Compliance Matrix: (Units=1/GPa)
#
#
# Indices 1 2 3 4 5 6 
#
# 1 0.008679 -0.003414 -0.002277 -0.001488 0.003012 0.000130
# 2 -0.003414 0.015867 -0.001116 0.002773 0.001516 0.001977
# 3 -0.002277 -0.001116 0.009632 -0.001441 -0.001972 0.004643
# 4 -0.001488 0.002773 -0.001441 0.017900 0.001744 -0.000042
# 5 0.003012 0.001516 -0.001972 0.001744 0.022504 0.002092
# 6 0.000130 0.001977 0.004643 -0.000042 0.002092 0.027088
#
#
# Mechanical properties :
#
#
# Convention : Reuss Voigt Hill
#
# Bulk Modulus (GPa) = 48.62836 60.73306 54.68071
# Shear Modulus (GPa) = 40.93698 47.18652 44.06175
#
# Velocity S-wave (km/s) = 4.28383 4.59921 4.44431
# Velocity P-wave (km/s) = 6.80200 7.44506 7.13079
#
# Compressibility (1/GPa) = 0.02056413
#
# Stress axis : x y z
#
# Youngs Moduli (GPa) = 115.21741 63.02349 103.82543
#
# Poissons Ratio (x) = 0.21514 0.23642
# Poissons Ratio (y) = 0.39332 0.11588
# Poissons Ratio (z) = 0.26236 0.07034
#
# Static dielectric constant tensor:
#      x y z
#    x 4.186950 0.199530 0.274690 
#    y 0.199530 3.304420 -0.015720 
#    z 0.274690 -0.015720 4.644150 
# 
# 
# High freq. dielectric constant tensor:
#      x y z
#    x 1.891440 0.005880 0.009390 
#    y 0.005880 1.869260 -0.007010 
#    z 0.009390 -0.007010 1.906960 
# 
# From -- ./inp_files/428595.got.cif
#   From: 2010.06.25/outbox.cif.g09.slc.cpg/sg2_215_cif.got.tgz:428595.got - 2010.06.27 13:26:56.
