data_PCOD8020603
_publ_section_title
;
Structure prediction by ZEFSAII (Michael W. Deem and Ramdas Pophale) SiO2 
 PCOD8020603
Probable space group: P -1
;
_chemical_formula_sum "Si O2"
_cell_formula_units_Z 16
_cell_length_a 9.345132
_cell_length_b 10.885632
_cell_length_c 19.333718
_cell_angle_alpha 145.972814
_cell_angle_beta 39.356723
_cell_angle_gamma 129.411665
_cell_volume 697.831466
_symmetry_space_group_name_H-M "P -1"
_symmetry_group_IT_number 2
_symmetry_cell_setting 'triclinic'
loop_
_space_group_symop_operation_xyz
x,y,z
-x,-y,-z
loop_
_atom_site_type_symbol
_atom_site_label
_atom_site_fract_x
_atom_site_fract_y
_atom_site_fract_z
Si Si1 0.939368 0.758228 0.634955
Si Si2 0.275442 0.078729 0.586575
Si Si3 0.746449 0.407228 0.851202
Si Si4 0.865814 0.371251 0.274128
Si Si5 0.937993 0.981959 0.155868
Si Si6 0.046422 0.499271 0.902220
Si Si7 0.572676 0.000498 0.653781
Si Si8 0.398154 0.334090 0.389953
O O1 0.692289 0.770741 0.696211
O O2 0.000000 0.500000 0.500000
O O3 0.093897 0.897768 0.591062
O O4 0.937862 0.881105 0.766456
O O5 0.254994 0.331568 0.737149
O O6 0.500000 0.000000 0.500000
O O7 0.284837 0.092238 0.506705
O O8 0.726885 0.183304 0.713866
O O9 0.905787 0.549742 0.809261
O O10 0.851283 0.379390 0.875270
O O11 0.500000 0.500000 0.000000
O O12 0.656524 0.413344 0.317598
O O13 0.788256 0.485621 0.429815
O O14 0.932761 0.119926 0.151358
O O15 0.677085 0.923051 0.244301
O O16 0.074195 0.751934 0.984460
O O17 0.000000 0.500000 0.000000
O O18 0.550098 0.821386 0.637206
#
# Coordination Sequence:
#
# PCOD8020603 Si02
#       8
#     2   2   2   2   2   2   2   2
#     4  12  23  40  70 106 148 190 240 300 371 432
#     4  12  25  44  78 107 142 193 249 311 368 437
#     4  12  26  46  75 108 146 194 245 306 365 444
#     4  10  23  44  72 101 146 189 242 304 367 429
#     4  11  23  46  68 105 150 188 236 304 372 444
#     4  12  25  46  71 104 152 192 237 301 377 440
#     4  11  23  45  72 107 138 188 254 302 363 433
#     4  10  22  42  70 107 141 187 248 306 357 435
#
# _framework density 22.928173000000001
#
# number of rings (size 3 to 8) (size 9 to 14) (size 15 to 20)
#    0.000    0.750    5.000    2.250    0.000    3.000 
#    0.000    1.250    2.750    2.250    0.000    0.000 
#    0.000    0.000    0.000    0.000    0.000    0.000 
#
# Total GULP energy -198228.634551 kJ/mol
# GULP energy per Si atom -12389.289659 kJ/mol
# Density = 2.287599 g / cm^3
# Si number density = 22.928173 Si / 1000 Ang^3
#
#
#
# Elastic Constant Matrix: (Units=GPa)
#
#
# Indices 1 2 3 4 5 6 
#
# 1 145.7162 13.2734 49.2494 13.1088 15.1738 19.4706
# 2 13.2734 93.6273 44.8582 12.6587 -4.7282 11.3680
# 3 49.2494 44.8582 149.6364 25.3685 0.8922 1.1640
# 4 13.1088 12.6587 25.3685 40.9732 0.0171 -2.1927
# 5 15.1738 -4.7282 0.8922 0.0171 43.0616 7.1016
# 6 19.4706 11.3680 1.1640 -2.1927 7.1016 36.8444
#
#
#
# Elastic Compliance Matrix: (Units=1/GPa)
#
#
# Indices 1 2 3 4 5 6 
#
# 1 0.008686 0.000724 -0.002771 -0.001521 -0.002199 -0.004393
# 2 0.000724 0.013440 -0.003858 -0.002261 0.002118 -0.004950
# 3 -0.002771 -0.003858 0.009344 -0.003592 0.000007 0.002144
# 4 -0.001521 -0.002261 -0.003592 0.027993 -0.000196 0.003319
# 5 -0.002199 0.002118 0.000007 -0.000196 0.024941 -0.004311
# 6 -0.004393 -0.004950 0.002144 0.003319 -0.004311 0.031951
#
#
# Mechanical properties :
#
#
# Convention : Reuss Voigt Hill
#
# Bulk Modulus (GPa) = 50.86428 67.08242 58.97335
# Shear Modulus (GPa) = 37.11483 42.94912 40.03197
#
# Velocity S-wave (km/s) = 4.02773 4.33275 4.18302
# Velocity P-wave (km/s) = 6.62287 7.37234 7.00763
#
# Compressibility (1/GPa) = 0.01966016
#
# Stress axis : x y z
#
# Youngs Moduli (GPa) = 115.12911 74.40338 107.02504
#
# Poissons Ratio (x) = -0.05387 0.29653
# Poissons Ratio (y) = -0.08336 0.41293
# Poissons Ratio (z) = 0.31898 0.28707
#
# Static dielectric constant tensor:
#      x y z
#    x 4.496800 0.195210 0.118550 
#    y 0.195210 4.276860 0.386460 
#    z 0.118550 0.386460 4.465190 
# 
# 
# High freq. dielectric constant tensor:
#      x y z
#    x 1.924700 -0.002880 0.001680 
#    y -0.002880 1.900670 0.016770 
#    z 0.001680 0.016770 1.900820 
# 
# From -- ./inp_files/589687.got.cif
#   From: 2010.06.25/outbox.cif.g09.slc.cpg/sg2_295_cif.got.tgz:589687.got - 2010.06.27 13:26:56.
