data_PCOD8020982
_publ_section_title
;
Structure prediction by ZEFSAII (Michael W. Deem and Ramdas Pophale) SiO2 
 PCOD8020982
Probable space group: P -1
;
_chemical_formula_sum "Si O2"
_cell_formula_units_Z 16
_cell_length_a 12.373839
_cell_length_b 9.081027
_cell_length_c 8.321418
_cell_angle_alpha 92.619744
_cell_angle_beta 91.063282
_cell_angle_gamma 51.986372
_cell_volume 735.871190
_symmetry_space_group_name_H-M "P -1"
_symmetry_group_IT_number 2
_symmetry_cell_setting 'triclinic'
loop_
_space_group_symop_operation_xyz
x,y,z
-x,-y,-z
loop_
_atom_site_type_symbol
_atom_site_label
_atom_site_fract_x
_atom_site_fract_y
_atom_site_fract_z
Si Si1 0.283761 0.047093 0.401974
Si Si2 0.765183 0.819241 0.258127
Si Si3 0.245672 0.428521 0.981971
Si Si4 0.646629 0.350592 0.073319
Si Si5 0.450317 0.145818 0.226455
Si Si6 0.445140 0.686663 0.596832
Si Si7 0.986450 0.216009 0.864744
Si Si8 0.866234 0.019167 0.846214
O O1 0.350559 0.848976 0.475360
O O2 0.163349 0.083113 0.290179
O O3 0.230146 0.201470 0.548837
O O4 0.392691 0.046010 0.299084
O O5 0.808557 0.631903 0.163859
O O6 0.876033 0.851563 0.223278
O O7 0.614422 0.993681 0.200439
O O8 0.281266 0.552228 0.905912
O O9 0.376242 0.240332 0.060394
O O10 0.126140 0.557225 0.118016
O O11 0.640271 0.288281 0.247242
O O12 0.500000 0.500000 0.000000
O O13 0.729284 0.169954 0.951758
O O14 0.430657 0.307414 0.346966
O O15 0.500000 0.500000 0.500000
O O16 0.923515 0.122635 0.772137
O O17 0.016667 0.147345 0.046631
#
# Coordination Sequence:
#
# PCOD8020982 Si02
#       8
#     2   2   2   2   2   2   2   2
#     4  11  25  41  67 100 137 176 214 281 341 389
#     4  11  23  41  64  95 134 174 218 269 339 393
#     4  11  24  41  68  99 129 176 227 278 319 400
#     4  11  22  38  67 100 128 170 227 267 330 382
#     4  11  24  42  65 102 135 177 217 274 339 389
#     4  11  23  38  63  99 142 167 213 276 336 395
#     4  10  23  43  67  92 130 177 232 271 321 397
#     4  10  22  43  66  92 133 176 224 274 326 399
#
# _framework density 21.742934999999999
#
# number of rings (size 3 to 8) (size 9 to 14) (size 15 to 20)
#    0.000    1.250    1.250    5.250    7.000    0.500 
#    0.000    2.500    0.000    0.000    0.000    0.000 
#    0.000    0.000    0.000    0.000    0.000    0.000 
#
# Total GULP energy -198360.496859 kJ/mol
# GULP energy per Si atom -12397.531054 kJ/mol
# Density = 2.169345 g / cm^3
# Si number density = 21.742935 Si / 1000 Ang^3
#
#
#
# Elastic Constant Matrix: (Units=GPa)
#
#
# Indices 1 2 3 4 5 6 
#
# 1 145.2430 33.9504 45.0047 9.5798 -3.5542 3.9466
# 2 33.9504 60.8762 20.1179 3.9571 -6.3036 2.1618
# 3 45.0047 20.1179 78.9113 1.9330 3.9879 11.3995
# 4 9.5798 3.9571 1.9330 32.2372 10.6113 1.3177
# 5 -3.5542 -6.3036 3.9879 10.6113 37.7380 2.6269
# 6 3.9466 2.1618 11.3995 1.3177 2.6269 33.9208
#
#
#
# Elastic Compliance Matrix: (Units=1/GPa)
#
#
# Indices 1 2 3 4 5 6 
#
# 1 0.009265 -0.003374 -0.004528 -0.002577 0.001467 0.000645
# 2 -0.003374 0.020000 -0.003321 -0.002605 0.004105 0.000017
# 3 -0.004528 -0.003321 0.016896 0.001914 -0.002972 -0.004784
# 4 -0.002577 -0.002605 0.001914 0.035587 -0.010837 -0.000721
# 5 0.001467 0.004105 -0.002972 -0.010837 0.030781 -0.001396
# 6 0.000645 0.000017 -0.004784 -0.000721 -0.001396 0.031148
#
#
# Mechanical properties :
#
#
# Convention : Reuss Voigt Hill
#
# Bulk Modulus (GPa) = 42.16741 53.68626 47.92683
# Shear Modulus (GPa) = 28.73111 33.17636 30.95373
#
# Velocity S-wave (km/s) = 3.63905 3.91044 3.77719
# Velocity P-wave (km/s) = 6.09037 6.71816 6.41196
#
# Compressibility (1/GPa) = 0.02371500
#
# Stress axis : x y z
#
# Youngs Moduli (GPa) = 107.93160 50.00070 59.18617
#
# Poissons Ratio (x) = 0.16871 0.26800
# Poissons Ratio (y) = 0.36418 0.19653
# Poissons Ratio (z) = 0.48872 0.16603
#
# Static dielectric constant tensor:
#      x y z
#    x 4.301240 0.111690 0.033150 
#    y 0.111690 3.979620 0.123350 
#    z 0.033150 0.123350 4.003170 
# 
# 
# High freq. dielectric constant tensor:
#      x y z
#    x 1.869420 0.013640 0.006430 
#    y 0.013640 1.851360 0.002980 
#    z 0.006430 0.002980 1.838490 
# 
# From -- ./inp_files/244038.got.cif
#   From: 2010.06.25/outbox.cif.g09.slc.cpg/sg2_123_cif.got.tgz:244038.got - 2010.06.27 13:26:56.
