data_PCOD8020639
_publ_section_title
;
Structure prediction by ZEFSAII (Michael W. Deem and Ramdas Pophale) SiO2 
 PCOD8020639
Probable space group: P -1
;
_chemical_formula_sum "Si O2"
_cell_formula_units_Z 10
_cell_length_a 9.570814
_cell_length_b 10.847808
_cell_length_c 9.347983
_cell_angle_alpha 59.084470
_cell_angle_beta 148.728138
_cell_angle_gamma 109.236562
_cell_volume 418.916016
_symmetry_space_group_name_H-M "P -1"
_symmetry_group_IT_number 2
_symmetry_cell_setting 'triclinic'
loop_
_space_group_symop_operation_xyz
x,y,z
-x,-y,-z
loop_
_atom_site_type_symbol
_atom_site_label
_atom_site_fract_x
_atom_site_fract_y
_atom_site_fract_z
Si Si1 0.120620 0.116631 0.621123
Si Si2 0.437880 0.271097 0.618925
Si Si3 0.843292 0.399829 0.074420
Si Si4 0.523662 0.723918 0.669651
Si Si5 0.929308 0.871233 0.107574
O O1 0.403144 0.138798 0.775626
O O2 0.174222 0.068779 0.860997
O O3 0.000000 0.000000 0.500000
O O4 0.893838 0.275742 0.318336
O O5 0.675304 0.347834 0.829859
O O6 0.501064 0.206608 0.553290
O O7 0.148761 0.401732 0.278355
O O8 0.679372 0.551773 0.910539
O O9 0.212248 0.740968 0.445642
O O10 0.683733 0.814462 0.855024
O O11 0.000000 0.000000 0.000000
#
# Coordination Sequence:
#
# PCOD8020639 Si02
#       5
#     2   2   2   2   2
#     4  10  26  45  69  95 137 176 225 269 327 402
#     4  10  22  42  70  99 133 172 225 263 328 396
#     4  10  23  42  73 101 128 177 224 268 331 386
#     4  12  24  45  72  98 139 167 225 277 328 395
#     4  12  28  45  67 100 135 178 217 277 339 385
#
# _framework density 23.871134000000001
#
# number of rings (size 3 to 8) (size 9 to 14) (size 15 to 20)
#    1.200    0.000    0.000    5.400    5.600    2.400 
#    0.000    0.000    0.000    0.000    0.000    0.000 
#    0.000    0.000    0.000    0.000    0.000    0.000 
#
# Total GULP energy -123995.516707 kJ/mol
# GULP energy per Si atom -12399.551671 kJ/mol
# Density = 2.381680 g / cm^3
# Si number density = 23.871134 Si / 1000 Ang^3
#
#
#
# Elastic Constant Matrix: (Units=GPa)
#
#
# Indices 1 2 3 4 5 6 
#
# 1 134.7647 35.7525 31.4062 13.7617 -25.3899 -13.7527
# 2 35.7525 91.4983 8.1185 28.5433 -25.3707 -5.5134
# 3 31.4062 8.1185 80.8446 39.6519 -6.2841 0.6342
# 4 13.7617 28.5433 39.6519 39.0339 -6.9553 -6.2280
# 5 -25.3899 -25.3707 -6.2841 -6.9553 47.1997 6.1914
# 6 -13.7527 -5.5134 0.6342 -6.2280 6.1914 31.2588
#
#
#
# Elastic Compliance Matrix: (Units=1/GPa)
#
#
# Indices 1 2 3 4 5 6 
#
# 1 0.010924 -0.005755 -0.008657 0.010476 0.002443 0.005570
# 2 -0.005755 0.022841 0.015151 -0.029698 0.007641 -0.006241
# 3 -0.008657 0.015151 0.038190 -0.048211 0.003057 -0.012123
# 4 0.010476 -0.029698 -0.048211 0.094892 -0.005431 0.020331
# 5 0.002443 0.007641 0.003057 -0.005431 0.026742 -0.004018
# 6 0.005570 -0.006241 -0.012123 0.020331 -0.004018 0.038433
#
#
# Mechanical properties :
#
#
# Convention : Reuss Voigt Hill
#
# Bulk Modulus (GPa) = 13.61814 50.85133 32.23474
# Shear Modulus (GPa) = 19.60618 38.95384 29.28001
#
# Velocity S-wave (km/s) = 2.86900 4.04398 3.50606
# Velocity P-wave (km/s) = 4.08560 6.56915 5.47019
#
# Compressibility (1/GPa) = 0.07343145
#
# Stress axis : x y z
#
# Youngs Moduli (GPa) = 91.54454 43.78131 26.18503
#
# Poissons Ratio (x) = 0.25197 0.22669
# Poissons Ratio (y) = 0.52685 -0.39673
# Poissons Ratio (z) = 0.79254 -0.66334
#
# Static dielectric constant tensor:
#      x y z
#    x 4.295480 0.131960 0.071800 
#    y 0.131960 4.205920 -0.199290 
#    z 0.071800 -0.199290 4.611310 
# 
# 
# High freq. dielectric constant tensor:
#      x y z
#    x 1.939060 0.002330 0.000680 
#    y 0.002330 1.945870 -0.006110 
#    z 0.000680 -0.006110 1.970320 
# 
# From -- ./inp_files/16480.got.cif
#   From: 2010.06.25/outbox.cif.g09.slc.cpg/sg2_9_cif.got.tgz:16480.got - 2010.06.27 13:26:56.
