data_PCOD8020279
_publ_section_title
;
Structure prediction by ZEFSAII (Michael W. Deem and Ramdas Pophale) SiO2 
 PCOD8020279
Probable space group: P -1
;
_chemical_formula_sum "Si O2"
_cell_formula_units_Z 14
_cell_length_a 8.279000
_cell_length_b 14.483402
_cell_length_c 9.418417
_cell_angle_alpha 106.321539
_cell_angle_beta 129.397795
_cell_angle_gamma 49.733728
_cell_volume 649.736879
_symmetry_space_group_name_H-M "P -1"
_symmetry_group_IT_number 2
_symmetry_cell_setting 'triclinic'
loop_
_space_group_symop_operation_xyz
x,y,z
-x,-y,-z
loop_
_atom_site_type_symbol
_atom_site_label
_atom_site_fract_x
_atom_site_fract_y
_atom_site_fract_z
Si Si1 0.866532 0.640992 0.007811
Si Si2 0.680576 0.191472 0.669828
Si Si3 0.739323 0.782043 0.724113
Si Si4 0.064151 0.594496 0.585610
Si Si5 0.171044 0.033186 0.034040
Si Si6 0.412623 0.576038 0.342631
Si Si7 0.379963 0.234637 0.794710
O O1 0.694551 0.732044 0.819767
O O2 0.675471 0.688940 0.060076
O O3 0.000000 0.500000 0.000000
O O4 0.107192 0.646351 0.161411
O O5 0.540001 0.141342 0.491039
O O6 0.569557 0.314970 0.575322
O O7 0.577073 0.232432 0.793656
O O8 0.008528 0.092571 0.818574
O O9 0.815507 0.870412 0.832409
O O10 0.983197 0.661965 0.721056
O O11 0.382304 0.518175 0.707041
O O12 0.000000 0.500000 0.500000
O O13 0.903228 0.698975 0.416387
O O14 0.478400 0.906485 0.135341
O O15 0.000000 0.000000 0.000000
O O16 0.500000 0.500000 0.500000
#
# Coordination Sequence:
#
# PCOD8020279 Si02
#       7
#     2   2   2   2   2   2   2
#     4  12  25  40  63 102 136 172 225 274 339 401
#     4  10  22  44  68  93 133 174 222 274 333 393
#     4  11  23  41  69  96 133 176 223 276 334 390
#     4  11  21  40  69  97 132 175 221 274 341 397
#     4  10  23  43  68  97 131 177 232 271 326 399
#     4  12  22  38  66  96 134 170 216 274 331 393
#     4  10  22  42  67  90 138 175 216 274 334 388
#
# _framework density 21.547184000000001
#
# number of rings (size 3 to 8) (size 9 to 14) (size 15 to 20)
#    0.000    1.143    5.714    1.714    0.000    8.571 
#    0.000    0.714    0.000    0.000    0.000    0.000 
#    0.000    0.000    0.000    0.000    0.000    0.000 
#
# Total GULP energy -173462.350712 kJ/mol
# GULP energy per Si atom -12390.167908 kJ/mol
# Density = 2.149814 g / cm^3
# Si number density = 21.547184 Si / 1000 Ang^3
#
#
#
# Elastic Constant Matrix: (Units=GPa)
#
#
# Indices 1 2 3 4 5 6 
#
# 1 63.2657 31.6256 37.8656 2.7883 -11.0289 7.3672
# 2 31.6256 132.1366 55.9466 -1.5187 0.0429 15.3425
# 3 37.8656 55.9466 123.5836 -5.5587 0.9477 5.0979
# 4 2.7883 -1.5187 -5.5587 45.1805 0.0386 4.1778
# 5 -11.0289 0.0429 0.9477 0.0386 41.0566 0.5152
# 6 7.3672 15.3425 5.0979 4.1778 0.5152 28.7092
#
#
#
# Elastic Compliance Matrix: (Units=1/GPa)
#
#
# Indices 1 2 3 4 5 6 
#
# 1 0.021908 -0.002552 -0.005558 -0.001839 0.006057 -0.003112
# 2 -0.002552 0.010216 -0.003645 0.000442 -0.000560 -0.004212
# 3 -0.005558 -0.003645 0.011480 0.001529 -0.001770 0.001145
# 4 -0.001839 0.000442 0.001529 0.022759 -0.000509 -0.003339
# 5 0.006057 -0.000560 -0.001770 -0.000509 0.026042 -0.001334
# 6 -0.003112 -0.004212 0.001145 -0.003339 -0.001334 0.038188
#
#
# Mechanical properties :
#
#
# Convention : Reuss Voigt Hill
#
# Bulk Modulus (GPa) = 49.76605 63.31793 56.54199
# Shear Modulus (GPa) = 31.09418 35.89247 33.49333
#
# Velocity S-wave (km/s) = 3.80290 4.08580 3.94689
# Velocity P-wave (km/s) = 6.51377 7.19082 6.86065
#
# Compressibility (1/GPa) = 0.02009402
#
# Stress axis : x y z
#
# Youngs Moduli (GPa) = 45.64555 97.88214 87.10877
#
# Poissons Ratio (x) = 0.24979 0.48415
# Poissons Ratio (y) = 0.11648 0.31752
# Poissons Ratio (z) = 0.25370 0.35679
#
# Static dielectric constant tensor:
#      x y z
#    x 3.985180 -0.165320 0.179550 
#    y -0.165320 4.426360 -0.540890 
#    z 0.179550 -0.540890 4.617520 
# 
# 
# High freq. dielectric constant tensor:
#      x y z
#    x 1.829760 0.004510 -0.001780 
#    y 0.004510 1.850070 -0.024040 
#    z -0.001780 -0.024040 1.844470 
# 
# From -- ./inp_files/187919.got.cif
#   From: 2010.06.25/outbox.cif.g09.slc.cpg/sg2_94_cif.got.tgz:187919.got - 2010.06.27 13:26:56.
