data_PCOD8020579
_publ_section_title
;
Structure prediction by ZEFSAII (Michael W. Deem and Ramdas Pophale) SiO2 
 PCOD8020579
Probable space group: P -1
;
_chemical_formula_sum "Si O2"
_cell_formula_units_Z 16
_cell_length_a 11.936989
_cell_length_b 16.700176
_cell_length_c 7.995706
_cell_angle_alpha 54.735533
_cell_angle_beta 83.125981
_cell_angle_gamma 40.026305
_cell_volume 660.663797
_symmetry_space_group_name_H-M "P -1"
_symmetry_group_IT_number 2
_symmetry_cell_setting 'triclinic'
loop_
_space_group_symop_operation_xyz
x,y,z
-x,-y,-z
loop_
_atom_site_type_symbol
_atom_site_label
_atom_site_fract_x
_atom_site_fract_y
_atom_site_fract_z
Si Si1 0.382461 0.803627 0.984079
Si Si2 0.535686 0.381960 0.511832
Si Si3 0.841197 0.741574 0.876487
Si Si4 0.964368 0.004858 0.692680
Si Si5 0.543798 0.870632 0.372089
Si Si6 0.261183 0.078811 0.838829
Si Si7 0.936140 0.284184 0.895085
Si Si8 0.745719 0.605311 0.944212
O O1 0.571071 0.656942 0.984537
O O2 0.311374 0.970001 0.805971
O O3 0.474004 0.707551 0.265210
O O4 0.183030 0.877911 0.900023
O O5 0.500000 0.500000 0.500000
O O6 0.754384 0.218906 0.552942
O O7 0.323555 0.535080 0.244601
O O8 0.979393 0.677560 0.086618
O O9 0.010599 0.627894 0.826415
O O10 0.771008 0.679576 0.974978
O O11 0.618177 0.971783 0.638072
O O12 0.000000 0.000000 0.500000
O O13 0.938284 0.907219 0.829766
O O14 0.711390 0.831510 0.337342
O O15 0.679444 0.684304 0.668362
O O16 0.412356 0.939488 0.144699
O O17 0.006804 0.246141 0.734030
#
# Coordination Sequence:
#
# PCOD8020579 Si02
#       8
#     2   2   2   2   2   2   2   2
#     4  12  25  44  73 102 138 186 233 288 356 421
#     4  12  26  50  73 101 146 189 240 298 350 425
#     4  10  24  41  65 101 140 175 232 280 345 423
#     4  12  29  47  74 107 141 185 243 299 357 422
#     4  10  22  44  67  97 142 186 223 289 346 420
#     4  10  22  42  70 101 135 182 237 278 352 419
#     4  11  25  45  72 103 139 185 236 291 351 422
#     4  11  25  43  67 104 142 181 230 288 351 421
#
# _framework density 24.218067999999999
#
# number of rings (size 3 to 8) (size 9 to 14) (size 15 to 20)
#    0.000    1.000    3.750    1.500    7.000    3.500 
#    0.000    2.500    0.000    0.000    0.000    0.000 
#    0.000    0.000    0.000    0.000    0.000    0.000 
#
# Total GULP energy -198210.265765 kJ/mol
# GULP energy per Si atom -12388.141610 kJ/mol
# Density = 2.416295 g / cm^3
# Si number density = 24.218068 Si / 1000 Ang^3
#
#
#
# Elastic Constant Matrix: (Units=GPa)
#
#
# Indices 1 2 3 4 5 6 
#
# 1 72.3818 34.5837 13.8652 -5.6927 5.7864 -17.7722
# 2 34.5837 153.3521 32.4419 -13.5709 -9.5737 -29.7713
# 3 13.8652 32.4419 50.7466 0.4876 0.3100 -7.6302
# 4 -5.6927 -13.5709 0.4876 35.4660 -4.1385 2.7643
# 5 5.7864 -9.5737 0.3100 -4.1385 28.6411 3.4083
# 6 -17.7722 -29.7713 -7.6302 2.7643 3.4083 49.1076
#
#
#
# Elastic Compliance Matrix: (Units=1/GPa)
#
#
# Indices 1 2 3 4 5 6 
#
# 1 0.017093 -0.002742 -0.002225 0.000822 -0.004758 0.004462
# 2 -0.002742 0.009362 -0.004767 0.003380 0.003808 0.003488
# 3 -0.002225 -0.004767 0.023433 -0.002733 -0.001819 0.000226
# 4 0.000822 0.003380 -0.002733 0.030300 0.005390 -0.000158
# 5 -0.004758 0.003808 -0.001819 0.005390 0.038264 -0.002655
# 6 0.004462 0.003488 0.000226 -0.000158 -0.002655 0.024321
#
#
# Mechanical properties :
#
#
# Convention : Reuss Voigt Hill
#
# Bulk Modulus (GPa) = 32.87473 48.69579 40.78526
# Shear Modulus (GPa) = 29.00579 35.68225 32.34402
#
# Velocity S-wave (km/s) = 3.46452 3.84262 3.65846
# Velocity P-wave (km/s) = 5.44131 6.31177 5.89264
#
# Compressibility (1/GPa) = 0.03041850
#
# Stress axis : x y z
#
# Youngs Moduli (GPa) = 58.50516 106.81691 42.67574
#
# Poissons Ratio (x) = 0.29290 0.09496
# Poissons Ratio (y) = 0.16043 0.20344
# Poissons Ratio (z) = 0.13018 0.50920
#
# Static dielectric constant tensor:
#      x y z
#    x 4.467770 -0.082200 0.235620 
#    y -0.082200 4.707080 -0.385320 
#    z 0.235620 -0.385320 4.212010 
# 
# 
# High freq. dielectric constant tensor:
#      x y z
#    x 1.970270 -0.005910 0.011490 
#    y -0.005910 1.975810 -0.015090 
#    z 0.011490 -0.015090 1.932770 
# 
# From -- ./inp_files/279019.got.cif
#   From: 2010.06.25/outbox.cif.g09.slc.cpg/sg2_140_cif.got.tgz:279019.got - 2010.06.27 13:26:56.
