data_PCOD8020682
_publ_section_title
;
Structure prediction by ZEFSAII (Michael W. Deem and Ramdas Pophale) SiO2 
 PCOD8020682
Probable space group: P -1
;
_chemical_formula_sum "Si O2"
_cell_formula_units_Z 14
_cell_length_a 20.741758
_cell_length_b 8.675008
_cell_length_c 15.106851
_cell_angle_alpha 145.622425
_cell_angle_beta 151.603269
_cell_angle_gamma 29.449763
_cell_volume 614.786265
_symmetry_space_group_name_H-M "P -1"
_symmetry_group_IT_number 2
_symmetry_cell_setting 'triclinic'
loop_
_space_group_symop_operation_xyz
x,y,z
-x,-y,-z
loop_
_atom_site_type_symbol
_atom_site_label
_atom_site_fract_x
_atom_site_fract_y
_atom_site_fract_z
Si Si1 0.345844 0.717500 0.700486
Si Si2 0.065284 0.246888 0.880511
Si Si3 0.640008 0.389483 0.776945
Si Si4 0.199187 0.317471 0.361153
Si Si5 0.643859 0.924491 0.955083
Si Si6 0.095310 0.125042 0.456730
Si Si7 0.660965 0.033858 0.470466
O O1 0.500013 0.626528 0.786155
O O2 0.325881 0.411332 0.527777
O O3 0.188247 0.035491 0.620127
O O4 0.370978 0.796140 0.867579
O O5 0.975516 0.411145 0.756945
O O6 0.252331 0.103306 0.018843
O O7 0.037790 0.967728 0.745654
O O8 0.000000 0.500000 0.000000
O O9 0.726640 0.581195 0.946332
O O10 0.755012 0.033165 0.790641
O O11 0.572569 0.340087 0.577825
O O12 0.211076 0.285231 0.467251
O O13 0.466258 0.028188 0.758670
O O14 0.231457 0.921501 0.449971
O O15 0.000000 0.500000 0.500000
#
# Coordination Sequence:
#
# PCOD8020682 Si02
#       7
#     2   2   2   2   2   2   2
#     4  11  24  42  69 104 139 176 225 289 339 396
#     4  11  27  46  69 102 140 176 230 285 339 400
#     4  10  22  42  71  97 138 180 228 271 346 401
#     4   9  25  43  70  94 141 183 222 269 351 405
#     4  12  25  41  72 106 139 171 235 290 330 396
#     4  11  26  46  70  96 142 186 224 272 357 406
#     4  10  24  45  75  95 135 188 231 267 343 412
#
# _framework density 22.772143
#
# number of rings (size 3 to 8) (size 9 to 14) (size 15 to 20)
#    0.857    0.571    1.429    2.143    8.000    3.429 
#    0.000    0.000    0.000    0.000    0.000    0.000 
#    0.000    0.000    0.000    0.000    0.000    0.000 
#
# Total GULP energy -173516.672959 kJ/mol
# GULP energy per Si atom -12394.048068 kJ/mol
# Density = 2.272031 g / cm^3
# Si number density = 22.772143 Si / 1000 Ang^3
#
#
#
# Elastic Constant Matrix: (Units=GPa)
#
#
# Indices 1 2 3 4 5 6 
#
# 1 130.9649 19.1440 42.7754 2.5379 17.7504 -10.2330
# 2 19.1440 69.4562 24.6528 17.6998 11.5421 11.5348
# 3 42.7754 24.6528 79.9631 9.2185 11.4715 1.2206
# 4 2.5379 17.6998 9.2185 29.3982 1.7579 0.9539
# 5 17.7504 11.5421 11.4715 1.7579 47.8293 4.1480
# 6 -10.2330 11.5348 1.2206 0.9539 4.1480 37.7180
#
#
#
# Elastic Compliance Matrix: (Units=1/GPa)
#
#
# Indices 1 2 3 4 5 6 
#
# 1 0.010022 -0.001689 -0.004721 0.001667 -0.002555 0.003627
# 2 -0.001689 0.020268 -0.003681 -0.010560 -0.002473 -0.005998
# 3 -0.004721 -0.003681 0.016637 -0.002504 -0.001215 -0.000497
# 4 0.001667 -0.010560 -0.002504 0.040881 0.000799 0.002641
# 5 -0.002555 -0.002473 -0.001215 0.000799 0.022926 -0.002439
# 6 0.003627 -0.005998 -0.000497 0.002641 -0.002439 0.029549
#
#
# Mechanical properties :
#
#
# Convention : Reuss Voigt Hill
#
# Bulk Modulus (GPa) = 37.39291 50.39207 43.89249
# Shear Modulus (GPa) = 29.51920 35.90991 32.71455
#
# Velocity S-wave (km/s) = 3.60430 3.97536 3.79437
# Velocity P-wave (km/s) = 5.81184 6.57633 6.20587
#
# Compressibility (1/GPa) = 0.02674304
#
# Stress axis : x y z
#
# Youngs Moduli (GPa) = 99.77960 49.33904 60.10731
#
# Poissons Ratio (x) = 0.08334 0.28379
# Poissons Ratio (y) = 0.16855 0.22127
# Poissons Ratio (z) = 0.47110 0.18163
#
# Static dielectric constant tensor:
#      x y z
#    x 4.178810 0.290950 0.118410 
#    y 0.290950 3.915740 0.001940 
#    z 0.118410 0.001940 4.081020 
# 
# 
# High freq. dielectric constant tensor:
#      x y z
#    x 1.908650 0.016120 0.006340 
#    y 0.016120 1.885140 0.007470 
#    z 0.006340 0.007470 1.891720 
# 
# From -- ./inp_files/540608.got.cif
#   From: 2010.06.25/outbox.cif.g09.slc.cpg/sg2_271_cif.got.tgz:540608.got - 2010.06.27 13:26:56.
