data_PCOD8020023
_publ_section_title
;
Structure prediction by ZEFSAII (Michael W. Deem and Ramdas Pophale) SiO2 
 PCOD8020023
Probable space group: P -1
;
_chemical_formula_sum "Si O2"
_cell_formula_units_Z 16
_cell_length_a 17.121892
_cell_length_b 14.255965
_cell_length_c 22.952968
_cell_angle_alpha 159.356273
_cell_angle_beta 157.480186
_cell_angle_gamma 33.943546
_cell_volume 730.890543
_symmetry_space_group_name_H-M "P -1"
_symmetry_group_IT_number 2
_symmetry_cell_setting 'triclinic'
loop_
_space_group_symop_operation_xyz
x,y,z
-x,-y,-z
loop_
_atom_site_type_symbol
_atom_site_label
_atom_site_fract_x
_atom_site_fract_y
_atom_site_fract_z
Si Si1 0.430887 0.285567 0.378469
Si Si2 0.703660 0.947704 0.318308
Si Si3 0.360923 0.557579 0.169900
Si Si4 0.852188 0.050248 0.357745
Si Si5 0.733923 0.903595 0.554138
Si Si6 0.970211 0.177856 0.189863
Si Si7 0.356674 0.480999 0.832041
Si Si8 0.663571 0.497452 0.440248
O O1 0.500000 0.500000 0.500000
O O2 0.443190 0.432134 0.533881
O O3 0.599505 0.101735 0.385346
O O4 0.189817 0.115474 0.103149
O O5 0.794108 0.130178 0.429778
O O6 0.515051 0.687474 0.016510
O O7 0.896421 0.847570 0.422225
O O8 0.509419 0.736077 0.327337
O O9 0.484956 0.436161 0.233410
O O10 0.233533 0.766313 0.230190
O O11 0.203436 0.281790 0.876517
O O12 0.738390 0.215857 0.332427
O O13 0.725474 0.814058 0.428075
O O14 0.923785 0.827447 0.676523
O O15 0.852705 0.418523 0.244239
O O16 0.148659 0.242254 0.299861
O O17 0.500000 0.500000 0.000000
#
# Coordination Sequence:
#
# PCOD8020023 Si02
#       8
#     2   2   2   2   2   2   2   2
#     4  11  23  42  64  99 133 171 219 275 334 388
#     4  10  23  38  64  94 129 173 219 268 329 397
#     4  10  23  40  65  93 131 178 222 272 331 390
#     4  11  21  42  65  93 132 174 223 266 333 395
#     4  10  22  42  64  97 134 175 220 273 332 396
#     4  10  24  41  69  99 132 178 220 271 332 401
#     4  11  22  41  67  99 134 171 222 276 328 390
#     4  11  23  43  66  97 131 175 226 275 326 398
#
# _framework density 21.891103999999999
#
# number of rings (size 3 to 8) (size 9 to 14) (size 15 to 20)
#    0.000    1.500    2.500    1.875    5.250    0.000 
#    4.500    1.875    0.000    0.000    0.000    0.000 
#    0.000    0.000    0.000    0.000    0.000    0.000 
#
# Total GULP energy -198312.110936 kJ/mol
# GULP energy per Si atom -12394.506934 kJ/mol
# Density = 2.184128 g / cm^3
# Si number density = 21.891104 Si / 1000 Ang^3
#
#
#
# Elastic Constant Matrix: (Units=GPa)
#
#
# Indices 1 2 3 4 5 6 
#
# 1 82.8184 28.0330 19.9781 -3.4509 -4.5062 -3.2518
# 2 28.0330 128.7246 19.4473 -7.8174 -10.5419 1.4777
# 3 19.9781 19.4473 55.6060 7.3230 -1.1916 -10.0983
# 4 -3.4509 -7.8174 7.3230 38.3545 -3.1424 -0.2134
# 5 -4.5062 -10.5419 -1.1916 -3.1424 31.7626 -2.7313
# 6 -3.2518 1.4777 -10.0983 -0.2134 -2.7313 32.1926
#
#
#
# Elastic Compliance Matrix: (Units=1/GPa)
#
#
# Indices 1 2 3 4 5 6 
#
# 1 0.014037 -0.002174 -0.004444 0.001776 0.001300 0.000246
# 2 -0.002174 0.009062 -0.002883 0.002417 0.002719 -0.001293
# 3 -0.004444 -0.002883 0.022478 -0.005299 -0.000697 0.006640
# 4 0.001776 0.002417 -0.005299 0.028020 0.003532 -0.001108
# 5 0.001300 0.002719 -0.000697 0.003532 0.033119 0.002621
# 6 0.000246 -0.001293 0.006640 -0.001108 0.002621 0.033445
#
#
# Mechanical properties :
#
#
# Convention : Reuss Voigt Hill
#
# Bulk Modulus (GPa) = 37.63146 44.67398 41.15272
# Shear Modulus (GPa) = 29.75811 33.77464 31.76638
#
# Velocity S-wave (km/s) = 3.69096 3.93217 3.81347
# Velocity P-wave (km/s) = 5.94911 6.40840 6.18302
#
# Compressibility (1/GPa) = 0.02657351
#
# Stress axis : x y z
#
# Youngs Moduli (GPa) = 71.24051 110.35275 44.48877
#
# Poissons Ratio (x) = 0.23990 0.19772
# Poissons Ratio (y) = 0.15487 0.12827
# Poissons Ratio (z) = 0.31662 0.31816
#
# Static dielectric constant tensor:
#      x y z
#    x 3.909160 -0.142960 0.068830 
#    y -0.142960 4.130930 0.083980 
#    z 0.068830 0.083980 3.942150 
# 
# 
# High freq. dielectric constant tensor:
#      x y z
#    x 1.855860 -0.002910 0.004790 
#    y -0.002910 1.867460 -0.001670 
#    z 0.004790 -0.001670 1.854660 
# 
# From -- ./inp_files/189154.got.cif
#   From: 2010.06.25/outbox.cif.g09.slc.cpg/sg2_95_cif.got.tgz:189154.got - 2010.06.27 13:26:56.
