data_PCOD8020656
_publ_section_title
;
Structure prediction by ZEFSAII (Michael W. Deem and Ramdas Pophale) SiO2 
 PCOD8020656
Probable space group: P -1
;
_chemical_formula_sum "Si O2"
_cell_formula_units_Z 14
_cell_length_a 6.893301
_cell_length_b 14.092100
_cell_length_c 9.598402
_cell_angle_alpha 105.725374
_cell_angle_beta 133.284153
_cell_angle_gamma 68.368749
_cell_volume 630.720454
_symmetry_space_group_name_H-M "P -1"
_symmetry_group_IT_number 2
_symmetry_cell_setting 'triclinic'
loop_
_space_group_symop_operation_xyz
x,y,z
-x,-y,-z
loop_
_atom_site_type_symbol
_atom_site_label
_atom_site_fract_x
_atom_site_fract_y
_atom_site_fract_z
Si Si1 0.431784 0.607501 0.087515
Si Si2 0.603857 0.844382 0.506859
Si Si3 0.063175 0.948171 0.864786
Si Si4 0.023519 0.912475 0.364664
Si Si5 0.362912 0.495566 0.580447
Si Si6 0.029876 0.636476 0.679776
Si Si7 0.422638 0.195598 0.822373
O O1 0.434879 0.587125 0.247702
O O2 0.627266 0.681851 0.173087
O O3 0.500000 0.500000 0.000000
O O4 0.136614 0.664625 0.895477
O O5 0.348121 0.856485 0.489838
O O6 0.480409 0.864673 0.298647
O O7 0.789592 0.920390 0.663060
O O8 0.788729 0.729776 0.550362
O O9 0.331480 0.850529 0.964247
O O10 0.122498 0.032554 0.824046
O O11 0.000000 0.000000 0.000000
O O12 0.868581 0.825533 0.288714
O O13 0.000000 0.000000 0.500000
O O14 0.500000 0.500000 0.500000
O O15 0.267387 0.603767 0.661631
O O16 0.085598 0.462484 0.395299
#
# Coordination Sequence:
#
# PCOD8020656 Si02
#       7
#     2   2   2   2   2   2   2
#     4  10  22  45  71 101 142 184 231 291 348 416
#     4  12  24  45  70 105 145 181 235 295 356 418
#     4  12  24  46  72  99 146 188 232 298 358 417
#     4  12  26  45  72 105 142 189 241 293 356 424
#     4  10  22  42  71 101 139 181 231 290 357 415
#     4  10  22  43  68 100 140 181 230 291 351 416
#     4  12  24  45  73 102 141 188 238 295 349 424
#
# _framework density 22.196836000000001
#
# number of rings (size 3 to 8) (size 9 to 14) (size 15 to 20)
#    0.000    0.857    5.714    1.714    0.000    1.714 
#    0.000    5.714    0.000    0.000    0.000    0.000 
#    0.000    0.000    0.000    0.000    0.000    0.000 
#
# Total GULP energy -173479.175916 kJ/mol
# GULP energy per Si atom -12391.369708 kJ/mol
# Density = 2.214632 g / cm^3
# Si number density = 22.196836 Si / 1000 Ang^3
#
#
#
# Elastic Constant Matrix: (Units=GPa)
#
#
# Indices 1 2 3 4 5 6 
#
# 1 143.4299 51.7319 56.5540 0.2992 -8.0426 8.5268
# 2 51.7319 111.1769 35.0395 1.8062 -7.8883 12.0278
# 3 56.5540 35.0395 134.3079 -1.9899 -5.3959 13.2449
# 4 0.2992 1.8062 -1.9899 40.7756 6.8924 7.5111
# 5 -8.0426 -7.8883 -5.3959 6.8924 40.5513 0.4007
# 6 8.5268 12.0278 13.2449 7.5111 0.4007 38.2428
#
#
#
# Elastic Compliance Matrix: (Units=1/GPa)
#
#
# Indices 1 2 3 4 5 6 
#
# 1 0.009443 -0.003368 -0.003072 -0.000223 0.000846 0.000053
# 2 -0.003368 0.011316 -0.001252 -0.000355 0.001450 -0.002320
# 3 -0.003072 -0.001252 0.009320 0.000920 0.000254 -0.002332
# 4 -0.000223 -0.000355 0.000920 0.026304 -0.004410 -0.005277
# 5 0.000846 0.001450 0.000254 -0.004410 0.025895 -0.000138
# 6 0.000053 -0.002320 -0.002332 -0.005277 -0.000138 0.028712
#
#
# Mechanical properties :
#
#
# Convention : Reuss Voigt Hill
#
# Bulk Modulus (GPa) = 68.05382 75.06285 71.55833
# Shear Modulus (GPa) = 38.08890 40.28657 39.18773
#
# Velocity S-wave (km/s) = 4.14691 4.26487 4.20630
# Velocity P-wave (km/s) = 7.32495 7.62512 7.47654
#
# Compressibility (1/GPa) = 0.01469425
#
# Stress axis : x y z
#
# Youngs Moduli (GPa) = 105.90113 88.37020 107.29957
#
# Poissons Ratio (x) = 0.29760 0.32963
# Poissons Ratio (y) = 0.35664 0.13439
# Poissons Ratio (z) = 0.32533 0.11068
#
# Static dielectric constant tensor:
#      x y z
#    x 3.782800 0.022600 0.069230 
#    y 0.022600 4.085560 -0.311760 
#    z 0.069230 -0.311760 4.903630 
# 
# 
# High freq. dielectric constant tensor:
#      x y z
#    x 1.841940 0.007040 0.002810 
#    y 0.007040 1.881120 -0.004600 
#    z 0.002810 -0.004600 1.901010 
# 
# From -- ./inp_files/135778.got.cif
#   From: 2010.06.25/outbox.cif.g09.slc.cpg/sg2_68_cif.got.tgz:135778.got - 2010.06.27 13:26:56.
