data_PCOD8020819
_publ_section_title
;
Structure prediction by ZEFSAII (Michael W. Deem and Ramdas Pophale) SiO2 
 PCOD8020819
Probable space group: P -1
;
_chemical_formula_sum "Si O2"
_cell_formula_units_Z 10
_cell_length_a 13.222336
_cell_length_b 8.786580
_cell_length_c 12.855711
_cell_angle_alpha 108.729570
_cell_angle_beta 147.699736
_cell_angle_gamma 47.548194
_cell_volume 456.060798
_symmetry_space_group_name_H-M "P -1"
_symmetry_group_IT_number 2
_symmetry_cell_setting 'triclinic'
loop_
_space_group_symop_operation_xyz
x,y,z
-x,-y,-z
loop_
_atom_site_type_symbol
_atom_site_label
_atom_site_fract_x
_atom_site_fract_y
_atom_site_fract_z
Si Si1 0.291759 0.382935 0.040615
Si Si2 0.735674 0.293690 0.291004
Si Si3 0.791542 0.586504 0.524392
Si Si4 0.838045 0.955417 0.802796
Si Si5 0.852430 0.885170 0.562961
O O1 0.409907 0.421026 0.056674
O O2 0.564216 0.137405 0.296461
O O3 0.105776 0.361052 0.819997
O O4 0.041856 0.660990 0.947839
O O5 0.731376 0.462138 0.387876
O O6 0.819222 0.275040 0.238930
O O7 0.000000 0.000000 0.500000
O O8 0.841260 0.699415 0.511993
O O9 0.506675 0.831011 0.404331
O O10 0.815027 0.989906 0.665808
O O11 0.000000 0.000000 0.000000
#
# Coordination Sequence:
#
# PCOD8020819 Si02
#       5
#     2   2   2   2   2
#     4  10  22  43  66  93 130 158 209 262 303 375
#     4  10  22  43  63  96 127 162 210 255 309 375
#     4  11  23  42  65  92 129 163 209 257 310 368
#     4  11  23  42  64  93 128 164 209 260 307 371
#     4  10  23  41  66  95 124 167 208 251 319 366
#
# _framework density 21.926902999999999
#
# number of rings (size 3 to 8) (size 9 to 14) (size 15 to 20)
#    0.000    1.600    2.000    3.000    0.000   10.400 
#   10.800    0.000    0.000    0.000    0.000    0.000 
#    0.000    0.000    0.000    0.000    0.000    0.000 
#
# Total GULP energy -123962.717403 kJ/mol
# GULP energy per Si atom -12396.271740 kJ/mol
# Density = 2.187700 g / cm^3
# Si number density = 21.926903 Si / 1000 Ang^3
#
#
#
# Elastic Constant Matrix: (Units=GPa)
#
#
# Indices 1 2 3 4 5 6 
#
# 1 101.9702 27.6739 18.0054 -8.7971 11.7018 -11.4688
# 2 27.6739 79.7086 3.5520 -1.9769 5.3330 -8.7903
# 3 18.0054 3.5520 68.1304 -0.6286 12.3440 -0.4631
# 4 -8.7971 -1.9769 -0.6286 31.5107 2.5827 3.3500
# 5 11.7018 5.3330 12.3440 2.5827 44.0730 -2.3628
# 6 -11.4688 -8.7903 -0.4631 3.3500 -2.3628 30.0280
#
#
#
# Elastic Compliance Matrix: (Units=1/GPa)
#
#
# Indices 1 2 3 4 5 6 
#
# 1 0.012050 -0.003523 -0.002580 0.002937 -0.002060 0.003042
# 2 -0.003523 0.014097 0.000338 -0.000329 -0.000698 0.002769
# 3 -0.002580 0.000338 0.016043 0.000042 -0.003903 -0.000951
# 4 0.002937 -0.000329 0.000042 0.033076 -0.002845 -0.002888
# 5 -0.002060 -0.000698 -0.003903 -0.002845 0.024645 0.001206
# 6 0.003042 0.002769 -0.000951 -0.002888 0.001206 0.035677
#
#
# Mechanical properties :
#
#
# Convention : Reuss Voigt Hill
#
# Bulk Modulus (GPa) = 32.61406 38.69688 35.65547
# Shear Modulus (GPa) = 31.77876 34.49421 33.13648
#
# Velocity S-wave (km/s) = 3.81110 3.97059 3.89167
# Velocity P-wave (km/s) = 5.85425 6.22152 6.04068
#
# Compressibility (1/GPa) = 0.03066162
#
# Stress axis : x y z
#
# Youngs Moduli (GPa) = 82.98603 70.93476 62.33256
#
# Poissons Ratio (x) = 0.24988 0.16082
# Poissons Ratio (y) = 0.29233 -0.02108
# Poissons Ratio (z) = 0.21411 -0.02399
#
# Static dielectric constant tensor:
#      x y z
#    x 4.555600 -0.017690 0.502300 
#    y -0.017690 3.926650 -0.106490 
#    z 0.502300 -0.106490 4.182860 
# 
# 
# High freq. dielectric constant tensor:
#      x y z
#    x 1.869530 -0.002550 0.018010 
#    y -0.002550 1.860580 -0.007860 
#    z 0.018010 -0.007860 1.882640 
# 
# From -- ./inp_files/30957.got.cif
#   From: 2010.06.25/outbox.cif.g09.slc.cpg/sg2_16_cif.got.tgz:30957.got - 2010.06.27 13:26:56.
