data_PCOD8020980
_publ_section_title
;
Structure prediction by ZEFSAII (Michael W. Deem and Ramdas Pophale) SiO2 
 PCOD8020980
Probable space group: P -1
;
_chemical_formula_sum "Si O2"
_cell_formula_units_Z 14
_cell_length_a 8.439086
_cell_length_b 12.299670
_cell_length_c 8.641917
_cell_angle_alpha 52.726274
_cell_angle_beta 115.158276
_cell_angle_gamma 97.294807
_cell_volume 635.395125
_symmetry_space_group_name_H-M "P -1"
_symmetry_group_IT_number 2
_symmetry_cell_setting 'triclinic'
loop_
_space_group_symop_operation_xyz
x,y,z
-x,-y,-z
loop_
_atom_site_type_symbol
_atom_site_label
_atom_site_fract_x
_atom_site_fract_y
_atom_site_fract_z
Si Si1 0.148837 0.593684 0.463504
Si Si2 0.794627 0.279907 0.955075
Si Si3 0.885342 0.931149 0.675910
Si Si4 0.485022 0.419857 0.905190
Si Si5 0.068309 0.146951 0.738164
Si Si6 0.314656 0.987490 0.773736
Si Si7 0.341819 0.136940 0.115530
O O1 0.168311 0.650538 0.250811
O O2 0.341927 0.512356 0.656986
O O3 0.000000 0.500000 0.500000
O O4 0.084658 0.717323 0.454556
O O5 0.675614 0.393146 0.919724
O O6 0.985681 0.218572 0.167204
O O7 0.690490 0.149107 0.004612
O O8 0.831323 0.015196 0.422229
O O9 0.697202 0.906376 0.689131
O O10 0.978716 0.016784 0.767102
O O11 0.500000 0.500000 0.000000
O O12 0.421817 0.276018 0.037825
O O13 0.245076 0.132089 0.713293
O O14 0.149833 0.150603 0.940592
O O15 0.514427 0.984725 0.800397
#
# Coordination Sequence:
#
# PCOD8020980 Si02
#       7
#     2   2   2   2   2   2   2
#     4  12  24  45  67  94 130 172 223 264 312 395
#     4  10  22  43  66  92 129 167 218 266 321 379
#     4  11  22  42  68  98 130 168 211 275 324 379
#     4  11  26  45  67  94 132 174 216 269 320 381
#     4  11  22  40  66  93 130 168 214 259 331 378
#     4  10  24  39  67  96 134 163 212 273 327 376
#     4  11  22  44  62  99 130 165 221 264 319 388
#
# _framework density 22.033535000000001
#
# number of rings (size 3 to 8) (size 9 to 14) (size 15 to 20)
#    0.000    1.143    2.857    3.429    8.000    0.000 
#    2.571    1.429    0.000    0.000    0.000    0.000 
#    0.000    0.000    0.000    0.000    0.000    0.000 
#
# Total GULP energy -173468.450530 kJ/mol
# GULP energy per Si atom -12390.603609 kJ/mol
# Density = 2.198339 g / cm^3
# Si number density = 22.033535 Si / 1000 Ang^3
#
#
#
# Elastic Constant Matrix: (Units=GPa)
#
#
# Indices 1 2 3 4 5 6 
#
# 1 143.7947 52.4009 59.6491 -19.0654 9.8001 -32.1925
# 2 52.4009 98.1517 35.6226 -5.6341 -8.0762 -21.8441
# 3 59.6491 35.6226 101.5255 -9.1688 -8.5075 -0.4280
# 4 -19.0654 -5.6341 -9.1688 26.0503 -9.6718 17.7810
# 5 9.8001 -8.0762 -8.5075 -9.6718 31.5785 -3.8700
# 6 -32.1925 -21.8441 -0.4280 17.7810 -3.8700 40.7999
#
#
#
# Elastic Compliance Matrix: (Units=1/GPa)
#
#
# Indices 1 2 3 4 5 6 
#
# 1 0.013383 -0.003037 -0.007500 -0.002188 -0.006494 0.009192
# 2 -0.003037 0.014815 -0.003470 -0.004177 0.003455 0.007647
# 3 -0.007500 -0.003470 0.017025 0.010444 0.007828 -0.011406
# 4 -0.002188 -0.004177 0.010444 0.068569 0.019518 -0.031884
# 5 -0.006494 0.003455 0.007828 0.019518 0.041704 -0.007743
# 6 0.009192 0.007647 -0.011406 -0.031884 -0.007743 0.048899
#
#
# Mechanical properties :
#
#
# Convention : Reuss Voigt Hill
#
# Bulk Modulus (GPa) = 58.10662 70.97968 64.54315
# Shear Modulus (GPa) = 20.99572 32.73902 26.86737
#
# Velocity S-wave (km/s) = 3.09025 3.85888 3.49576
# Velocity P-wave (km/s) = 6.25796 7.22073 6.75652
#
# Compressibility (1/GPa) = 0.01720974
#
# Stress axis : x y z
#
# Youngs Moduli (GPa) = 74.72309 67.49779 58.73793
#
# Poissons Ratio (x) = 0.20498 0.44055
# Poissons Ratio (y) = 0.22692 0.20380
# Poissons Ratio (z) = 0.56044 0.23419
#
# Static dielectric constant tensor:
#      x y z
#    x 4.528810 -0.477450 0.172120 
#    y -0.477450 3.759600 -0.266660 
#    z 0.172120 -0.266660 3.721870 
# 
# 
# High freq. dielectric constant tensor:
#      x y z
#    x 1.898430 -0.023430 0.013020 
#    y -0.023430 1.837140 -0.002670 
#    z 0.013020 -0.002670 1.864270 
# 
# From -- ./inp_files/158618.got.cif
#   From: 2010.06.25/outbox.cif.g09.slc.cpg/sg2_80_cif.got.tgz:158618.got - 2010.06.27 13:26:56.
