data_PCOD8020022
_publ_section_title
;
Structure prediction by ZEFSAII (Michael W. Deem and Ramdas Pophale) SiO2 
 PCOD8020022
Probable space group: P -1
;
_chemical_formula_sum "Si O2"
_cell_formula_units_Z 16
_cell_length_a 6.939310
_cell_length_b 17.617778
_cell_length_c 9.889714
_cell_angle_alpha 105.659244
_cell_angle_beta 135.836378
_cell_angle_gamma 72.292950
_cell_volume 800.020876
_symmetry_space_group_name_H-M "P -1"
_symmetry_group_IT_number 2
_symmetry_cell_setting 'triclinic'
loop_
_space_group_symop_operation_xyz
x,y,z
-x,-y,-z
loop_
_atom_site_type_symbol
_atom_site_label
_atom_site_fract_x
_atom_site_fract_y
_atom_site_fract_z
Si Si1 0.737662 0.956434 0.693585
Si Si2 0.262193 0.043454 0.996776
Si Si3 0.632366 0.577453 0.135472
Si Si4 0.217702 0.223814 0.058739
Si Si5 0.782117 0.776258 0.627709
Si Si6 0.281720 0.578645 0.458531
Si Si7 0.629885 0.320732 0.192464
Si Si8 0.652882 0.322120 0.723235
O O1 0.820168 0.864692 0.643558
O O2 0.500000 0.000000 0.500000
O O3 0.631246 0.961897 0.797407
O O4 0.000728 0.999452 0.826242
O O5 0.175374 0.135287 0.950187
O O6 0.500000 0.000000 0.000000
O O7 0.517502 0.608056 0.238314
O O8 0.969859 0.556902 0.299971
O O9 0.500000 0.500000 0.000000
O O10 0.535955 0.643255 0.005331
O O11 0.282259 0.226343 0.249154
O O12 0.485530 0.246235 0.128036
O O13 0.948440 0.289058 0.923032
O O14 0.519371 0.751135 0.405479
O O15 0.051443 0.712357 0.697363
O O16 0.500000 0.500000 0.500000
O O17 0.377253 0.612581 0.663817
O O18 0.297038 0.644062 0.382617
#
# Coordination Sequence:
#
# PCOD8020022 Si02
#       8
#     2   2   2   2   2   2   2   2
#     4  10  22  42  64  97 132 169 213 260 317 377
#     4  10  22  42  64  97 132 169 213 260 317 377
#     4  12  28  44  68  96 126 171 212 266 324 379
#     4  11  23  41  68  95 131 170 211 269 314 372
#     4  11  23  41  68  95 131 170 211 269 314 372
#     4  12  28  44  66  96 130 166 212 264 322 392
#     4  12  24  44  66  96 129 167 219 259 320 382
#     4  12  24  44  66  96 129 167 219 259 320 382
#
# _framework density 19.999478
#
# number of rings (size 3 to 8) (size 9 to 14) (size 15 to 20)
#    0.000    0.750    5.000    2.250    3.500    2.500 
#    4.500    0.000    0.000    0.000    0.000    0.000 
#    0.000    0.000    0.000    0.000    0.000    0.000 
#
# Total GULP energy -198488.219539 kJ/mol
# GULP energy per Si atom -12405.513721 kJ/mol
# Density = 1.995396 g / cm^3
# Si number density = 19.999478 Si / 1000 Ang^3
#
#
#
# Elastic Constant Matrix: (Units=GPa)
#
#
# Indices 1 2 3 4 5 6 
#
# 1 99.6450 25.3343 16.9133 7.4364 7.2007 -6.0276
# 2 25.3343 95.7181 17.7936 12.8334 5.2723 0.7644
# 3 16.9133 17.7936 81.3946 4.1467 9.7169 -0.7973
# 4 7.4364 12.8334 4.1467 44.1488 0.1764 4.2039
# 5 7.2007 5.2723 9.7169 0.1764 29.7486 4.3735
# 6 -6.0276 0.7644 -0.7973 4.2039 4.3735 39.6587
#
#
#
# Elastic Compliance Matrix: (Units=1/GPa)
#
#
# Indices 1 2 3 4 5 6 
#
# 1 0.011280 -0.002445 -0.001473 -0.001242 -0.002117 0.002097
# 2 -0.002445 0.011867 -0.001841 -0.002838 -0.000857 -0.000242
# 3 -0.001473 -0.001841 0.013480 -0.000521 -0.003799 0.000557
# 4 -0.001242 -0.002838 -0.000521 0.023998 0.001247 -0.002826
# 5 -0.002117 -0.000857 -0.003799 0.001247 0.036175 -0.004503
# 6 0.002097 -0.000242 0.000557 -0.002826 -0.004503 0.026346
#
#
# Mechanical properties :
#
#
# Convention : Reuss Voigt Hill
#
# Bulk Modulus (GPa) = 39.82932 44.09337 41.96134
# Shear Modulus (GPa) = 34.95696 37.15898 36.05797
#
# Velocity S-wave (km/s) = 4.18532 4.31513 4.25072
# Velocity P-wave (km/s) = 6.58136 6.84998 6.71701
#
# Compressibility (1/GPa) = 0.02510713
#
# Stress axis : x y z
#
# Youngs Moduli (GPa) = 88.65379 84.27032 74.18442
#
# Poissons Ratio (x) = 0.20607 0.10926
# Poissons Ratio (y) = 0.21679 0.13661
# Poissons Ratio (z) = 0.13057 0.15518
#
# Static dielectric constant tensor:
#      x y z
#    x 4.183630 0.079710 -0.172450 
#    y 0.079710 3.812760 0.081370 
#    z -0.172450 0.081370 3.907110 
# 
# 
# High freq. dielectric constant tensor:
#      x y z
#    x 1.791640 0.005140 0.001210 
#    y 0.005140 1.791710 0.006490 
#    z 0.001210 0.006490 1.790310 
# 
# From -- ./inp_files/47266.got.cif
#   From: 2010.06.25/outbox.cif.g09.slc.cpg/sg2_24_cif.got.tgz:47266.got - 2010.06.27 13:26:56.
