data_PCOD8020785
_publ_section_title
;
Structure prediction by ZEFSAII (Michael W. Deem and Ramdas Pophale) SiO2 
 PCOD8020785
Probable space group: P -1
;
_chemical_formula_sum "Si O2"
_cell_formula_units_Z 16
_cell_length_a 12.237568
_cell_length_b 11.488661
_cell_length_c 12.792621
_cell_angle_alpha 47.410042
_cell_angle_beta 119.735360
_cell_angle_gamma 81.722282
_cell_volume 760.139481
_symmetry_space_group_name_H-M "P -1"
_symmetry_group_IT_number 2
_symmetry_cell_setting 'triclinic'
loop_
_space_group_symop_operation_xyz
x,y,z
-x,-y,-z
loop_
_atom_site_type_symbol
_atom_site_label
_atom_site_fract_x
_atom_site_fract_y
_atom_site_fract_z
Si Si1 0.526720 0.358347 0.192017
Si Si2 0.034845 0.174051 0.104755
Si Si3 0.714907 0.644141 0.562282
Si Si4 0.842288 0.805340 0.647512
Si Si5 0.803954 0.495324 0.140985
Si Si6 0.796890 0.296484 0.464668
Si Si7 0.283628 0.067069 0.112191
Si Si8 0.938940 0.424236 0.598534
O O1 0.589700 0.400943 0.298877
O O2 0.704010 0.083718 0.412130
O O3 0.500000 0.500000 0.000000
O O4 0.332182 0.441239 0.056733
O O5 0.048708 0.297020 0.126814
O O6 0.218763 0.035127 0.204137
O O7 0.041775 0.989857 0.265463
O O8 0.838012 0.377976 0.822939
O O9 0.720349 0.765219 0.586217
O O10 0.813399 0.613063 0.520051
O O11 0.494599 0.809273 0.337566
O O12 0.988702 0.678917 0.699404
O O13 0.827946 0.351005 0.335296
O O14 0.719269 0.740545 0.992008
O O15 0.806793 0.414859 0.489234
O O16 0.135990 0.161918 0.892282
O O17 0.000000 0.500000 0.500000
#
# Coordination Sequence:
#
# PCOD8020785 Si02
#       8
#     2   2   2   2   2   2   2   2
#     4   9  21  36  59  92 129 158 195 264 313 365
#     4  10  24  40  60  94 130 165 204 260 316 372
#     4  11  23  39  64  95 125 166 212 256 308 372
#     4  11  20  38  65  94 125 166 211 254 318 371
#     4  11  20  40  66  94 127 160 211 262 311 371
#     4  10  22  43  62  90 131 168 201 262 316 364
#     4  11  23  40  64  95 123 166 211 258 307 367
#     4  11  22  44  67  92 125 164 214 258 308 372
#
# _framework density 21.048767000000002
#
# number of rings (size 3 to 8) (size 9 to 14) (size 15 to 20)
#    0.000    1.500    5.000    0.375    0.000    9.500 
#    0.000    7.500    0.000    0.000    0.000    0.000 
#    0.000    0.000    0.000    0.000    0.000    0.000 
#
# Total GULP energy -198250.811362 kJ/mol
# GULP energy per Si atom -12390.675710 kJ/mol
# Density = 2.100086 g / cm^3
# Si number density = 21.048767 Si / 1000 Ang^3
#
#
#
# Elastic Constant Matrix: (Units=GPa)
#
#
# Indices 1 2 3 4 5 6 
#
# 1 58.9158 22.1587 48.6605 -2.7402 1.9081 -4.5667
# 2 22.1587 86.3423 36.3082 21.2435 6.4857 10.0921
# 3 48.6605 36.3082 123.5862 4.2439 10.8785 -5.2329
# 4 -2.7402 21.2435 4.2439 36.4380 2.6961 8.0724
# 5 1.9081 6.4857 10.8785 2.6961 38.3044 2.9321
# 6 -4.5667 10.0921 -5.2329 8.0724 2.9321 38.3441
#
#
#
# Elastic Compliance Matrix: (Units=1/GPa)
#
#
# Indices 1 2 3 4 5 6 
#
# 1 0.026843 -0.004528 -0.009481 0.005229 0.001611 0.001871
# 2 -0.004528 0.016583 -0.002848 -0.008867 -0.000892 -0.003358
# 3 -0.009481 -0.002848 0.013010 -0.000751 -0.002823 0.001770
# 4 0.005229 -0.008867 -0.000751 0.034087 -0.000618 -0.004275
# 5 0.001611 -0.000892 -0.002823 -0.000618 0.027169 -0.001906
# 6 0.001871 -0.003358 0.001770 -0.004275 -0.001906 0.028473
#
#
# Mechanical properties :
#
#
# Convention : Reuss Voigt Hill
#
# Bulk Modulus (GPa) = 44.01076 53.67768 48.84422
# Shear Modulus (GPa) = 26.67328 33.39842 30.03585
#
# Velocity S-wave (km/s) = 3.56366 3.98768 3.78162
# Velocity P-wave (km/s) = 6.15526 6.83806 6.50562
#
# Compressibility (1/GPa) = 0.02272172
#
# Stress axis : x y z
#
# Youngs Moduli (GPa) = 37.25335 60.30426 76.86142
#
# Poissons Ratio (x) = 0.27308 0.72872
# Poissons Ratio (y) = 0.16870 0.21889
# Poissons Ratio (z) = 0.35320 0.17174
#
# Static dielectric constant tensor:
#      x y z
#    x 3.753590 0.255110 0.114060 
#    y 0.255110 3.789220 0.305380 
#    z 0.114060 0.305380 4.198080 
# 
# 
# High freq. dielectric constant tensor:
#      x y z
#    x 1.811460 0.014330 -0.004940 
#    y 0.014330 1.806930 0.015100 
#    z -0.004940 0.015100 1.843570 
# 
# From -- ./inp_files/427638.got.cif
#   From: 2010.06.25/outbox.cif.g09.slc.cpg/sg2_214_cif.got.tgz:427638.got - 2010.06.27 13:26:56.
