data_PCOD8020475
_publ_section_title
;
Structure prediction by ZEFSAII (Michael W. Deem and Ramdas Pophale) SiO2 
 PCOD8020475
Probable space group: P -1
;
_chemical_formula_sum "Si O2"
_cell_formula_units_Z 16
_cell_length_a 15.473097
_cell_length_b 8.623469
_cell_length_c 21.486254
_cell_angle_alpha 121.166172
_cell_angle_beta 19.166628
_cell_angle_gamma 111.468951
_cell_volume 724.339870
_symmetry_space_group_name_H-M "P -1"
_symmetry_group_IT_number 2
_symmetry_cell_setting 'triclinic'
loop_
_space_group_symop_operation_xyz
x,y,z
-x,-y,-z
loop_
_atom_site_type_symbol
_atom_site_label
_atom_site_fract_x
_atom_site_fract_y
_atom_site_fract_z
Si Si1 0.101017 0.786025 0.354341
Si Si2 0.789112 0.394599 0.631238
Si Si3 0.630123 0.830473 0.427588
Si Si4 0.820849 0.439812 0.159021
Si Si5 0.253938 0.063061 0.846087
Si Si6 0.498457 0.808733 0.737164
Si Si7 0.782831 0.029704 0.797761
Si Si8 0.746296 0.253450 0.988231
O O1 0.847002 0.730998 0.488351
O O2 0.273438 0.619611 0.255401
O O3 0.000000 0.000000 0.500000
O O4 0.296002 0.795950 0.165334
O O5 0.000000 0.500000 0.500000
O O6 0.939532 0.173979 0.452763
O O7 0.487053 0.525391 0.828782
O O8 0.582557 0.634188 0.399532
O O9 0.980376 0.731773 0.163866
O O10 0.500000 0.000000 0.500000
O O11 0.507501 0.923083 0.597022
O O12 0.617383 0.341717 0.247672
O O13 0.000000 0.500000 0.000000
O O14 0.091750 0.298538 0.990032
O O15 0.380880 0.017017 0.820537
O O16 0.000000 0.000000 0.000000
O O17 0.389001 0.846721 0.890665
O O18 0.876533 0.101522 0.811228
O O19 0.500000 0.000000 0.000000
#
# Coordination Sequence:
#
# PCOD8020475 Si02
#       8
#     2   2   2   2   2   2   2   2
#     4  10  22  42  68  97 138 181 225 289 354 412
#     4  11  22  44  69 100 140 180 229 292 347 421
#     4  12  24  43  69 103 135 184 237 292 355 426
#     4  11  22  43  72 100 137 184 234 292 353 415
#     4  10  23  43  67  99 140 179 235 298 351 416
#     4  11  22  42  66  98 143 183 227 288 355 421
#     4  11  23  43  70 100 134 185 233 289 354 416
#     4  12  24  41  68  99 138 179 236 277 355 416
#
# _framework density 22.089079000000002
#
# number of rings (size 3 to 8) (size 9 to 14) (size 15 to 20)
#    0.000    1.000    5.000    2.250    0.000    6.500 
#    0.000    1.250    0.000    0.000    0.000    0.000 
#    0.000    0.000    0.000    0.000    0.000    0.000 
#
# Total GULP energy -198230.635315 kJ/mol
# GULP energy per Si atom -12389.414707 kJ/mol
# Density = 2.203880 g / cm^3
# Si number density = 22.089079 Si / 1000 Ang^3
#
#
#
# Elastic Constant Matrix: (Units=GPa)
#
#
# Indices 1 2 3 4 5 6 
#
# 1 144.5945 61.2590 51.4000 8.6126 -0.9325 -40.7359
# 2 61.2590 110.3343 48.2280 5.2140 2.4352 -24.7730
# 3 51.4000 48.2280 111.1587 6.1644 -12.1779 -17.4734
# 4 8.6126 5.2140 6.1644 50.9950 -0.0030 2.2360
# 5 -0.9325 2.4352 -12.1779 -0.0030 44.1984 -2.9438
# 6 -40.7359 -24.7730 -17.4734 2.2360 -2.9438 55.1211
#
#
#
# Elastic Compliance Matrix: (Units=1/GPa)
#
#
# Indices 1 2 3 4 5 6 
#
# 1 0.011100 -0.003689 -0.002524 -0.001447 0.000129 0.005811
# 2 -0.003689 0.013326 -0.003947 -0.000347 -0.001771 0.001931
# 3 -0.002524 -0.003947 0.012390 -0.000690 0.003612 0.000509
# 4 -0.001447 -0.000347 -0.000690 0.020073 -0.000352 -0.002277
# 5 0.000129 -0.001771 0.003612 -0.000352 0.023836 0.001732
# 6 0.005811 0.001931 0.000509 -0.002277 0.001732 0.023650
#
#
# Mechanical properties :
#
#
# Convention : Reuss Voigt Hill
#
# Bulk Modulus (GPa) = 60.62542 76.42905 68.52724
# Shear Modulus (GPa) = 38.40396 43.74295 41.07345
#
# Velocity S-wave (km/s) = 4.17417 4.45488 4.31681
# Velocity P-wave (km/s) = 7.12299 7.81900 7.47910
#
# Compressibility (1/GPa) = 0.01649473
#
# Stress axis : x y z
#
# Youngs Moduli (GPa) = 90.08725 75.04096 80.71142
#
# Poissons Ratio (x) = 0.27686 0.20374
# Poissons Ratio (y) = 0.33237 0.31857
# Poissons Ratio (z) = 0.22741 0.29618
#
# Static dielectric constant tensor:
#      x y z
#    x 5.346990 -0.371650 0.387490 
#    y -0.371650 4.503020 -0.242500 
#    z 0.387490 -0.242500 3.700320 
# 
# 
# High freq. dielectric constant tensor:
#      x y z
#    x 1.885130 -0.014550 0.000360 
#    y -0.014550 1.877790 -0.009170 
#    z 0.000360 -0.009170 1.855100 
# 
# From -- ./inp_files/343024.got.cif
#   From: 2010.06.25/outbox.cif.g09.slc.cpg/sg2_172_cif.got.tgz:343024.got - 2010.06.27 13:26:56.
