data_PCOD8020668
_publ_section_title
;
Structure prediction by ZEFSAII (Michael W. Deem and Ramdas Pophale) SiO2 
 PCOD8020668
Probable space group: P -1
;
_chemical_formula_sum "Si O2"
_cell_formula_units_Z 12
_cell_length_a 11.770934
_cell_length_b 6.798386
_cell_length_c 6.938963
_cell_angle_alpha 81.524707
_cell_angle_beta 79.925775
_cell_angle_gamma 85.289278
_cell_volume 539.841490
_symmetry_space_group_name_H-M "P -1"
_symmetry_group_IT_number 2
_symmetry_cell_setting 'triclinic'
loop_
_space_group_symop_operation_xyz
x,y,z
-x,-y,-z
loop_
_atom_site_type_symbol
_atom_site_label
_atom_site_fract_x
_atom_site_fract_y
_atom_site_fract_z
Si Si1 0.040145 0.396140 0.698913
Si Si2 0.622582 0.130487 0.643834
Si Si3 0.162332 0.645800 0.936814
Si Si4 0.584370 0.747699 0.537830
Si Si5 0.786734 0.964870 0.331561
Si Si6 0.377077 0.558581 0.115867
O O1 0.123666 0.537743 0.769937
O O2 0.101000 0.183029 0.653793
O O3 0.000000 0.500000 0.500000
O O4 0.931235 0.356682 0.867887
O O5 0.537800 0.289951 0.522939
O O6 0.633319 0.209776 0.846533
O O7 0.560227 0.920678 0.684745
O O8 0.750989 0.096008 0.515340
O O9 0.188104 0.876829 0.863973
O O10 0.278615 0.524212 0.993560
O O11 0.677314 0.827465 0.343189
O O12 0.641925 0.559986 0.662540
O O13 0.500000 0.500000 0.000000
#
# Coordination Sequence:
#
# PCOD8020668 Si02
#       6
#     2   2   2   2   2   2
#     4  11  26  48  72  93 134 177 226 279 331 393
#     4   9  22  39  65  98 133 181 222 259 338 393
#     4  11  27  44  66 107 129 172 233 268 335 401
#     4   9  21  40  65  94 133 182 218 263 330 394
#     4  10  22  42  71  91 134 173 221 281 323 397
#     4  12  25  39  67 102 141 173 219 279 329 399
#
# _framework density 22.228748
#
# number of rings (size 3 to 8) (size 9 to 14) (size 15 to 20)
#    1.000    0.667    0.000    3.000    7.000    2.667 
#    3.000    0.000    0.000    0.000    0.000    0.000 
#    0.000    0.000    0.000    0.000    0.000    0.000 
#
# Total GULP energy -148672.933394 kJ/mol
# GULP energy per Si atom -12389.411116 kJ/mol
# Density = 2.217815 g / cm^3
# Si number density = 22.228748 Si / 1000 Ang^3
#
#
#
# Elastic Constant Matrix: (Units=GPa)
#
#
# Indices 1 2 3 4 5 6 
#
# 1 147.4450 60.0178 72.2811 -0.7755 3.3028 -18.0353
# 2 60.0178 89.5356 57.4605 -10.7911 1.3406 -17.2810
# 3 72.2811 57.4605 118.2661 3.2641 6.5646 0.9004
# 4 -0.7755 -10.7911 3.2641 40.9278 -3.0103 -6.3557
# 5 3.3028 1.3406 6.5646 -3.0103 40.5256 -1.9098
# 6 -18.0353 -17.2810 0.9004 -6.3557 -1.9098 40.3166
#
#
#
# Elastic Compliance Matrix: (Units=1/GPa)
#
#
# Indices 1 2 3 4 5 6 
#
# 1 0.011179 -0.003365 -0.005249 0.000343 0.000252 0.003742
# 2 -0.003365 0.022008 -0.009046 0.008087 0.002060 0.009502
# 3 -0.005249 -0.009046 0.016407 -0.005159 -0.002669 -0.007532
# 4 0.000343 0.008087 -0.005159 0.028508 0.003052 0.008374
# 5 0.000252 0.002060 -0.002669 0.003052 0.025375 0.002739
# 6 0.003742 0.009502 -0.007532 0.008374 0.002739 0.032169
#
#
# Mechanical properties :
#
#
# Convention : Reuss Voigt Hill
#
# Bulk Modulus (GPa) = 70.06334 81.64061 75.85197
# Shear Modulus (GPa) = 28.45373 35.38648 31.92011
#
# Velocity S-wave (km/s) = 3.58165 3.99422 3.79355
# Velocity P-wave (km/s) = 6.97796 7.62095 7.30653
#
# Compressibility (1/GPa) = 0.01427280
#
# Stress axis : x y z
#
# Youngs Moduli (GPa) = 89.45203 45.43892 60.95081
#
# Poissons Ratio (x) = 0.15290 0.31996
# Poissons Ratio (y) = 0.30101 0.55135
# Poissons Ratio (z) = 0.46957 0.41103
#
# Static dielectric constant tensor:
#      x y z
#    x 3.952260 -0.045460 -0.059400 
#    y -0.045460 4.081980 -0.013470 
#    z -0.059400 -0.013470 3.707600 
# 
# 
# High freq. dielectric constant tensor:
#      x y z
#    x 1.874800 -0.006850 -0.008680 
#    y -0.006850 1.883060 0.001970 
#    z -0.008680 0.001970 1.853200 
# 
# From -- ./inp_files/57672.got.cif
#   From: 2010.06.25/outbox.cif.g09.slc.cpg/sg2_29_cif.got.tgz:57672.got - 2010.06.27 13:26:56.
