data_PCOD8020183
_publ_section_title
;
Structure prediction by ZEFSAII (Michael W. Deem and Ramdas Pophale) SiO2 
 PCOD8020183
Probable space group: P -1
;
_chemical_formula_sum "Si O2"
_cell_formula_units_Z 12
_cell_length_a 8.621295
_cell_length_b 15.084147
_cell_length_c 12.311021
_cell_angle_alpha 25.224194
_cell_angle_beta 120.056790
_cell_angle_gamma 128.264592
_cell_volume 527.192731
_symmetry_space_group_name_H-M "P -1"
_symmetry_group_IT_number 2
_symmetry_cell_setting 'triclinic'
loop_
_space_group_symop_operation_xyz
x,y,z
-x,-y,-z
loop_
_atom_site_type_symbol
_atom_site_label
_atom_site_fract_x
_atom_site_fract_y
_atom_site_fract_z
Si Si1 0.083883 0.565294 0.613163
Si Si2 0.099523 0.877688 0.096253
Si Si3 0.289120 0.348545 0.543063
Si Si4 0.660990 0.368167 0.155642
Si Si5 0.815660 0.769614 0.593683
Si Si6 0.729689 0.976309 0.517730
O O1 0.047749 0.318625 0.822196
O O2 0.874039 0.572548 0.557807
O O3 0.197674 0.760566 0.343211
O O4 0.221233 0.621677 0.704000
O O5 0.252586 0.085186 0.845631
O O6 0.000000 0.000000 0.000000
O O7 0.500000 0.500000 0.500000
O O8 0.312179 0.378340 0.387847
O O9 0.643403 0.158053 0.305031
O O10 0.422896 0.281829 0.197773
O O11 0.785303 0.601174 0.873090
O O12 0.046017 0.916362 0.472357
O O13 0.743152 0.950464 0.419901
#
# Coordination Sequence:
#
# PCOD8020183 Si02
#       6
#     2   2   2   2   2   2
#     4  10  22  42  66  93 128 174 218 269 328 382
#     4   9  22  42  62  90 127 171 217 264 314 394
#     4  11  25  42  64  94 131 175 217 267 330 388
#     4  11  23  42  68  98 130 168 219 268 329 392
#     4  11  24  42  64 100 134 167 215 271 327 383
#     4  10  24  40  64  99 130 176 207 269 329 382
#
# _framework density 22.762074999999999
#
# number of rings (size 3 to 8) (size 9 to 14) (size 15 to 20)
#    0.000    1.667    1.667    1.000    4.667    7.333 
#    3.000    0.000    0.000    0.000    0.000    0.000 
#    0.000    0.000    0.000    0.000    0.000    0.000 
#
# Total GULP energy -148665.971894 kJ/mol
# GULP energy per Si atom -12388.830991 kJ/mol
# Density = 2.271027 g / cm^3
# Si number density = 22.762075 Si / 1000 Ang^3
#
#
#
# Elastic Constant Matrix: (Units=GPa)
#
#
# Indices 1 2 3 4 5 6 
#
# 1 96.0307 69.4620 33.7521 -3.5093 -16.7406 3.3941
# 2 69.4620 152.6648 52.2379 -0.4110 0.4498 -4.7095
# 3 33.7521 52.2379 114.6236 -8.9522 -15.3166 7.8545
# 4 -3.5093 -0.4110 -8.9522 39.5657 -3.0351 -1.4052
# 5 -16.7406 0.4498 -15.3166 -3.0351 20.4742 -9.8290
# 6 3.3941 -4.7095 7.8545 -1.4052 -9.8290 45.2125
#
#
#
# Elastic Compliance Matrix: (Units=1/GPa)
#
#
# Indices 1 2 3 4 5 6 
#
# 1 0.020379 -0.009646 0.001091 0.003459 0.018923 0.001497
# 2 -0.009646 0.012590 -0.004727 -0.002711 -0.012026 0.000158
# 3 0.001091 -0.004727 0.012273 0.003625 0.010573 -0.000295
# 4 0.003459 -0.002711 0.003625 0.027256 0.010589 0.001977
# 5 0.018923 -0.012026 0.010573 0.010589 0.080447 0.013308
# 6 0.001497 0.000158 -0.000295 0.001977 0.013308 0.025028
#
#
# Mechanical properties :
#
#
# Convention : Reuss Voigt Hill
#
# Bulk Modulus (GPa) = 53.53552 74.91367 64.22460
# Shear Modulus (GPa) = 23.72347 34.90829 29.31588
#
# Velocity S-wave (km/s) = 3.23187 3.92039 3.59266
# Velocity P-wave (km/s) = 6.12351 7.31271 6.74437
#
# Compressibility (1/GPa) = 0.01867919
#
# Stress axis : x y z
#
# Youngs Moduli (GPa) = 49.06903 79.43031 81.47865
#
# Poissons Ratio (x) = 0.76621 -0.08892
# Poissons Ratio (y) = 0.47333 0.38512
# Poissons Ratio (z) = -0.05355 0.37544
#
# Static dielectric constant tensor:
#      x y z
#    x 4.354900 -0.364140 -0.095190 
#    y -0.364140 4.081970 -0.324720 
#    z -0.095190 -0.324720 4.622900 
# 
# 
# High freq. dielectric constant tensor:
#      x y z
#    x 1.901640 -0.033490 -0.006380 
#    y -0.033490 1.901080 -0.022910 
#    z -0.006380 -0.022910 1.898710 
# 
# From -- ./inp_files/393520.got.cif
#   From: 2010.06.25/outbox.cif.g09.slc.cpg/sg2_197_cif.got.tgz:393520.got - 2010.06.27 13:26:56.
