data_PCOD8020944
_publ_section_title
;
Structure prediction by ZEFSAII (Michael W. Deem and Ramdas Pophale) SiO2 
 PCOD8020944
Probable space group: P -1
;
_chemical_formula_sum "Si O2"
_cell_formula_units_Z 14
_cell_length_a 10.662595
_cell_length_b 23.727112
_cell_length_c 7.178988
_cell_angle_alpha 60.736229
_cell_angle_beta 95.190915
_cell_angle_gamma 147.478487
_cell_volume 619.845957
_symmetry_space_group_name_H-M "P -1"
_symmetry_group_IT_number 2
_symmetry_cell_setting 'triclinic'
loop_
_space_group_symop_operation_xyz
x,y,z
-x,-y,-z
loop_
_atom_site_type_symbol
_atom_site_label
_atom_site_fract_x
_atom_site_fract_y
_atom_site_fract_z
Si Si1 0.919463 0.588410 0.133646
Si Si2 0.662671 0.869898 0.218836
Si Si3 0.544379 0.327380 0.760221
Si Si4 0.685877 0.324765 0.148794
Si Si5 0.945703 0.129964 0.897183
Si Si6 0.848319 0.158663 0.202226
Si Si7 0.679413 0.650649 0.745783
O O1 0.834752 0.510874 0.438480
O O2 0.604978 0.432173 0.204587
O O3 0.228675 0.703492 0.890659
O O4 0.988161 0.694241 0.025180
O O5 0.418383 0.720409 0.283815
O O6 0.588843 0.816469 0.508671
O O7 0.000000 0.000000 0.000000
O O8 0.666853 0.950370 0.069410
O O9 0.210629 0.206869 0.890454
O O10 0.566846 0.320564 0.990163
O O11 0.000000 0.500000 0.000000
O O12 0.085456 0.242156 0.574547
O O13 0.805240 0.109708 0.070166
O O14 0.089106 0.225757 0.246070
O O15 0.500000 0.000000 0.500000
O O16 0.500000 0.500000 0.000000
#
# Coordination Sequence:
#
# PCOD8020944 Si02
#       7
#     2   2   2   2   2   2   2
#     4  10  22  43  65  99 133 168 222 275 328 395
#     4  10  23  42  61  95 136 168 219 269 329 390
#     4  10  23  42  66  97 131 170 220 274 322 394
#     4  12  24  40  68  97 130 176 222 267 332 385
#     4  10  23  41  68  97 128 175 214 263 345 389
#     4  11  24  43  65  97 132 170 222 274 331 395
#     4   9  22  43  65  92 133 172 219 272 323 396
#
# _framework density 22.586257
#
# number of rings (size 3 to 8) (size 9 to 14) (size 15 to 20)
#    0.000    1.714    1.429    1.286    2.000   10.286 
#    2.571    0.000    0.000    0.000    0.000    0.000 
#    0.000    0.000    0.000    0.000    0.000    0.000 
#
# Total GULP energy -173531.706410 kJ/mol
# GULP energy per Si atom -12395.121886 kJ/mol
# Density = 2.253485 g / cm^3
# Si number density = 22.586257 Si / 1000 Ang^3
#
#
#
# Elastic Constant Matrix: (Units=GPa)
#
#
# Indices 1 2 3 4 5 6 
#
# 1 74.0378 23.8075 44.6168 -1.1252 1.0258 -17.5449
# 2 23.8075 65.3752 38.9492 0.3719 18.0224 -16.1061
# 3 44.6168 38.9492 189.9232 6.4958 10.0846 -12.7178
# 4 -1.1252 0.3719 6.4958 31.8839 -0.2845 1.6924
# 5 1.0258 18.0224 10.0846 -0.2845 37.4809 2.8034
# 6 -17.5449 -16.1061 -12.7178 1.6924 2.8034 38.6960
#
#
#
# Elastic Compliance Matrix: (Units=1/GPa)
#
#
# Indices 1 2 3 4 5 6 
#
# 1 0.017911 -0.003815 -0.003203 0.001064 0.001818 0.005302
# 2 -0.003815 0.023285 -0.002759 -0.000359 -0.010940 0.007863
# 3 -0.003203 -0.002759 0.006629 -0.001417 -0.000355 -0.000335
# 4 0.001064 -0.000359 -0.001417 0.031786 0.000885 -0.001587
# 5 0.001818 -0.010940 -0.000355 0.000885 0.032460 -0.006236
# 6 0.005302 0.007863 -0.000335 -0.001587 -0.006236 0.031931
#
#
# Mechanical properties :
#
#
# Convention : Reuss Voigt Hill
#
# Bulk Modulus (GPa) = 35.37386 60.45367 47.91376
# Shear Modulus (GPa) = 28.90517 36.40966 32.65741
#
# Velocity S-wave (km/s) = 3.58127 4.01936 3.80662
# Velocity P-wave (km/s) = 5.72680 6.95443 6.37026
#
# Compressibility (1/GPa) = 0.02826946
#
# Stress axis : x y z
#
# Youngs Moduli (GPa) = 55.83120 42.94634 150.86344
#
# Poissons Ratio (x) = 0.16385 0.48324
# Poissons Ratio (y) = 0.21301 0.41626
# Poissons Ratio (z) = 0.17883 0.11850
#
# Static dielectric constant tensor:
#      x y z
#    x 4.299940 -0.068870 0.063100 
#    y -0.068870 4.465600 -0.039740 
#    z 0.063100 -0.039740 4.302620 
# 
# 
# High freq. dielectric constant tensor:
#      x y z
#    x 1.880850 -0.001490 0.004920 
#    y -0.001490 1.882410 -0.004550 
#    z 0.004920 -0.004550 1.905380 
# 
# From -- ./inp_files/72569.got.cif
#   From: 2010.06.25/outbox.cif.g09.slc.cpg/sg2_37_cif.got.tgz:72569.got - 2010.06.27 13:26:56.
