data_PCOD8020787
_publ_section_title
;
Structure prediction by ZEFSAII (Michael W. Deem and Ramdas Pophale) SiO2 
 PCOD8020787
Probable space group: P -1
;
_chemical_formula_sum "Si O2"
_cell_formula_units_Z 14
_cell_length_a 11.388196
_cell_length_b 11.861140
_cell_length_c 7.538775
_cell_angle_alpha 46.387285
_cell_angle_beta 103.542132
_cell_angle_gamma 95.039954
_cell_volume 712.844893
_symmetry_space_group_name_H-M "P -1"
_symmetry_group_IT_number 2
_symmetry_cell_setting 'triclinic'
loop_
_space_group_symop_operation_xyz
x,y,z
-x,-y,-z
loop_
_atom_site_type_symbol
_atom_site_label
_atom_site_fract_x
_atom_site_fract_y
_atom_site_fract_z
Si Si1 0.626474 0.052059 0.426394
Si Si2 0.023969 0.806680 0.523719
Si Si3 0.329793 0.485036 0.604891
Si Si4 0.407921 0.679490 0.122969
Si Si5 0.908897 0.653565 0.327474
Si Si6 0.874403 0.867432 0.745718
Si Si7 0.716183 0.349609 0.228430
O O1 0.614939 0.135326 0.135946
O O2 0.665599 0.182529 0.437921
O O3 0.500000 0.000000 0.500000
O O4 0.730515 0.907460 0.613449
O O5 0.140275 0.679469 0.727743
O O6 0.956569 0.772340 0.356002
O O7 0.934985 0.789838 0.675100
O O8 0.062034 0.981395 0.337198
O O9 0.218703 0.396209 0.593739
O O10 0.310710 0.529969 0.753768
O O11 0.449514 0.366290 0.753839
O O12 0.338825 0.641249 0.320536
O O13 0.353092 0.580608 0.049608
O O14 0.000000 0.500000 0.500000
O O15 0.891426 0.738809 0.041991
#
# Coordination Sequence:
#
# PCOD8020787 Si02
#       7
#     2   2   2   2   2   2   2
#     4   9  19  41  63  87 115 160 209 249 294 360
#     4  10  22  43  62  92 119 169 204 247 313 355
#     4  11  21  40  58  93 123 159 197 251 316 354
#     4   9  22  38  63  83 122 158 203 249 299 367
#     4  12  25  37  63  94 127 157 205 256 297 376
#     4  10  23  42  64  87 127 163 205 253 305 359
#     4   9  20  37  64  83 120 163 194 253 305 352
#
# _framework density 19.639617000000001
#
# number of rings (size 3 to 8) (size 9 to 14) (size 15 to 20)
#    0.857    1.143    1.429    1.714    2.000    1.714 
#   10.286    0.714    0.000    0.000    0.000    0.000 
#    0.000    0.000    0.000    0.000    0.000    0.000 
#
# Total GULP energy -173545.135126 kJ/mol
# GULP energy per Si atom -12396.081080 kJ/mol
# Density = 1.959492 g / cm^3
# Si number density = 19.639617 Si / 1000 Ang^3
#
#
#
# Elastic Constant Matrix: (Units=GPa)
#
#
# Indices 1 2 3 4 5 6 
#
# 1 151.1373 32.9096 61.0546 -0.8666 2.7646 6.5812
# 2 32.9096 51.3398 21.6923 7.8656 -1.5050 -3.6974
# 3 61.0546 21.6923 136.7751 -12.9702 2.6881 -5.1813
# 4 -0.8666 7.8656 -12.9702 27.6705 -0.7969 0.8629
# 5 2.7646 -1.5050 2.6881 -0.7969 27.2087 4.4505
# 6 6.5812 -3.6974 -5.1813 0.8629 4.4505 22.0493
#
#
#
# Elastic Compliance Matrix: (Units=1/GPa)
#
#
# Indices 1 2 3 4 5 6 
#
# 1 0.009283 -0.004797 -0.003534 0.000131 -0.000139 -0.004383
# 2 -0.004797 0.025355 -0.002525 -0.008674 0.001031 0.005221
# 3 -0.003534 -0.002525 0.009910 0.005128 -0.001097 0.002981
# 4 0.000131 -0.008674 0.005128 0.041091 0.000532 -0.002004
# 5 -0.000139 0.001031 -0.001097 0.000532 0.038220 -0.007779
# 6 -0.004383 0.005221 0.002981 -0.002004 -0.007779 0.049886
#
#
# Mechanical properties :
#
#
# Convention : Reuss Voigt Hill
#
# Bulk Modulus (GPa) = 43.79014 63.39613 53.59314
# Shear Modulus (GPa) = 24.62228 30.29207 27.45718
#
# Velocity S-wave (km/s) = 3.54461 3.93160 3.74311
# Velocity P-wave (km/s) = 6.25281 7.27734 6.78444
#
# Compressibility (1/GPa) = 0.02283619
#
# Stress axis : x y z
#
# Youngs Moduli (GPa) = 107.72762 39.43978 100.90905
#
# Poissons Ratio (x) = 0.18919 0.35659
# Poissons Ratio (y) = 0.51676 0.25480
# Poissons Ratio (z) = 0.38069 0.09959
#
# Static dielectric constant tensor:
#      x y z
#    x 3.727880 0.087670 0.090120 
#    y 0.087670 3.361420 0.033020 
#    z 0.090120 0.033020 3.568370 
# 
# 
# High freq. dielectric constant tensor:
#      x y z
#    x 1.780690 0.006440 0.008210 
#    y 0.006440 1.741590 -0.000550 
#    z 0.008210 -0.000550 1.765440 
# 
# From -- ./inp_files/65689.got.cif
#   From: 2010.06.25/outbox.cif.g09.slc.cpg/sg2_33_cif.got.tgz:65689.got - 2010.06.27 13:26:56.
