data_PCOD8020452
_publ_section_title
;
Structure prediction by ZEFSAII (Michael W. Deem and Ramdas Pophale) SiO2 
 PCOD8020452
Probable space group: P -1
;
_chemical_formula_sum "Si O2"
_cell_formula_units_Z 16
_cell_length_a 20.274789
_cell_length_b 16.495311
_cell_length_c 11.156108
_cell_angle_alpha 23.069017
_cell_angle_beta 147.353769
_cell_angle_gamma 150.471560
_cell_volume 703.717312
_symmetry_space_group_name_H-M "P -1"
_symmetry_group_IT_number 2
_symmetry_cell_setting 'triclinic'
loop_
_space_group_symop_operation_xyz
x,y,z
-x,-y,-z
loop_
_atom_site_type_symbol
_atom_site_label
_atom_site_fract_x
_atom_site_fract_y
_atom_site_fract_z
Si Si1 0.504039 0.682173 0.944554
Si Si2 0.445013 0.985078 0.626361
Si Si3 0.009196 0.265697 0.841233
Si Si4 0.847338 0.168896 0.501299
Si Si5 0.308411 0.970326 0.910012
Si Si6 0.725065 0.747891 0.723444
Si Si7 0.129687 0.531471 0.081485
Si Si8 0.196828 0.105654 0.784523
O O1 0.498084 0.759327 0.694103
O O2 0.437449 0.801634 0.765697
O O3 0.404953 0.407916 0.179871
O O4 0.658965 0.751484 0.123220
O O5 0.292739 0.899786 0.551490
O O6 0.542483 0.993471 0.872132
O O7 0.962070 0.165271 0.771475
O O8 0.000000 0.500000 0.500000
O O9 0.168797 0.356276 0.996516
O O10 0.911030 0.088137 0.031047
O O11 0.828522 0.984008 0.623081
O O12 0.888327 0.408250 0.165923
O O13 0.332296 0.196500 0.561779
O O14 0.214377 0.969333 0.880524
O O15 0.252826 0.738949 0.059066
O O16 0.143369 0.294156 0.415932
O O17 0.000000 0.500000 0.000000
#
# Coordination Sequence:
#
# PCOD8020452 Si02
#       8
#     2   2   2   2   2   2   2   2
#     4  10  23  42  67 105 134 181 232 285 341 410
#     4  10  22  42  68  95 142 173 236 280 345 404
#     4  12  27  46  70  99 137 186 233 281 348 417
#     4  11  25  45  68 102 137 183 228 291 342 415
#     4  10  26  44  69 105 138 182 229 289 346 412
#     4  11  26  42  69 102 140 178 232 284 351 410
#     4  11  27  45  70 101 144 181 233 288 343 415
#     4  11  25  46  73 100 141 184 234 286 347 414
#
# _framework density 22.736401999999998
#
# number of rings (size 3 to 8) (size 9 to 14) (size 15 to 20)
#    0.000    1.250    1.250    2.625   12.250    4.500 
#    0.000    0.000    0.000    0.000    0.000    0.000 
#    0.000    0.000    0.000    0.000    0.000    0.000 
#
# Total GULP energy -198343.378780 kJ/mol
# GULP energy per Si atom -12396.461174 kJ/mol
# Density = 2.268465 g / cm^3
# Si number density = 22.736402 Si / 1000 Ang^3
#
#
#
# Elastic Constant Matrix: (Units=GPa)
#
#
# Indices 1 2 3 4 5 6 
#
# 1 57.4571 10.5061 21.6881 5.3784 -25.6783 11.6009
# 2 10.5061 62.4876 16.7666 2.0510 -26.4761 21.5352
# 3 21.6881 16.7666 114.5462 -4.7599 -38.4882 16.4827
# 4 5.3784 2.0510 -4.7599 38.5821 -3.0800 0.3209
# 5 -25.6783 -26.4761 -38.4882 -3.0800 46.9727 0.2070
# 6 11.6009 21.5352 16.4827 0.3209 0.2070 38.0839
#
#
#
# Elastic Compliance Matrix: (Units=1/GPa)
#
#
# Indices 1 2 3 4 5 6 
#
# 1 0.028323 0.009917 0.003359 -0.002033 0.023761 -0.015801
# 2 0.009917 0.034266 0.007133 0.000341 0.030715 -0.025654
# 3 0.003359 0.007133 0.015011 0.002569 0.018376 -0.011675
# 4 -0.002033 0.000341 0.002569 0.026744 0.002944 -0.000927
# 5 0.023761 0.030715 0.018376 0.002944 0.066986 -0.032948
# 6 -0.015801 -0.025654 -0.011675 -0.000927 -0.032948 0.050817
#
#
# Mechanical properties :
#
#
# Convention : Reuss Voigt Hill
#
# Bulk Modulus (GPa) = 8.44474 36.93472 22.68973
# Shear Modulus (GPa) = 22.64466 37.09642 29.87054
#
# Velocity S-wave (km/s) = 3.15931 4.04367 3.62854
# Velocity P-wave (km/s) = 4.12682 6.17104 5.24940
#
# Compressibility (1/GPa) = 0.11841689
#
# Stress axis : x y z
#
# Youngs Moduli (GPa) = 35.30722 29.18348 66.61612
#
# Poissons Ratio (x) = -0.28940 -0.22376
# Poissons Ratio (y) = -0.35013 -0.47516
# Poissons Ratio (z) = -0.11859 -0.20816
#
# Static dielectric constant tensor:
#      x y z
#    x 3.962600 0.262530 0.313970 
#    y 0.262530 3.450340 -0.746320 
#    z 0.313970 -0.746320 3.823190 
# 
# 
# High freq. dielectric constant tensor:
#      x y z
#    x 1.902360 0.002520 -0.005600 
#    y 0.002520 1.896800 0.003960 
#    z -0.005600 0.003960 1.915200 
# 
# From -- ./inp_files/419460.got.cif
#   From: 2010.06.25/outbox.cif.g09.slc.cpg/sg2_210_cif.got.tgz:419460.got - 2010.06.27 13:26:56.
