data_PCOD8020470
_publ_section_title
;
Structure prediction by ZEFSAII (Michael W. Deem and Ramdas Pophale) SiO2 
 PCOD8020470
Probable space group: P -1
;
_chemical_formula_sum "Si O2"
_cell_formula_units_Z 12
_cell_length_a 14.989446
_cell_length_b 14.878466
_cell_length_c 11.662904
_cell_angle_alpha 43.425795
_cell_angle_beta 139.681817
_cell_angle_gamma 160.624298
_cell_volume 558.047845
_symmetry_space_group_name_H-M "P -1"
_symmetry_group_IT_number 2
_symmetry_cell_setting 'triclinic'
loop_
_space_group_symop_operation_xyz
x,y,z
-x,-y,-z
loop_
_atom_site_type_symbol
_atom_site_label
_atom_site_fract_x
_atom_site_fract_y
_atom_site_fract_z
Si Si1 0.842663 0.170867 0.654813
Si Si2 0.340435 0.822068 0.325401
Si Si3 0.783595 0.208061 0.017419
Si Si4 0.442482 0.636549 0.516046
Si Si5 0.482734 0.626253 0.809811
Si Si6 0.947829 0.096127 0.411916
O O1 0.860443 0.290105 0.665892
O O2 0.160446 0.410106 0.702106
O O3 0.663489 0.081001 0.454561
O O4 0.694837 0.915093 0.798598
O O5 0.254173 0.604992 0.401266
O O6 0.296466 0.871266 0.122274
O O7 0.913641 0.175152 0.206120
O O8 0.000000 0.500000 0.000000
O O9 0.500000 0.000000 0.000000
O O10 0.581685 0.688084 0.717728
O O11 0.237110 0.359221 0.519723
O O12 0.679176 0.878861 0.433935
O O13 0.500000 0.500000 0.000000
O O14 0.000000 0.000000 0.500000
#
# Coordination Sequence:
#
# PCOD8020470 Si02
#       6
#     2   2   2   2   2   2
#     4  10  24  40  67 101 128 176 220 289 332 391
#     4  10  22  42  68  97 136 168 231 276 340 393
#     4  12  24  41  68  99 128 177 231 271 325 404
#     4  11  23  42  66  89 132 179 210 281 338 398
#     4  11  24  42  66  95 134 174 227 268 347 411
#     4  12  25  43  64  98 134 175 225 272 345 396
#
# _framework density 21.503532
#
# number of rings (size 3 to 8) (size 9 to 14) (size 15 to 20)
#    0.000    1.000    3.333    3.000    0.000   11.333 
#    0.000    0.000    0.000    0.000    0.000    0.000 
#    0.000    0.000    0.000    0.000    0.000    0.000 
#
# Total GULP energy -148733.323423 kJ/mol
# GULP energy per Si atom -12394.443619 kJ/mol
# Density = 2.145459 g / cm^3
# Si number density = 21.503532 Si / 1000 Ang^3
#
#
#
# Elastic Constant Matrix: (Units=GPa)
#
#
# Indices 1 2 3 4 5 6 
#
# 1 140.2618 49.1479 54.3996 -3.2553 2.0281 -22.2408
# 2 49.1479 113.0224 4.6171 -15.0896 5.1866 -4.9468
# 3 54.3996 4.6171 146.8716 -14.0167 -10.5606 -6.5594
# 4 -3.2553 -15.0896 -14.0167 29.5028 -5.9493 3.6926
# 5 2.0281 5.1866 -10.5606 -5.9493 44.3881 -7.3953
# 6 -22.2408 -4.9468 -6.5594 3.6926 -7.3953 38.0324
#
#
#
# Elastic Compliance Matrix: (Units=1/GPa)
#
#
# Indices 1 2 3 4 5 6 
#
# 1 0.011321 -0.005035 -0.004224 -0.004139 -0.000568 0.005528
# 2 -0.005035 0.011767 0.002048 0.006640 -0.000054 -0.001716
# 3 -0.004224 0.002048 0.008999 0.005487 0.002721 -0.000655
# 4 -0.004139 0.006640 0.005487 0.041015 0.005633 -0.003497
# 5 -0.000568 -0.000054 0.002721 0.005633 0.024694 0.004385
# 6 0.005528 -0.001716 -0.000655 -0.003497 0.004385 0.030382
#
#
# Mechanical properties :
#
#
# Convention : Reuss Voigt Hill
#
# Bulk Modulus (GPa) = 56.60561 68.49831 62.55196
# Shear Modulus (GPa) = 33.67285 41.85074 37.76180
#
# Velocity S-wave (km/s) = 3.96147 4.41639 4.19510
# Velocity P-wave (km/s) = 6.87788 7.61115 7.25379
#
# Compressibility (1/GPa) = 0.01766609
#
# Stress axis : x y z
#
# Youngs Moduli (GPa) = 88.33447 84.98033 111.12642
#
# Poissons Ratio (x) = 0.42786 0.46936
# Poissons Ratio (y) = 0.44475 -0.22760
# Poissons Ratio (z) = 0.37310 -0.17405
#
# Static dielectric constant tensor:
#      x y z
#    x 4.145840 -0.020410 -0.278950 
#    y -0.020410 3.947750 -0.115400 
#    z -0.278950 -0.115400 4.316810 
# 
# 
# High freq. dielectric constant tensor:
#      x y z
#    x 1.847890 -0.005620 -0.006660 
#    y -0.005620 1.848240 -0.007200 
#    z -0.006660 -0.007200 1.847160 
# 
# From -- ./inp_files/31746.got.cif
#   From: 2010.06.25/outbox.cif.g09.slc.cpg/sg2_16_cif.got.tgz:31746.got - 2010.06.27 13:26:56.
