data_PCOD8020129
_publ_section_title
;
Structure prediction by ZEFSAII (Michael W. Deem and Ramdas Pophale) SiO2 
 PCOD8020129
Probable space group: P -1
;
_chemical_formula_sum "Si O2"
_cell_formula_units_Z 14
_cell_length_a 14.656216
_cell_length_b 9.519617
_cell_length_c 5.180486
_cell_angle_alpha 98.759101
_cell_angle_beta 67.263344
_cell_angle_gamma 75.430440
_cell_volume 619.469155
_symmetry_space_group_name_H-M "P -1"
_symmetry_group_IT_number 2
_symmetry_cell_setting 'triclinic'
loop_
_space_group_symop_operation_xyz
x,y,z
-x,-y,-z
loop_
_atom_site_type_symbol
_atom_site_label
_atom_site_fract_x
_atom_site_fract_y
_atom_site_fract_z
Si Si1 0.546781 0.634312 0.437456
Si Si2 0.227029 0.875700 0.247796
Si Si3 0.767276 0.627416 0.040700
Si Si4 0.541201 0.319596 0.953688
Si Si5 0.896393 0.141613 0.130873
Si Si6 0.191975 0.217160 0.443859
Si Si7 0.966320 0.379596 0.851804
O O1 0.500000 0.500000 0.500000
O O2 0.668223 0.576066 0.203409
O O3 0.479390 0.747436 0.317425
O O4 0.528710 0.721900 0.755823
O O5 0.339203 0.744429 0.103881
O O6 0.156272 0.831041 0.523581
O O7 0.236978 0.036444 0.352093
O O8 0.179968 0.881628 0.014841
O O9 0.788702 0.721749 0.282689
O O10 0.747651 0.729201 0.834131
O O11 0.863926 0.473862 0.823448
O O12 0.500000 0.500000 0.000000
O O13 0.930121 0.284339 0.075754
O O14 0.000000 0.000000 0.000000
O O15 0.064926 0.275143 0.543601
O O16 0.000000 0.500000 0.000000
#
# Coordination Sequence:
#
# PCOD8020129 Si02
#       7
#     2   2   2   2   2   2   2
#     4  10  22  42  65  98 131 167 232 292 330 394
#     4  12  26  44  71 100 140 184 227 285 346 405
#     4  11  24  42  71  99 137 187 222 280 349 404
#     4  10  23  41  66  94 135 166 225 293 332 386
#     4  12  26  44  71 104 141 181 231 279 348 417
#     4  11  24  45  65 100 144 181 224 273 346 424
#     4  10  25  43  69 103 144 177 229 277 343 415
#
# _framework density 22.599996000000001
#
# number of rings (size 3 to 8) (size 9 to 14) (size 15 to 20)
#    0.000    1.143    1.429    3.429   10.000    2.286 
#    0.000    4.286    0.000    0.000    0.000    0.000 
#    0.000    0.000    0.000    0.000    0.000    0.000 
#
# Total GULP energy -173520.301275 kJ/mol
# GULP energy per Si atom -12394.307234 kJ/mol
# Density = 2.254856 g / cm^3
# Si number density = 22.599996 Si / 1000 Ang^3
#
#
#
# Elastic Constant Matrix: (Units=GPa)
#
#
# Indices 1 2 3 4 5 6 
#
# 1 98.5852 33.7639 26.1341 2.9173 -11.1664 -26.7404
# 2 33.7639 117.6150 25.6281 -1.7403 -10.8370 -4.5019
# 3 26.1341 25.6281 126.5275 -23.5187 -6.4904 -14.8777
# 4 2.9173 -1.7403 -23.5187 38.6722 -7.6707 -7.5444
# 5 -11.1664 -10.8370 -6.4904 -7.6707 51.1332 -5.0396
# 6 -26.7404 -4.5019 -14.8777 -7.5444 -5.0396 44.0144
#
#
#
# Elastic Compliance Matrix: (Units=1/GPa)
#
#
# Indices 1 2 3 4 5 6 
#
# 1 0.014126 -0.003211 -0.001052 0.000400 0.003151 0.008327
# 2 -0.003211 0.009782 -0.001484 -0.000292 0.001003 -0.001387
# 3 -0.001052 -0.001484 0.010487 0.007709 0.002372 0.004347
# 4 0.000400 -0.000292 0.007709 0.033723 0.006989 0.009399
# 5 0.003151 0.001003 0.002372 0.006989 0.022456 0.006588
# 6 0.008327 -0.001387 0.004347 0.009399 0.006588 0.031472
#
#
# Mechanical properties :
#
#
# Convention : Reuss Voigt Hill
#
# Bulk Modulus (GPa) = 43.66612 57.08664 50.37638
# Shear Modulus (GPa) = 35.41708 43.91072 39.66390
#
# Velocity S-wave (km/s) = 3.96299 4.41268 4.19386
# Velocity P-wave (km/s) = 6.34851 7.16077 6.76684
#
# Compressibility (1/GPa) = 0.02290105
#
# Stress axis : x y z
#
# Youngs Moduli (GPa) = 70.79173 102.22358 95.35629
#
# Poissons Ratio (x) = 0.32822 0.10034
# Poissons Ratio (y) = 0.22730 0.14152
# Poissons Ratio (z) = 0.07449 0.15171
#
# Static dielectric constant tensor:
#      x y z
#    x 3.609010 -0.140490 -1.288860 
#    y -0.140490 3.919270 0.481090 
#    z -1.288860 0.481090 1.199870 
# 
# 
# High freq. dielectric constant tensor:
#      x y z
#    x 1.892180 -0.012880 -0.000210 
#    y -0.012880 1.879010 -0.014250 
#    z -0.000210 -0.014250 1.909420 
# 
# From -- ./inp_files/90258.got.cif
#   From: 2010.06.25/outbox.cif.g09.slc.cpg/sg2_46_cif.got.tgz:90258.got - 2010.06.27 13:26:56.
