data_PCOD8020685
_publ_section_title
;
Structure prediction by ZEFSAII (Michael W. Deem and Ramdas Pophale) SiO2 
 PCOD8020685
Probable space group: P -1
;
_chemical_formula_sum "Si O2"
_cell_formula_units_Z 14
_cell_length_a 13.194914
_cell_length_b 14.781418
_cell_length_c 21.941997
_cell_angle_alpha 27.109324
_cell_angle_beta 159.962292
_cell_angle_gamma 149.518766
_cell_volume 659.197252
_symmetry_space_group_name_H-M "P -1"
_symmetry_group_IT_number 2
_symmetry_cell_setting 'triclinic'
loop_
_space_group_symop_operation_xyz
x,y,z
-x,-y,-z
loop_
_atom_site_type_symbol
_atom_site_label
_atom_site_fract_x
_atom_site_fract_y
_atom_site_fract_z
Si Si1 0.153335 0.822105 0.168354
Si Si2 0.643701 0.462301 0.818886
Si Si3 0.699976 0.036685 0.277142
Si Si4 0.438588 0.886825 0.097531
Si Si5 0.539625 0.595570 0.121557
Si Si6 0.156648 0.186135 0.118441
Si Si7 0.788278 0.253572 0.622410
O O1 0.198735 0.689223 0.332477
O O2 0.468682 0.900880 0.270056
O O3 0.955898 0.711027 0.067992
O O4 0.000000 0.000000 0.000000
O O5 0.538556 0.343042 0.769101
O O6 0.526340 0.333712 0.889786
O O7 0.495395 0.663787 0.615743
O O8 0.000000 0.500000 0.000000
O O9 0.685604 0.961831 0.243582
O O10 0.628272 0.266079 0.101025
O O11 0.000000 0.000000 0.500000
O O12 0.105686 0.887224 0.936814
O O13 0.500000 0.000000 0.000000
O O14 0.415286 0.356991 0.188271
O O15 0.896386 0.635194 0.292308
O O16 0.279029 0.983804 0.288778
#
# Coordination Sequence:
#
# PCOD8020685 Si02
#       7
#     2   2   2   2   2   2   2
#     4   9  19  43  64  91 134 173 216 283 334 396
#     4  12  26  43  68 100 134 179 232 287 344 407
#     4  11  24  41  71 103 141 178 226 289 343 406
#     4  11  21  44  69  96 143 180 222 288 342 403
#     4  12  23  44  69  99 136 181 230 280 345 411
#     4  10  22  42  71  98 133 179 226 280 339 411
#     4  11  24  46  67  95 139 180 228 287 339 414
#
# _framework density 21.237950999999999
#
# number of rings (size 3 to 8) (size 9 to 14) (size 15 to 20)
#    0.000    1.143    7.143    0.429    2.000    2.286 
#    7.714    2.857    0.000    0.000    0.000    0.000 
#    0.000    0.000    0.000    0.000    0.000    0.000 
#
# Total GULP energy -173447.121762 kJ/mol
# GULP energy per Si atom -12389.080126 kJ/mol
# Density = 2.118961 g / cm^3
# Si number density = 21.237951 Si / 1000 Ang^3
#
#
#
# Elastic Constant Matrix: (Units=GPa)
#
#
# Indices 1 2 3 4 5 6 
#
# 1 143.0678 37.4475 44.4435 13.0278 -2.6821 4.6435
# 2 37.4475 94.6904 47.2301 10.3090 0.1197 -15.4689
# 3 44.4435 47.2301 153.8008 4.6583 0.1045 -2.4001
# 4 13.0278 10.3090 4.6583 25.1316 -3.9034 -0.6861
# 5 -2.6821 0.1197 0.1045 -3.9034 21.8731 -1.0217
# 6 4.6435 -15.4689 -2.4001 -0.6861 -1.0217 35.6393
#
#
#
# Elastic Compliance Matrix: (Units=1/GPa)
#
#
# Indices 1 2 3 4 5 6 
#
# 1 0.008543 -0.002642 -0.001603 -0.003050 0.000413 -0.002415
# 2 -0.002642 0.014889 -0.003585 -0.004022 -0.000804 0.006465
# 3 -0.001603 -0.003585 0.008030 0.000774 -0.000114 -0.000795
# 4 -0.003050 -0.004022 0.000774 0.044035 0.007492 -0.000234
# 5 0.000413 -0.000804 -0.000114 0.007492 0.047161 0.001086
# 6 -0.002415 0.006465 -0.000795 -0.000234 0.001086 0.031152
#
#
# Mechanical properties :
#
#
# Convention : Reuss Voigt Hill
#
# Bulk Modulus (GPa) = 63.28522 72.20014 67.74268
# Shear Modulus (GPa) = 28.61412 34.02468 31.31940
#
# Velocity S-wave (km/s) = 3.67456 4.00693 3.84434
# Velocity P-wave (km/s) = 6.91853 7.44828 7.18829
#
# Compressibility (1/GPa) = 0.01580148
#
# Stress axis : x y z
#
# Youngs Moduli (GPa) = 117.05546 67.16411 124.52675
#
# Poissons Ratio (x) = 0.17745 0.19961
# Poissons Ratio (y) = 0.30926 0.44649
# Poissons Ratio (z) = 0.18763 0.24082
#
# Static dielectric constant tensor:
#      x y z
#    x 4.760020 -0.062770 -0.179110 
#    y -0.062770 3.948780 0.048850 
#    z -0.179110 0.048850 3.852070 
# 
# 
# High freq. dielectric constant tensor:
#      x y z
#    x 1.859890 0.001090 -0.001430 
#    y 0.001090 1.822030 0.000010 
#    z -0.001430 0.000010 1.818970 
# 
# From -- ./inp_files/306783.got.cif
#   From: 2010.06.25/outbox.cif.g09.slc.cpg/sg2_154_cif.got.tgz:306783.got - 2010.06.27 13:26:56.
