data_PCOD8020943
_publ_section_title
;
Structure prediction by ZEFSAII (Michael W. Deem and Ramdas Pophale) SiO2 
 PCOD8020943
Probable space group: P -1
;
_chemical_formula_sum "Si O2"
_cell_formula_units_Z 16
_cell_length_a 8.546674
_cell_length_b 9.086502
_cell_length_c 12.526637
_cell_angle_alpha 70.860535
_cell_angle_beta 74.581581
_cell_angle_gamma 48.927766
_cell_volume 691.104671
_symmetry_space_group_name_H-M "P -1"
_symmetry_group_IT_number 2
_symmetry_cell_setting 'triclinic'
loop_
_space_group_symop_operation_xyz
x,y,z
-x,-y,-z
loop_
_atom_site_type_symbol
_atom_site_label
_atom_site_fract_x
_atom_site_fract_y
_atom_site_fract_z
Si Si1 0.093092 0.411141 0.390324
Si Si2 0.677108 0.036486 0.557990
Si Si3 0.341407 0.402230 0.655718
Si Si4 0.206136 0.382151 0.062880
Si Si5 0.550433 0.211505 0.875870
Si Si6 0.322161 0.511082 0.195211
Si Si7 0.688733 0.265008 0.325654
Si Si8 0.884975 0.869020 0.770553
O O1 0.149162 0.546350 0.299289
O O2 0.000000 0.500000 0.500000
O O3 0.908682 0.441528 0.347707
O O4 0.289654 0.169677 0.418004
O O5 0.443457 0.242536 0.576335
O O6 0.760284 0.074881 0.428654
O O7 0.806541 0.007805 0.646828
O O8 0.401802 0.281263 0.783507
O O9 0.410966 0.542987 0.621993
O O10 0.254565 0.513169 0.085491
O O11 0.168795 0.282852 0.190435
O O12 0.416228 0.225214 0.994724
O O13 0.000000 0.500000 0.000000
O O14 0.640865 0.329003 0.846611
O O15 0.761064 0.987727 0.873134
O O16 0.533666 0.303168 0.250991
O O17 0.874965 0.234278 0.232895
#
# Coordination Sequence:
#
# PCOD8020943 Si02
#       8
#     2   2   2   2   2   2   2   2
#     4  12  25  40  63  97 143 179 228 267 333 402
#     4  11  23  41  68  98 136 184 223 267 332 400
#     4  10  22  43  65  98 133 183 227 273 330 402
#     4  12  23  46  72  91 129 179 223 280 347 392
#     4  10  24  42  69  98 130 173 225 285 334 390
#     4  11  24  44  64 101 133 172 228 274 333 405
#     4  11  22  41  68  95 139 178 218 276 339 395
#     4  11  23  43  67 101 131 173 230 269 334 414
#
# _framework density 23.151340000000001
#
# number of rings (size 3 to 8) (size 9 to 14) (size 15 to 20)
#    0.000    1.000    2.500    4.500    1.750    3.000 
#    0.000    3.750    0.000    0.000    0.000    0.000 
#    0.000    0.000    0.000    0.000    0.000    0.000 
#
# Total GULP energy -198245.639022 kJ/mol
# GULP energy per Si atom -12390.352439 kJ/mol
# Density = 2.309865 g / cm^3
# Si number density = 23.151340 Si / 1000 Ang^3
#
#
#
# Elastic Constant Matrix: (Units=GPa)
#
#
# Indices 1 2 3 4 5 6 
#
# 1 117.3069 20.8745 36.3554 4.8440 -1.5450 4.6668
# 2 20.8745 92.8480 13.1571 9.2484 -4.8663 -9.0058
# 3 36.3554 13.1571 75.0259 7.5005 -7.8729 5.0583
# 4 4.8440 9.2484 7.5005 36.5937 -2.0163 -2.5329
# 5 -1.5450 -4.8663 -7.8729 -2.0163 32.9678 3.6277
# 6 4.6668 -9.0058 5.0583 -2.5329 3.6277 22.6534
#
#
#
# Elastic Compliance Matrix: (Units=1/GPa)
#
#
# Indices 1 2 3 4 5 6 
#
# 1 0.010359 -0.001867 -0.004639 -0.000108 -0.000713 -0.001738
# 2 -0.001867 0.012121 -0.001278 -0.002160 0.000699 0.005135
# 3 -0.004639 -0.001278 0.016751 -0.002572 0.003899 -0.004205
# 4 -0.000108 -0.002160 -0.002572 0.028640 0.000499 0.002860
# 5 -0.000713 0.000699 0.003899 0.000499 0.031970 -0.005510
# 6 -0.001738 0.005135 -0.004205 0.002860 -0.005510 0.048684
#
#
# Mechanical properties :
#
#
# Convention : Reuss Voigt Hill
#
# Bulk Modulus (GPa) = 42.26004 47.32831 44.79417
# Shear Modulus (GPa) = 29.07318 32.76256 30.91787
#
# Velocity S-wave (km/s) = 3.54755 3.76593 3.65837
# Velocity P-wave (km/s) = 5.92230 6.27670 6.10207
#
# Compressibility (1/GPa) = 0.02366302
#
# Stress axis : x y z
#
# Youngs Moduli (GPa) = 96.53656 82.50163 59.69927
#
# Poissons Ratio (x) = 0.15401 0.27695
# Poissons Ratio (y) = 0.18021 0.07629
# Poissons Ratio (z) = 0.44784 0.10543
#
# Static dielectric constant tensor:
#      x y z
#    x 4.179680 -0.139540 0.001040 
#    y -0.139540 4.175150 0.078700 
#    z 0.001040 0.078700 4.141630 
# 
# 
# High freq. dielectric constant tensor:
#      x y z
#    x 1.915260 -0.001090 -0.005000 
#    y -0.001090 1.905780 0.008250 
#    z -0.005000 0.008250 1.917130 
# 
# From -- ./inp_files/492494.got.cif
#   From: 2010.06.25/outbox.cif.g09.slc.cpg/sg2_247_cif.got.tgz:492494.got - 2010.06.27 13:26:56.
