data_PCOD8020103
_publ_section_title
;
Structure prediction by ZEFSAII (Michael W. Deem and Ramdas Pophale) SiO2 
 PCOD8020103
Probable space group: P -1
;
_chemical_formula_sum "Si O2"
_cell_formula_units_Z 16
_cell_length_a 12.168412
_cell_length_b 8.748664
_cell_length_c 17.738969
_cell_angle_alpha 114.604295
_cell_angle_beta 148.291960
_cell_angle_gamma 52.577492
_cell_volume 765.007111
_symmetry_space_group_name_H-M "P -1"
_symmetry_group_IT_number 2
_symmetry_cell_setting 'triclinic'
loop_
_space_group_symop_operation_xyz
x,y,z
-x,-y,-z
loop_
_atom_site_type_symbol
_atom_site_label
_atom_site_fract_x
_atom_site_fract_y
_atom_site_fract_z
Si Si1 0.088204 0.164664 0.167455
Si Si2 0.213418 0.526541 0.660155
Si Si3 0.532611 0.215749 0.441160
Si Si4 0.759548 0.356923 0.714540
Si Si5 0.231290 0.169632 0.853017
Si Si6 0.756804 0.479836 0.149819
Si Si7 0.248369 0.727333 0.140747
Si Si8 0.024023 0.962421 0.593886
O O1 0.352126 0.136571 0.324717
O O2 0.949492 0.265656 0.184440
O O3 0.118448 0.953988 0.136150
O O4 0.924543 0.294450 0.026094
O O5 0.179925 0.513476 0.726174
O O6 0.482252 0.352738 0.753377
O O7 0.187904 0.730613 0.661939
O O8 0.000000 0.500000 0.500000
O O9 0.631941 0.238663 0.585292
O O10 0.395562 0.424108 0.362727
O O11 0.754601 0.049952 0.487706
O O12 0.741294 0.384263 0.799512
O O13 0.042843 0.246204 0.829230
O O14 0.236826 0.352530 0.859621
O O15 0.145735 0.078562 0.720474
O O16 0.500000 0.000000 0.000000
O O17 0.500000 0.500000 0.000000
O O18 0.000000 0.000000 0.500000
#
# Coordination Sequence:
#
# PCOD8020103 Si02
#       8
#     2   2   2   2   2   2   2   2
#     4  11  25  44  67  97 133 181 220 273 341 393
#     4  12  26  43  70 104 137 183 225 278 340 395
#     4  10  22  42  65  95 128 177 219 268 336 393
#     4  10  23  42  66  95 135 167 225 274 330 403
#     4  11  25  42  70 101 129 182 224 277 341 398
#     4  12  25  46  70  97 140 175 230 278 335 413
#     4  11  26  43  65  99 137 173 228 278 330 403
#     4  11  24  43  67 101 138 172 227 277 336 403
#
# _framework density 20.914836999999999
#
# number of rings (size 3 to 8) (size 9 to 14) (size 15 to 20)
#    0.000    1.000    2.500    3.000    7.000    2.000 
#    0.000    0.000    0.000    0.000    0.000    0.000 
#    0.000    0.000    0.000    0.000    0.000    0.000 
#
# Total GULP energy -198429.177993 kJ/mol
# GULP energy per Si atom -12401.823625 kJ/mol
# Density = 2.086723 g / cm^3
# Si number density = 20.914837 Si / 1000 Ang^3
#
#
#
# Elastic Constant Matrix: (Units=GPa)
#
#
# Indices 1 2 3 4 5 6 
#
# 1 116.6080 24.7918 51.3932 -0.8102 -5.3135 -26.6708
# 2 24.7918 86.8447 15.8699 -5.7893 9.6474 -16.5836
# 3 51.3932 15.8699 123.3823 -0.5983 19.0150 -18.6229
# 4 -0.8102 -5.7893 -0.5983 36.4394 5.4068 2.8888
# 5 -5.3135 9.6474 19.0150 5.4068 34.9950 7.8017
# 6 -26.6708 -16.5836 -18.6229 2.8888 7.8017 31.0857
#
#
#
# Elastic Compliance Matrix: (Units=1/GPa)
#
#
# Indices 1 2 3 4 5 6 
#
# 1 0.012641 -0.002107 -0.004685 -0.001186 0.003880 0.006052
# 2 -0.002107 0.014447 0.001427 0.002702 -0.007357 0.008349
# 3 -0.004685 0.001427 0.012281 0.001213 -0.009378 0.006340
# 4 -0.001186 0.002702 0.001213 0.028760 -0.006025 -0.000010
# 5 0.003880 -0.007357 -0.009378 -0.006025 0.040761 -0.015884
# 6 0.006052 0.008349 0.006340 -0.000010 -0.015884 0.049601
#
#
# Mechanical properties :
#
#
# Convention : Reuss Voigt Hill
#
# Bulk Modulus (GPa) = 34.91774 56.77163 45.84469
# Shear Modulus (GPa) = 27.96914 36.15603 32.06259
#
# Velocity S-wave (km/s) = 3.66086 4.16231 3.91961
# Velocity P-wave (km/s) = 5.88223 7.09245 6.51550
#
# Compressibility (1/GPa) = 0.02863873
#
# Stress axis : x y z
#
# Youngs Moduli (GPa) = 79.10667 69.21682 81.42715
#
# Poissons Ratio (x) = 0.14585 0.38147
# Poissons Ratio (y) = 0.16669 -0.11616
# Poissons Ratio (z) = 0.37060 -0.09874
#
# Static dielectric constant tensor:
#      x y z
#    x 3.471100 -0.051290 -0.112220 
#    y -0.051290 3.977180 0.065450 
#    z -0.112220 0.065450 4.081390 
# 
# 
# High freq. dielectric constant tensor:
#      x y z
#    x 1.821910 -0.011690 0.000310 
#    y -0.011690 1.831250 -0.001690 
#    z 0.000310 -0.001690 1.836630 
# 
# From -- ./inp_files/263159.got.cif
#   From: 2010.06.25/outbox.cif.g09.slc.cpg/sg2_132_cif.got.tgz:263159.got - 2010.06.27 13:26:56.
