data_PCOD8020042
_publ_section_title
;
Structure prediction by ZEFSAII (Michael W. Deem and Ramdas Pophale) SiO2 
 PCOD8020042
Probable space group: P -1
;
_chemical_formula_sum "Si O2"
_cell_formula_units_Z 16
_cell_length_a 8.392035
_cell_length_b 20.406162
_cell_length_c 6.705991
_cell_angle_alpha 123.228278
_cell_angle_beta 80.983011
_cell_angle_gamma 130.062599
_cell_volume 699.917926
_symmetry_space_group_name_H-M "P -1"
_symmetry_group_IT_number 2
_symmetry_cell_setting 'triclinic'
loop_
_space_group_symop_operation_xyz
x,y,z
-x,-y,-z
loop_
_atom_site_type_symbol
_atom_site_label
_atom_site_fract_x
_atom_site_fract_y
_atom_site_fract_z
Si Si1 0.227991 0.988354 0.984770
Si Si2 0.452564 0.546388 0.258903
Si Si3 0.931740 0.630450 0.730609
Si Si4 0.262007 0.743005 0.204311
Si Si5 0.399751 0.184133 0.064143
Si Si6 0.849140 0.753606 0.728441
Si Si7 0.487038 0.959354 0.650927
Si Si8 0.240793 0.639928 0.417852
O O1 0.440477 0.019132 0.895154
O O2 0.021344 0.866118 0.769831
O O3 0.210139 0.066492 0.003420
O O4 0.291871 0.010014 0.247031
O O5 0.328420 0.465072 0.335622
O O6 0.692786 0.657036 0.444981
O O7 0.284354 0.561517 0.263673
O O8 0.500000 0.500000 0.000000
O O9 0.972427 0.730006 0.797869
O O10 0.016708 0.589440 0.496438
O O11 0.051995 0.670769 0.985677
O O12 0.286411 0.830853 0.473003
O O13 0.231305 0.662026 0.227590
O O14 0.485820 0.812335 0.148221
O O15 0.296939 0.232946 0.093151
O O16 0.569665 0.252459 0.323518
O O17 0.500000 0.000000 0.500000
#
# Coordination Sequence:
#
# PCOD8020042 Si02
#       8
#     2   2   2   2   2   2   2   2
#     4  11  22  39  65  96 135 179 216 263 340 390
#     4  11  27  47  70 100 132 178 226 281 342 393
#     4  11  25  45  71  99 131 179 226 276 342 385
#     4  11  22  41  71  99 132 173 230 270 326 401
#     4  10  22  42  65 101 137 179 211 273 337 397
#     4  11  25  45  67  93 144 172 220 279 334 400
#     4  11  21  36  64  97 131 170 223 274 314 392
#     4  10  23  46  72  97 135 173 224 279 330 405
#
# _framework density 22.859825000000001
#
# number of rings (size 3 to 8) (size 9 to 14) (size 15 to 20)
#    0.000    1.250    2.500    2.625    8.750    0.500 
#    2.250    0.625    0.000    0.000    0.000    0.000 
#    0.000    0.000    0.000    0.000    0.000    0.000 
#
# Total GULP energy -198273.543355 kJ/mol
# GULP energy per Si atom -12392.096460 kJ/mol
# Density = 2.280779 g / cm^3
# Si number density = 22.859825 Si / 1000 Ang^3
#
#
#
# Elastic Constant Matrix: (Units=GPa)
#
#
# Indices 1 2 3 4 5 6 
#
# 1 89.3240 32.7472 41.9974 -5.6335 -13.7523 -12.9684
# 2 32.7472 119.8942 44.3874 3.5724 -5.6022 2.2996
# 3 41.9974 44.3874 100.0711 2.3492 -6.8323 -2.7069
# 4 -5.6335 3.5724 2.3492 35.8533 -1.6168 1.8661
# 5 -13.7523 -5.6022 -6.8323 -1.6168 33.8629 4.1626
# 6 -12.9684 2.2996 -2.7069 1.8661 4.1626 40.8134
#
#
#
# Elastic Compliance Matrix: (Units=1/GPa)
#
#
# Indices 1 2 3 4 5 6 
#
# 1 0.016122 -0.002379 -0.005347 0.003110 0.004697 0.004281
# 2 -0.002379 0.010400 -0.003620 -0.001085 0.000163 -0.001549
# 3 -0.005347 -0.003620 0.013862 -0.001360 0.000025 -0.000516
# 4 0.003110 -0.001085 -0.001360 0.028709 0.002251 -0.000583
# 5 0.004697 0.000163 0.000025 0.002251 0.031807 -0.001862
# 6 0.004281 -0.001549 -0.000516 -0.000583 -0.001862 0.026132
#
#
# Mechanical properties :
#
#
# Convention : Reuss Voigt Hill
#
# Bulk Modulus (GPa) = 56.52245 60.83925 58.68085
# Shear Modulus (GPa) = 32.12885 34.78307 33.45596
#
# Velocity S-wave (km/s) = 3.75303 3.90498 3.82976
# Velocity P-wave (km/s) = 6.59997 6.85592 6.72916
#
# Compressibility (1/GPa) = 0.01769209
#
# Stress axis : x y z
#
# Youngs Moduli (GPa) = 62.02530 96.15051 72.13748
#
# Poissons Ratio (x) = 0.22876 0.38575
# Poissons Ratio (y) = 0.14757 0.26114
# Poissons Ratio (z) = 0.33167 0.34807
#
# Static dielectric constant tensor:
#      x y z
#    x 4.299580 -0.148340 -0.102920 
#    y -0.148340 4.175600 0.098040 
#    z -0.102920 0.098040 4.203490 
# 
# 
# High freq. dielectric constant tensor:
#      x y z
#    x 1.905710 -0.011860 -0.005080 
#    y -0.011860 1.908760 0.009630 
#    z -0.005080 0.009630 1.893340 
# 
# From -- ./inp_files/53738.got.cif
#   From: 2010.06.25/outbox.cif.g09.slc.cpg/sg2_27_cif.got.tgz:53738.got - 2010.06.27 13:26:56.
