data_PCOD8020281
_publ_section_title
;
Structure prediction by ZEFSAII (Michael W. Deem and Ramdas Pophale) SiO2 
 PCOD8020281
Probable space group: P -1
;
_chemical_formula_sum "Si O2"
_cell_formula_units_Z 14
_cell_length_a 11.329387
_cell_length_b 14.463812
_cell_length_c 11.144659
_cell_angle_alpha 149.679131
_cell_angle_beta 96.624625
_cell_angle_gamma 63.228997
_cell_volume 654.350301
_symmetry_space_group_name_H-M "P -1"
_symmetry_group_IT_number 2
_symmetry_cell_setting 'triclinic'
loop_
_space_group_symop_operation_xyz
x,y,z
-x,-y,-z
loop_
_atom_site_type_symbol
_atom_site_label
_atom_site_fract_x
_atom_site_fract_y
_atom_site_fract_z
Si Si1 0.380787 0.306788 0.523692
Si Si2 0.862567 0.491995 0.479524
Si Si3 0.947674 0.344382 0.703853
Si Si4 0.349398 0.273024 0.046395
Si Si5 0.072871 0.596380 0.961074
Si Si6 0.550996 0.452465 0.590073
Si Si7 0.927454 0.985958 0.177944
O O1 0.287423 0.299997 0.397188
O O2 0.260112 0.453154 0.787734
O O3 0.428254 0.459706 0.660882
O O4 0.548599 0.021554 0.258084
O O5 0.787906 0.550855 0.668031
O O6 0.000000 0.500000 0.500000
O O7 0.947925 0.208257 0.131963
O O8 0.756397 0.615997 0.964436
O O9 0.066803 0.381480 0.717908
O O10 0.987767 0.118622 0.380594
O O11 0.970756 0.277447 0.772058
O O12 0.472599 0.314128 0.105801
O O13 0.941873 0.821237 0.102621
O O14 0.500000 0.500000 0.500000
O O15 0.740553 0.183453 0.329064
#
# Coordination Sequence:
#
# PCOD8020281 Si02
#       7
#     2   2   2   2   2   2   2
#     4  11  23  40  60  88 127 163 200 254 309 362
#     4  11  22  37  62  90 122 166 204 246 309 367
#     4  10  22  42  67  91 119 163 211 259 304 362
#     4  11  23  40  60  92 128 161 202 252 307 367
#     4  10  22  43  66  91 121 160 213 257 310 358
#     4  11  23  39  59  89 125 166 200 245 308 369
#     4  10  23  41  64  90 125 164 205 258 303 367
#
# _framework density 21.395268000000002
#
# number of rings (size 3 to 8) (size 9 to 14) (size 15 to 20)
#    0.000    1.429    1.429    4.286    2.000    5.143 
#    0.000    2.857    0.000    0.000    0.000    0.000 
#    0.000    0.000    0.000    0.000    0.000    0.000 
#
# Total GULP energy -173621.121017 kJ/mol
# GULP energy per Si atom -12401.508644 kJ/mol
# Density = 2.134657 g / cm^3
# Si number density = 21.395268 Si / 1000 Ang^3
#
#
#
# Elastic Constant Matrix: (Units=GPa)
#
#
# Indices 1 2 3 4 5 6 
#
# 1 143.3961 27.9361 41.2422 -3.5445 10.7021 15.5853
# 2 27.9361 89.1848 32.1604 12.9603 -3.5941 3.6194
# 3 41.2422 32.1604 92.3478 2.9445 4.0725 6.6373
# 4 -3.5445 12.9603 2.9445 21.2436 -4.0303 4.1831
# 5 10.7021 -3.5941 4.0725 -4.0303 28.0242 3.5305
# 6 15.5853 3.6194 6.6373 4.1831 3.5305 34.6619
#
#
#
# Elastic Compliance Matrix: (Units=1/GPa)
#
#
# Indices 1 2 3 4 5 6 
#
# 1 0.008875 -0.002163 -0.002975 0.003438 -0.002315 -0.003374
# 2 -0.002163 0.014616 -0.004011 -0.008565 0.001919 0.001053
# 3 -0.002975 -0.004011 0.013664 -0.000043 -0.001279 -0.000724
# 4 0.003438 -0.008565 -0.000043 0.055718 0.006621 -0.008042
# 5 -0.002315 0.001919 -0.001279 0.006621 0.038408 -0.003626
# 6 -0.003374 0.001053 -0.000724 -0.008042 -0.003626 0.031736
#
#
# Mechanical properties :
#
#
# Convention : Reuss Voigt Hill
#
# Bulk Modulus (GPa) = 53.03347 58.62290 55.82819
# Shear Modulus (GPa) = 26.65210 31.69194 29.17202
#
# Velocity S-wave (km/s) = 3.53328 3.85289 3.69654
# Velocity P-wave (km/s) = 6.44102 6.87404 6.66105
#
# Compressibility (1/GPa) = 0.01885602
#
# Stress axis : x y z
#
# Youngs Moduli (GPa) = 112.67154 68.41815 73.18410
#
# Poissons Ratio (x) = 0.14800 0.21775
# Poissons Ratio (y) = 0.24373 0.29356
# Poissons Ratio (z) = 0.33524 0.27444
#
# Static dielectric constant tensor:
#      x y z
#    x 4.078790 -0.000550 0.206570 
#    y -0.000550 4.050150 0.167880 
#    z 0.206570 0.167880 3.732060 
# 
# 
# High freq. dielectric constant tensor:
#      x y z
#    x 1.849780 -0.001370 0.011100 
#    y -0.001370 1.848920 0.015260 
#    z 0.011100 0.015260 1.820440 
# 
# From -- ./inp_files/248890.got.cif
#   From: 2010.06.25/outbox.cif.g09.slc.cpg/sg2_125_cif.got.tgz:248890.got - 2010.06.27 13:26:56.
