data_PCOD8020500
_publ_section_title
;
Structure prediction by ZEFSAII (Michael W. Deem and Ramdas Pophale) SiO2 
 PCOD8020500
Probable space group: P -1
;
_chemical_formula_sum "Si O2"
_cell_formula_units_Z 14
_cell_length_a 8.958591
_cell_length_b 9.262730
_cell_length_c 10.949013
_cell_angle_alpha 127.146373
_cell_angle_beta 77.433508
_cell_angle_gamma 116.157219
_cell_volume 648.538135
_symmetry_space_group_name_H-M "P -1"
_symmetry_group_IT_number 2
_symmetry_cell_setting 'triclinic'
loop_
_space_group_symop_operation_xyz
x,y,z
-x,-y,-z
loop_
_atom_site_type_symbol
_atom_site_label
_atom_site_fract_x
_atom_site_fract_y
_atom_site_fract_z
Si Si1 0.844457 0.543677 0.510954
Si Si2 0.853552 0.793928 0.405407
Si Si3 0.824399 0.454690 0.074151
Si Si4 0.530605 0.810413 0.091123
Si Si5 0.635343 0.248312 0.225234
Si Si6 0.631948 0.614085 0.771534
Si Si7 0.450075 0.177044 0.629107
O O1 0.877574 0.669512 0.447904
O O2 0.700071 0.330901 0.391686
O O3 0.795935 0.669945 0.687104
O O4 0.000000 0.500000 0.500000
O O5 0.844515 0.674155 0.220806
O O6 0.689542 0.839545 0.454252
O O7 0.000000 0.000000 0.500000
O O8 0.785843 0.312725 0.129846
O O9 0.662429 0.350718 0.961529
O O10 0.000000 0.500000 0.000000
O O11 0.605125 0.843648 0.229935
O O12 0.538667 0.013065 0.131266
O O13 0.655484 0.738412 0.955361
O O14 0.515708 0.356664 0.260982
O O15 0.597447 0.389279 0.695341
O O16 0.500000 0.000000 0.500000
#
# Coordination Sequence:
#
# PCOD8020500 Si02
#       7
#     2   2   2   2   2   2   2
#     4  11  25  44  69  99 139 181 230 287 350 414
#     4  11  27  45  63 102 142 179 230 281 351 410
#     4  10  22  42  69 101 142 179 221 294 351 402
#     4  11  24  43  74 105 134 179 245 279 352 415
#     4  10  22  44  71 102 133 182 239 279 348 417
#     4  11  22  44  70  95 135 176 228 296 335 403
#     4  12  26  42  70 101 135 186 233 281 333 420
#
# _framework density 21.587012000000001
#
# number of rings (size 3 to 8) (size 9 to 14) (size 15 to 20)
#    0.000    1.143    4.286    3.429    8.000    2.286 
#    0.000    0.714    0.000    0.000    0.000    0.000 
#    0.000    0.000    0.000    0.000    0.000    0.000 
#
# Total GULP energy -173451.400716 kJ/mol
# GULP energy per Si atom -12389.385765 kJ/mol
# Density = 2.153788 g / cm^3
# Si number density = 21.587012 Si / 1000 Ang^3
#
#
#
# Elastic Constant Matrix: (Units=GPa)
#
#
# Indices 1 2 3 4 5 6 
#
# 1 109.0246 48.2929 56.3200 -6.5057 -17.3931 -12.2204
# 2 48.2929 97.2106 51.9041 17.6849 -4.2364 -12.1070
# 3 56.3200 51.9041 139.0369 9.2845 -12.8003 -5.3854
# 4 -6.5057 17.6849 9.2845 49.4011 1.5880 0.7260
# 5 -17.3931 -4.2364 -12.8003 1.5880 40.4470 -1.7668
# 6 -12.2204 -12.1070 -5.3854 0.7260 -1.7668 40.7848
#
#
#
# Elastic Compliance Matrix: (Units=1/GPa)
#
#
# Indices 1 2 3 4 5 6 
#
# 1 0.014886 -0.005766 -0.003668 0.004532 0.004563 0.002381
# 2 -0.005766 0.016318 -0.003391 -0.005956 -0.001491 0.002710
# 3 -0.003668 -0.003391 0.010116 -0.001202 0.001286 -0.000693
# 4 0.004532 -0.005956 -0.001202 0.023212 -0.000009 -0.000982
# 5 0.004563 -0.001491 0.001286 -0.000009 0.027036 0.002266
# 6 0.002381 0.002710 -0.000693 -0.000982 0.002266 0.026061
#
#
# Mechanical properties :
#
#
# Convention : Reuss Voigt Hill
#
# Bulk Modulus (GPa) = 63.81297 73.14511 68.47904
# Shear Modulus (GPa) = 33.66976 38.71024 36.19000
#
# Velocity S-wave (km/s) = 3.95362 4.23924 4.09892
# Velocity P-wave (km/s) = 7.10397 7.61045 7.36157
#
# Compressibility (1/GPa) = 0.01567080
#
# Stress axis : x y z
#
# Youngs Moduli (GPa) = 67.17551 61.28296 98.85716
#
# Poissons Ratio (x) = 0.35336 0.36259
# Poissons Ratio (y) = 0.38734 0.33518
# Poissons Ratio (z) = 0.24639 0.20778
#
# Static dielectric constant tensor:
#      x y z
#    x 3.225010 0.120780 -0.180360 
#    y 0.120780 4.423940 0.538290 
#    z -0.180360 0.538290 4.709890 
# 
# 
# High freq. dielectric constant tensor:
#      x y z
#    x 1.821130 -0.013500 0.001210 
#    y -0.013500 1.852970 0.002800 
#    z 0.001210 0.002800 1.866310 
# 
# From -- ./inp_files/223247.got.cif
#   From: 2010.06.25/outbox.cif.g09.slc.cpg/sg2_112_cif.got.tgz:223247.got - 2010.06.27 13:26:56.
