data_PCOD8020633
_publ_section_title
;
Structure prediction by ZEFSAII (Michael W. Deem and Ramdas Pophale) SiO2 
 PCOD8020633
Probable space group: P -1
;
_chemical_formula_sum "Si O2"
_cell_formula_units_Z 14
_cell_length_a 18.063040
_cell_length_b 8.788557
_cell_length_c 5.526307
_cell_angle_alpha 86.057308
_cell_angle_beta 87.123591
_cell_angle_gamma 43.128353
_cell_volume 598.327094
_symmetry_space_group_name_H-M "P -1"
_symmetry_group_IT_number 2
_symmetry_cell_setting 'triclinic'
loop_
_space_group_symop_operation_xyz
x,y,z
-x,-y,-z
loop_
_atom_site_type_symbol
_atom_site_label
_atom_site_fract_x
_atom_site_fract_y
_atom_site_fract_z
Si Si1 0.899886 0.167496 0.672177
Si Si2 0.852374 0.471438 0.000000
Si Si3 0.500000 0.098475 0.735786
Si Si4 0.274783 0.592827 0.716652
Si Si5 0.821637 0.017544 0.000000
Si Si6 0.100114 0.367154 0.672177
Si Si7 0.725217 0.917176 0.716652
O O1 0.920730 0.300837 0.783092
O O2 0.783834 0.340109 0.538941
O O3 0.901896 0.024731 0.876206
O O4 0.000000 0.000000 0.500000
O O5 0.776682 0.725368 0.919787
O O6 0.776682 0.444586 0.080213
O O7 0.920730 0.436971 0.216908
O O8 0.400122 0.364273 0.704527
O O9 0.500000 0.000000 0.500000
O O10 0.599878 0.064638 0.704527
O O11 0.500000 0.000000 0.000000
O O12 0.255725 0.792228 0.801555
O O13 0.744275 0.059403 0.801555
O O14 0.901896 0.769583 0.123794
O O15 0.216166 0.191610 0.538941
O O16 0.000000 0.500000 0.500000
#
# Coordination Sequence:
#
# PCOD8020633 Si02
#       7
#     2   2   2   2   2   2   2
#     4  11  25  45  70 103 144 191 243 303 370 449
#     4  10  22  42  70  98 138 189 238 299 364 444
#     4  12  26  47  79 113 149 197 258 315 371 447
#     4  11  24  44  72 105 144 187 245 302 373 440
#     4  10  26  46  68 102 148 185 240 309 374 442
#     4  11  25  45  70 103 144 191 243 303 370 449
#     4  11  24  44  72 105 144 187 245 302 373 440
#
# _framework density 23.398571
#
# number of rings (size 3 to 8) (size 9 to 14) (size 15 to 20)
#    0.000    1.143    1.429    3.429    4.000   12.000 
#    0.000    7.143    0.000    0.000    0.000    0.000 
#    0.000    0.000    0.000    0.000    0.000    0.000 
#
# Total GULP energy -173585.088512 kJ/mol
# GULP energy per Si atom -12398.934894 kJ/mol
# Density = 2.334531 g / cm^3
# Si number density = 23.398571 Si / 1000 Ang^3
#
#
#
# Elastic Constant Matrix: (Units=GPa)
#
#
# Indices 1 2 3 4 5 6 
#
# 1 130.5124 66.0126 54.5174 22.0748 29.3338 -3.2623
# 2 66.0126 133.3784 54.8767 22.8681 22.9593 -6.0707
# 3 54.5174 54.8767 139.5206 24.3472 28.3175 -1.1368
# 4 22.0748 22.8681 24.3472 44.9840 14.0279 9.5685
# 5 29.3338 22.9593 28.3175 14.0279 49.2378 10.5728
# 6 -3.2623 -6.0707 -1.1368 9.5685 10.5728 42.0183
#
#
#
# Elastic Compliance Matrix: (Units=1/GPa)
#
#
# Indices 1 2 3 4 5 6 
#
# 1 0.011666 -0.003938 -0.001889 -0.001854 -0.003860 0.001679
# 2 -0.003938 0.011079 -0.002070 -0.002621 -0.001350 0.002176
# 3 -0.001889 -0.002070 0.009808 -0.002629 -0.003056 0.001187
# 4 -0.001854 -0.002621 -0.002629 0.028112 -0.002821 -0.006286
# 5 -0.003860 -0.001350 -0.003056 -0.002821 0.027259 -0.006794
# 6 0.001679 0.002176 0.001187 -0.006286 -0.006794 0.027417
#
#
# Mechanical properties :
#
#
# Convention : Reuss Voigt Hill
#
# Bulk Modulus (GPa) = 59.66563 83.80276 71.73420
# Shear Modulus (GPa) = 36.57082 42.44833 39.50957
#
# Velocity S-wave (km/s) = 3.95771 4.26390 4.11365
# Velocity P-wave (km/s) = 6.81466 7.75462 7.29979
#
# Compressibility (1/GPa) = 0.01676007
#
# Stress axis : x y z
#
# Youngs Moduli (GPa) = 85.71877 90.26255 101.95365
#
# Poissons Ratio (x) = 0.35545 0.19259
# Poissons Ratio (y) = 0.33755 0.21101
# Poissons Ratio (z) = 0.16192 0.18681
#
# Static dielectric constant tensor:
#      x y z
#    x 4.753070 0.570160 0.712440 
#    y 0.570160 4.580310 0.612850 
#    z 0.712440 0.612850 5.621110 
# 
# 
# High freq. dielectric constant tensor:
#      x y z
#    x 1.928660 0.015720 0.006800 
#    y 0.015720 1.923890 0.005850 
#    z 0.006800 0.005850 1.945940 
# 
# From -- ./inp_files/106915.got.cif
#   From: 2010.06.25/outbox.cif.g09.slc.cpg/sg2_54_cif.got.tgz:106915.got - 2010.06.27 13:26:56.
