data_PCOD8020692
_publ_section_title
;
Structure prediction by ZEFSAII (Michael W. Deem and Ramdas Pophale) SiO2 
 PCOD8020692
Probable space group: P -1
;
_chemical_formula_sum "Si O2"
_cell_formula_units_Z 16
_cell_length_a 5.422853
_cell_length_b 15.604351
_cell_length_c 9.598402
_cell_angle_alpha 117.796480
_cell_angle_beta 73.023503
_cell_angle_gamma 115.918701
_cell_volume 642.247630
_symmetry_space_group_name_H-M "P -1"
_symmetry_group_IT_number 2
_symmetry_cell_setting 'triclinic'
loop_
_space_group_symop_operation_xyz
x,y,z
-x,-y,-z
loop_
_atom_site_type_symbol
_atom_site_label
_atom_site_fract_x
_atom_site_fract_y
_atom_site_fract_z
Si Si1 0.412116 0.409087 0.835267
Si Si2 0.407145 0.754465 0.779690
Si Si3 0.504749 0.803476 0.310956
Si Si4 0.551913 0.050980 0.379658
Si Si5 0.127106 0.730276 0.077711
Si Si6 0.036015 0.927897 0.191448
Si Si7 0.667681 0.446185 0.522044
Si Si8 0.970601 0.112952 0.140614
O O1 0.496658 0.311954 0.787578
O O2 0.548363 0.452803 0.699763
O O3 0.078327 0.364993 0.869583
O O4 0.500000 0.500000 0.000000
O O5 0.411956 0.671964 0.600456
O O6 0.235801 0.822704 0.800216
O O7 0.719505 0.820489 0.819423
O O8 0.275381 0.692315 0.898293
O O9 0.402138 0.827418 0.497966
O O10 0.320223 0.811468 0.217630
O O11 0.774976 0.907220 0.319374
O O12 0.833077 0.047587 0.256637
O O13 0.500000 0.000000 0.500000
O O14 0.306861 0.006518 0.276766
O O15 0.998374 0.806148 0.080045
O O16 0.043115 0.960194 0.049334
O O17 0.500000 0.500000 0.500000
O O18 0.000000 0.500000 0.500000
#
# Coordination Sequence:
#
# PCOD8020692 Si02
#       8
#     2   2   2   2   2   2   2   2
#     4  11  27  45  73 104 139 185 240 293 358 427
#     4  11  24  47  72 101 143 187 240 296 359 427
#     4  11  23  42  71  97 139 181 234 290 363 410
#     4  12  25  42  69 104 144 185 241 295 356 424
#     4  10  22  42  71  99 137 180 234 289 351 421
#     4  10  22  45  65 105 135 189 234 293 349 430
#     4  12  28  46  71 106 144 186 238 298 362 427
#     4  11  25  44  73 101 141 194 237 290 356 429
#
# _framework density 24.912510000000001
#
# number of rings (size 3 to 8) (size 9 to 14) (size 15 to 20)
#    0.000    1.000    2.500    3.000    5.250    2.500 
#    0.000    2.500    0.000    0.000    0.000    0.000 
#    0.000    0.000    0.000    0.000    0.000    0.000 
#
# Total GULP energy -198215.201739 kJ/mol
# GULP energy per Si atom -12388.450109 kJ/mol
# Density = 2.485581 g / cm^3
# Si number density = 24.912510 Si / 1000 Ang^3
#
#
#
# Elastic Constant Matrix: (Units=GPa)
#
#
# Indices 1 2 3 4 5 6 
#
# 1 133.0551 41.5795 58.9982 -9.2811 -5.0167 11.9782
# 2 41.5795 97.7567 77.0687 -15.8218 -9.2912 0.3780
# 3 58.9982 77.0687 226.2110 -1.1959 -15.1180 2.2917
# 4 -9.2811 -15.8218 -1.1959 57.3835 3.6406 -7.0028
# 5 -5.0167 -9.2912 -15.1180 3.6406 44.4918 -1.0137
# 6 11.9782 0.3780 2.2917 -7.0028 -1.0137 40.8846
#
#
#
# Elastic Compliance Matrix: (Units=1/GPa)
#
#
# Indices 1 2 3 4 5 6 
#
# 1 0.009271 -0.002716 -0.001472 0.000417 -0.000114 -0.002540
# 2 -0.002716 0.015723 -0.004568 0.003924 0.001141 0.001607
# 3 -0.001472 -0.004568 0.006433 -0.001451 0.001182 -0.000106
# 4 0.000417 0.003924 -0.001451 0.019001 -0.001110 0.003150
# 5 -0.000114 0.001141 0.001182 -0.001110 0.023202 0.000342
# 6 -0.002540 0.001607 -0.000106 0.003150 0.000342 0.025742
#
#
# Mechanical properties :
#
#
# Convention : Reuss Voigt Hill
#
# Bulk Modulus (GPa) = 71.86414 90.25726 81.06070
# Shear Modulus (GPa) = 41.14482 47.17708 44.16095
#
# Velocity S-wave (km/s) = 4.06836 4.35640 4.21484
# Velocity P-wave (km/s) = 7.13989 7.84937 7.50302
#
# Compressibility (1/GPa) = 0.01391515
#
# Stress axis : x y z
#
# Youngs Moduli (GPa) = 107.86688 63.60068 155.44234
#
# Poissons Ratio (x) = 0.17274 0.22885
# Poissons Ratio (y) = 0.29296 0.71002
# Poissons Ratio (z) = 0.15881 0.29051
#
# Static dielectric constant tensor:
#      x y z
#    x 5.002420 0.017890 -1.082490 
#    y 0.017890 4.792940 -0.644500 
#    z -1.082490 -0.644500 7.225570 
# 
# 
# High freq. dielectric constant tensor:
#      x y z
#    x 2.005740 -0.012190 -0.017880 
#    y -0.012190 2.001490 -0.007690 
#    z -0.017880 -0.007690 2.030100 
# 
# From -- ./inp_files/47803.got.cif
#   From: 2010.06.25/outbox.cif.g09.slc.cpg/sg2_24_cif.got.tgz:47803.got - 2010.06.27 13:26:56.
