data_PCOD8020437
_publ_section_title
;
Structure prediction by ZEFSAII (Michael W. Deem and Ramdas Pophale) SiO2 
 PCOD8020437
Probable space group: P -1
;
_chemical_formula_sum "Si O2"
_cell_formula_units_Z 14
_cell_length_a 16.989111
_cell_length_b 9.058530
_cell_length_c 13.192457
_cell_angle_alpha 122.532160
_cell_angle_beta 154.713255
_cell_angle_gamma 49.402535
_cell_volume 650.418348
_symmetry_space_group_name_H-M "P -1"
_symmetry_group_IT_number 2
_symmetry_cell_setting 'triclinic'
loop_
_space_group_symop_operation_xyz
x,y,z
-x,-y,-z
loop_
_atom_site_type_symbol
_atom_site_label
_atom_site_fract_x
_atom_site_fract_y
_atom_site_fract_z
Si Si1 0.834522 0.314792 0.567784
Si Si2 0.212909 0.383186 0.022143
Si Si3 0.984810 0.898305 0.668416
Si Si4 0.840563 0.192247 0.942323
Si Si5 0.577827 0.606613 0.547300
Si Si6 0.666418 0.287342 0.149586
Si Si7 0.474893 0.005737 0.853886
O O1 0.680515 0.482861 0.522474
O O2 0.709483 0.286377 0.318564
O O3 0.011504 0.363605 0.748222
O O4 0.940422 0.120892 0.686208
O O5 0.161732 0.605777 0.020706
O O6 0.262634 0.339171 0.184851
O O7 0.414274 0.221065 0.137979
O O8 0.768356 0.886972 0.418967
O O9 0.121667 0.770701 0.686461
O O10 0.120297 0.819760 0.897468
O O11 0.618788 0.204062 0.657786
O O12 0.000000 0.000000 0.000000
O O13 0.500000 0.500000 0.500000
O O14 0.500000 0.500000 0.000000
O O15 0.580166 0.129391 0.970118
O O16 0.500000 0.000000 0.000000
#
# Coordination Sequence:
#
# PCOD8020437 Si02
#       7
#     2   2   2   2   2   2   2
#     4  12  23  46  68  99 140 181 230 287 339 413
#     4  11  24  44  71 103 134 183 232 278 350 410
#     4  12  24  44  71 100 140 181 230 282 341 407
#     4  11  24  44  69 102 138 177 232 286 341 408
#     4  10  22  42  68  94 133 179 227 278 344 405
#     4  12  28  45  67 105 142 179 234 286 339 408
#     4  12  25  45  73  98 140 189 227 277 348 409
#
# _framework density 21.524609999999999
#
# number of rings (size 3 to 8) (size 9 to 14) (size 15 to 20)
#    0.000    0.571    2.857    6.857    4.000    0.571 
#    0.000    1.429    0.000    0.000    0.000    0.000 
#    0.000    0.000    0.000    0.000    0.000    0.000 
#
# Total GULP energy -173595.091736 kJ/mol
# GULP energy per Si atom -12399.649410 kJ/mol
# Density = 2.147562 g / cm^3
# Si number density = 21.524610 Si / 1000 Ang^3
#
#
#
# Elastic Constant Matrix: (Units=GPa)
#
#
# Indices 1 2 3 4 5 6 
#
# 1 101.8870 36.5800 50.2453 -8.6404 -7.7882 -24.4542
# 2 36.5800 129.3571 58.3044 -14.0695 2.7398 -14.2609
# 3 50.2453 58.3044 115.4693 -16.1047 -10.1443 4.0694
# 4 -8.6404 -14.0695 -16.1047 40.0280 -1.0231 4.5300
# 5 -7.7882 2.7398 -10.1443 -1.0231 48.8650 -3.7490
# 6 -24.4542 -14.2609 4.0694 4.5300 -3.7490 45.9668
#
#
#
# Elastic Compliance Matrix: (Units=1/GPa)
#
#
# Indices 1 2 3 4 5 6 
#
# 1 0.015549 -0.000456 -0.006762 -0.000489 0.001774 0.008922
# 2 -0.000456 0.010791 -0.005343 0.001128 -0.001507 0.003344
# 3 -0.006762 -0.005343 0.015213 0.003602 0.001934 -0.006799
# 4 -0.000489 0.001128 0.003602 0.027066 0.000957 -0.002818
# 5 0.001774 -0.001507 0.001934 0.000957 0.021403 0.001957
# 6 0.008922 0.003344 -0.006799 -0.002818 0.001957 0.028578
#
#
# Mechanical properties :
#
#
# Convention : Reuss Voigt Hill
#
# Bulk Modulus (GPa) = 60.86738 70.77475 65.82107
# Shear Modulus (GPa) = 33.51196 40.41087 36.96142
#
# Velocity S-wave (km/s) = 3.95006 4.33763 4.14837
# Velocity P-wave (km/s) = 7.01023 7.61833 7.32060
#
# Compressibility (1/GPa) = 0.01642916
#
# Stress axis : x y z
#
# Youngs Moduli (GPa) = 64.31271 92.66871 65.73426
#
# Poissons Ratio (x) = 0.04227 0.44453
# Poissons Ratio (y) = 0.02934 0.35124
# Poissons Ratio (z) = 0.43491 0.49515
#
# Static dielectric constant tensor:
#      x y z
#    x 4.015200 -0.086690 0.081210 
#    y -0.086690 3.939760 0.154640 
#    z 0.081210 0.154640 4.043220 
# 
# 
# High freq. dielectric constant tensor:
#      x y z
#    x 1.845020 -0.017160 -0.004720 
#    y -0.017160 1.845730 -0.006650 
#    z -0.004720 -0.006650 1.867380 
# 
# From -- ./inp_files/274321.got.cif
#   From: 2010.06.25/outbox.cif.g09.slc.cpg/sg2_138_cif.got.tgz:274321.got - 2010.06.27 13:26:56.
