data_PCOD8020322
_publ_section_title
;
Structure prediction by ZEFSAII (Michael W. Deem and Ramdas Pophale) SiO2 
 PCOD8020322
Probable space group: P -1
;
_chemical_formula_sum "Si O2"
_cell_formula_units_Z 14
_cell_length_a 9.203062
_cell_length_b 9.520673
_cell_length_c 8.782493
_cell_angle_alpha 114.829772
_cell_angle_beta 69.667548
_cell_angle_gamma 91.009322
_cell_volume 647.382753
_symmetry_space_group_name_H-M "P -1"
_symmetry_group_IT_number 2
_symmetry_cell_setting 'triclinic'
loop_
_space_group_symop_operation_xyz
x,y,z
-x,-y,-z
loop_
_atom_site_type_symbol
_atom_site_label
_atom_site_fract_x
_atom_site_fract_y
_atom_site_fract_z
Si Si1 0.168141 0.524006 0.884680
Si Si2 0.800562 0.792715 0.383622
Si Si3 0.067787 0.771020 0.799984
Si Si4 0.448573 0.955580 0.329487
Si Si5 0.062985 0.632568 0.437676
Si Si6 0.789459 0.933234 0.133200
Si Si7 0.653078 0.374890 0.864121
O O1 0.271082 0.351938 0.737267
O O2 0.150463 0.608160 0.766067
O O3 0.256105 0.631716 0.011191
O O4 0.000000 0.500000 0.000000
O O5 0.834019 0.906835 0.284450
O O6 0.955251 0.710522 0.375314
O O7 0.684273 0.895149 0.593817
O O8 0.076879 0.770143 0.614091
O O9 0.160034 0.909254 0.880338
O O10 0.888546 0.793946 0.936928
O O11 0.605373 0.942378 0.165173
O O12 0.379913 0.794727 0.256922
O O13 0.500000 0.000000 0.500000
O O14 0.233224 0.564893 0.276265
O O15 0.000000 0.500000 0.500000
O O16 0.500000 0.500000 0.000000
#
# Coordination Sequence:
#
# PCOD8020322 Si02
#       7
#     2   2   2   2   2   2   2
#     4  12  22  45  70  99 137 190 233 279 349 424
#     4  11  22  43  72  91 139 186 227 283 351 416
#     4  11  23  40  68 101 134 179 234 292 343 414
#     4  10  23  42  67 100 138 180 231 289 345 411
#     4  12  24  41  68 104 136 174 239 289 341 406
#     4  10  22  42  67  94 140 179 227 289 353 414
#     4  12  26  44  75 103 138 190 238 278 354 425
#
# _framework density 21.625536
#
# number of rings (size 3 to 8) (size 9 to 14) (size 15 to 20)
#    0.000    0.857    4.286    3.429    2.000    4.571 
#    2.571    2.857    0.000    0.000    0.000    0.000 
#    0.000    0.000    0.000    0.000    0.000    0.000 
#
# Total GULP energy -173465.819131 kJ/mol
# GULP energy per Si atom -12390.415652 kJ/mol
# Density = 2.157631 g / cm^3
# Si number density = 21.625536 Si / 1000 Ang^3
#
#
#
# Elastic Constant Matrix: (Units=GPa)
#
#
# Indices 1 2 3 4 5 6 
#
# 1 110.5398 43.5170 62.7029 8.0074 -15.9155 6.0527
# 2 43.5170 117.3969 44.7206 16.6714 -13.9365 3.5373
# 3 62.7029 44.7206 133.8046 14.6823 -18.1205 -0.2224
# 4 8.0074 16.6714 14.6823 43.5329 3.5507 4.8922
# 5 -15.9155 -13.9365 -18.1205 3.5507 51.7972 4.8164
# 6 6.0527 3.5373 -0.2224 4.8922 4.8164 30.4044
#
#
#
# Elastic Compliance Matrix: (Units=1/GPa)
#
#
# Indices 1 2 3 4 5 6 
#
# 1 0.013463 -0.002788 -0.005195 0.000507 0.001791 -0.002759
# 2 -0.002788 0.010886 -0.001754 -0.003150 0.001720 -0.000490
# 3 -0.005195 -0.001754 0.011005 -0.002391 0.001814 0.001416
# 4 0.000507 -0.003150 -0.002391 0.025513 -0.002962 -0.003388
# 5 0.001791 0.001720 0.001814 -0.002962 0.021479 -0.003469
# 6 -0.002759 -0.000490 0.001416 -0.003388 -0.003469 0.034601
#
#
# Mechanical properties :
#
#
# Convention : Reuss Voigt Hill
#
# Bulk Modulus (GPa) = 62.97298 73.73579 68.35439
# Shear Modulus (GPa) = 35.28219 39.20028 37.24123
#
# Velocity S-wave (km/s) = 4.04357 4.26218 4.15432
# Velocity P-wave (km/s) = 7.14028 7.64148 7.39513
#
# Compressibility (1/GPa) = 0.01587983
#
# Stress axis : x y z
#
# Youngs Moduli (GPa) = 74.27759 91.86103 90.87049
#
# Poissons Ratio (x) = 0.25610 0.47206
# Poissons Ratio (y) = 0.20708 0.15940
# Poissons Ratio (z) = 0.38587 0.16114
#
# Static dielectric constant tensor:
#      x y z
#    x 4.142480 0.013600 -0.072400 
#    y 0.013600 3.901950 0.459890 
#    z -0.072400 0.459890 4.570730 
# 
# 
# High freq. dielectric constant tensor:
#      x y z
#    x 1.838090 0.004490 -0.004410 
#    y 0.004490 1.845090 0.020840 
#    z -0.004410 0.020840 1.863080 
# 
# From -- ./inp_files/157327.got.cif
#   From: 2010.06.25/outbox.cif.g09.slc.cpg/sg2_79_cif.got.tgz:157327.got - 2010.06.27 13:26:56.
