data_PCOD8020614
_publ_section_title
;
Structure prediction by ZEFSAII (Michael W. Deem and Ramdas Pophale) SiO2 
 PCOD8020614
Probable space group: P -1
;
_chemical_formula_sum "Si O2"
_cell_formula_units_Z 16
_cell_length_a 14.689531
_cell_length_b 8.897364
_cell_length_c 11.617416
_cell_angle_alpha 84.836536
_cell_angle_beta 147.412182
_cell_angle_gamma 85.699797
_cell_volume 781.612445
_symmetry_space_group_name_H-M "P -1"
_symmetry_group_IT_number 2
_symmetry_cell_setting 'triclinic'
loop_
_space_group_symop_operation_xyz
x,y,z
-x,-y,-z
loop_
_atom_site_type_symbol
_atom_site_label
_atom_site_fract_x
_atom_site_fract_y
_atom_site_fract_z
Si Si1 0.720465 0.177745 0.007757
Si Si2 0.946254 0.558665 0.066398
Si Si3 0.677016 0.393637 0.745184
Si Si4 0.866005 0.309542 0.356056
Si Si5 0.930161 0.167125 0.852743
Si Si6 0.836695 0.589224 0.469174
Si Si7 0.894588 0.046700 0.586309
Si Si8 0.422137 0.091575 0.798296
O O1 0.631913 0.279892 0.798236
O O2 0.593592 0.065171 0.900476
O O3 0.720875 0.289571 0.111220
O O4 0.920140 0.085087 0.193025
O O5 0.915881 0.748214 0.018709
O O6 0.087406 0.478710 0.320989
O O7 0.769826 0.508683 0.904867
O O8 0.000000 0.500000 0.000000
O O9 0.500000 0.500000 0.500000
O O10 0.788162 0.291192 0.768220
O O11 0.792348 0.455332 0.352801
O O12 0.919493 0.148937 0.496989
O O13 0.034775 0.328626 0.466408
O O14 0.844192 0.147678 0.641083
O O15 0.000000 0.000000 0.000000
O O16 0.652048 0.720733 0.277365
O O17 0.734438 0.970784 0.412006
O O18 0.500000 0.000000 0.000000
#
# Coordination Sequence:
#
# PCOD8020614 Si02
#       8
#     2   2   2   2   2   2   2   2
#     4  12  24  43  71  96 135 181 218 279 339 404
#     4  10  22  42  70  94 125 182 223 266 341 404
#     4  11  25  45  66 100 135 172 229 285 333 395
#     4  11  22  41  70  97 132 175 223 278 333 395
#     4  11  24  45  71  95 132 182 224 276 343 401
#     4  11  23  42  68 101 130 176 230 274 333 408
#     4  12  23  47  68  97 138 175 224 274 338 410
#     4  12  26  42  66 100 136 178 221 269 342 402
#
# _framework density 20.470503999999998
#
# number of rings (size 3 to 8) (size 9 to 14) (size 15 to 20)
#    0.000    0.750    6.250    1.125    5.250    0.500 
#    4.500    1.250    0.000    0.000    0.000    0.000 
#    0.000    0.000    0.000    0.000    0.000    0.000 
#
# Total GULP energy -198310.523424 kJ/mol
# GULP energy per Si atom -12394.407714 kJ/mol
# Density = 2.042391 g / cm^3
# Si number density = 20.470504 Si / 1000 Ang^3
#
#
#
# Elastic Constant Matrix: (Units=GPa)
#
#
# Indices 1 2 3 4 5 6 
#
# 1 113.0162 48.5270 57.3566 8.6668 -15.7642 16.0502
# 2 48.5270 124.3689 61.2196 5.0614 -1.0087 8.0591
# 3 57.3566 61.2196 124.5575 -6.2534 -3.7774 4.1148
# 4 8.6668 5.0614 -6.2534 30.1482 8.2508 -4.5958
# 5 -15.7642 -1.0087 -3.7774 8.2508 38.6894 5.3487
# 6 16.0502 8.0591 4.1148 -4.5958 5.3487 41.6245
#
#
#
# Elastic Compliance Matrix: (Units=1/GPa)
#
#
# Indices 1 2 3 4 5 6 
#
# 1 0.015847 -0.002268 -0.006130 -0.008918 0.008692 -0.007167
# 2 -0.002268 0.011362 -0.004632 -0.002254 -0.000453 -0.001058
# 3 -0.006130 -0.004632 0.013263 0.006627 -0.003164 0.003088
# 4 -0.008918 -0.002254 0.006627 0.042647 -0.013475 0.009660
# 5 0.008692 -0.000453 -0.003164 -0.013475 0.033144 -0.008698
# 6 -0.007167 -0.001058 0.003088 0.009660 -0.008698 0.028872
#
#
# Mechanical properties :
#
#
# Convention : Reuss Voigt Hill
#
# Bulk Modulus (GPa) = 69.38715 77.34989 73.36852
# Shear Modulus (GPa) = 28.40931 35.08172 31.74552
#
# Velocity S-wave (km/s) = 3.72938 4.14426 3.94228
# Velocity P-wave (km/s) = 7.24666 7.79538 7.52602
#
# Compressibility (1/GPa) = 0.01441189
#
# Stress axis : x y z
#
# Youngs Moduli (GPa) = 63.10211 88.01079 75.40007
#
# Poissons Ratio (x) = 0.19962 0.46220
# Poissons Ratio (y) = 0.14312 0.34925
# Poissons Ratio (z) = 0.38682 0.40767
#
# Static dielectric constant tensor:
#      x y z
#    x 4.184870 0.612470 0.152970 
#    y 0.612470 4.525540 0.599700 
#    z 0.152970 0.599700 3.912990 
# 
# 
# High freq. dielectric constant tensor:
#      x y z
#    x 1.812600 0.017990 -0.018440 
#    y 0.017990 1.811910 0.010710 
#    z -0.018440 0.010710 1.790020 
# 
# From -- ./inp_files/350161.got.cif
#   From: 2010.06.25/outbox.cif.g09.slc.cpg/sg2_176_cif.got.tgz:350161.got - 2010.06.27 13:26:56.
