data_PCOD8020914
_publ_section_title
;
Structure prediction by ZEFSAII (Michael W. Deem and Ramdas Pophale) SiO2 
 PCOD8020914
Probable space group: P -1
;
_chemical_formula_sum "Si O2"
_cell_formula_units_Z 16
_cell_length_a 21.981502
_cell_length_b 27.205874
_cell_length_c 11.925818
_cell_angle_alpha 31.957219
_cell_angle_beta 32.427203
_cell_angle_gamma 11.316068
_cell_volume 735.639162
_symmetry_space_group_name_H-M "P -1"
_symmetry_group_IT_number 2
_symmetry_cell_setting 'triclinic'
loop_
_space_group_symop_operation_xyz
x,y,z
-x,-y,-z
loop_
_atom_site_type_symbol
_atom_site_label
_atom_site_fract_x
_atom_site_fract_y
_atom_site_fract_z
Si Si1 0.184850 0.801020 0.687087
Si Si2 0.757704 0.461368 0.419898
Si Si3 0.322689 0.149365 0.161570
Si Si4 0.184861 0.967038 0.680782
Si Si5 0.421636 0.673663 0.084664
Si Si6 0.639441 0.751226 0.296962
Si Si7 0.455575 0.751060 0.099520
Si Si8 0.348199 0.189259 0.289954
O O1 0.458605 0.662711 0.574565
O O2 0.350573 0.585696 0.791016
O O3 0.000000 0.000000 0.500000
O O4 0.923611 0.967703 0.858787
O O5 0.632006 0.563579 0.289253
O O6 0.948947 0.409598 0.251459
O O7 0.001023 0.193640 0.580826
O O8 0.448822 0.086968 0.205024
O O9 0.520388 0.912617 0.265613
O O10 0.366377 0.201032 0.909367
O O11 0.926903 0.093925 0.785714
O O12 0.419425 0.827591 0.490720
O O13 0.394412 0.758250 0.853667
O O14 0.574605 0.614646 0.062826
O O15 0.983830 0.458469 0.359359
O O16 0.536033 0.797169 0.886614
O O17 0.500000 0.000000 0.500000
#
# Coordination Sequence:
#
# PCOD8020914 Si02
#       8
#     2   2   2   2   2   2   2   2
#     4   9  21  40  64  98 126 166 211 256 324 383
#     4   9  19  41  64  92 124 164 218 264 312 381
#     4  10  22  45  67  91 129 167 225 270 310 391
#     4   9  21  41  67  97 122 170 218 259 329 377
#     4  10  22  43  65  93 138 162 209 279 313 388
#     4  10  22  43  69  93 120 178 218 263 328 377
#     4  11  24  41  62  96 129 172 214 256 330 382
#     4  12  28  42  62  99 134 171 213 270 326 381
#
# _framework density 21.749794000000001
#
# number of rings (size 3 to 8) (size 9 to 14) (size 15 to 20)
#    0.000    2.000    1.250    0.375    5.250    7.000 
#    4.500    5.625    0.000    0.000    0.000    0.000 
#    0.000    0.000    0.000    0.000    0.000    0.000 
#
# Total GULP energy -198279.766453 kJ/mol
# GULP energy per Si atom -12392.485403 kJ/mol
# Density = 2.170029 g / cm^3
# Si number density = 21.749794 Si / 1000 Ang^3
#
#
#
# Elastic Constant Matrix: (Units=GPa)
#
#
# Indices 1 2 3 4 5 6 
#
# 1 111.1241 19.1317 42.2867 -9.8753 -1.4571 2.6141
# 2 19.1317 112.2455 60.8588 -6.0401 6.2325 2.9221
# 3 42.2867 60.8588 134.0035 -4.2742 -14.8594 -7.2071
# 4 -9.8753 -6.0401 -4.2742 50.5077 -7.6724 -5.7063
# 5 -1.4571 6.2325 -14.8594 -7.6724 10.6417 -6.3323
# 6 2.6141 2.9221 -7.2071 -5.7063 -6.3323 17.6163
#
#
#
# Elastic Compliance Matrix: (Units=1/GPa)
#
#
# Indices 1 2 3 4 5 6 
#
# 1 0.012968 0.010830 -0.017546 -0.010265 -0.057159 -0.034770
# 2 0.010830 0.057092 -0.065494 -0.049507 -0.243194 -0.141326
# 3 -0.017546 -0.065494 0.090817 0.066763 0.322974 0.188344
# 4 -0.010265 -0.049507 0.066763 0.076650 0.270824 0.159228
# 5 -0.057159 -0.243194 0.322974 0.270824 1.316226 0.741810
# 6 -0.034770 -0.141326 0.188344 0.159228 0.741810 0.480650
#
#
# Mechanical properties :
#
#
# Convention : Reuss Voigt Hill
#
# Bulk Modulus (GPa) = 60.76637 66.88083 63.82360
# Shear Modulus (GPa) = 2.28905 31.42619 16.85762
#
# Velocity S-wave (km/s) = 1.02700 3.80530 2.78703
# Velocity P-wave (km/s) = 5.42271 7.07983 6.30594
#
# Compressibility (1/GPa) = 0.01645647
#
# Stress axis : x y z
#
# Youngs Moduli (GPa) = 77.11501 17.51561 11.01115
#
# Poissons Ratio (x) = -0.18969 0.19320
# Poissons Ratio (y) = -0.83513 0.72116
# Poissons Ratio (z) = 1.35307 1.14716
#
# Static dielectric constant tensor:
#      x y z
#    x 3.617110 -0.161250 -0.295720 
#    y -0.161250 4.424130 0.324930 
#    z -0.295720 0.324930 4.158730 
# 
# 
# High freq. dielectric constant tensor:
#      x y z
#    x 1.831410 -0.002410 -0.019000 
#    y -0.002410 1.865990 0.004300 
#    z -0.019000 0.004300 1.867410 
# 
# From -- ./inp_files/475773.got.cif
#   From: 2010.06.25/outbox.cif.g09.slc.cpg/sg2_238_cif.got.tgz:475773.got - 2010.06.27 13:26:56.
