data_PCOD8020069
_publ_section_title
;
Structure prediction by ZEFSAII (Michael W. Deem and Ramdas Pophale) SiO2 
 PCOD8020069
Probable space group: P -1
;
_chemical_formula_sum "Si O2"
_cell_formula_units_Z 16
_cell_length_a 13.665496
_cell_length_b 14.131263
_cell_length_c 9.449648
_cell_angle_alpha 72.696421
_cell_angle_beta 84.784232
_cell_angle_gamma 147.572744
_cell_volume 695.267201
_symmetry_space_group_name_H-M "P -1"
_symmetry_group_IT_number 2
_symmetry_cell_setting 'triclinic'
loop_
_space_group_symop_operation_xyz
x,y,z
-x,-y,-z
loop_
_atom_site_type_symbol
_atom_site_label
_atom_site_fract_x
_atom_site_fract_y
_atom_site_fract_z
Si Si1 0.316804 0.419557 0.588245
Si Si2 0.979858 0.248850 0.103351
Si Si3 0.474390 0.232635 0.798479
Si Si4 0.255493 0.152581 0.101280
Si Si5 0.787321 0.383162 0.280384
Si Si6 0.772820 0.140552 0.452935
Si Si7 0.107896 0.491088 0.482016
Si Si8 0.596423 0.493449 0.148244
O O1 0.500000 0.500000 0.500000
O O2 0.344019 0.523903 0.413921
O O3 0.394437 0.537361 0.678167
O O4 0.035128 0.124468 0.754403
O O5 0.892266 0.180422 0.304446
O O6 0.774355 0.005106 0.148416
O O7 0.037928 0.409525 0.954123
O O8 0.207880 0.386496 0.022122
O O9 0.639291 0.283516 0.746192
O O10 0.402600 0.199957 0.980441
O O11 0.335617 0.230584 0.221847
O O12 0.340549 0.332331 0.934707
O O13 0.834739 0.310948 0.326192
O O14 0.836152 0.489810 0.372452
O O15 0.511638 0.145347 0.369973
O O16 0.897045 0.230501 0.548697
O O17 0.000000 0.500000 0.500000
#
# Coordination Sequence:
#
# PCOD8020069 Si02
#       8
#     2   2   2   2   2   2   2   2
#     4  12  24  44  68  95 131 175 209 267 328 375
#     4  12  23  41  68  95 129 171 218 264 325 382
#     4  12  24  43  68  94 134 174 216 266 324 385
#     4  11  25  46  65  97 134 167 219 268 317 391
#     4  10  22  43  64  92 128 168 212 269 321 383
#     4  10  22  42  65  91 128 167 215 266 324 380
#     4  10  22  43  65  93 130 168 213 270 322 378
#     4  11  24  44  67  97 130 169 218 267 319 386
#
# _framework density 23.012733999999998
#
# number of rings (size 3 to 8) (size 9 to 14) (size 15 to 20)
#    0.000    1.000    3.750    3.000    0.000    1.500 
#    4.500    1.250    0.000    0.000    0.000    0.000 
#    0.000    0.000    0.000    0.000    0.000    0.000 
#
# Total GULP energy -198366.345772 kJ/mol
# GULP energy per Si atom -12397.896611 kJ/mol
# Density = 2.296036 g / cm^3
# Si number density = 23.012734 Si / 1000 Ang^3
#
#
#
# Elastic Constant Matrix: (Units=GPa)
#
#
# Indices 1 2 3 4 5 6 
#
# 1 73.0684 13.1642 17.8783 -4.5521 -28.5022 5.3707
# 2 13.1642 166.6117 35.5173 7.5569 1.0335 13.2255
# 3 17.8783 35.5173 67.2791 -3.7597 -14.2857 -5.4959
# 4 -4.5521 7.5569 -3.7597 24.9608 1.8320 -4.9551
# 5 -28.5022 1.0335 -14.2857 1.8320 33.1150 2.1293
# 6 5.3707 13.2255 -5.4959 -4.9551 2.1293 33.3387
#
#
#
# Elastic Compliance Matrix: (Units=1/GPa)
#
#
# Indices 1 2 3 4 5 6 
#
# 1 0.021880 -0.001297 -0.001448 0.001995 0.018403 -0.004128
# 2 -0.001297 0.007657 -0.004876 -0.003867 -0.002987 -0.004016
# 3 -0.001448 -0.004876 0.020030 0.004864 0.006909 0.005751
# 4 0.001995 -0.003867 0.004864 0.043944 0.000959 0.008485
# 5 0.018403 -0.002987 0.006909 0.000959 0.049293 -0.003647
# 6 -0.004128 -0.004016 0.005751 0.008485 -0.003647 0.034695
#
#
# Mechanical properties :
#
#
# Convention : Reuss Voigt Hill
#
# Bulk Modulus (GPa) = 29.13198 48.89766 39.01482
# Shear Modulus (GPa) = 24.48800 34.30952 29.39876
#
# Velocity S-wave (km/s) = 3.26560 3.86540 3.57809
# Velocity P-wave (km/s) = 5.18705 6.41996 5.83615
#
# Compressibility (1/GPa) = 0.03432654
#
# Stress axis : x y z
#
# Youngs Moduli (GPa) = 45.70369 130.60740 49.92391
#
# Poissons Ratio (x) = 0.16942 0.07227
# Poissons Ratio (y) = 0.05929 0.24341
# Poissons Ratio (z) = 0.06616 0.63679
#
# Static dielectric constant tensor:
#      x y z
#    x 4.351370 0.067540 -0.240670 
#    y 0.067540 4.687830 0.159500 
#    z -0.240670 0.159500 4.021510 
# 
# 
# High freq. dielectric constant tensor:
#      x y z
#    x 1.914980 0.002390 -0.020980 
#    y 0.002390 1.931300 0.006560 
#    z -0.020980 0.006560 1.890250 
# 
# From -- ./inp_files/315088.got.cif
#   From: 2010.06.25/outbox.cif.g09.slc.cpg/sg2_158_cif.got.tgz:315088.got - 2010.06.27 13:26:56.
