data_PCOD8020221
_publ_section_title
;
Structure prediction by ZEFSAII (Michael W. Deem and Ramdas Pophale) SiO2 
 PCOD8020221
Probable space group: P -1
;
_chemical_formula_sum "Si O2"
_cell_formula_units_Z 16
_cell_length_a 10.005597
_cell_length_b 6.810352
_cell_length_c 20.887349
_cell_angle_alpha 55.223546
_cell_angle_beta 118.621854
_cell_angle_gamma 137.272229
_cell_volume 788.619196
_symmetry_space_group_name_H-M "P -1"
_symmetry_group_IT_number 2
_symmetry_cell_setting 'triclinic'
loop_
_space_group_symop_operation_xyz
x,y,z
-x,-y,-z
loop_
_atom_site_type_symbol
_atom_site_label
_atom_site_fract_x
_atom_site_fract_y
_atom_site_fract_z
Si Si1 0.013448 0.234634 0.044335
Si Si2 0.700846 0.163740 0.779718
Si Si3 0.309858 0.234635 0.044336
Si Si4 0.672463 0.207676 0.316993
Si Si5 0.404805 0.978624 0.415493
Si Si6 0.830803 0.792327 0.683007
Si Si7 0.051125 0.269730 0.416260
Si Si8 0.977669 0.836258 0.220281
O O1 0.231870 0.376470 0.043635
O O2 0.966158 0.059830 0.132978
O O3 0.000000 0.500000 0.000000
O O4 0.856537 0.000004 0.999998
O O5 0.781180 0.494728 0.763876
O O6 0.858200 0.186307 0.765047
O O7 0.640366 0.940162 0.867021
O O8 0.512776 0.071071 0.714391
O O9 0.500000 0.500000 0.000000
O O10 0.758699 0.505269 0.236123
O O11 0.847717 0.202531 0.371819
O O12 0.586102 0.187046 0.369654
O O13 0.228686 0.617749 0.419810
O O14 0.500000 0.000000 0.500000
O O15 0.340248 0.187039 0.369656
O O16 0.901555 0.797473 0.628183
O O17 0.987078 0.071069 0.714392
O O18 0.000000 0.000000 0.500000
#
# Coordination Sequence:
#
# PCOD8020221 Si02
#       8
#     2   2   2   2   2   2   2   2
#     4  10  22  42  66  96 134 171 215 268 321 381
#     4  11  23  43  66  97 134 170 217 272 317 382
#     4  10  22  42  66  96 134 171 215 268 321 381
#     4  12  22  46  66  94 133 168 218 265 322 385
#     4  12  28  46  66  96 132 167 212 274 328 383
#     4  12  22  46  66  94 133 168 218 265 322 385
#     4  12  28  46  68  98 130 168 218 268 322 398
#     4  11  23  43  66  97 134 170 217 272 317 382
#
# _framework density 20.288626000000001
#
# number of rings (size 3 to 8) (size 9 to 14) (size 15 to 20)
#    0.000    0.750    5.000    2.250    3.500    2.500 
#    4.500    0.000    0.000    0.000    0.000    0.000 
#    0.000    0.000    0.000    0.000    0.000    0.000 
#
# Total GULP energy -198252.938471 kJ/mol
# GULP energy per Si atom -12390.808654 kJ/mol
# Density = 2.024245 g / cm^3
# Si number density = 20.288626 Si / 1000 Ang^3
#
#
#
# Elastic Constant Matrix: (Units=GPa)
#
#
# Indices 1 2 3 4 5 6 
#
# 1 135.3205 43.7601 69.1867 -19.4702 -1.8913 -2.4006
# 2 43.7601 62.4461 33.1151 -12.7440 -0.2546 -4.0573
# 3 69.1867 33.1151 144.4401 -17.1838 -1.5567 -2.7837
# 4 -19.4702 -12.7440 -17.1838 48.1374 0.5304 1.2868
# 5 -1.8913 -0.2546 -1.5567 0.5304 43.7553 -6.2637
# 6 -2.4006 -4.0573 -2.7837 1.2868 -6.2637 34.5860
#
#
#
# Elastic Compliance Matrix: (Units=1/GPa)
#
#
# Indices 1 2 3 4 5 6 
#
# 1 0.011504 -0.005584 -0.004024 0.001740 0.000272 -0.000196
# 2 -0.005584 0.021627 -0.001922 0.002730 0.000055 0.001903
# 3 -0.004024 -0.001922 0.009444 0.001227 0.000170 0.000241
# 4 0.001740 0.002730 0.001227 0.022649 -0.000188 -0.000337
# 5 0.000272 0.000055 0.000170 -0.000188 0.023490 0.004300
# 6 -0.000196 0.001903 0.000241 -0.000337 0.004300 0.029934
#
#
# Mechanical properties :
#
#
# Convention : Reuss Voigt Hill
#
# Bulk Modulus (GPa) = 51.24157 70.48119 60.86138
# Shear Modulus (GPa) = 33.73554 38.37204 36.05379
#
# Velocity S-wave (km/s) = 4.08214 4.35364 4.22007
# Velocity P-wave (km/s) = 6.89418 7.75157 7.33541
#
# Compressibility (1/GPa) = 0.01951541
#
# Stress axis : x y z
#
# Youngs Moduli (GPa) = 86.92876 46.23894 105.89144
#
# Poissons Ratio (x) = 0.25820 0.42609
# Poissons Ratio (y) = 0.48541 0.20348
# Poissons Ratio (z) = 0.34979 0.08885
#
# Static dielectric constant tensor:
#      x y z
#    x 2.615730 0.084120 0.028250 
#    y 0.084120 3.772300 -0.069770 
#    z 0.028250 -0.069770 4.050050 
# 
# 
# High freq. dielectric constant tensor:
#      x y z
#    x 1.798260 -0.000460 0.000560 
#    y -0.000460 1.791850 0.000800 
#    z 0.000560 0.000800 1.819700 
# 
# From -- ./inp_files/52638.got.cif
#   From: 2010.06.25/outbox.cif.g09.slc.cpg/sg2_27_cif.got.tgz:52638.got - 2010.06.27 13:26:56.
