data_PCOD8020217
_publ_section_title
;
Structure prediction by ZEFSAII (Michael W. Deem and Ramdas Pophale) SiO2 
 PCOD8020217
Probable space group: P -1
;
_chemical_formula_sum "Si O2"
_cell_formula_units_Z 16
_cell_length_a 11.671882
_cell_length_b 14.718366
_cell_length_c 8.109280
_cell_angle_alpha 112.449807
_cell_angle_beta 141.889956
_cell_angle_gamma 87.013273
_cell_volume 715.344477
_symmetry_space_group_name_H-M "P -1"
_symmetry_group_IT_number 2
_symmetry_cell_setting 'triclinic'
loop_
_space_group_symop_operation_xyz
x,y,z
-x,-y,-z
loop_
_atom_site_type_symbol
_atom_site_label
_atom_site_fract_x
_atom_site_fract_y
_atom_site_fract_z
Si Si1 0.524346 0.235477 0.561109
Si Si2 0.430736 0.552801 0.813168
Si Si3 0.447785 0.041385 0.141133
Si Si4 0.333075 0.395380 0.331856
Si Si5 0.135301 0.298119 0.734873
Si Si6 0.706685 0.966562 0.602371
Si Si7 0.972292 0.064033 0.262305
Si Si8 0.848883 0.375214 0.270862
O O1 0.559169 0.171925 0.396089
O O2 0.424831 0.314000 0.444585
O O3 0.377714 0.148016 0.471202
O O4 0.747904 0.311505 0.944426
O O5 0.269376 0.449766 0.452041
O O6 0.330956 0.630410 0.815406
O O7 0.500000 0.500000 0.000000
O O8 0.629694 0.628230 0.990096
O O9 0.514911 0.985006 0.328876
O O10 0.500000 0.000000 0.000000
O O11 0.203207 0.009955 0.856011
O O12 0.500000 0.500000 0.500000
O O13 0.129844 0.325708 0.942353
O O14 0.092626 0.175965 0.570152
O O15 0.969311 0.317127 0.455172
O O16 0.850104 0.972796 0.611034
O O17 0.851718 0.064732 0.956669
O O18 0.000000 0.500000 0.500000
#
# Coordination Sequence:
#
# PCOD8020217 Si02
#       8
#     2   2   2   2   2   2   2   2
#     4  11  22  44  73  94 137 192 221 275 354 397
#     4  11  21  42  64  91 133 174 224 278 336 398
#     4  11  25  45  66 101 143 171 222 287 340 407
#     4  10  23  43  63  98 139 174 219 280 340 400
#     4  11  23  40  64  94 134 168 220 282 335 393
#     4  10  22  43  70  95 132 176 229 279 329 411
#     4  10  22  42  66  96 130 172 228 271 333 407
#     4  12  22  38  68  97 124 173 232 272 323 408
#
# _framework density 22.366848000000001
#
# number of rings (size 3 to 8) (size 9 to 14) (size 15 to 20)
#    0.000    1.250    2.500    4.500    1.750    1.000 
#    9.000    0.000    0.000    0.000    0.000    0.000 
#    0.000    0.000    0.000    0.000    0.000    0.000 
#
# Total GULP energy -198236.242312 kJ/mol
# GULP energy per Si atom -12389.765144 kJ/mol
# Density = 2.231594 g / cm^3
# Si number density = 22.366848 Si / 1000 Ang^3
#
#
#
# Elastic Constant Matrix: (Units=GPa)
#
#
# Indices 1 2 3 4 5 6 
#
# 1 77.0738 0.0875 28.3324 24.6725 -8.9460 -17.7831
# 2 0.0875 74.5882 23.0651 13.4256 -0.1602 -1.8620
# 3 28.3324 23.0651 150.4880 29.0089 -27.7344 -8.4213
# 4 24.6725 13.4256 29.0089 32.2993 -17.0719 -7.4966
# 5 -8.9460 -0.1602 -27.7344 -17.0719 44.4598 1.5913
# 6 -17.7831 -1.8620 -8.4213 -7.4966 1.5913 34.3437
#
#
#
# Elastic Compliance Matrix: (Units=1/GPa)
#
#
# Indices 1 2 3 4 5 6 
#
# 1 0.019518 0.003282 -0.001461 -0.014944 -0.002954 0.006801
# 2 0.003282 0.015698 -0.001960 -0.009403 -0.004124 0.000209
# 3 -0.001461 -0.001960 0.008644 -0.003877 0.003594 0.000244
# 4 -0.014944 -0.009403 -0.003877 0.059625 0.017328 0.003013
# 5 -0.002954 -0.004124 0.003594 0.017328 0.030725 0.001487
# 6 0.006801 0.000209 0.000244 0.003013 0.001487 0.033299
#
#
# Mechanical properties :
#
#
# Convention : Reuss Voigt Hill
#
# Bulk Modulus (GPa) = 22.94454 45.01333 33.97894
# Shear Modulus (GPa) = 27.42543 38.93156 33.17850
#
# Velocity S-wave (km/s) = 3.50546 4.17657 3.85564
# Velocity P-wave (km/s) = 5.16381 6.58992 5.91996
#
# Compressibility (1/GPa) = 0.04358335
#
# Stress axis : x y z
#
# Youngs Moduli (GPa) = 51.23459 63.70245 115.69176
#
# Poissons Ratio (x) = -0.20908 0.16900
# Poissons Ratio (y) = -0.16816 0.22671
# Poissons Ratio (z) = 0.07484 0.12483
#
# Static dielectric constant tensor:
#      x y z
#    x 4.369450 -0.391670 -0.516520 
#    y -0.391670 4.182210 0.245320 
#    z -0.516520 0.245320 4.641370 
# 
# 
# High freq. dielectric constant tensor:
#      x y z
#    x 1.875370 -0.014760 -0.021650 
#    y -0.014760 1.868930 0.005590 
#    z -0.021650 0.005590 1.903080 
# 
# From -- ./inp_files/274192.got.cif
#   From: 2010.06.25/outbox.cif.g09.slc.cpg/sg2_138_cif.got.tgz:274192.got - 2010.06.27 13:26:56.
