data_PCOD8020192
_publ_section_title
;
Structure prediction by ZEFSAII (Michael W. Deem and Ramdas Pophale) SiO2 
 PCOD8020192
Probable space group: P -1
;
_chemical_formula_sum "Si O2"
_cell_formula_units_Z 16
_cell_length_a 11.772236
_cell_length_b 6.513874
_cell_length_c 23.800180
_cell_angle_alpha 127.195914
_cell_angle_beta 30.411693
_cell_angle_gamma 115.939537
_cell_volume 719.804664
_symmetry_space_group_name_H-M "P -1"
_symmetry_group_IT_number 2
_symmetry_cell_setting 'triclinic'
loop_
_space_group_symop_operation_xyz
x,y,z
-x,-y,-z
loop_
_atom_site_type_symbol
_atom_site_label
_atom_site_fract_x
_atom_site_fract_y
_atom_site_fract_z
Si Si1 0.782705 0.154436 0.973452
Si Si2 0.547337 0.007932 0.832980
Si Si3 0.470329 0.290277 0.803143
Si Si4 0.583385 0.017688 0.549127
Si Si5 0.280699 0.901033 0.750144
Si Si6 0.298414 0.724358 0.095986
Si Si7 0.249141 0.549735 0.386455
Si Si8 0.803258 0.667077 0.305650
O O1 0.662180 0.165988 0.965095
O O2 0.683826 0.958440 0.025087
O O3 0.715282 0.439469 0.078388
O O4 0.055708 0.052531 0.837660
O O5 0.595728 0.741235 0.732132
O O6 0.537548 0.246588 0.832677
O O7 0.740082 0.033358 0.802239
O O8 0.698762 0.303452 0.669969
O O9 0.328915 0.065493 0.811047
O O10 0.686622 0.275978 0.561078
O O11 0.350781 0.105265 0.627618
O O12 0.509795 0.885393 0.613970
O O13 0.765813 0.779949 0.403673
O O14 0.271732 0.605151 0.719988
O O15 0.069150 0.613371 0.168430
O O16 0.500000 0.500000 0.000000
O O17 0.000000 0.500000 0.500000
#
# Coordination Sequence:
#
# PCOD8020192 Si02
#       8
#     2   2   2   2   2   2   2   2
#     4  11  23  41  63  96 129 173 215 268 327 382
#     4  11  23  40  63  92 129 171 215 264 323 388
#     4  10  23  41  63  95 132 165 214 268 319 389
#     4  10  22  43  64  93 135 161 221 269 316 391
#     4  11  22  40  66  95 129 171 215 260 329 384
#     4  12  23  42  65  93 135 170 220 271 322 389
#     4  10  22  42  66  94 125 169 216 268 327 379
#     4  11  23  40  65  94 125 177 213 268 325 376
#
# _framework density 22.228252000000001
#
# number of rings (size 3 to 8) (size 9 to 14) (size 15 to 20)
#    0.000    1.250    2.500    3.375    0.000    1.000 
#    0.000    1.250    0.000    0.000    0.000    0.000 
#    0.000    0.000    0.000    0.000    0.000    0.000 
#
# Total GULP energy -198217.247834 kJ/mol
# GULP energy per Si atom -12388.577990 kJ/mol
# Density = 2.217766 g / cm^3
# Si number density = 22.228252 Si / 1000 Ang^3
#
#
#
# Elastic Constant Matrix: (Units=GPa)
#
#
# Indices 1 2 3 4 5 6 
#
# 1 87.5840 25.5327 24.8930 -10.7785 7.6814 -0.8893
# 2 25.5327 101.8430 35.3097 -13.4861 3.5314 9.5004
# 3 24.8930 35.3097 88.4220 -13.9686 1.0944 -4.6516
# 4 -10.7785 -13.4861 -13.9686 35.6731 6.4524 4.3422
# 5 7.6814 3.5314 1.0944 6.4524 30.9272 0.9318
# 6 -0.8893 9.5004 -4.6516 4.3422 0.9318 45.6809
#
#
#
# Elastic Compliance Matrix: (Units=1/GPa)
#
#
# Indices 1 2 3 4 5 6 
#
# 1 0.013382 -0.002012 -0.002440 0.002957 -0.003631 0.000224
# 2 -0.002012 0.012520 -0.004090 0.003172 -0.001346 -0.003334
# 3 -0.002440 -0.004090 0.014219 0.003069 -0.000129 0.001962
# 4 0.002957 0.003172 0.003069 0.033178 -0.008028 -0.003280
# 5 -0.003631 -0.001346 -0.000129 -0.008028 0.035062 0.000244
# 6 0.000224 -0.003334 0.001962 -0.003280 0.000244 0.023095
#
#
# Mechanical properties :
#
#
# Convention : Reuss Voigt Hill
#
# Bulk Modulus (GPa) = 43.41129 49.92442 46.66786
# Shear Modulus (GPa) = 32.00600 35.26382 33.63491
#
# Velocity S-wave (km/s) = 3.79869 3.98734 3.89416
# Velocity P-wave (km/s) = 6.22995 6.61114 6.42337
#
# Compressibility (1/GPa) = 0.02303548
#
# Stress axis : x y z
#
# Youngs Moduli (GPa) = 74.72499 79.87538 70.32657
#
# Poissons Ratio (x) = 0.16075 0.17160
# Poissons Ratio (y) = 0.15038 0.28766
# Poissons Ratio (z) = 0.18233 0.32672
#
# Static dielectric constant tensor:
#      x y z
#    x 4.078350 0.208310 0.368340 
#    y 0.208310 4.064580 -0.107630 
#    z 0.368340 -0.107630 4.026270 
# 
# 
# High freq. dielectric constant tensor:
#      x y z
#    x 1.869960 0.012380 0.023720 
#    y 0.012380 1.883250 -0.005270 
#    z 0.023720 -0.005270 1.870240 
# 
# From -- ./inp_files/84536.got.cif
#   From: 2010.06.25/outbox.cif.g09.slc.cpg/sg2_43_cif.got.tgz:84536.got - 2010.06.27 13:26:56.
