data_PCOD8020210
_publ_section_title
;
Structure prediction by ZEFSAII (Michael W. Deem and Ramdas Pophale) SiO2 
 PCOD8020210
Probable space group: P -1
;
_chemical_formula_sum "Si O2"
_cell_formula_units_Z 16
_cell_length_a 11.567934
_cell_length_b 9.061988
_cell_length_c 16.801434
_cell_angle_alpha 59.080143
_cell_angle_beta 140.837972
_cell_angle_gamma 91.935760
_cell_volume 705.731970
_symmetry_space_group_name_H-M "P -1"
_symmetry_group_IT_number 2
_symmetry_cell_setting 'triclinic'
loop_
_space_group_symop_operation_xyz
x,y,z
-x,-y,-z
loop_
_atom_site_type_symbol
_atom_site_label
_atom_site_fract_x
_atom_site_fract_y
_atom_site_fract_z
Si Si1 0.776507 0.308809 0.027832
Si Si2 0.146503 0.230099 0.549457
Si Si3 0.381677 0.869430 0.131941
Si Si4 0.001683 0.638382 0.287589
Si Si5 0.948685 0.128536 0.611264
Si Si6 0.291814 0.096524 0.298025
Si Si7 0.545220 0.185441 0.297254
Si Si8 0.519361 0.299723 0.597434
O O1 0.015782 0.265266 0.138125
O O2 0.650471 0.276394 0.899729
O O3 0.832285 0.142391 0.175033
O O4 0.585274 0.572819 0.885090
O O5 0.287788 0.034067 0.610878
O O6 0.928235 0.499442 0.326463
O O7 0.017034 0.178514 0.552471
O O8 0.343623 0.224896 0.703604
O O9 0.201160 0.143576 0.936618
O O10 0.330167 0.832892 0.203762
O O11 0.235352 0.421389 0.421747
O O12 0.096074 0.711091 0.385221
O O13 0.706784 0.165425 0.460161
O O14 0.327433 0.210400 0.213839
O O15 0.500000 0.000000 0.500000
O O16 0.336600 0.880634 0.346599
O O17 0.500000 0.500000 0.500000
#
# Coordination Sequence:
#
# PCOD8020210 Si02
#       8
#     2   2   2   2   2   2   2   2
#     4  11  26  42  67  98 130 180 217 273 329 392
#     4  11  24  43  68 100 130 177 220 277 326 386
#     4  10  23  43  64  98 132 166 227 268 326 390
#     4  10  22  42  66  95 130 173 217 274 326 384
#     4  11  24  44  69  97 134 174 225 266 333 390
#     4  12  25  45  67  95 134 176 217 267 331 398
#     4  12  24  45  65  97 137 172 223 268 330 394
#     4  11  23  42  66  98 131 170 218 272 327 387
#
# _framework density 22.671496000000001
#
# number of rings (size 3 to 8) (size 9 to 14) (size 15 to 20)
#    0.000    1.000    3.750    4.125    1.750    7.500 
#    0.000    0.000    0.000    0.000    0.000    0.000 
#    0.000    0.000    0.000    0.000    0.000    0.000 
#
# Total GULP energy -198286.057129 kJ/mol
# GULP energy per Si atom -12392.878571 kJ/mol
# Density = 2.261989 g / cm^3
# Si number density = 22.671496 Si / 1000 Ang^3
#
#
#
# Elastic Constant Matrix: (Units=GPa)
#
#
# Indices 1 2 3 4 5 6 
#
# 1 76.7597 25.5161 20.4208 -5.8853 -25.1153 12.4094
# 2 25.5161 106.4080 51.4247 -19.8043 -12.6345 15.1998
# 3 20.4208 51.4247 118.7787 -29.1048 -28.9251 5.8780
# 4 -5.8853 -19.8043 -29.1048 43.1863 11.2829 0.8172
# 5 -25.1153 -12.6345 -28.9251 11.2829 38.2325 -6.0917
# 6 12.4094 15.1998 5.8780 0.8172 -6.0917 23.9486
#
#
#
# Elastic Compliance Matrix: (Units=1/GPa)
#
#
# Indices 1 2 3 4 5 6 
#
# 1 0.018122 -0.002943 0.000829 -0.001135 0.011120 -0.004859
# 2 -0.002943 0.013812 -0.005087 0.003516 -0.003365 -0.006969
# 3 0.000829 -0.005087 0.013508 0.004801 0.007877 0.001324
# 4 -0.001135 0.003516 0.004801 0.029371 -0.005449 -0.005210
# 5 0.011120 -0.003365 0.007877 -0.005449 0.040710 0.004982
# 6 -0.004859 -0.006969 0.001324 -0.005210 0.004982 0.049817
#
#
# Mechanical properties :
#
#
# Convention : Reuss Voigt Hill
#
# Bulk Modulus (GPa) = 32.21660 55.18552 43.70106
# Shear Modulus (GPa) = 26.30345 34.71248 30.50797
#
# Velocity S-wave (km/s) = 3.40987 3.91718 3.67229
# Velocity P-wave (km/s) = 5.45380 6.69726 6.10726
#
# Compressibility (1/GPa) = 0.03103990
#
# Stress axis : x y z
#
# Youngs Moduli (GPa) = 55.18061 72.39974 74.02991
#
# Poissons Ratio (x) = 0.21307 -0.06136
# Poissons Ratio (y) = 0.16240 0.37661
# Poissons Ratio (z) = -0.04574 0.36831
#
# Static dielectric constant tensor:
#      x y z
#    x 3.545220 0.431280 -0.075260 
#    y 0.431280 4.360040 -0.184350 
#    z -0.075260 -0.184350 4.232230 
# 
# 
# High freq. dielectric constant tensor:
#      x y z
#    x 1.886690 0.014150 -0.016310 
#    y 0.014150 1.904030 -0.019270 
#    z -0.016310 -0.019270 1.899710 
# 
# From -- ./inp_files/566564.got.cif
#   From: 2010.06.25/outbox.cif.g09.slc.cpg/sg2_284_cif.got.tgz:566564.got - 2010.06.27 13:26:56.
