data_PCOD8020435
_publ_section_title
;
Structure prediction by ZEFSAII (Michael W. Deem and Ramdas Pophale) SiO2 
 PCOD8020435
Probable space group: P -1
;
_chemical_formula_sum "Si O2"
_cell_formula_units_Z 16
_cell_length_a 8.993114
_cell_length_b 8.640232
_cell_length_c 11.731977
_cell_angle_alpha 117.130122
_cell_angle_beta 60.955755
_cell_angle_gamma 98.129733
_cell_volume 705.521911
_symmetry_space_group_name_H-M "P -1"
_symmetry_group_IT_number 2
_symmetry_cell_setting 'triclinic'
loop_
_space_group_symop_operation_xyz
x,y,z
-x,-y,-z
loop_
_atom_site_type_symbol
_atom_site_label
_atom_site_fract_x
_atom_site_fract_y
_atom_site_fract_z
Si Si1 0.337011 0.058244 0.403112
Si Si2 0.883047 0.792848 0.670779
Si Si3 0.106451 0.571402 0.880395
Si Si4 0.233970 0.727910 0.417544
Si Si5 0.806461 0.560598 0.821215
Si Si6 0.457548 0.164664 0.921663
Si Si7 0.248525 0.900209 0.039123
Si Si8 0.549375 0.615883 0.413574
O O1 0.227509 0.176799 0.392444
O O2 0.432598 0.186849 0.488281
O O3 0.223148 0.938928 0.481042
O O4 0.472286 0.907109 0.249223
O O5 0.787791 0.664618 0.743351
O O6 0.068648 0.697266 0.543275
O O7 0.890049 0.978303 0.794247
O O8 0.281437 0.457574 0.742954
O O9 0.990128 0.576393 0.813194
O O10 0.148374 0.764709 0.961345
O O11 0.000000 0.500000 0.000000
O O12 0.220517 0.639784 0.266655
O O13 0.396040 0.629431 0.386230
O O14 0.657356 0.649632 0.989756
O O15 0.609495 0.196876 0.962987
O O16 0.341595 0.017245 0.956423
O O17 0.500000 0.500000 0.500000
#
# Coordination Sequence:
#
# PCOD8020435 Si02
#       8
#     2   2   2   2   2   2   2   2
#     4  11  24  40  69  98 132 166 217 282 334 382
#     4  10  22  42  68  94 130 174 218 265 331 406
#     4  12  28  41  67  99 142 171 221 283 338 384
#     4  12  25  40  69  97 133 170 225 274 329 393
#     4  11  24  42  66  96 131 180 219 266 331 406
#     4   9  20  40  69  93 127 171 225 263 326 397
#     4   9  20  41  65  95 129 174 216 270 326 396
#     4  12  26  47  69  95 135 180 225 272 329 404
#
# _framework density 22.678246000000001
#
# number of rings (size 3 to 8) (size 9 to 14) (size 15 to 20)
#    0.000    1.250    0.000    5.625    7.000    3.500 
#    0.000    0.000    0.000    0.000    0.000    0.000 
#    0.000    0.000    0.000    0.000    0.000    0.000 
#
# Total GULP energy -198415.142426 kJ/mol
# GULP energy per Si atom -12400.946402 kJ/mol
# Density = 2.262663 g / cm^3
# Si number density = 22.678246 Si / 1000 Ang^3
#
#
#
# Elastic Constant Matrix: (Units=GPa)
#
#
# Indices 1 2 3 4 5 6 
#
# 1 126.4731 19.1501 47.7684 20.2797 0.5833 7.1789
# 2 19.1501 78.9271 15.2625 7.4230 10.4779 14.6230
# 3 47.7684 15.2625 116.7882 15.2399 -15.6502 12.7536
# 4 20.2797 7.4230 15.2399 42.9788 5.2323 10.9975
# 5 0.5833 10.4779 -15.6502 5.2323 45.8038 13.2753
# 6 7.1789 14.6230 12.7536 10.9975 13.2753 34.7705
#
#
#
# Elastic Compliance Matrix: (Units=1/GPa)
#
#
# Indices 1 2 3 4 5 6 
#
# 1 0.010021 -0.001505 -0.003766 -0.003365 -0.001100 0.001430
# 2 -0.001505 0.014381 -0.001100 0.000042 -0.002363 -0.004445
# 3 -0.003766 -0.001100 0.011786 -0.001703 0.005913 -0.004801
# 4 -0.003365 0.000042 -0.001703 0.027376 -0.001736 -0.006694
# 5 -0.001100 -0.002363 0.005913 -0.001736 0.027797 -0.011012
# 6 0.001430 -0.004445 -0.004801 -0.006694 -0.011012 0.038417
#
#
# Mechanical properties :
#
#
# Convention : Reuss Voigt Hill
#
# Bulk Modulus (GPa) = 42.65642 54.06116 48.35879
# Shear Modulus (GPa) = 33.25881 40.71111 36.98496
#
# Velocity S-wave (km/s) = 3.83371 4.24153 4.04277
# Velocity P-wave (km/s) = 6.20054 6.91936 6.56979
#
# Compressibility (1/GPa) = 0.02344313
#
# Stress axis : x y z
#
# Youngs Moduli (GPa) = 99.79263 69.53505 84.84817
#
# Poissons Ratio (x) = 0.10468 0.31958
# Poissons Ratio (y) = 0.15023 0.09337
# Poissons Ratio (z) = 0.37587 0.07652
#
# Static dielectric constant tensor:
#      x y z
#    x 3.969280 0.086430 -0.062810 
#    y 0.086430 4.013150 0.106280 
#    z -0.062810 0.106280 4.348900 
# 
# 
# High freq. dielectric constant tensor:
#      x y z
#    x 1.890250 0.005900 -0.004440 
#    y 0.005900 1.895800 0.007020 
#    z -0.004440 0.007020 1.909070 
# 
# From -- ./inp_files/243648.got.cif
#   From: 2010.06.25/outbox.cif.g09.slc.cpg/sg2_122_cif.got.tgz:243648.got - 2010.06.27 13:26:56.
