data_PCOD8020804
_publ_section_title
;
Structure prediction by ZEFSAII (Michael W. Deem and Ramdas Pophale) SiO2 
 PCOD8020804
Probable space group: P -1
;
_chemical_formula_sum "Si O2"
_cell_formula_units_Z 16
_cell_length_a 11.780282
_cell_length_b 15.677677
_cell_length_c 9.166517
_cell_angle_alpha 122.105834
_cell_angle_beta 50.209286
_cell_angle_gamma 144.896508
_cell_volume 747.931608
_symmetry_space_group_name_H-M "P -1"
_symmetry_group_IT_number 2
_symmetry_cell_setting 'triclinic'
loop_
_space_group_symop_operation_xyz
x,y,z
-x,-y,-z
loop_
_atom_site_type_symbol
_atom_site_label
_atom_site_fract_x
_atom_site_fract_y
_atom_site_fract_z
Si Si1 0.866591 0.201020 0.494183
Si Si2 0.470211 0.804196 0.129987
Si Si3 0.756543 0.853954 0.519333
Si Si4 0.587342 0.861029 0.397505
Si Si5 0.090460 0.638116 0.644254
Si Si6 0.854750 0.498585 0.016686
Si Si7 0.881144 0.709642 0.350783
Si Si8 0.670554 0.998128 0.885441
O O1 0.731760 0.225226 0.694656
O O2 0.958676 0.284090 0.337364
O O3 0.063514 0.274947 0.509716
O O4 0.707984 0.027942 0.449436
O O5 0.576876 0.814124 0.198483
O O6 0.374634 0.666620 0.985676
O O7 0.656839 0.958128 0.029188
O O8 0.722334 0.846834 0.366816
O O9 0.706453 0.713821 0.481670
O O10 0.605994 0.865977 0.724534
O O11 0.000000 0.000000 0.500000
O O12 0.347620 0.755139 0.564677
O O13 0.000000 0.500000 0.500000
O O14 0.981001 0.591858 0.849992
O O15 0.785181 0.560711 0.225045
O O16 0.000000 0.500000 0.000000
O O17 0.093801 0.843165 0.202769
O O18 0.500000 0.000000 0.000000
#
# Coordination Sequence:
#
# PCOD8020804 Si02
#       8
#     2   2   2   2   2   2   2   2
#     4  11  20  38  62  94 130 159 209 262 325 368
#     4  11  22  37  57  99 121 161 209 273 310 365
#     4  10  22  43  63  91 132 167 209 259 321 379
#     4  11  22  38  66  89 133 161 210 264 322 376
#     4  11  22  38  61  98 129 167 205 263 326 369
#     4  12  23  39  62  91 133 162 212 261 310 380
#     4  11  23  40  64  93 130 166 208 261 320 378
#     4  11  20  37  67  96 119 159 216 262 313 367
#
# _framework density 21.392330000000001
#
# number of rings (size 3 to 8) (size 9 to 14) (size 15 to 20)
#    0.000    1.000    7.500    1.500    7.000    0.000 
#    0.000    5.000    0.000    0.000    0.000    0.000 
#    0.000    0.000    0.000    0.000    0.000    0.000 
#
# Total GULP energy -198341.335975 kJ/mol
# GULP energy per Si atom -12396.333498 kJ/mol
# Density = 2.134364 g / cm^3
# Si number density = 21.392330 Si / 1000 Ang^3
#
#
#
# Elastic Constant Matrix: (Units=GPa)
#
#
# Indices 1 2 3 4 5 6 
#
# 1 168.2479 41.6346 53.5106 12.8175 26.2006 -23.4077
# 2 41.6346 76.3889 25.6976 14.2262 10.5598 -9.8466
# 3 53.5106 25.6976 77.8018 16.8591 9.2455 -8.3159
# 4 12.8175 14.2262 16.8591 54.4198 -13.3735 6.5198
# 5 26.2006 10.5598 9.2455 -13.3735 45.4042 5.4678
# 6 -23.4077 -9.8466 -8.3159 6.5198 5.4678 31.2671
#
#
#
# Elastic Compliance Matrix: (Units=1/GPa)
#
#
# Indices 1 2 3 4 5 6 
#
# 1 0.009914 -0.001597 -0.004039 -0.003144 -0.006370 0.007615
# 2 -0.001597 0.017063 -0.002247 -0.005226 -0.004792 0.005508
# 3 -0.004039 -0.002247 0.018039 -0.004996 -0.002600 0.002563
# 4 -0.003144 -0.005226 -0.004996 0.026968 0.013595 -0.013329
# 5 -0.006370 -0.004792 -0.002600 0.013595 0.033229 -0.015615
# 6 0.007615 0.005508 0.002563 -0.013329 -0.015615 0.045609
#
#
# Mechanical properties :
#
#
# Convention : Reuss Voigt Hill
#
# Bulk Modulus (GPa) = 34.18862 62.68045 48.43454
# Shear Modulus (GPa) = 28.35463 39.65791 34.00627
#
# Velocity S-wave (km/s) = 3.64463 4.31029 3.99136
# Velocity P-wave (km/s) = 5.80754 7.35769 6.62809
#
# Compressibility (1/GPa) = 0.02924950
#
# Stress axis : x y z
#
# Youngs Moduli (GPa) = 100.86290 58.60707 55.43631
#
# Poissons Ratio (x) = 0.09361 0.22392
# Poissons Ratio (y) = 0.16110 0.12455
# Poissons Ratio (z) = 0.40741 0.13168
#
# Static dielectric constant tensor:
#      x y z
#    x 3.239180 -0.497740 1.475780 
#    y -0.497740 4.019320 0.252970 
#    z 1.475780 0.252970 2.555690 
# 
# 
# High freq. dielectric constant tensor:
#      x y z
#    x 1.834260 -0.019300 0.027210 
#    y -0.019300 1.841570 0.010040 
#    z 0.027210 0.010040 1.827810 
# 
# From -- ./inp_files/274041.got.cif
#   From: 2010.06.25/outbox.cif.g09.slc.cpg/sg2_138_cif.got.tgz:274041.got - 2010.06.27 13:26:56.
