data_PCOD8020727
_publ_section_title
;
Structure prediction by ZEFSAII (Michael W. Deem and Ramdas Pophale) SiO2 
 PCOD8020727
Probable space group: P -1
;
_chemical_formula_sum "Si O2"
_cell_formula_units_Z 14
_cell_length_a 14.270428
_cell_length_b 6.646921
_cell_length_c 13.858786
_cell_angle_alpha 101.997603
_cell_angle_beta 149.875117
_cell_angle_gamma 66.825049
_cell_volume 580.970990
_symmetry_space_group_name_H-M "P -1"
_symmetry_group_IT_number 2
_symmetry_cell_setting 'triclinic'
loop_
_space_group_symop_operation_xyz
x,y,z
-x,-y,-z
loop_
_atom_site_type_symbol
_atom_site_label
_atom_site_fract_x
_atom_site_fract_y
_atom_site_fract_z
Si Si1 0.312041 0.988038 0.022718
Si Si2 0.047548 0.467005 0.899307
Si Si3 0.381658 0.872351 0.607371
Si Si4 0.963575 0.664725 0.646136
Si Si5 0.395719 0.490579 0.707629
Si Si6 0.659361 0.598833 0.680456
Si Si7 0.818648 0.182797 0.292244
O O1 0.122971 0.191082 0.932062
O O2 0.252094 0.964106 0.857433
O O3 0.506444 0.052111 0.200326
O O4 0.389547 0.740510 0.119787
O O5 0.096452 0.546091 0.847454
O O6 0.799559 0.598096 0.713708
O O7 0.173687 0.536091 0.099347
O O8 0.387851 0.627919 0.616211
O O9 0.510994 0.845846 0.619767
O O10 0.149533 0.062599 0.405222
O O11 0.803866 0.560738 0.471676
O O12 0.110439 0.644511 0.684664
O O13 0.373002 0.654495 0.795293
O O14 0.500000 0.500000 0.500000
O O15 0.000000 0.000000 0.500000
#
# Coordination Sequence:
#
# PCOD8020727 Si02
#       7
#     2   2   2   2   2   2   2
#     4  10  25  42  66  96 138 178 227 278 336 403
#     4  10  23  46  67 101 140 175 225 286 342 407
#     4  10  23  45  68  98 135 177 222 283 341 400
#     4  11  24  43  69  97 141 176 224 281 338 402
#     4  11  23  45  66 100 137 180 229 278 334 399
#     4  10  22  42  73 100 133 177 227 281 345 411
#     4  12  24  42  67 100 135 184 228 275 339 400
#
# _framework density 24.097588999999999
#
# number of rings (size 3 to 8) (size 9 to 14) (size 15 to 20)
#    0.000    1.429    1.429    2.571    6.000    1.143 
#    0.000    4.286    0.000    0.000    0.000    0.000 
#    0.000    0.000    0.000    0.000    0.000    0.000 
#
# Total GULP energy -173487.840095 kJ/mol
# GULP energy per Si atom -12391.988578 kJ/mol
# Density = 2.404274 g / cm^3
# Si number density = 24.097589 Si / 1000 Ang^3
#
#
#
# Elastic Constant Matrix: (Units=GPa)
#
#
# Indices 1 2 3 4 5 6 
#
# 1 96.9554 41.5972 7.0939 -9.1194 3.5324 -11.8907
# 2 41.5972 118.2521 37.9855 -11.2384 -5.7694 -5.0489
# 3 7.0939 37.9855 78.1639 10.3405 -12.5148 -8.3547
# 4 -9.1194 -11.2384 10.3405 53.1931 -6.5696 2.0559
# 5 3.5324 -5.7694 -12.5148 -6.5696 35.8075 -3.0965
# 6 -11.8907 -5.0489 -8.3547 2.0559 -3.0965 33.6527
#
#
#
# Elastic Compliance Matrix: (Units=1/GPa)
#
#
# Indices 1 2 3 4 5 6 
#
# 1 0.012856 -0.004766 0.001314 0.000649 -0.001111 0.004012
# 2 -0.004766 0.012333 -0.005997 0.003110 0.000808 -0.001438
# 3 0.001314 -0.005997 0.017346 -0.004018 0.004622 0.004542
# 4 0.000649 0.003110 -0.004018 0.020736 0.002723 -0.001318
# 5 -0.001111 0.000808 0.004622 0.002723 0.030587 0.003524
# 6 0.004012 -0.001438 0.004542 -0.001318 0.003524 0.032449
#
#
# Mechanical properties :
#
#
# Convention : Reuss Voigt Hill
#
# Bulk Modulus (GPa) = 42.30414 51.85830 47.08122
# Shear Modulus (GPa) = 32.66221 38.31032 35.48626
#
# Velocity S-wave (km/s) = 3.68559 3.99155 3.84162
# Velocity P-wave (km/s) = 5.97536 6.54295 6.26558
#
# Compressibility (1/GPa) = 0.02363835
#
# Stress axis : x y z
#
# Youngs Moduli (GPa) = 77.78414 81.08500 57.65142
#
# Poissons Ratio (x) = 0.38643 -0.07577
# Poissons Ratio (y) = 0.37070 0.34572
# Poissons Ratio (z) = -0.10223 0.48624
#
# Static dielectric constant tensor:
#      x y z
#    x 4.438340 -0.257260 0.019360 
#    y -0.257260 4.478680 -0.007710 
#    z 0.019360 -0.007710 4.428150 
# 
# 
# High freq. dielectric constant tensor:
#      x y z
#    x 1.947140 -0.017860 0.002400 
#    y -0.017860 1.945530 0.006130 
#    z 0.002400 0.006130 1.967000 
# 
# From -- ./inp_files/88661.got.cif
#   From: 2010.06.25/outbox.cif.g09.slc.cpg/sg2_45_cif.got.tgz:88661.got - 2010.06.27 13:26:56.
