data_PCOD8020657
_publ_section_title
;
Structure prediction by ZEFSAII (Michael W. Deem and Ramdas Pophale) SiO2 
 PCOD8020657
Probable space group: P -1
;
_chemical_formula_sum "Si O2"
_cell_formula_units_Z 14
_cell_length_a 21.968870
_cell_length_b 9.423553
_cell_length_c 17.306336
_cell_angle_alpha 30.906559
_cell_angle_beta 158.539030
_cell_angle_gamma 136.969112
_cell_volume 628.324657
_symmetry_space_group_name_H-M "P -1"
_symmetry_group_IT_number 2
_symmetry_cell_setting 'triclinic'
loop_
_space_group_symop_operation_xyz
x,y,z
-x,-y,-z
loop_
_atom_site_type_symbol
_atom_site_label
_atom_site_fract_x
_atom_site_fract_y
_atom_site_fract_z
Si Si1 0.422295 0.340118 0.721426
Si Si2 0.936701 0.153766 0.270709
Si Si3 0.270925 0.410408 0.065952
Si Si4 0.696926 0.268473 0.352644
Si Si5 0.786269 0.115225 0.691673
Si Si6 0.845531 0.745162 0.655519
Si Si7 0.952563 0.601360 0.483357
O O1 0.565170 0.495467 0.806223
O O2 0.285332 0.539787 0.530128
O O3 0.318578 0.362507 0.506582
O O4 0.500000 0.000000 0.000000
O O5 0.090330 0.203042 0.378145
O O6 0.853055 0.957914 0.209861
O O7 0.792934 0.467717 0.979451
O O8 0.000000 0.000000 0.500000
O O9 0.300161 0.062671 0.269551
O O10 0.132146 0.534321 0.774995
O O11 0.711380 0.078158 0.535845
O O12 0.826481 0.445485 0.441749
O O13 0.768712 0.056225 0.463656
O O14 0.500000 0.500000 0.000000
O O15 0.000000 0.000000 0.000000
O O16 0.000000 0.500000 0.000000
O O17 0.000000 0.500000 0.500000
#
# Coordination Sequence:
#
# PCOD8020657 Si02
#       7
#     2   2   2   2   2   2   2
#     4  12  27  46  76 108 147 190 247 297 352 442
#     4  10  22  42  71 101 140 188 240 283 360 438
#     4  11  25  45  74 106 140 192 244 298 356 430
#     4  12  27  44  71 107 145 183 240 299 360 426
#     4  12  25  49  74 105 147 192 238 294 366 434
#     4  12  26  48  70 105 146 190 234 299 371 425
#     4  11  23  42  71 103 144 186 237 296 365 424
#
# _framework density 22.281475
#
# number of rings (size 3 to 8) (size 9 to 14) (size 15 to 20)
#    0.000    0.571    2.857    5.571    8.000    0.000 
#    2.571    1.429    0.000    0.000    0.000    0.000 
#    0.000    0.000    0.000    0.000    0.000    0.000 
#
# Total GULP energy -173507.817867 kJ/mol
# GULP energy per Si atom -12393.415562 kJ/mol
# Density = 2.223076 g / cm^3
# Si number density = 22.281475 Si / 1000 Ang^3
#
#
#
# Elastic Constant Matrix: (Units=GPa)
#
#
# Indices 1 2 3 4 5 6 
#
# 1 119.1044 51.7880 60.2969 -1.4448 1.0346 -13.3904
# 2 51.7880 152.6979 63.6645 9.2175 7.3014 -2.4803
# 3 60.2969 63.6645 146.2188 5.5971 5.0116 -1.8744
# 4 -1.4448 9.2175 5.5971 49.1942 -7.2771 6.1673
# 5 1.0346 7.3014 5.0116 -7.2771 36.7590 -5.7726
# 6 -13.3904 -2.4803 -1.8744 6.1673 -5.7726 54.0747
#
#
#
# Elastic Compliance Matrix: (Units=1/GPa)
#
#
# Indices 1 2 3 4 5 6 
#
# 1 0.011695 -0.002467 -0.003801 0.001099 0.001315 0.002666
# 2 -0.002467 0.008656 -0.002637 -0.001602 -0.001654 -0.000299
# 3 -0.003801 -0.002637 0.009607 -0.000757 -0.000946 -0.000744
# 4 0.001099 -0.001602 -0.000757 0.021624 0.004384 -0.001826
# 5 0.001315 -0.001654 -0.000946 0.004384 0.028933 0.002806
# 6 0.002666 -0.000299 -0.000744 -0.001826 0.002806 0.019621
#
#
# Mechanical properties :
#
#
# Convention : Reuss Voigt Hill
#
# Bulk Modulus (GPa) = 82.33248 85.50221 83.91735
# Shear Modulus (GPa) = 40.98467 44.15703 42.57085
#
# Velocity S-wave (km/s) = 4.29348 4.45655 4.37578
# Velocity P-wave (km/s) = 7.84920 8.05842 7.95450
#
# Compressibility (1/GPa) = 0.01214587
#
# Stress axis : x y z
#
# Youngs Moduli (GPa) = 85.50716 115.52427 104.09304
#
# Poissons Ratio (x) = 0.28504 0.39569
# Poissons Ratio (y) = 0.21098 0.27452
# Poissons Ratio (z) = 0.32504 0.30467
#
# Static dielectric constant tensor:
#      x y z
#    x 4.057410 -0.212780 0.174180 
#    y -0.212780 4.852250 -0.445920 
#    z 0.174180 -0.445920 4.150100 
# 
# 
# High freq. dielectric constant tensor:
#      x y z
#    x 1.883280 -0.008680 0.005320 
#    y -0.008680 1.901570 -0.011700 
#    z 0.005320 -0.011700 1.866200 
# 
# From -- ./inp_files/579035.got.cif
#   From: 2010.06.25/outbox.cif.g09.slc.cpg/sg2_290_cif.got.tgz:579035.got - 2010.06.27 13:26:56.
