data_PCOD8020822
_publ_section_title
;
Structure prediction by ZEFSAII (Michael W. Deem and Ramdas Pophale) SiO2 
 PCOD8020822
Probable space group: P -1
;
_chemical_formula_sum "Si O2"
_cell_formula_units_Z 14
_cell_length_a 14.497729
_cell_length_b 8.641951
_cell_length_c 13.880939
_cell_angle_alpha 73.884955
_cell_angle_beta 150.781076
_cell_angle_gamma 125.186678
_cell_volume 572.535769
_symmetry_space_group_name_H-M "P -1"
_symmetry_group_IT_number 2
_symmetry_cell_setting 'triclinic'
loop_
_space_group_symop_operation_xyz
x,y,z
-x,-y,-z
loop_
_atom_site_type_symbol
_atom_site_label
_atom_site_fract_x
_atom_site_fract_y
_atom_site_fract_z
Si Si1 0.282236 0.151630 0.434936
Si Si2 0.758447 0.188085 0.443300
Si Si3 0.528694 0.626640 0.626416
Si Si4 0.728330 0.907227 0.946786
Si Si5 0.035404 0.624076 0.917075
Si Si6 0.185442 0.954954 0.676633
Si Si7 0.209810 0.667659 0.868477
O O1 0.493826 0.411584 0.624100
O O2 0.273983 0.174915 0.307957
O O3 0.380287 0.033492 0.576096
O O4 0.969562 0.974387 0.219461
O O5 0.534516 0.191194 0.216697
O O6 0.862913 0.177708 0.441160
O O7 0.009496 0.412553 0.690065
O O8 0.640654 0.729499 0.815973
O O9 0.241882 0.535982 0.367069
O O10 0.873761 0.152199 0.993113
O O11 0.235752 0.680170 0.006613
O O12 0.000000 0.500000 0.000000
O O13 0.117458 0.792605 0.730710
O O14 0.000000 0.000000 0.500000
O O15 0.495268 0.197905 0.925831
#
# Coordination Sequence:
#
# PCOD8020822 Si02
#       7
#     2   2   2   2   2   2   2
#     4  10  25  40  64 104 143 184 238 284 345 419
#     4  12  25  43  74 104 134 185 236 288 363 413
#     4  10  22  43  63  97 148 192 231 288 341 415
#     4  11  23  42  67  97 145 186 233 282 346 417
#     4  11  23  40  71 106 143 185 232 284 349 422
#     4  11  28  49  77  99 140 185 238 298 356 414
#     4  11  26  49  71 107 143 181 237 294 348 425
#
# _framework density 24.45262
#
# number of rings (size 3 to 8) (size 9 to 14) (size 15 to 20)
#    0.000    1.143    2.857    1.714    6.000    4.000 
#    0.000    0.000    0.000    0.000    0.000    0.000 
#    0.000    0.000    0.000    0.000    0.000    0.000 
#
# Total GULP energy -173530.028136 kJ/mol
# GULP energy per Si atom -12395.002010 kJ/mol
# Density = 2.439696 g / cm^3
# Si number density = 24.452620 Si / 1000 Ang^3
#
#
#
# Elastic Constant Matrix: (Units=GPa)
#
#
# Indices 1 2 3 4 5 6 
#
# 1 118.5778 42.1595 20.1356 -1.2850 -6.3841 -4.7725
# 2 42.1595 97.0087 35.8109 6.8466 -4.6524 6.7703
# 3 20.1356 35.8109 91.4287 4.5108 1.4672 -9.5651
# 4 -1.2850 6.8466 4.5108 38.1591 -14.0214 -0.0433
# 5 -6.3841 -4.6524 1.4672 -14.0214 39.0129 -1.2376
# 6 -4.7725 6.7703 -9.5651 -0.0433 -1.2376 37.3051
#
#
#
# Elastic Compliance Matrix: (Units=1/GPa)
#
#
# Indices 1 2 3 4 5 6 
#
# 1 0.010320 -0.004525 -0.000406 0.001915 0.001919 0.002103
# 2 -0.004525 0.014641 -0.005116 -0.002065 0.000312 -0.004540
# 3 -0.000406 -0.005116 0.013566 -0.001245 -0.001498 0.004304
# 4 0.001915 -0.002065 -0.001245 0.030923 0.011250 0.000710
# 5 0.001919 0.000312 -0.001498 0.011250 0.030109 0.000817
# 6 0.002103 -0.004540 0.004304 0.000710 0.000817 0.029030
#
#
# Mechanical properties :
#
#
# Convention : Reuss Voigt Hill
#
# Bulk Modulus (GPa) = 54.24863 55.91414 55.08138
# Shear Modulus (GPa) = 32.29381 36.82269 34.55825
#
# Velocity S-wave (km/s) = 3.63804 3.88478 3.76343
# Velocity P-wave (km/s) = 6.31510 6.56033 6.43888
#
# Compressibility (1/GPa) = 0.01843365
#
# Stress axis : x y z
#
# Youngs Moduli (GPa) = 96.90146 68.30083 73.71142
#
# Poissons Ratio (x) = 0.30907 0.02990
# Poissons Ratio (y) = 0.43849 0.37712
# Poissons Ratio (z) = 0.03930 0.34944
#
# Static dielectric constant tensor:
#      x y z
#    x 4.301660 -0.027250 0.264330 
#    y -0.027250 4.338390 0.019370 
#    z 0.264330 0.019370 4.712630 
# 
# 
# High freq. dielectric constant tensor:
#      x y z
#    x 1.960100 -0.007140 0.007420 
#    y -0.007140 1.962370 0.008920 
#    z 0.007420 0.008920 1.994450 
# 
# From -- ./inp_files/528522.got.cif
#   From: 2010.06.25/outbox.cif.g09.slc.cpg/sg2_265_cif.got.tgz:528522.got - 2010.06.27 13:26:56.
