data_PCOD8020996
_publ_section_title
;
Structure prediction by ZEFSAII (Michael W. Deem and Ramdas Pophale) SiO2 
 PCOD8020996
Probable space group: P -1
;
_chemical_formula_sum "Si O2"
_cell_formula_units_Z 14
_cell_length_a 7.939598
_cell_length_b 9.796269
_cell_length_c 19.604589
_cell_angle_alpha 125.424257
_cell_angle_beta 31.213896
_cell_angle_gamma 112.331237
_cell_volume 619.265129
_symmetry_space_group_name_H-M "P -1"
_symmetry_group_IT_number 2
_symmetry_cell_setting 'triclinic'
loop_
_space_group_symop_operation_xyz
x,y,z
-x,-y,-z
loop_
_atom_site_type_symbol
_atom_site_label
_atom_site_fract_x
_atom_site_fract_y
_atom_site_fract_z
Si Si1 0.581777 0.031048 0.287249
Si Si2 0.837952 0.669041 0.147302
Si Si3 0.798490 0.949928 0.991175
Si Si4 0.441690 0.582793 0.378617
Si Si5 0.283585 0.153012 0.570475
Si Si6 0.325532 0.231834 0.304125
Si Si7 0.352628 0.701269 0.091530
O O1 0.370690 0.108872 0.449497
O O2 0.348483 0.104771 0.324352
O O3 0.667886 0.822202 0.198042
O O4 0.947792 0.074835 0.168364
O O5 0.535236 0.635203 0.286661
O O6 0.119902 0.722204 0.110825
O O7 0.000000 0.500000 0.000000
O O8 0.672595 0.777308 0.991799
O O9 0.471957 0.120222 0.152615
O O10 0.000000 0.000000 0.000000
O O11 0.646647 0.660365 0.385559
O O12 0.531580 0.373133 0.292324
O O13 0.051983 0.668331 0.553921
O O14 0.883691 0.187086 0.734040
O O15 0.500000 0.000000 0.500000
O O16 0.500000 0.500000 0.000000
#
# Coordination Sequence:
#
# PCOD8020996 Si02
#       7
#     2   2   2   2   2   2   2
#     4  11  24  42  71 100 134 183 231 282 350 411
#     4  11  25  43  66 101 140 178 233 290 340 414
#     4  10  24  44  69  99 139 177 227 287 344 409
#     4  10  22  43  66  94 140 181 225 285 350 409
#     4  11  22  46  67  97 142 179 227 290 340 412
#     4  10  23  41  68  98 134 184 227 283 351 412
#     4  11  26  44  73  99 137 187 230 281 352 409
#
# _framework density 22.607441999999999
#
# number of rings (size 3 to 8) (size 9 to 14) (size 15 to 20)
#    0.000    1.429    2.857    1.714   12.000    2.857 
#    5.143    0.000    0.000    0.000    0.000    0.000 
#    0.000    0.000    0.000    0.000    0.000    0.000 
#
# Total GULP energy -173535.303118 kJ/mol
# GULP energy per Si atom -12395.378794 kJ/mol
# Density = 2.255599 g / cm^3
# Si number density = 22.607442 Si / 1000 Ang^3
#
#
#
# Elastic Constant Matrix: (Units=GPa)
#
#
# Indices 1 2 3 4 5 6 
#
# 1 36.9053 10.1729 -0.9177 -0.4972 1.7905 -4.0377
# 2 10.1729 118.6615 21.2352 12.6940 0.4529 3.0294
# 3 -0.9177 21.2352 130.1292 -7.4145 13.5608 -0.4610
# 4 -0.4972 12.6940 -7.4145 43.5991 -1.1038 -4.3717
# 5 1.7905 0.4529 13.5608 -1.1038 28.6318 3.1090
# 6 -4.0377 3.0294 -0.4610 -4.3717 3.1090 36.4668
#
#
#
# Elastic Compliance Matrix: (Units=1/GPa)
#
#
# Indices 1 2 3 4 5 6 
#
# 1 0.028488 -0.002896 0.001051 0.001665 -0.002585 0.003828
# 2 -0.002896 0.009386 -0.001840 -0.003214 0.000953 -0.001590
# 3 0.001051 -0.001840 0.008537 0.001993 -0.004108 0.000966
# 4 0.001665 -0.003214 0.001993 0.024566 -0.000425 0.003458
# 5 -0.002585 0.000953 -0.004108 -0.000425 0.037399 -0.003657
# 6 0.003828 -0.001590 0.000966 0.003458 -0.003657 0.028717
#
#
# Mechanical properties :
#
#
# Convention : Reuss Voigt Hill
#
# Bulk Modulus (GPa) = 25.61443 38.51964 32.06703
# Shear Modulus (GPa) = 31.75081 38.75323 35.25202
#
# Velocity S-wave (km/s) = 3.75165 4.14476 3.95309
# Velocity P-wave (km/s) = 5.48828 6.32304 5.92039
#
# Compressibility (1/GPa) = 0.03904050
#
# Stress axis : x y z
#
# Youngs Moduli (GPa) = 35.10303 106.54483 117.13106
#
# Poissons Ratio (x) = 0.30860 -0.12315
# Poissons Ratio (y) = 0.10167 0.21553
# Poissons Ratio (z) = -0.03691 0.19605
#
# Static dielectric constant tensor:
#      x y z
#    x 3.840450 0.088800 0.157270 
#    y 0.088800 4.406830 -0.098210 
#    z 0.157270 -0.098210 5.018950 
# 
# 
# High freq. dielectric constant tensor:
#      x y z
#    x 1.854220 0.009680 -0.006320 
#    y 0.009680 1.904330 0.003160 
#    z -0.006320 0.003160 1.920150 
# 
# From -- ./inp_files/495832.got.cif
#   From: 2010.06.25/outbox.cif.g09.slc.cpg/sg2_248_cif.got.tgz:495832.got - 2010.06.27 13:26:56.
