data_PCOD8020622
_publ_section_title
;
Structure prediction by ZEFSAII (Michael W. Deem and Ramdas Pophale) SiO2 
 PCOD8020622
Probable space group: P -1
;
_chemical_formula_sum "Si O2"
_cell_formula_units_Z 16
_cell_length_a 14.126113
_cell_length_b 9.096597
_cell_length_c 5.743143
_cell_angle_alpha 84.390862
_cell_angle_beta 108.250337
_cell_angle_gamma 109.033746
_cell_volume 662.541625
_symmetry_space_group_name_H-M "P -1"
_symmetry_group_IT_number 2
_symmetry_cell_setting 'triclinic'
loop_
_space_group_symop_operation_xyz
x,y,z
-x,-y,-z
loop_
_atom_site_type_symbol
_atom_site_label
_atom_site_fract_x
_atom_site_fract_y
_atom_site_fract_z
Si Si1 0.569266 0.892211 0.822470
Si Si2 0.261084 0.517288 0.257727
Si Si3 0.555954 0.555941 0.782863
Si Si4 0.067438 0.436031 0.810651
Si Si5 0.945208 0.259882 0.141471
Si Si6 0.652399 0.158867 0.475462
Si Si7 0.142887 0.249433 0.514265
Si Si8 0.238353 0.982727 0.753031
O O1 0.588838 0.740914 0.752558
O O2 0.444714 0.857634 0.779150
O O3 0.610395 0.040075 0.668131
O O4 0.641025 0.929775 0.101535
O O5 0.342312 0.502260 0.123892
O O6 0.310826 0.667136 0.430324
O O7 0.237205 0.364451 0.424071
O O8 0.154189 0.523176 0.058979
O O9 0.500000 0.500000 0.500000
O O10 0.500000 0.500000 0.000000
O O11 0.040000 0.592669 0.683453
O O12 0.121928 0.344689 0.702255
O O13 0.967269 0.318632 0.883215
O O14 0.830339 0.133151 0.084940
O O15 0.034636 0.183978 0.296267
O O16 0.751795 0.123962 0.439985
O O17 0.177025 0.102553 0.631190
#
# Coordination Sequence:
#
# PCOD8020622 Si02
#       8
#     2   2   2   2   2   2   2   2
#     4  11  26  44  68 100 141 187 240 292 359 435
#     4  11  24  44  69 104 135 189 233 295 360 433
#     4  12  28  47  77 108 149 194 247 303 366 435
#     4  10  22  42  70  95 135 177 238 294 357 444
#     4  10  23  42  64 101 133 179 234 293 371 428
#     4  11  25  45  67  99 144 182 244 290 360 428
#     4  11  24  42  70 100 138 177 236 294 368 433
#     4  12  25  41  68  99 140 187 229 298 362 439
#
# _framework density 24.149425999999998
#
# number of rings (size 3 to 8) (size 9 to 14) (size 15 to 20)
#    0.000    1.000    1.250    4.125    5.250    6.500 
#    0.000    0.000    0.000    0.000    0.000    0.000 
#    0.000    0.000    0.000    0.000    0.000    0.000 
#
# Total GULP energy -198302.775693 kJ/mol
# GULP energy per Si atom -12393.923481 kJ/mol
# Density = 2.409446 g / cm^3
# Si number density = 24.149426 Si / 1000 Ang^3
#
#
#
# Elastic Constant Matrix: (Units=GPa)
#
#
# Indices 1 2 3 4 5 6 
#
# 1 133.5052 41.3779 22.8569 6.2806 -20.6259 -15.7135
# 2 41.3779 103.1133 8.0846 2.5205 -3.7330 -5.5678
# 3 22.8569 8.0846 37.8424 3.2103 -16.6870 -0.2964
# 4 6.2806 2.5205 3.2103 27.3317 -0.4592 1.3807
# 5 -20.6259 -3.7330 -16.6870 -0.4592 40.0050 -1.0646
# 6 -15.7135 -5.5678 -0.2964 1.3807 -1.0646 49.4547
#
#
#
# Elastic Compliance Matrix: (Units=1/GPa)
#
#
# Indices 1 2 3 4 5 6 
#
# 1 0.010151 -0.003459 -0.003721 -0.001667 0.003418 0.002934
# 2 -0.003459 0.011117 -0.000734 -0.000168 -0.001051 0.000130
# 3 -0.003721 -0.000734 0.034519 -0.002888 0.012360 -0.000711
# 4 -0.001667 -0.000168 -0.002888 0.037380 -0.001695 -0.001646
# 5 0.003418 -0.001051 0.012360 -0.001695 0.031844 0.001775
# 6 0.002934 0.000130 -0.000711 -0.001646 0.001775 0.021247
#
#
# Mechanical properties :
#
#
# Convention : Reuss Voigt Hill
#
# Bulk Modulus (GPa) = 25.02486 46.56664 35.79575
# Shear Modulus (GPa) = 28.50530 36.83435 32.66983
#
# Velocity S-wave (km/s) = 3.43938 3.90971 3.68206
# Velocity P-wave (km/s) = 5.11444 6.30124 5.73860
#
# Compressibility (1/GPa) = 0.03996026
#
# Stress axis : x y z
#
# Youngs Moduli (GPa) = 98.51040 89.95458 28.96942
#
# Poissons Ratio (x) = 0.31114 0.10779
# Poissons Ratio (y) = 0.34074 0.02126
# Poissons Ratio (z) = 0.36654 0.06600
#
# Static dielectric constant tensor:
#      x y z
#    x 4.838730 -0.057610 0.133880 
#    y -0.057610 4.345330 -0.005180 
#    z 0.133880 -0.005180 4.227650 
# 
# 
# High freq. dielectric constant tensor:
#      x y z
#    x 1.980840 -0.007740 0.007930 
#    y -0.007740 1.968630 -0.000290 
#    z 0.007930 -0.000290 1.945140 
# 
# From -- ./inp_files/39377.got.cif
#   From: 2010.06.25/outbox.cif.g09.slc.cpg/sg2_20_cif.got.tgz:39377.got - 2010.06.27 13:26:56.
