data_PCOD8020572
_publ_section_title
;
Structure prediction by ZEFSAII (Michael W. Deem and Ramdas Pophale) SiO2 
 PCOD8020572
Probable space group: P -1
;
_chemical_formula_sum "Si O2"
_cell_formula_units_Z 14
_cell_length_a 5.755936
_cell_length_b 8.755054
_cell_length_c 11.844870
_cell_angle_alpha 91.953199
_cell_angle_beta 103.899266
_cell_angle_gamma 79.700516
_cell_volume 570.066104
_symmetry_space_group_name_H-M "P -1"
_symmetry_group_IT_number 2
_symmetry_cell_setting 'triclinic'
loop_
_space_group_symop_operation_xyz
x,y,z
-x,-y,-z
loop_
_atom_site_type_symbol
_atom_site_label
_atom_site_fract_x
_atom_site_fract_y
_atom_site_fract_z
Si Si1 0.758890 0.120548 0.351405
Si Si2 0.052314 0.946464 0.186390
Si Si3 0.261007 0.420034 0.977698
Si Si4 0.594263 0.613356 0.602508
Si Si5 0.790433 0.819756 0.459033
Si Si6 0.708959 0.899142 0.953875
Si Si7 0.004757 0.357140 0.726476
O O1 0.592789 0.292201 0.326549
O O2 0.961405 0.141888 0.464758
O O3 0.861437 0.071542 0.237019
O O4 0.641580 0.975217 0.384572
O O5 0.134730 0.789232 0.265455
O O6 0.952718 0.890790 0.055627
O O7 0.270287 0.033196 0.169705
O O8 0.208654 0.372175 0.842871
O O9 0.500000 0.500000 0.000000
O O10 0.348027 0.273658 0.065882
O O11 0.000000 0.500000 0.000000
O O12 0.500000 0.500000 0.500000
O O13 0.647299 0.761026 0.542882
O O14 0.814164 0.517009 0.697223
O O15 0.850633 0.677733 0.373940
O O16 0.500000 0.000000 0.000000
#
# Coordination Sequence:
#
# PCOD8020572 Si02
#       7
#     2   2   2   2   2   2   2
#     4  10  22  42  69  99 140 189 238 298 354 446
#     4   9  22  44  68 100 139 188 243 296 369 432
#     4  11  28  50  75 112 153 190 248 315 380 446
#     4  12  24  41  69 105 142 191 240 297 367 432
#     4  10  22  44  64  98 143 185 242 292 359 438
#     4  10  23  46  75  99 141 189 248 306 367 442
#     4  10  23  46  69 102 143 194 241 307 371 437
#
# _framework density 24.558555999999999
#
# number of rings (size 3 to 8) (size 9 to 14) (size 15 to 20)
#    0.000    1.714    1.429    0.857    6.000    4.571 
#    5.143    0.000    0.000    0.000    0.000    0.000 
#    0.000    0.000    0.000    0.000    0.000    0.000 
#
# Total GULP energy -173440.879809 kJ/mol
# GULP energy per Si atom -12388.634272 kJ/mol
# Density = 2.450266 g / cm^3
# Si number density = 24.558556 Si / 1000 Ang^3
#
#
#
# Elastic Constant Matrix: (Units=GPa)
#
#
# Indices 1 2 3 4 5 6 
#
# 1 98.4784 70.2814 21.0412 -9.6190 -24.4499 6.2447
# 2 70.2814 168.4250 31.5194 -4.1239 -18.0266 -8.2194
# 3 21.0412 31.5194 92.0916 3.1409 -11.7720 11.8033
# 4 -9.6190 -4.1239 3.1409 36.8779 1.2291 -6.1181
# 5 -24.4499 -18.0266 -11.7720 1.2291 40.1590 -2.2729
# 6 6.2447 -8.2194 11.8033 -6.1181 -2.2729 38.0797
#
#
#
# Elastic Compliance Matrix: (Units=1/GPa)
#
#
# Indices 1 2 3 4 5 6 
#
# 1 0.017040 -0.006327 -0.000527 0.003033 0.007113 -0.003085
# 2 -0.006327 0.009154 -0.002193 0.000182 -0.000181 0.003711
# 3 -0.000527 -0.002193 0.012675 -0.002291 0.002223 -0.004551
# 4 0.003033 0.000182 -0.002291 0.028921 0.000651 0.004937
# 5 0.007113 -0.000181 0.002223 0.000651 0.029781 -0.000012
# 6 -0.003085 0.003711 -0.004551 0.004937 -0.000012 0.029771
#
#
# Mechanical properties :
#
#
# Convention : Reuss Voigt Hill
#
# Bulk Modulus (GPa) = 48.13047 67.18656 57.65851
# Shear Modulus (GPa) = 32.81687 38.76684 35.79185
#
# Velocity S-wave (km/s) = 3.65947 3.97740 3.82174
# Velocity P-wave (km/s) = 6.12343 6.96492 6.55769
#
# Compressibility (1/GPa) = 0.02077686
#
# Stress axis : x y z
#
# Youngs Moduli (GPa) = 58.68412 109.24083 78.89439
#
# Poissons Ratio (x) = 0.69118 0.04155
# Poissons Ratio (y) = 0.37130 0.17298
# Poissons Ratio (z) = 0.03091 0.23951
#
# Static dielectric constant tensor:
#      x y z
#    x 4.233060 0.248790 -0.010640 
#    y 0.248790 4.923150 -0.049550 
#    z -0.010640 -0.049550 4.673300 
# 
# 
# High freq. dielectric constant tensor:
#      x y z
#    x 1.954690 0.002890 -0.010990 
#    y 0.002890 1.993820 0.001040 
#    z -0.010990 0.001040 1.984470 
# 
# From -- ./inp_files/107251.got.cif
#   From: 2010.06.25/outbox.cif.g09.slc.cpg/sg2_54_cif.got.tgz:107251.got - 2010.06.27 13:26:56.
