data_PCOD8020032
_publ_section_title
;
Structure prediction by ZEFSAII (Michael W. Deem and Ramdas Pophale) SiO2 
 PCOD8020032
Probable space group: P -1
;
_chemical_formula_sum "Si O2"
_cell_formula_units_Z 16
_cell_length_a 13.728685
_cell_length_b 14.676084
_cell_length_c 5.712946
_cell_angle_alpha 62.156865
_cell_angle_beta 108.636747
_cell_angle_gamma 136.321015
_cell_volume 702.600419
_symmetry_space_group_name_H-M "P -1"
_symmetry_group_IT_number 2
_symmetry_cell_setting 'triclinic'
loop_
_space_group_symop_operation_xyz
x,y,z
-x,-y,-z
loop_
_atom_site_type_symbol
_atom_site_label
_atom_site_fract_x
_atom_site_fract_y
_atom_site_fract_z
Si Si1 0.553177 0.794151 0.407072
Si Si2 0.277995 0.791019 0.570149
Si Si3 0.997953 0.305263 0.352716
Si Si4 0.765267 0.422535 0.516615
Si Si5 0.646958 0.647511 0.508719
Si Si6 0.174431 0.362973 0.036656
Si Si7 0.440251 0.098093 0.204151
Si Si8 0.905415 0.835284 0.161299
O O1 0.387450 0.686498 0.352112
O O2 0.616047 0.722442 0.566103
O O3 0.592106 0.874675 0.591610
O O4 0.612855 0.879792 0.099414
O O5 0.159890 0.760913 0.679152
O O6 0.200707 0.661672 0.484251
O O7 0.390676 0.805224 0.796695
O O8 0.359673 0.934762 0.317530
O O9 0.107294 0.464692 0.346635
O O10 0.035192 0.320507 0.089861
O O11 0.010056 0.200317 0.605602
O O12 0.747139 0.505219 0.228278
O O13 0.500000 0.500000 0.500000
O O14 0.714791 0.592280 0.736506
O O15 0.755965 0.760068 0.257443
O O16 0.128147 0.224373 0.052566
O O17 0.000000 0.000000 0.000000
#
# Coordination Sequence:
#
# PCOD8020032 Si02
#       8
#     2   2   2   2   2   2   2   2
#     4  11  25  44  72  97 142 174 231 280 346 402
#     4  10  23  43  70  93 136 175 229 277 343 401
#     4  10  22  42  64  99 128 175 225 276 343 407
#     4  10  23  42  65  96 134 176 220 287 334 407
#     4  11  25  40  70 100 132 185 226 282 348 414
#     4  10  23  43  62 100 138 169 232 280 340 415
#     4  10  26  47  64 106 133 181 225 291 333 412
#     4  10  24  42  65  96 136 174 226 284 343 413
#
# _framework density 22.772548
#
# number of rings (size 3 to 8) (size 9 to 14) (size 15 to 20)
#    0.000    1.750    0.000    2.625   10.500    9.000 
#   11.250    0.000    0.000    0.000    0.000    0.000 
#    0.000    0.000    0.000    0.000    0.000    0.000 
#
# Total GULP energy -198237.046064 kJ/mol
# GULP energy per Si atom -12389.815379 kJ/mol
# Density = 2.272072 g / cm^3
# Si number density = 22.772548 Si / 1000 Ang^3
#
#
#
# Elastic Constant Matrix: (Units=GPa)
#
#
# Indices 1 2 3 4 5 6 
#
# 1 126.3349 34.3506 7.0858 7.1421 -12.8155 -12.4078
# 2 34.3506 125.6556 30.4305 -18.8632 -11.5938 -19.7529
# 3 7.0858 30.4305 74.8291 7.5431 -17.2304 -14.6267
# 4 7.1421 -18.8632 7.5431 25.7632 -5.5035 2.0077
# 5 -12.8155 -11.5938 -17.2304 -5.5035 24.3743 -4.6276
# 6 -12.4078 -19.7529 -14.6267 2.0077 -4.6276 33.9172
#
#
#
# Elastic Compliance Matrix: (Units=1/GPa)
#
#
# Indices 1 2 3 4 5 6 
#
# 1 0.009783 -0.002937 0.002806 -0.004847 0.005415 0.004104
# 2 -0.002937 0.012769 -0.004004 0.012109 0.005315 0.004644
# 3 0.002806 -0.004004 0.020787 -0.007486 0.014489 0.010079
# 4 -0.004847 0.012109 -0.007486 0.053335 0.010012 0.000260
# 5 0.005415 0.005315 0.014489 0.010012 0.062563 0.019268
# 6 0.004104 0.004644 0.010079 0.000260 0.019268 0.040650
#
#
# Mechanical properties :
#
#
# Convention : Reuss Voigt Hill
#
# Bulk Modulus (GPa) = 28.51460 52.28370 40.39915
# Shear Modulus (GPa) = 22.74325 33.80779 28.27552
#
# Velocity S-wave (km/s) = 3.16367 3.85721 3.52753
# Velocity P-wave (km/s) = 5.08859 6.54571 5.86260
#
# Compressibility (1/GPa) = 0.03506975
#
# Stress axis : x y z
#
# Youngs Moduli (GPa) = 102.21847 78.31602 48.10660
#
# Poissons Ratio (x) = 0.22998 -0.13496
# Poissons Ratio (y) = 0.30017 0.19260
# Poissons Ratio (z) = -0.28678 0.31354
#
# Static dielectric constant tensor:
#      x y z
#    x 4.390890 -0.216530 -0.052970 
#    y -0.216530 3.988290 -0.152230 
#    z -0.052970 -0.152230 4.079340 
# 
# 
# High freq. dielectric constant tensor:
#      x y z
#    x 1.911990 -0.011070 -0.005190 
#    y -0.011070 1.897710 -0.011210 
#    z -0.005190 -0.011210 1.888450 
# 
# From -- ./inp_files/97590.got.cif
#   From: 2010.06.25/outbox.cif.g09.slc.cpg/sg2_49_cif.got.tgz:97590.got - 2010.06.27 13:26:56.
