data_PCOD8020495
_publ_section_title
;
Structure prediction by ZEFSAII (Michael W. Deem and Ramdas Pophale) SiO2 
 PCOD8020495
Probable space group: P -1
;
_chemical_formula_sum "Si O2"
_cell_formula_units_Z 10
_cell_length_a 12.647302
_cell_length_b 14.066632
_cell_length_c 14.687425
_cell_angle_alpha 160.818502
_cell_angle_beta 29.405940
_cell_angle_gamma 149.445884
_cell_volume 409.443561
_symmetry_space_group_name_H-M "P -1"
_symmetry_group_IT_number 2
_symmetry_cell_setting 'triclinic'
loop_
_space_group_symop_operation_xyz
x,y,z
-x,-y,-z
loop_
_atom_site_type_symbol
_atom_site_label
_atom_site_fract_x
_atom_site_fract_y
_atom_site_fract_z
Si Si1 0.110692 0.544996 0.555200
Si Si2 0.397467 0.097845 0.920710
Si Si3 0.857574 0.364001 0.753619
Si Si4 0.993707 0.802532 0.200798
Si Si5 0.360814 0.223144 0.409480
O O1 0.000000 0.500000 0.500000
O O2 0.923522 0.529965 0.759071
O O3 0.276217 0.870064 0.728104
O O4 0.234242 0.287103 0.254411
O O5 0.598415 0.339742 0.943140
O O6 0.470258 0.910986 0.778591
O O7 0.891333 0.031520 0.426482
O O8 0.005597 0.536238 0.881875
O O9 0.825500 0.675318 0.295791
O O10 0.238454 0.959546 0.195132
O O11 0.500000 0.500000 0.500000
#
# Coordination Sequence:
#
# PCOD8020495 Si02
#       5
#     2   2   2   2   2
#     4  12  27  47  72  99 130 176 232 287 342 394
#     4  11  25  45  70 101 134 179 227 273 340 400
#     4  11  24  45  68  99 141 172 219 282 329 401
#     4  10  23  41  66 100 138 180 215 264 333 394
#     4  10  22  42  69 100 140 181 222 265 324 406
#
# _framework density 24.423390000000001
#
# number of rings (size 3 to 8) (size 9 to 14) (size 15 to 20)
#    0.000    1.200    0.000    5.400    0.000   12.000 
#    0.000   17.000    0.000    0.000    0.000    0.000 
#    0.000    0.000    0.000    0.000    0.000    0.000 
#
# Total GULP energy -124079.590032 kJ/mol
# GULP energy per Si atom -12407.959003 kJ/mol
# Density = 2.436780 g / cm^3
# Si number density = 24.423390 Si / 1000 Ang^3
#
#
#
# Elastic Constant Matrix: (Units=GPa)
#
#
# Indices 1 2 3 4 5 6 
#
# 1 112.9212 90.4604 23.8252 -7.2900 32.5622 -14.1744
# 2 90.4604 188.3928 46.3048 6.8344 21.2875 -1.4045
# 3 23.8252 46.3048 79.6806 5.7830 17.4569 -2.4827
# 4 -7.2900 6.8344 5.7830 31.6414 10.0587 8.1023
# 5 32.5622 21.2875 17.4569 10.0587 39.7527 3.6295
# 6 -14.1744 -1.4045 -2.4827 8.1023 3.6295 34.1291
#
#
#
# Elastic Compliance Matrix: (Units=1/GPa)
#
#
# Indices 1 2 3 4 5 6 
#
# 1 0.023703 -0.010199 0.002403 0.010822 -0.018570 0.009005
# 2 -0.010199 0.010720 -0.004263 -0.004891 0.006051 -0.003587
# 3 0.002403 -0.004263 0.015907 0.000082 -0.006938 0.002698
# 4 0.010822 -0.004891 0.000082 0.041314 -0.016391 -0.003766
# 5 -0.018570 0.006051 -0.006938 -0.016391 0.045131 -0.008876
# 6 0.009005 -0.003587 0.002698 -0.003766 -0.008876 0.034927
#
#
# Mechanical properties :
#
#
# Convention : Reuss Voigt Hill
#
# Bulk Modulus (GPa) = 38.14921 78.01946 58.08434
# Shear Modulus (GPa) = 24.44302 35.79828 30.12065
#
# Velocity S-wave (km/s) = 3.16698 3.83265 3.51560
# Velocity P-wave (km/s) = 5.38766 7.18328 6.34927
#
# Compressibility (1/GPa) = 0.02621287
#
# Stress axis : x y z
#
# Youngs Moduli (GPa) = 42.18830 93.28216 62.86606
#
# Poissons Ratio (x) = 0.95142 -0.15108
# Poissons Ratio (y) = 0.43030 0.26797
# Poissons Ratio (z) = -0.10139 0.39762
#
# Static dielectric constant tensor:
#      x y z
#    x 4.056000 0.128000 0.091130 
#    y 0.128000 4.673220 -0.030950 
#    z 0.091130 -0.030950 4.424590 
# 
# 
# High freq. dielectric constant tensor:
#      x y z
#    x 1.952810 0.003820 0.004740 
#    y 0.003820 1.987960 0.005910 
#    z 0.004740 0.005910 1.978390 
# 
# From -- ./inp_files/33126.got.cif
#   From: 2010.06.25/outbox.cif.g09.slc.cpg/sg2_17_cif.got.tgz:33126.got - 2010.06.27 13:26:56.
