data_PCOD8020562
_publ_section_title
;
Structure prediction by ZEFSAII (Michael W. Deem and Ramdas Pophale) SiO2 
 PCOD8020562
Probable space group: P -1
;
_chemical_formula_sum "Si O2"
_cell_formula_units_Z 12
_cell_length_a 8.014936
_cell_length_b 16.822777
_cell_length_c 16.612646
_cell_angle_alpha 17.379535
_cell_angle_beta 76.035491
_cell_angle_gamma 84.275878
_cell_volume 579.701314
_symmetry_space_group_name_H-M "P -1"
_symmetry_group_IT_number 2
_symmetry_cell_setting 'triclinic'
loop_
_space_group_symop_operation_xyz
x,y,z
-x,-y,-z
loop_
_atom_site_type_symbol
_atom_site_label
_atom_site_fract_x
_atom_site_fract_y
_atom_site_fract_z
Si Si1 0.485631 0.713170 0.730736
Si Si2 0.151638 0.999154 0.697096
Si Si3 0.070611 0.287264 0.156640
Si Si4 0.425287 0.655976 0.247424
Si Si5 0.328515 0.653506 0.442930
Si Si6 0.902835 0.501154 0.693309
O O1 0.645206 0.796570 0.563876
O O2 0.500000 0.000000 0.500000
O O3 0.500000 0.500000 0.000000
O O4 0.293980 0.500347 0.911923
O O5 0.062528 0.204669 0.545805
O O6 0.005265 0.795485 0.844075
O O7 0.186451 0.793018 0.957346
O O8 0.000000 0.000000 0.500000
O O9 0.000000 0.500000 0.000000
O O10 0.333316 0.580634 0.419250
O O11 0.567989 0.504921 0.363732
O O12 0.245892 0.530380 0.329386
O O13 0.554672 0.001895 0.883981
O O14 0.105612 0.533411 0.606393
#
# Coordination Sequence:
#
# PCOD8020562 Si02
#       6
#     2   2   2   2   2   2
#     4  12  23  43  68  90 122 164 219 275 325 391
#     4  12  26  40  65 100 130 174 216 276 341 396
#     4  12  23  43  68  90 122 164 219 275 325 391
#     4  10  22  42  69  97 131 179 225 264 320 394
#     4  10  22  42  69  97 131 179 225 264 320 394
#     4  12  25  42  64  98 144 168 218 274 340 392
#
# _framework density 20.700316000000001
#
# number of rings (size 3 to 8) (size 9 to 14) (size 15 to 20)
#    0.000    0.667    3.333    4.500    0.000    4.000 
#    0.000    6.667    0.000    0.000    0.000    0.000 
#    0.000    0.000    0.000    0.000    0.000    0.000 
#
# Total GULP energy -148782.988247 kJ/mol
# GULP energy per Si atom -12398.582354 kJ/mol
# Density = 2.065320 g / cm^3
# Si number density = 20.700316 Si / 1000 Ang^3
#
#
#
# Elastic Constant Matrix: (Units=GPa)
#
#
# Indices 1 2 3 4 5 6 
#
# 1 190.9748 81.3100 73.2445 -7.3396 -10.4212 -0.7329
# 2 81.3100 95.2108 71.6231 3.8917 -0.6548 0.8310
# 3 73.2445 71.6231 119.4931 -23.7164 9.1370 -6.2256
# 4 -7.3396 3.8917 -23.7164 15.5236 -6.4565 1.3455
# 5 -10.4212 -0.6548 9.1370 -6.4565 54.0512 -13.0748
# 6 -0.7329 0.8310 -6.2256 1.3455 -13.0748 17.9359
#
#
#
# Elastic Compliance Matrix: (Units=1/GPa)
#
#
# Indices 1 2 3 4 5 6 
#
# 1 0.009500 -0.012058 0.004392 0.015440 0.003770 0.004061
# 2 -0.012058 0.064455 -0.052223 -0.104083 -0.010303 -0.021308
# 3 0.004392 -0.052223 0.058504 0.106085 0.008028 0.020799
# 4 0.015440 -0.104083 0.106085 0.266973 0.025562 0.040881
# 5 0.003770 -0.010303 0.008028 0.025562 0.025693 0.020229
# 6 0.004061 -0.021308 0.020799 0.040881 0.020229 0.075807
#
#
# Mechanical properties :
#
#
# Convention : Reuss Voigt Hill
#
# Bulk Modulus (GPa) = 78.85708 95.33711 87.09709
# Shear Modulus (GPa) = 8.00081 29.46889 18.73485
#
# Velocity S-wave (km/s) = 1.96811 3.77715 3.01167
# Velocity P-wave (km/s) = 6.58346 8.07331 7.36615
#
# Compressibility (1/GPa) = 0.01268117
#
# Stress axis : x y z
#
# Youngs Moduli (GPa) = 105.25971 15.51474 17.09288
#
# Poissons Ratio (x) = 0.18707 -0.07507
# Poissons Ratio (y) = 1.26917 0.89264
# Poissons Ratio (z) = -0.46226 0.81023
#
# Static dielectric constant tensor:
#      x y z
#    x 3.253950 0.219820 -0.833420 
#    y 0.219820 3.695590 0.238350 
#    z -0.833420 0.238350 2.945150 
# 
# 
# High freq. dielectric constant tensor:
#      x y z
#    x 1.827890 -0.001290 0.002960 
#    y -0.001290 1.813790 -0.006420 
#    z 0.002960 -0.006420 1.831000 
# 
# From -- ./inp_files/503476.got.cif
#   From: 2010.06.25/outbox.cif.g09.slc.cpg/sg2_252_cif.got.tgz:503476.got - 2010.06.27 13:26:56.
