data_PCOD8020425
_publ_section_title
;
Structure prediction by ZEFSAII (Michael W. Deem and Ramdas Pophale) SiO2 
 PCOD8020425
Probable space group: P -1
;
_chemical_formula_sum "Si O2"
_cell_formula_units_Z 14
_cell_length_a 8.513687
_cell_length_b 17.561996
_cell_length_c 8.392158
_cell_angle_alpha 148.353718
_cell_angle_beta 65.551822
_cell_angle_gamma 121.916740
_cell_volume 556.966489
_symmetry_space_group_name_H-M "P -1"
_symmetry_group_IT_number 2
_symmetry_cell_setting 'triclinic'
loop_
_space_group_symop_operation_xyz
x,y,z
-x,-y,-z
loop_
_atom_site_type_symbol
_atom_site_label
_atom_site_fract_x
_atom_site_fract_y
_atom_site_fract_z
Si Si1 0.124595 0.018735 0.131793
Si Si2 0.261763 0.816007 0.190474
Si Si3 0.970245 0.277057 0.159840
Si Si4 0.723376 0.638703 0.302329
Si Si5 0.601050 0.069537 0.334844
Si Si6 0.658784 0.357787 0.618512
Si Si7 0.297567 0.495225 0.598396
O O1 0.159263 0.186212 0.494717
O O2 0.022816 0.881951 0.054321
O O3 0.321302 0.012733 0.980515
O O4 0.000000 0.000000 0.000000
O O5 0.256397 0.885206 0.492271
O O6 0.400678 0.950778 0.260252
O O7 0.063266 0.751469 0.067127
O O8 0.329426 0.673912 0.932506
O O9 0.801737 0.321048 0.378168
O O10 0.164449 0.419052 0.366735
O O11 0.506638 0.618180 0.368504
O O12 0.793550 0.610244 0.396835
O O13 0.764969 0.520425 0.954377
O O14 0.576701 0.222506 0.544876
O O15 0.500000 0.500000 0.500000
#
# Coordination Sequence:
#
# PCOD8020425 Si02
#       7
#     2   2   2   2   2   2   2
#     4  11  22  40  65  95 126 166 213 269 311 375
#     4  11  23  41  66  95 129 174 211 256 322 397
#     4  11  24  42  69  94 126 174 221 260 324 379
#     4  11  22  40  66  99 130 163 215 268 322 368
#     4  10  22  42  68  93 132 172 212 257 323 381
#     4  10  22  42  69  97 125 168 217 272 311 382
#     4  12  24  40  64  93 133 169 212 270 325 382
#
# _framework density 25.136161000000001
#
# number of rings (size 3 to 8) (size 9 to 14) (size 15 to 20)
#    0.000    1.143    2.857    3.857    0.000    4.000 
#    0.000    2.143    0.000    0.000    0.000    0.000 
#    0.000    0.000    0.000    0.000    0.000    0.000 
#
# Total GULP energy -173630.655760 kJ/mol
# GULP energy per Si atom -12402.189697 kJ/mol
# Density = 2.507895 g / cm^3
# Si number density = 25.136161 Si / 1000 Ang^3
#
#
#
# Elastic Constant Matrix: (Units=GPa)
#
#
# Indices 1 2 3 4 5 6 
#
# 1 85.5002 8.8257 11.1380 -1.7958 17.3865 -16.3065
# 2 8.8257 58.9191 31.0013 18.0973 -5.6956 -9.7617
# 3 11.1380 31.0013 145.7999 31.3695 6.4105 -13.8848
# 4 -1.7958 18.0973 31.3695 35.9762 -13.1298 3.3840
# 5 17.3865 -5.6956 6.4105 -13.1298 43.4169 3.0206
# 6 -16.3065 -9.7617 -13.8848 3.3840 3.0206 38.1190
#
#
#
# Elastic Compliance Matrix: (Units=1/GPa)
#
#
# Indices 1 2 3 4 5 6 
#
# 1 0.014501 -0.001319 0.000706 -0.002560 -0.007341 0.006932
# 2 -0.001319 0.022141 -0.002027 -0.009774 0.000414 0.005202
# 3 0.000706 -0.002027 0.010138 -0.010237 -0.005477 0.004819
# 4 -0.002560 -0.009774 -0.010237 0.048923 0.016955 -0.013014
# 5 -0.007341 0.000414 -0.005477 0.016955 0.032597 -0.009117
# 6 0.006932 0.005202 0.004819 -0.013014 -0.009117 0.034164
#
#
# Mechanical properties :
#
#
# Convention : Reuss Voigt Hill
#
# Bulk Modulus (GPa) = 24.09586 43.57213 33.83399
# Shear Modulus (GPa) = 27.53674 39.45268 33.49471
#
# Velocity S-wave (km/s) = 3.31343 3.96606 3.65434
# Velocity P-wave (km/s) = 4.92396 6.19233 5.59421
#
# Compressibility (1/GPa) = 0.04150091
#
# Stress axis : x y z
#
# Youngs Moduli (GPa) = 68.96096 45.16592 98.63945
#
# Poissons Ratio (x) = 0.05956 -0.06966
# Poissons Ratio (y) = 0.09094 0.19992
# Poissons Ratio (z) = -0.04870 0.09154
#
# Static dielectric constant tensor:
#      x y z
#    x 4.833100 -0.072020 0.543280 
#    y -0.072020 4.871870 0.742450 
#    z 0.543280 0.742450 5.586320 
# 
# 
# High freq. dielectric constant tensor:
#      x y z
#    x 2.002020 -0.023250 0.007470 
#    y -0.023250 1.995020 0.018460 
#    z 0.007470 0.018460 2.016140 
# 
# From -- ./inp_files/159521.got.cif
#   From: 2010.06.25/outbox.cif.g09.slc.cpg/sg2_80_cif.got.tgz:159521.got - 2010.06.27 13:26:56.
