data_PCOD8020593
_publ_section_title
;
Structure prediction by ZEFSAII (Michael W. Deem and Ramdas Pophale) SiO2 
 PCOD8020593
Probable space group: P -1
;
_chemical_formula_sum "Si O2"
_cell_formula_units_Z 14
_cell_length_a 13.976182
_cell_length_b 9.456758
_cell_length_c 11.515259
_cell_angle_alpha 123.497734
_cell_angle_beta 149.601370
_cell_angle_gamma 52.347234
_cell_volume 608.547041
_symmetry_space_group_name_H-M "P -1"
_symmetry_group_IT_number 2
_symmetry_cell_setting 'triclinic'
loop_
_space_group_symop_operation_xyz
x,y,z
-x,-y,-z
loop_
_atom_site_type_symbol
_atom_site_label
_atom_site_fract_x
_atom_site_fract_y
_atom_site_fract_z
Si Si1 0.288957 0.477189 0.293953
Si Si2 0.768333 0.409443 0.959903
Si Si3 0.680603 0.041036 0.146009
Si Si4 0.142907 0.417369 0.463799
Si Si5 0.070208 0.746736 0.382022
Si Si6 0.533291 0.793072 0.461079
Si Si7 0.588934 0.626452 0.080165
O O1 0.500000 0.500000 0.500000
O O2 0.148145 0.634127 0.296696
O O3 0.332518 0.285677 0.318474
O O4 0.182894 0.497623 0.065675
O O5 0.616705 0.568273 0.948015
O O6 0.974466 0.328994 0.210765
O O7 0.676407 0.249682 0.767443
O O8 0.794465 0.127187 0.396870
O O9 0.573942 0.177737 0.993674
O O10 0.839278 0.866464 0.176219
O O11 0.500000 0.000000 0.000000
O O12 0.079066 0.622797 0.448084
O O13 0.354231 0.309700 0.579506
O O14 0.192683 0.392431 0.643117
O O15 0.500000 0.000000 0.500000
O O16 0.500000 0.500000 0.000000
#
# Coordination Sequence:
#
# PCOD8020593 Si02
#       7
#     2   2   2   2   2   2   2
#     4   9  20  43  71  96 134 183 224 276 337 411
#     4  11  23  43  70  97 131 183 230 272 341 413
#     4  11  23  42  68 104 135 175 229 288 338 402
#     4  11  23  44  70  96 131 182 229 278 342 404
#     4  10  22  42  70 103 133 174 235 281 338 410
#     4  10  22  43  66 101 138 171 218 279 344 405
#     4  12  22  46  71  94 136 183 227 285 345 399
#
# _framework density 23.005616
#
# number of rings (size 3 to 8) (size 9 to 14) (size 15 to 20)
#    0.000    1.429    2.857    3.000    0.000    2.857 
#   12.857    0.000    0.000    0.000    0.000    0.000 
#    0.000    0.000    0.000    0.000    0.000    0.000 
#
# Total GULP energy -173546.987360 kJ/mol
# GULP energy per Si atom -12396.213383 kJ/mol
# Density = 2.295325 g / cm^3
# Si number density = 23.005616 Si / 1000 Ang^3
#
#
#
# Elastic Constant Matrix: (Units=GPa)
#
#
# Indices 1 2 3 4 5 6 
#
# 1 108.8267 67.1939 45.9257 -10.1317 -7.7187 -2.7950
# 2 67.1939 168.1394 64.6084 -29.9004 -2.2025 9.1344
# 3 45.9257 64.6084 144.7858 -15.8513 1.6669 1.9643
# 4 -10.1317 -29.9004 -15.8513 37.9074 1.6711 7.3737
# 5 -7.7187 -2.2025 1.6669 1.6711 49.8094 -0.0819
# 6 -2.7950 9.1344 1.9643 7.3737 -0.0819 28.1387
#
#
#
# Elastic Compliance Matrix: (Units=1/GPa)
#
#
# Indices 1 2 3 4 5 6 
#
# 1 0.013263 -0.004970 -0.002295 -0.002134 0.001990 0.003656
# 2 -0.004970 0.010306 -0.002177 0.006985 -0.000485 -0.005519
# 3 -0.002295 -0.002177 0.008785 0.001480 -0.000796 -0.000525
# 4 -0.002134 0.006985 0.001480 0.034241 -0.001239 -0.011559
# 5 0.001990 -0.000485 -0.000796 -0.001239 0.020433 0.000795
# 6 0.003656 -0.005519 -0.000525 -0.011559 0.000795 0.040761
#
#
# Mechanical properties :
#
#
# Convention : Reuss Voigt Hill
#
# Bulk Modulus (GPa) = 74.24972 86.35641 80.30307
# Shear Modulus (GPa) = 33.07682 39.43938 36.25810
#
# Velocity S-wave (km/s) = 3.79591 4.14495 3.97426
# Velocity P-wave (km/s) = 7.18029 7.77985 7.48607
#
# Compressibility (1/GPa) = 0.01346806
#
# Stress axis : x y z
#
# Youngs Moduli (GPa) = 75.39917 97.03076 113.83627
#
# Poissons Ratio (x) = 0.48228 0.26127
# Poissons Ratio (y) = 0.37477 0.24783
# Poissons Ratio (z) = 0.17305 0.21124
#
# Static dielectric constant tensor:
#      x y z
#    x 4.696590 -0.029680 -0.409460 
#    y -0.029680 3.900650 0.104010 
#    z -0.409460 0.104010 4.868330 
# 
# 
# High freq. dielectric constant tensor:
#      x y z
#    x 1.914160 0.003580 0.010830 
#    y 0.003580 1.887350 -0.007940 
#    z 0.010830 -0.007940 1.925540 
# 
# From -- ./inp_files/242228.got.cif
#   From: 2010.06.25/outbox.cif.g09.slc.cpg/sg2_122_cif.got.tgz:242228.got - 2010.06.27 13:26:56.
