data_PCOD8020680
_publ_section_title
;
Structure prediction by ZEFSAII (Michael W. Deem and Ramdas Pophale) SiO2 
 PCOD8020680
Probable space group: P -1
;
_chemical_formula_sum "Si O2"
_cell_formula_units_Z 16
_cell_length_a 8.751091
_cell_length_b 18.243758
_cell_length_c 9.004115
_cell_angle_alpha 149.076781
_cell_angle_beta 89.700596
_cell_angle_gamma 92.356471
_cell_volume 736.842239
_symmetry_space_group_name_H-M "P -1"
_symmetry_group_IT_number 2
_symmetry_cell_setting 'triclinic'
loop_
_space_group_symop_operation_xyz
x,y,z
-x,-y,-z
loop_
_atom_site_type_symbol
_atom_site_label
_atom_site_fract_x
_atom_site_fract_y
_atom_site_fract_z
Si Si1 0.985387 0.580552 0.876422
Si Si2 0.930324 0.689337 0.745948
Si Si3 0.569363 0.634834 0.643841
Si Si4 0.020648 0.989008 0.806477
Si Si5 0.755361 0.764105 0.328134
Si Si6 0.499632 0.652538 0.337640
Si Si7 0.501809 0.835372 0.232133
Si Si8 0.752329 0.238812 0.664583
O O1 0.984266 0.411336 0.546474
O O2 0.994995 0.669228 0.876045
O O3 0.126327 0.629821 0.069175
O O4 0.834778 0.617447 0.033669
O O5 0.752132 0.638702 0.649235
O O6 0.964930 0.853705 0.989593
O O7 0.500000 0.500000 0.500000
O O8 0.500301 0.632531 0.477200
O O9 0.504993 0.773278 0.959132
O O10 0.875581 0.899375 0.582040
O O11 0.171940 0.909078 0.626648
O O12 0.000000 0.000000 0.000000
O O13 0.652756 0.745556 0.444682
O O14 0.655107 0.794832 0.240402
O O15 0.347002 0.727085 0.420214
O O16 0.500000 0.500000 0.000000
O O17 0.353621 0.773754 0.212668
O O18 0.500000 0.000000 0.500000
#
# Coordination Sequence:
#
# PCOD8020680 Si02
#       8
#     2   2   2   2   2   2   2   2
#     4  10  22  42  71  97 137 173 231 280 339 401
#     4  11  23  41  69 103 133 176 231 286 335 401
#     4  12  24  44  71  99 135 176 231 282 339 404
#     4  11  25  44  68  99 143 180 228 277 349 412
#     4  10  23  44  66  99 134 180 224 277 346 404
#     4  11  24  44  72 100 141 178 228 289 339 407
#     4  11  23  40  65  97 133 177 226 275 337 400
#     4  10  24  44  65 100 134 179 223 277 345 402
#
# _framework density 21.714281
#
# number of rings (size 3 to 8) (size 9 to 14) (size 15 to 20)
#    0.000    1.250    1.250    4.500    1.750    3.000 
#    2.250    6.250    0.000    0.000    0.000    0.000 
#    0.000    0.000    0.000    0.000    0.000    0.000 
#
# Total GULP energy -198454.176707 kJ/mol
# GULP energy per Si atom -12403.386044 kJ/mol
# Density = 2.166486 g / cm^3
# Si number density = 21.714281 Si / 1000 Ang^3
#
#
#
# Elastic Constant Matrix: (Units=GPa)
#
#
# Indices 1 2 3 4 5 6 
#
# 1 135.7384 50.2385 56.6203 -0.0005 -5.8397 -11.1443
# 2 50.2385 129.1448 62.8535 -6.7360 -0.2432 -8.0417
# 3 56.6203 62.8535 160.2339 1.4793 -14.7551 -7.5837
# 4 -0.0005 -6.7360 1.4793 50.6326 2.0160 0.8006
# 5 -5.8397 -0.2432 -14.7551 2.0160 28.9175 6.1411
# 6 -11.1443 -8.0417 -7.5837 0.8006 6.1411 15.1060
#
#
#
# Elastic Compliance Matrix: (Units=1/GPa)
#
#
# Indices 1 2 3 4 5 6 
#
# 1 0.009555 -0.002340 -0.002250 -0.000312 -0.000233 0.004784
# 2 -0.002340 0.010627 -0.003473 0.001581 -0.002968 0.003310
# 3 -0.002250 -0.003473 0.008757 -0.000873 0.004211 -0.000778
# 4 -0.000312 0.001581 -0.000873 0.020062 -0.001866 -0.000131
# 5 -0.000233 -0.002968 0.004211 -0.001866 0.040157 -0.015864
# 6 0.004784 0.003310 -0.000778 -0.000131 -0.015864 0.077556
#
#
# Mechanical properties :
#
#
# Convention : Reuss Voigt Hill
#
# Bulk Modulus (GPa) = 78.05285 84.94908 81.50097
# Shear Modulus (GPa) = 26.72195 35.95820 31.34008
#
# Velocity S-wave (km/s) = 3.51182 4.07378 3.80319
# Velocity P-wave (km/s) = 7.24343 7.83159 7.54324
#
# Compressibility (1/GPa) = 0.01281183
#
# Stress axis : x y z
#
# Youngs Moduli (GPa) = 104.65919 94.10113 114.19081
#
# Poissons Ratio (x) = 0.22024 0.25697
# Poissons Ratio (y) = 0.24495 0.39656
# Poissons Ratio (z) = 0.23552 0.32679
#
# Static dielectric constant tensor:
#      x y z
#    x 4.252770 -0.005630 -0.156610 
#    y -0.005630 3.823870 0.029430 
#    z -0.156610 0.029430 4.227540 
# 
# 
# High freq. dielectric constant tensor:
#      x y z
#    x 1.867380 -0.003200 -0.005960 
#    y -0.003200 1.852330 -0.006110 
#    z -0.005960 -0.006110 1.865710 
# 
# From -- ./inp_files/184214.got.cif
#   From: 2010.06.25/outbox.cif.g09.slc.cpg/sg2_93_cif.got.tgz:184214.got - 2010.06.27 13:26:56.
