data_PCOD8020681
_publ_section_title
;
Structure prediction by ZEFSAII (Michael W. Deem and Ramdas Pophale) SiO2 
 PCOD8020681
Probable space group: P -1
;
_chemical_formula_sum "Si O2"
_cell_formula_units_Z 14
_cell_length_a 7.151321
_cell_length_b 8.953695
_cell_length_c 11.722009
_cell_angle_alpha 105.728649
_cell_angle_beta 75.170553
_cell_angle_gamma 71.779553
_cell_volume 636.815031
_symmetry_space_group_name_H-M "P -1"
_symmetry_group_IT_number 2
_symmetry_cell_setting 'triclinic'
loop_
_space_group_symop_operation_xyz
x,y,z
-x,-y,-z
loop_
_atom_site_type_symbol
_atom_site_label
_atom_site_fract_x
_atom_site_fract_y
_atom_site_fract_z
Si Si1 0.218213 0.524563 0.478984
Si Si2 0.728281 0.695841 0.378483
Si Si3 0.622586 0.809545 0.985535
Si Si4 0.578593 0.185171 0.751504
Si Si5 0.940021 0.440841 0.116627
Si Si6 0.074894 0.122046 0.447848
Si Si7 0.530016 0.538547 0.801039
O O1 0.338402 0.429639 0.555734
O O2 0.374762 0.441840 0.331563
O O3 0.000000 0.500000 0.500000
O O4 0.133701 0.729277 0.542929
O O5 0.527144 0.804245 0.354450
O O6 0.794838 0.814359 0.472275
O O7 0.927749 0.580400 0.243499
O O8 0.590967 0.800136 0.123116
O O9 0.875688 0.741389 0.913723
O O10 0.544803 0.676851 0.912290
O O11 0.500000 0.000000 0.000000
O O12 0.653523 0.341354 0.783123
O O13 0.768571 0.998302 0.698597
O O14 0.717938 0.424450 0.153864
O O15 0.000000 0.500000 0.000000
O O16 0.000000 0.000000 0.500000
#
# Coordination Sequence:
#
# PCOD8020681 Si02
#       7
#     2   2   2   2   2   2   2
#     4  10  22  42  71  97 138 179 229 276 351 404
#     4  10  23  42  67  93 141 175 224 283 336 413
#     4  12  27  45  72 102 142 179 235 295 346 413
#     4  11  24  43  65  99 133 186 226 275 351 407
#     4  11  24  45  73 101 133 188 235 278 353 410
#     4  11  22  39  64 103 130 173 227 278 345 403
#     4  11  24  47  74  99 139 187 235 281 351 418
#
# _framework density 21.984407000000001
#
# number of rings (size 3 to 8) (size 9 to 14) (size 15 to 20)
#    0.000    1.143    4.286    2.571    6.000    2.857 
#    0.000    0.000    0.000    0.000    0.000    0.000 
#    0.000    0.000    0.000    0.000    0.000    0.000 
#
# Total GULP energy -173481.271720 kJ/mol
# GULP energy per Si atom -12391.519409 kJ/mol
# Density = 2.193437 g / cm^3
# Si number density = 21.984407 Si / 1000 Ang^3
#
#
#
# Elastic Constant Matrix: (Units=GPa)
#
#
# Indices 1 2 3 4 5 6 
#
# 1 84.5420 40.2203 45.7148 6.3805 -14.1650 -0.0068
# 2 40.2203 137.4256 53.9227 10.1207 2.2286 -5.1743
# 3 45.7148 53.9227 133.0813 6.2078 -20.3246 0.3311
# 4 6.3805 10.1207 6.2078 52.1683 4.2908 -3.8295
# 5 -14.1650 2.2286 -20.3246 4.2908 40.7127 5.1020
# 6 -0.0068 -5.1743 0.3311 -3.8295 5.1020 35.1226
#
#
#
# Elastic Compliance Matrix: (Units=1/GPa)
#
#
# Indices 1 2 3 4 5 6 
#
# 1 0.016136 -0.003394 -0.003431 -0.001359 0.004387 -0.001250
# 2 -0.003394 0.009739 -0.003293 -0.000652 -0.003529 0.001907
# 3 -0.003431 -0.003293 0.010766 -0.000699 0.004602 -0.001332
# 4 -0.001359 -0.000652 -0.000699 0.019997 -0.003214 0.002557
# 5 0.004387 -0.003529 0.004602 -0.003214 0.029571 -0.005208
# 6 -0.001250 0.001907 -0.001332 0.002557 -0.005208 0.029800
#
#
# Mechanical properties :
#
#
# Convention : Reuss Voigt Hill
#
# Bulk Modulus (GPa) = 60.96180 70.52936 65.74558
# Shear Modulus (GPa) = 35.28208 39.94678 37.61443
#
# Velocity S-wave (km/s) = 4.01043 4.26731 4.14086
# Velocity P-wave (km/s) = 7.01673 7.51207 7.26862
#
# Compressibility (1/GPa) = 0.01640372
#
# Stress axis : x y z
#
# Youngs Moduli (GPa) = 61.97275 102.67544 92.88531
#
# Poissons Ratio (x) = 0.34852 0.31869
# Poissons Ratio (y) = 0.21036 0.30592
# Poissons Ratio (z) = 0.21263 0.33816
#
# Static dielectric constant tensor:
#      x y z
#    x 4.012510 -0.137380 -0.222040 
#    y -0.137380 4.191770 -0.044540 
#    z -0.222040 -0.044540 4.325640 
# 
# 
# High freq. dielectric constant tensor:
#      x y z
#    x 1.853800 -0.003010 -0.017270 
#    y -0.003010 1.867850 0.002650 
#    z -0.017270 0.002650 1.881690 
# 
# From -- ./inp_files/379858.got.cif
#   From: 2010.06.25/outbox.cif.g09.slc.cpg/sg2_190_cif.got.tgz:379858.got - 2010.06.27 13:26:56.
