data_PCOD8020043
_publ_section_title
;
Structure prediction by ZEFSAII (Michael W. Deem and Ramdas Pophale) SiO2 
 PCOD8020043
Probable space group: P -1
;
_chemical_formula_sum "Si O2"
_cell_formula_units_Z 14
_cell_length_a 6.828806
_cell_length_b 14.165994
_cell_length_c 16.601197
_cell_angle_alpha 32.484194
_cell_angle_beta 124.225640
_cell_angle_gamma 136.461696
_cell_volume 588.881662
_symmetry_space_group_name_H-M "P -1"
_symmetry_group_IT_number 2
_symmetry_cell_setting 'triclinic'
loop_
_space_group_symop_operation_xyz
x,y,z
-x,-y,-z
loop_
_atom_site_type_symbol
_atom_site_label
_atom_site_fract_x
_atom_site_fract_y
_atom_site_fract_z
Si Si1 0.693216 0.962393 0.629099
Si Si2 0.377400 0.633750 0.353327
Si Si3 0.315828 0.770101 0.080240
Si Si4 0.701281 0.929833 0.343636
Si Si5 0.317335 0.689126 0.956788
Si Si6 0.249532 0.659100 0.556277
Si Si7 0.662887 0.497265 0.145705
O O1 0.505048 0.717005 0.795470
O O2 0.500000 0.000000 0.500000
O O3 0.790423 0.144631 0.586880
O O4 0.973398 0.001106 0.620026
O O5 0.500000 0.500000 0.500000
O O6 0.344167 0.622549 0.256977
O O7 0.602681 0.871913 0.268574
O O8 0.070281 0.544801 0.389634
O O9 0.413931 0.751062 0.028404
O O10 0.980781 0.673331 0.062944
O O11 0.500000 0.000000 0.000000
O O12 0.484746 0.719988 0.497805
O O13 0.658572 0.114774 0.225015
O O14 0.519571 0.626343 0.012230
O O15 0.000000 0.500000 0.000000
O O16 0.365014 0.601893 0.701521
#
# Coordination Sequence:
#
# PCOD8020043 Si02
#       7
#     2   2   2   2   2   2   2
#     4  10  22  42  65 101 138 180 230 285 351 402
#     4  11  23  45  71 103 137 183 234 288 350 411
#     4  11  26  49  69  97 146 186 226 289 348 415
#     4  12  24  43  70 102 142 177 238 285 347 417
#     4  12  27  46  70 105 139 186 234 282 347 418
#     4  10  24  42  69 102 136 181 228 295 345 408
#     4  10  25  43  69 101 137 182 233 279 355 410
#
# _framework density 23.773876999999999
#
# number of rings (size 3 to 8) (size 9 to 14) (size 15 to 20)
#    0.000    1.143    4.286    0.429    4.000    5.714 
#    0.000    0.000    0.000    0.000    0.000    0.000 
#    0.000    0.000    0.000    0.000    0.000    0.000 
#
# Total GULP energy -173471.848802 kJ/mol
# GULP energy per Si atom -12390.846343 kJ/mol
# Density = 2.371977 g / cm^3
# Si number density = 23.773877 Si / 1000 Ang^3
#
#
#
# Elastic Constant Matrix: (Units=GPa)
#
#
# Indices 1 2 3 4 5 6 
#
# 1 63.5027 12.5810 38.0659 1.2654 21.1034 27.3613
# 2 12.5810 100.0000 26.4185 -15.3356 9.9460 16.4720
# 3 38.0659 26.4185 74.6965 -3.3383 17.5385 15.3995
# 4 1.2654 -15.3356 -3.3383 42.8407 -0.8441 1.8447
# 5 21.1034 9.9460 17.5385 -0.8441 50.5819 -1.4739
# 6 27.3613 16.4720 15.3995 1.8447 -1.4739 41.8110
#
#
#
# Elastic Compliance Matrix: (Units=1/GPa)
#
#
# Indices 1 2 3 4 5 6 
#
# 1 0.034787 0.003220 -0.012038 -0.000179 -0.011559 -0.019999
# 2 0.003220 0.012539 -0.004103 0.004275 -0.002484 -0.005812
# 3 -0.012038 -0.004103 0.020965 0.000420 -0.001384 0.001705
# 4 -0.000179 0.004275 0.000420 0.025022 -0.000577 -0.002846
# 5 -0.011559 -0.002484 -0.001384 -0.000577 0.025842 0.009989
# 6 -0.019999 -0.005812 0.001705 -0.002846 0.009989 0.039144
#
#
# Mechanical properties :
#
#
# Convention : Reuss Voigt Hill
#
# Bulk Modulus (GPa) = 23.55717 43.59220 33.57469
# Shear Modulus (GPa) = 25.21550 37.78898 31.50224
#
# Velocity S-wave (km/s) = 3.26028 3.99120 3.64411
# Velocity P-wave (km/s) = 4.90947 6.29409 5.64440
#
# Compressibility (1/GPa) = 0.04244992
#
# Stress axis : x y z
#
# Youngs Moduli (GPa) = 28.74633 79.75171 47.69786
#
# Poissons Ratio (x) = -0.25680 0.57417
# Poissons Ratio (y) = -0.09256 0.19571
# Poissons Ratio (z) = 0.34604 0.32723
#
# Static dielectric constant tensor:
#      x y z
#    x 4.757470 -0.122140 0.727830 
#    y -0.122140 5.279160 -0.389020 
#    z 0.727830 -0.389020 5.094710 
# 
# 
# High freq. dielectric constant tensor:
#      x y z
#    x 1.926380 0.008220 0.005460 
#    y 0.008220 1.957950 -0.005510 
#    z 0.005460 -0.005510 1.950320 
# 
# From -- ./inp_files/126867.got.cif
#   From: 2010.06.25/outbox.cif.g09.slc.cpg/sg2_64_cif.got.tgz:126867.got - 2010.06.27 13:26:56.
