data_PCOD8020930
_publ_section_title
;
Structure prediction by ZEFSAII (Michael W. Deem and Ramdas Pophale) SiO2 
 PCOD8020930
Probable space group: P -1
;
_chemical_formula_sum "Si O2"
_cell_formula_units_Z 16
_cell_length_a 14.465709
_cell_length_b 18.651698
_cell_length_c 7.994548
_cell_angle_alpha 70.151796
_cell_angle_beta 61.962024
_cell_angle_gamma 22.912917
_cell_volume 713.303139
_symmetry_space_group_name_H-M "P -1"
_symmetry_group_IT_number 2
_symmetry_cell_setting 'triclinic'
loop_
_space_group_symop_operation_xyz
x,y,z
-x,-y,-z
loop_
_atom_site_type_symbol
_atom_site_label
_atom_site_fract_x
_atom_site_fract_y
_atom_site_fract_z
Si Si1 0.087783 0.591301 0.670242
Si Si2 0.347676 0.973857 0.788443
Si Si3 0.670120 0.264493 0.415283
Si Si4 0.176724 0.239020 0.898433
Si Si5 0.956327 0.129343 0.585410
Si Si6 0.910925 0.145255 0.981189
Si Si7 0.301558 0.037940 0.404898
Si Si8 0.915326 0.553883 0.718439
O O1 0.381491 0.424871 0.552257
O O2 0.911551 0.751685 0.552584
O O3 0.088274 0.500206 0.715607
O O4 0.944554 0.710762 0.867808
O O5 0.219676 0.138075 0.824378
O O6 0.422367 0.932788 0.562905
O O7 0.609301 0.779058 0.823169
O O8 0.150330 0.035874 0.932784
O O9 0.734867 0.274347 0.513788
O O10 0.688151 0.297987 0.195564
O O11 0.882039 0.056129 0.396485
O O12 0.962964 0.438281 0.841369
O O13 0.452186 0.099111 0.808138
O O14 0.154743 0.065203 0.420313
O O15 0.821870 0.234177 0.800796
O O16 0.000000 0.000000 0.000000
O O17 0.000000 0.500000 0.500000
#
# Coordination Sequence:
#
# PCOD8020930 Si02
#       8
#     2   2   2   2   2   2   2   2
#     4  12  27  42  65 104 139 182 226 286 347 416
#     4  11  24  46  70 103 135 184 230 281 353 407
#     4  10  22  43  65  95 136 176 237 282 344 402
#     4  12  25  44  67 103 142 176 230 281 347 420
#     4   9  21  41  68  94 129 184 226 291 342 404
#     4   9  21  41  70  97 132 183 231 284 344 410
#     4  11  22  44  67  93 142 175 224 285 343 409
#     4  12  25  43  74 100 136 182 225 284 346 415
#
# _framework density 22.430857
#
# number of rings (size 3 to 8) (size 9 to 14) (size 15 to 20)
#    0.000    1.250    2.500    2.625    5.250    3.500 
#    2.250    1.250    0.000    0.000    0.000    0.000 
#    0.000    0.000    0.000    0.000    0.000    0.000 
#
# Total GULP energy -198404.105838 kJ/mol
# GULP energy per Si atom -12400.256615 kJ/mol
# Density = 2.237980 g / cm^3
# Si number density = 22.430857 Si / 1000 Ang^3
#
#
#
# Elastic Constant Matrix: (Units=GPa)
#
#
# Indices 1 2 3 4 5 6 
#
# 1 133.1349 45.3977 60.3149 8.1497 -16.4035 -18.6901
# 2 45.3977 108.0349 35.3770 6.4554 -3.4048 -10.6704
# 3 60.3149 35.3770 141.7874 15.3774 -7.8896 -26.5301
# 4 8.1497 6.4554 15.3774 23.1464 -2.0591 -9.4268
# 5 -16.4035 -3.4048 -7.8896 -2.0591 36.1048 -0.3421
# 6 -18.6901 -10.6704 -26.5301 -9.4268 -0.3421 31.7494
#
#
#
# Elastic Compliance Matrix: (Units=1/GPa)
#
#
# Indices 1 2 3 4 5 6 
#
# 1 0.010882 -0.003168 -0.003134 0.000704 0.004029 0.002975
# 2 -0.003168 0.011086 -0.001255 -0.001000 -0.000720 0.000507
# 3 -0.003134 -0.001255 0.010035 -0.003040 0.000527 0.005222
# 4 0.000704 -0.001000 -0.003040 0.050611 0.002567 0.012593
# 5 0.004029 -0.000720 0.000527 0.002567 0.029756 0.003652
# 6 0.002975 0.000507 0.005222 0.012593 0.003652 0.041560
#
#
# Mechanical properties :
#
#
# Convention : Reuss Voigt Hill
#
# Bulk Modulus (GPa) = 59.21113 73.90405 66.55759
# Shear Modulus (GPa) = 28.62477 34.32463 31.47470
#
# Velocity S-wave (km/s) = 3.57618 3.91607 3.74998
# Velocity P-wave (km/s) = 6.59595 7.31208 6.96323
#
# Compressibility (1/GPa) = 0.01688872
#
# Stress axis : x y z
#
# Youngs Moduli (GPa) = 91.89277 90.20735 99.64776
#
# Poissons Ratio (x) = 0.28576 0.31233
# Poissons Ratio (y) = 0.29110 0.12506
# Poissons Ratio (z) = 0.28803 0.11322
#
# Static dielectric constant tensor:
#      x y z
#    x 4.220990 0.033930 0.074890 
#    y 0.033930 4.351050 -0.171380 
#    z 0.074890 -0.171380 4.332780 
# 
# 
# High freq. dielectric constant tensor:
#      x y z
#    x 1.892840 -0.000590 -0.005970 
#    y -0.000590 1.872300 -0.008560 
#    z -0.005970 -0.008560 1.888980 
# 
# From -- ./inp_files/319326.got.cif
#   From: 2010.06.25/outbox.cif.g09.slc.cpg/sg2_160_cif.got.tgz:319326.got - 2010.06.27 13:26:56.
