data_PCOD8020938
_publ_section_title
;
Structure prediction by ZEFSAII (Michael W. Deem and Ramdas Pophale) SiO2 
 PCOD8020938
Probable space group: P -1
;
_chemical_formula_sum "Si O2"
_cell_formula_units_Z 16
_cell_length_a 15.405868
_cell_length_b 5.296713
_cell_length_c 18.788747
_cell_angle_alpha 86.018826
_cell_angle_beta 154.713881
_cell_angle_gamma 90.608884
_cell_volume 648.385236
_symmetry_space_group_name_H-M "P -1"
_symmetry_group_IT_number 2
_symmetry_cell_setting 'triclinic'
loop_
_space_group_symop_operation_xyz
x,y,z
-x,-y,-z
loop_
_atom_site_type_symbol
_atom_site_label
_atom_site_fract_x
_atom_site_fract_y
_atom_site_fract_z
Si Si1 0.479100 0.407355 0.635306
Si Si2 0.243006 0.929035 0.448402
Si Si3 0.745708 0.256154 0.246603
Si Si4 0.506905 0.219702 0.809844
Si Si5 0.896642 0.835275 0.102950
Si Si6 0.679061 0.535209 0.051483
Si Si7 0.138583 0.899810 0.525904
Si Si8 0.913550 0.273641 0.901137
O O1 0.396170 0.687970 0.537476
O O2 0.518710 0.424299 0.749965
O O3 0.671637 0.311813 0.730908
O O4 0.330935 0.192827 0.518170
O O5 0.172317 0.812038 0.472416
O O6 0.050152 0.005626 0.252499
O O7 0.785339 0.440114 0.206783
O O8 0.803973 0.335529 0.370280
O O9 0.500559 0.232285 0.066817
O O10 0.896074 0.995559 0.351759
O O11 0.287587 0.114403 0.652892
O O12 0.564687 0.326169 0.927855
O O13 0.682284 0.993172 0.920167
O O14 0.858507 0.614720 0.134640
O O15 0.017000 0.701774 0.128624
O O16 0.000000 0.500000 0.000000
O O17 0.000000 0.000000 0.000000
#
# Coordination Sequence:
#
# PCOD8020938 Si02
#       8
#     2   2   2   2   2   2   2   2
#     4  11  25  47  74 107 143 193 237 295 353 434
#     4  11  27  46  74 104 151 187 240 294 362 426
#     4  10  22  43  65  97 144 183 247 297 361 426
#     4  11  23  41  72  95 142 186 243 294 361 431
#     4  12  27  45  71 104 144 189 234 301 364 424
#     4  11  24  43  65 103 138 187 240 303 362 420
#     4  10  22  44  66 102 135 192 239 297 359 426
#     4  12  26  46  78 114 145 187 241 293 355 431
#
# _framework density 24.676690000000001
#
# number of rings (size 3 to 8) (size 9 to 14) (size 15 to 20)
#    0.000    1.000    2.500    3.000    8.750    2.000 
#    9.000    0.000    0.000    0.000    0.000    0.000 
#    0.000    0.000    0.000    0.000    0.000    0.000 
#
# Total GULP energy -198258.426200 kJ/mol
# GULP energy per Si atom -12391.151637 kJ/mol
# Density = 2.462053 g / cm^3
# Si number density = 24.676690 Si / 1000 Ang^3
#
#
#
# Elastic Constant Matrix: (Units=GPa)
#
#
# Indices 1 2 3 4 5 6 
#
# 1 140.2352 -0.2354 32.8247 12.3496 5.4265 0.5236
# 2 -0.2354 72.0629 12.6377 8.4746 -5.3476 -2.2672
# 3 32.8247 12.6377 100.6249 -8.1881 -5.4669 -0.9387
# 4 12.3496 8.4746 -8.1881 34.2408 -3.4197 -6.1220
# 5 5.4265 -5.3476 -5.4669 -3.4197 29.8437 -5.6937
# 6 0.5236 -2.2672 -0.9387 -6.1220 -5.6937 24.2856
#
#
#
# Elastic Compliance Matrix: (Units=1/GPa)
#
#
# Indices 1 2 3 4 5 6 
#
# 1 0.008485 0.000909 -0.003453 -0.004789 -0.002969 -0.002135
# 2 0.000909 0.014960 -0.002432 -0.004339 0.001684 0.000584
# 3 -0.003453 -0.002432 0.012034 0.005528 0.003513 0.002530
# 4 -0.004789 -0.004339 0.005528 0.035963 0.007265 0.010681
# 5 -0.002969 0.001684 0.003513 0.007265 0.037940 0.011083
# 6 -0.002135 0.000584 0.002530 0.010681 0.011083 0.046666
#
#
# Mechanical properties :
#
#
# Convention : Reuss Voigt Hill
#
# Bulk Modulus (GPa) = 39.17276 44.81968 41.99622
# Shear Modulus (GPa) = 28.65189 35.52042 32.08616
#
# Velocity S-wave (km/s) = 3.41118 3.79810 3.60983
# Velocity P-wave (km/s) = 5.60568 6.11852 5.86771
#
# Compressibility (1/GPa) = 0.02552795
#
# Stress axis : x y z
#
# Youngs Moduli (GPa) = 117.85154 66.84589 83.09823
#
# Poissons Ratio (x) = -0.06077 0.28694
# Poissons Ratio (y) = -0.10713 0.20205
# Poissons Ratio (z) = 0.40695 0.16254
#
# Static dielectric constant tensor:
#      x y z
#    x 5.755140 0.052960 -0.084470 
#    y 0.052960 4.002340 -0.160650 
#    z -0.084470 -0.160650 4.678140 
# 
# 
# High freq. dielectric constant tensor:
#      x y z
#    x 1.998220 -0.007400 0.003850 
#    y -0.007400 1.952130 -0.012200 
#    z 0.003850 -0.012200 1.996070 
# 
# From -- ./inp_files/141297.got.cif
#   From: 2010.06.25/outbox.cif.g09.slc.cpg/sg2_71_cif.got.tgz:141297.got - 2010.06.27 13:26:56.
