data_PCOD8020596
_publ_section_title
;
Structure prediction by ZEFSAII (Michael W. Deem and Ramdas Pophale) SiO2 
 PCOD8020596
Probable space group: P -1
;
_chemical_formula_sum "Si O2"
_cell_formula_units_Z 16
_cell_length_a 13.930718
_cell_length_b 7.672241
_cell_length_c 12.054426
_cell_angle_alpha 98.147854
_cell_angle_beta 119.039791
_cell_angle_gamma 41.971662
_cell_volume 698.372405
_symmetry_space_group_name_H-M "P -1"
_symmetry_group_IT_number 2
_symmetry_cell_setting 'triclinic'
loop_
_space_group_symop_operation_xyz
x,y,z
-x,-y,-z
loop_
_atom_site_type_symbol
_atom_site_label
_atom_site_fract_x
_atom_site_fract_y
_atom_site_fract_z
Si Si1 0.649848 0.398216 0.722552
Si Si2 0.582105 0.579989 0.320878
Si Si3 0.384362 0.367156 0.050636
Si Si4 0.905263 0.036829 0.347657
Si Si5 0.331890 0.327063 0.421171
Si Si6 0.377094 0.976961 0.044047
Si Si7 0.976021 0.597714 0.240429
Si Si8 0.006934 0.825873 0.787348
O O1 0.503367 0.430157 0.629119
O O2 0.592250 0.534262 0.824440
O O3 0.623730 0.579792 0.634247
O O4 0.841802 0.069654 0.795917
O O5 0.700656 0.335108 0.273598
O O6 0.703242 0.559429 0.461955
O O7 0.422254 0.859866 0.183630
O O8 0.435893 0.105579 0.088642
O O9 0.507886 0.268952 0.007441
O O10 0.180545 0.638601 0.936118
O O11 0.997824 0.020574 0.296170
O O12 0.919919 0.806402 0.323641
O O13 0.000000 0.000000 0.500000
O O14 0.167338 0.421096 0.289975
O O15 0.500000 0.000000 0.500000
O O16 0.169099 0.211379 0.922809
O O17 0.992043 0.377862 0.276503
#
# Coordination Sequence:
#
# PCOD8020596 Si02
#       8
#     2   2   2   2   2   2   2   2
#     4  12  25  43  71 105 142 192 239 294 361 428
#     4  12  25  44  74 104 143 190 241 295 354 430
#     4  10  22  42  70 104 147 185 235 299 358 424
#     4  12  24  46  70 105 144 186 243 295 351 426
#     4  12  26  48  69 101 148 190 237 296 359 429
#     4  10  23  44  71 110 140 182 246 296 358 422
#     4  11  25  45  73 102 145 189 231 305 353 422
#     4  11  24  45  71 105 147 185 240 293 361 431
#
# _framework density 22.910412999999998
#
# number of rings (size 3 to 8) (size 9 to 14) (size 15 to 20)
#    0.000    0.750    3.750    3.000    1.750    3.500 
#    2.250    3.125    0.000    0.000    0.000    0.000 
#    0.000    0.000    0.000    0.000    0.000    0.000 
#
# Total GULP energy -198291.037316 kJ/mol
# GULP energy per Si atom -12393.189832 kJ/mol
# Density = 2.285827 g / cm^3
# Si number density = 22.910413 Si / 1000 Ang^3
#
#
#
# Elastic Constant Matrix: (Units=GPa)
#
#
# Indices 1 2 3 4 5 6 
#
# 1 100.5544 25.3654 35.6553 -9.4877 0.4859 -7.5715
# 2 25.3654 98.9451 11.6702 2.5891 -1.2065 5.8984
# 3 35.6553 11.6702 79.2169 -2.7680 4.0422 8.2748
# 4 -9.4877 2.5891 -2.7680 34.1178 -4.7828 3.6848
# 5 0.4859 -1.2065 4.0422 -4.7828 32.8775 -4.5904
# 6 -7.5715 5.8984 8.2748 3.6848 -4.5904 39.8576
#
#
#
# Elastic Compliance Matrix: (Units=1/GPa)
#
#
# Indices 1 2 3 4 5 6 
#
# 1 0.013451 -0.003054 -0.005997 0.003247 0.001474 0.004122
# 2 -0.003054 0.011061 -0.000089 -0.001478 -0.000042 -0.002067
# 3 -0.005997 -0.000089 0.015951 -0.000217 -0.002565 -0.004713
# 4 0.003247 -0.001478 -0.000217 0.031064 0.004234 -0.001503
# 5 0.001474 -0.000042 -0.002565 0.004234 0.031897 0.004101
# 6 0.004122 -0.002067 -0.004713 -0.001503 0.004101 0.027768
#
#
# Mechanical properties :
#
#
# Convention : Reuss Voigt Hill
#
# Bulk Modulus (GPa) = 45.07460 47.12203 46.09831
# Shear Modulus (GPa) = 31.87442 35.10562 33.49002
#
# Velocity S-wave (km/s) = 3.73401 3.91871 3.82747
# Velocity P-wave (km/s) = 6.18930 6.40996 6.30060
#
# Compressibility (1/GPa) = 0.02218545
#
# Stress axis : x y z
#
# Youngs Moduli (GPa) = 74.34284 90.40524 62.69039
#
# Poissons Ratio (x) = 0.27607 0.37594
# Poissons Ratio (y) = 0.22702 0.00556
# Poissons Ratio (z) = 0.44582 0.00802
#
# Static dielectric constant tensor:
#      x y z
#    x 3.878740 0.141200 0.335970 
#    y 0.141200 4.509290 -0.081640 
#    z 0.335970 -0.081640 3.963060 
# 
# 
# High freq. dielectric constant tensor:
#      x y z
#    x 1.902060 0.001980 0.017230 
#    y 0.001980 1.922700 -0.008100 
#    z 0.017230 -0.008100 1.902660 
# 
# From -- ./inp_files/447531.got.cif
#   From: 2010.06.25/outbox.cif.g09.slc.cpg/sg2_224_cif.got.tgz:447531.got - 2010.06.27 13:26:56.
