data_PCOD8020329
_publ_section_title
;
Structure prediction by ZEFSAII (Michael W. Deem and Ramdas Pophale) SiO2 
 PCOD8020329
Probable space group: P -1
;
_chemical_formula_sum "Si O2"
_cell_formula_units_Z 14
_cell_length_a 11.176568
_cell_length_b 14.406327
_cell_length_c 14.822532
_cell_angle_alpha 151.505637
_cell_angle_beta 38.390470
_cell_angle_gamma 125.502445
_cell_volume 658.326065
_symmetry_space_group_name_H-M "P -1"
_symmetry_group_IT_number 2
_symmetry_cell_setting 'triclinic'
loop_
_space_group_symop_operation_xyz
x,y,z
-x,-y,-z
loop_
_atom_site_type_symbol
_atom_site_label
_atom_site_fract_x
_atom_site_fract_y
_atom_site_fract_z
Si Si1 0.729327 0.858472 0.767331
Si Si2 0.742027 0.129429 0.361165
Si Si3 0.596024 0.515576 0.053320
Si Si4 0.278280 0.574206 0.647587
Si Si5 0.856049 0.806196 0.175281
Si Si6 0.922704 0.070560 0.505432
Si Si7 0.796170 0.008209 0.044091
O O1 0.768623 0.616669 0.529972
O O2 0.898401 0.911371 0.652044
O O3 0.500000 0.000000 0.000000
O O4 0.728051 0.902858 0.911803
O O5 0.591723 0.369142 0.669046
O O6 0.676264 0.014992 0.216422
O O7 0.758899 0.002064 0.333695
O O8 0.963440 0.132070 0.204169
O O9 0.737009 0.655045 0.093062
O O10 0.500000 0.500000 0.000000
O O11 0.733376 0.288819 0.814248
O O12 0.500000 0.500000 0.500000
O O13 0.255553 0.745076 0.730864
O O14 0.101397 0.683596 0.918621
O O15 0.831556 0.903930 0.374049
O O16 0.000000 0.000000 0.500000
#
# Coordination Sequence:
#
# PCOD8020329 Si02
#       7
#     2   2   2   2   2   2   2
#     4  12  22  43  68  94 135 178 222 280 345 405
#     4  10  22  42  67  95 131 175 221 281 333 402
#     4  12  24  44  71  97 139 185 229 275 352 410
#     4  11  21  40  68  94 132 177 216 276 353 397
#     4  11  23  45  67  95 140 174 226 288 337 407
#     4  12  27  46  69 104 138 180 236 288 340 416
#     4  10  22  43  63  96 134 165 227 278 330 405
#
# _framework density 21.266058999999998
#
# number of rings (size 3 to 8) (size 9 to 14) (size 15 to 20)
#    0.000    0.857    7.143    0.429    0.000    4.000 
#    2.571    2.143    0.000    0.000    0.000    0.000 
#    0.000    0.000    0.000    0.000    0.000    0.000 
#
# Total GULP energy -173449.564880 kJ/mol
# GULP energy per Si atom -12389.254634 kJ/mol
# Density = 2.121766 g / cm^3
# Si number density = 21.266059 Si / 1000 Ang^3
#
#
#
# Elastic Constant Matrix: (Units=GPa)
#
#
# Indices 1 2 3 4 5 6 
#
# 1 171.7786 49.5956 80.4762 -2.2946 22.5422 -15.8266
# 2 49.5956 40.0398 36.4510 9.3907 8.6622 3.1295
# 3 80.4762 36.4510 172.9461 8.2619 -7.4077 -14.6036
# 4 -2.2946 9.3907 8.2619 33.3588 3.5795 5.9123
# 5 22.5422 8.6622 -7.4077 3.5795 51.4761 -4.8242
# 6 -15.8266 3.1295 -14.6036 5.9123 -4.8242 34.3068
#
#
#
# Elastic Compliance Matrix: (Units=1/GPa)
#
#
# Indices 1 2 3 4 5 6 
#
# 1 0.011621 -0.012549 -0.002786 0.004661 -0.003323 0.004050
# 2 -0.012549 0.049551 -0.005177 -0.011143 -0.003856 -0.011135
# 3 -0.002786 -0.005177 0.008749 -0.001986 0.003844 0.003794
# 4 0.004661 -0.011143 -0.001986 0.035018 -0.003278 -0.004175
# 5 -0.003323 -0.003856 0.003844 -0.003278 0.022706 0.004213
# 6 0.004050 -0.011135 0.003794 -0.004175 0.004213 0.034960
#
#
# Mechanical properties :
#
#
# Convention : Reuss Voigt Hill
#
# Bulk Modulus (GPa) = 34.60586 79.75668 57.18127
# Shear Modulus (GPa) = 23.44531 38.37779 30.91155
#
# Velocity S-wave (km/s) = 3.32396 4.25273 3.81670
# Velocity P-wave (km/s) = 5.57133 7.85493 6.80954
#
# Compressibility (1/GPa) = 0.02889684
#
# Stress axis : x y z
#
# Youngs Moduli (GPa) = 86.04989 20.18134 114.29280
#
# Poissons Ratio (x) = 0.25327 0.31838
# Poissons Ratio (y) = 1.07988 0.59171
# Poissons Ratio (z) = 0.23971 0.10448
#
# Static dielectric constant tensor:
#      x y z
#    x 4.035380 0.010410 0.052830 
#    y 0.010410 3.707840 -0.037000 
#    z 0.052830 -0.037000 4.515330 
# 
# 
# High freq. dielectric constant tensor:
#      x y z
#    x 1.853190 0.000940 0.002920 
#    y 0.000940 1.797400 0.001680 
#    z 0.002920 0.001680 1.866220 
# 
# From -- ./inp_files/522562.got.cif
#   From: 2010.06.25/outbox.cif.g09.slc.cpg/sg2_262_cif.got.tgz:522562.got - 2010.06.27 13:26:56.
