data_PCOD8020393
_publ_section_title
;
Structure prediction by ZEFSAII (Michael W. Deem and Ramdas Pophale) SiO2 
 PCOD8020393
Probable space group: P -1
;
_chemical_formula_sum "Si O2"
_cell_formula_units_Z 14
_cell_length_a 9.712353
_cell_length_b 7.563041
_cell_length_c 23.605492
_cell_angle_alpha 35.731253
_cell_angle_beta 33.903325
_cell_angle_gamma 46.631346
_cell_volume 564.371739
_symmetry_space_group_name_H-M "P -1"
_symmetry_group_IT_number 2
_symmetry_cell_setting 'triclinic'
loop_
_space_group_symop_operation_xyz
x,y,z
-x,-y,-z
loop_
_atom_site_type_symbol
_atom_site_label
_atom_site_fract_x
_atom_site_fract_y
_atom_site_fract_z
Si Si1 0.522129 0.870477 0.255293
Si Si2 0.744860 0.363288 0.978819
Si Si3 0.106471 0.636585 0.191937
Si Si4 0.514700 0.790843 0.603018
Si Si5 0.984620 0.036214 0.429045
Si Si6 0.233058 0.854722 0.794028
Si Si7 0.370087 0.328220 0.960225
O O1 0.555218 0.531007 0.311653
O O2 0.231060 0.948653 0.333027
O O3 0.621477 0.923814 0.271300
O O4 0.690832 0.040709 0.108087
O O5 0.939312 0.332358 0.868616
O O6 0.500000 0.500000 0.000000
O O7 0.826714 0.595466 0.941059
O O8 0.918502 0.393668 0.344311
O O9 0.379210 0.496942 0.152576
O O10 0.051002 0.989512 0.144126
O O11 0.317931 0.899289 0.689715
O O12 0.500000 0.000000 0.500000
O O13 0.783278 0.808342 0.534892
O O14 0.000000 0.000000 0.500000
O O15 0.265908 0.499072 0.894590
O O16 0.500000 0.000000 0.000000
#
# Coordination Sequence:
#
# PCOD8020393 Si02
#       7
#     2   2   2   2   2   2   2
#     4  11  23  46  72 101 140 188 231 298 353 423
#     4   9  19  42  67  97 137 174 233 284 357 417
#     4  11  23  43  71 100 138 190 229 290 367 419
#     4  12  28  45  68 108 142 189 248 294 349 431
#     4  12  23  46  76  99 142 196 238 293 364 421
#     4  11  25  47  69 102 148 182 236 296 364 415
#     4  10  22  42  68 101 140 183 229 293 352 429
#
# _framework density 24.806342999999998
#
# number of rings (size 3 to 8) (size 9 to 14) (size 15 to 20)
#    0.000    1.143    5.714    1.286    6.000    4.000 
#    7.714    0.000    0.000    0.000    0.000    0.000 
#    0.000    0.000    0.000    0.000    0.000    0.000 
#
# Total GULP energy -173470.021851 kJ/mol
# GULP energy per Si atom -12390.715846 kJ/mol
# Density = 2.474988 g / cm^3
# Si number density = 24.806343 Si / 1000 Ang^3
#
#
#
# Elastic Constant Matrix: (Units=GPa)
#
#
# Indices 1 2 3 4 5 6 
#
# 1 98.3508 37.4061 48.5269 2.7158 33.7529 5.1557
# 2 37.4061 141.1753 70.7904 -7.6237 31.3975 20.5385
# 3 48.5269 70.7904 144.1571 -4.6096 46.1732 17.8859
# 4 2.7158 -7.6237 -4.6096 45.6171 -0.3737 -4.4628
# 5 33.7529 31.3975 46.1732 -0.3737 50.5409 9.2079
# 6 5.1557 20.5385 17.8859 -4.4628 9.2079 46.7221
#
#
#
# Elastic Compliance Matrix: (Units=1/GPa)
#
#
# Indices 1 2 3 4 5 6 
#
# 1 0.014025 -0.001407 -0.002003 -0.001224 -0.006867 0.001074
# 2 -0.001407 0.010031 -0.003622 0.001141 -0.001527 -0.002458
# 3 -0.002003 -0.003622 0.011790 0.000523 -0.006946 -0.001281
# 4 -0.001224 0.001141 0.000523 0.022398 -0.000509 0.001673
# 5 -0.006867 -0.001527 -0.006946 -0.000509 0.032079 -0.002282
# 6 0.001074 -0.002458 -0.001281 0.001673 -0.002282 0.023465
#
#
# Mechanical properties :
#
#
# Convention : Reuss Voigt Hill
#
# Bulk Modulus (GPa) = 45.90698 77.45889 61.68293
# Shear Modulus (GPa) = 37.00601 43.70668 40.35635
#
# Velocity S-wave (km/s) = 3.86657 4.20207 4.03781
# Velocity P-wave (km/s) = 6.20323 7.40516 6.83069
#
# Compressibility (1/GPa) = 0.02178318
#
# Stress axis : x y z
#
# Youngs Moduli (GPa) = 71.29915 99.69058 84.81496
#
# Poissons Ratio (x) = 0.14024 0.16991
# Poissons Ratio (y) = 0.10030 0.30718
# Poissons Ratio (z) = 0.14284 0.36106
#
# Static dielectric constant tensor:
#      x y z
#    x 5.371170 0.547240 -0.089150 
#    y 0.547240 4.729730 0.137880 
#    z -0.089150 0.137880 5.080280 
# 
# 
# High freq. dielectric constant tensor:
#      x y z
#    x 2.002480 0.001350 -0.006520 
#    y 0.001350 2.002480 -0.004950 
#    z -0.006520 -0.004950 1.989740 
# 
# From -- ./inp_files/618190.got.cif
#   From: 2010.06.25/outbox.cif.g09.slc.cpg/sg2_310_cif.got.tgz:618190.got - 2010.06.27 13:26:56.
