data_PCOD8020326
_publ_section_title
;
Structure prediction by ZEFSAII (Michael W. Deem and Ramdas Pophale) SiO2 
 PCOD8020326
Probable space group: P -1
;
_chemical_formula_sum "Si O2"
_cell_formula_units_Z 14
_cell_length_a 20.444258
_cell_length_b 6.560986
_cell_length_c 7.870944
_cell_angle_alpha 82.113291
_cell_angle_beta 137.267878
_cell_angle_gamma 75.303636
_cell_volume 602.924061
_symmetry_space_group_name_H-M "P -1"
_symmetry_group_IT_number 2
_symmetry_cell_setting 'triclinic'
loop_
_space_group_symop_operation_xyz
x,y,z
-x,-y,-z
loop_
_atom_site_type_symbol
_atom_site_label
_atom_site_fract_x
_atom_site_fract_y
_atom_site_fract_z
Si Si1 0.626430 0.133421 0.178493
Si Si2 0.040444 0.936901 0.335200
Si Si3 0.403482 0.504658 0.209790
Si Si4 0.488155 0.089159 0.182951
Si Si5 0.183845 0.855438 0.298780
Si Si6 0.059223 0.615009 0.699765
Si Si7 0.287574 0.436889 0.286223
O O1 0.518126 0.238970 0.088188
O O2 0.741147 0.027323 0.522403
O O3 0.628995 0.323193 0.034387
O O4 0.619198 0.927670 0.082675
O O5 0.132244 0.816320 0.376041
O O6 0.089027 0.759105 0.606295
O O7 0.020315 0.197835 0.324907
O O8 0.920566 0.968333 0.044072
O O9 0.500000 0.500000 0.500000
O O10 0.450909 0.230182 0.271705
O O11 0.301307 0.579250 0.136937
O O12 0.599922 0.822969 0.445124
O O13 0.264965 0.595262 0.394749
O O14 0.000000 0.500000 0.500000
O O15 0.178840 0.415092 0.037153
#
# Coordination Sequence:
#
# PCOD8020326 Si02
#       7
#     2   2   2   2   2   2   2
#     4  11  25  41  67  91 130 171 211 263 317 382
#     4   9  21  45  65  94 128 165 212 261 312 386
#     4  12  24  44  65  90 131 175 211 263 320 375
#     4  11  26  43  62  99 130 165 220 264 312 386
#     4  10  22  43  68  91 129 172 208 259 324 373
#     4  10  22  42  67  95 129 162 211 265 318 371
#     4  11  24  42  66  97 131 166 217 267 310 387
#
# _framework density 23.220172999999999
#
# number of rings (size 3 to 8) (size 9 to 14) (size 15 to 20)
#    0.000    1.429    1.429    2.571    6.000    1.143 
#    5.143    2.143    0.000    0.000    0.000    0.000 
#    0.000    0.000    0.000    0.000    0.000    0.000 
#
# Total GULP energy -173503.158369 kJ/mol
# GULP energy per Si atom -12393.082741 kJ/mol
# Density = 2.316732 g / cm^3
# Si number density = 23.220173 Si / 1000 Ang^3
#
#
#
# Elastic Constant Matrix: (Units=GPa)
#
#
# Indices 1 2 3 4 5 6 
#
# 1 126.3803 54.1450 22.1034 -3.4560 -1.4511 -22.9893
# 2 54.1450 130.1900 68.5580 41.5152 17.0480 -22.4440
# 3 22.1034 68.5580 111.8558 38.8667 12.1853 -3.2245
# 4 -3.4560 41.5152 38.8667 49.1062 11.9831 -3.1509
# 5 -1.4511 17.0480 12.1853 11.9831 30.7201 4.0364
# 6 -22.9893 -22.4440 -3.2245 -3.1509 4.0364 40.1167
#
#
#
# Elastic Compliance Matrix: (Units=1/GPa)
#
#
# Indices 1 2 3 4 5 6 
#
# 1 0.011421 -0.005843 -0.000933 0.006425 0.001174 0.003587
# 2 -0.005843 0.017808 -0.005830 -0.009248 -0.005017 0.005925
# 3 -0.000933 -0.005830 0.015137 -0.007450 0.000516 -0.003216
# 4 0.006425 -0.009248 -0.007450 0.036043 -0.005843 0.001328
# 5 0.001174 -0.005017 0.000516 -0.005843 0.038308 -0.006406
# 6 0.003587 0.005925 -0.003216 0.001328 -0.006406 0.030788
#
#
# Mechanical properties :
#
#
# Convention : Reuss Voigt Hill
#
# Bulk Modulus (GPa) = 52.20264 73.11544 62.65904
# Shear Modulus (GPa) = 27.60885 38.89657 33.25271
#
# Velocity S-wave (km/s) = 3.45193 4.09726 3.78836
# Velocity P-wave (km/s) = 6.19824 7.34436 6.79551
#
# Compressibility (1/GPa) = 0.01915612
#
# Stress axis : x y z
#
# Youngs Moduli (GPa) = 87.55957 56.15316 66.06180
#
# Poissons Ratio (x) = 0.32809 0.06162
# Poissons Ratio (y) = 0.51160 0.38511
# Poissons Ratio (z) = 0.08167 0.32735
#
# Static dielectric constant tensor:
#      x y z
#    x 2.660910 -0.499540 0.755710 
#    y -0.499540 3.973980 0.408260 
#    z 0.755710 0.408260 3.995650 
# 
# 
# High freq. dielectric constant tensor:
#      x y z
#    x 1.922710 -0.010990 -0.008610 
#    y -0.010990 1.901820 0.026580 
#    z -0.008610 0.026580 1.929640 
# 
# From -- ./inp_files/288930.got.cif
#   From: 2010.06.25/outbox.cif.g09.slc.cpg/sg2_145_cif.got.tgz:288930.got - 2010.06.27 13:26:56.
