data_PCOD8020434
_publ_section_title
;
Structure prediction by ZEFSAII (Michael W. Deem and Ramdas Pophale) SiO2 
 PCOD8020434
Probable space group: P -1
;
_chemical_formula_sum "Si O2"
_cell_formula_units_Z 16
_cell_length_a 8.352035
_cell_length_b 11.862638
_cell_length_c 13.595212
_cell_angle_alpha 74.111374
_cell_angle_beta 32.756618
_cell_angle_gamma 74.309526
_cell_volume 698.870932
_symmetry_space_group_name_H-M "P -1"
_symmetry_group_IT_number 2
_symmetry_cell_setting 'triclinic'
loop_
_space_group_symop_operation_xyz
x,y,z
-x,-y,-z
loop_
_atom_site_type_symbol
_atom_site_label
_atom_site_fract_x
_atom_site_fract_y
_atom_site_fract_z
Si Si1 0.665361 0.864908 0.295268
Si Si2 0.083093 0.913814 0.240336
Si Si3 0.290101 0.148756 0.148139
Si Si4 0.309054 0.093800 0.380908
Si Si5 0.211269 0.560333 0.086804
Si Si6 0.852530 0.227995 0.063039
Si Si7 0.962584 0.352682 0.160982
Si Si8 0.612075 0.617901 0.455648
O O1 0.563776 0.731685 0.381925
O O2 0.798460 0.901004 0.322283
O O3 0.385027 0.953786 0.390966
O O4 0.918252 0.870589 0.079998
O O5 0.985167 0.869826 0.410467
O O6 0.155334 0.049569 0.174445
O O7 0.369884 0.838050 0.066027
O O8 0.260096 0.118611 0.285481
O O9 0.102980 0.271443 0.195773
O O10 0.584304 0.161719 0.263257
O O11 0.082733 0.480137 0.085877
O O12 0.967288 0.590631 0.292898
O O13 0.500000 0.500000 0.000000
O O14 0.287435 0.681250 0.968242
O O15 0.043873 0.296464 0.027104
O O16 0.599156 0.356676 0.347099
O O17 0.500000 0.500000 0.500000
#
# Coordination Sequence:
#
# PCOD8020434 Si02
#       8
#     2   2   2   2   2   2   2   2
#     4  11  22  40  65  93 132 174 225 268 332 399
#     4  11  24  40  62  94 134 174 221 272 333 389
#     4  11  25  41  63  98 135 173 223 275 333 385
#     4  12  23  41  65  96 134 176 225 271 332 394
#     4  10  22  42  68  94 128 171 223 281 331 388
#     4  11  23  39  65  94 130 176 221 269 333 400
#     4  11  22  42  66  92 134 175 221 271 333 397
#     4   9  21  41  66  93 125 171 218 267 327 394
#
# _framework density 22.894071
#
# number of rings (size 3 to 8) (size 9 to 14) (size 15 to 20)
#    0.000    1.250    1.250    4.500    5.250    0.000 
#    2.250    0.625    0.000    0.000    0.000    0.000 
#    0.000    0.000    0.000    0.000    0.000    0.000 
#
# Total GULP energy -198315.218332 kJ/mol
# GULP energy per Si atom -12394.701146 kJ/mol
# Density = 2.284196 g / cm^3
# Si number density = 22.894071 Si / 1000 Ang^3
#
#
#
# Elastic Constant Matrix: (Units=GPa)
#
#
# Indices 1 2 3 4 5 6 
#
# 1 81.4446 21.8440 28.2439 10.8922 11.0972 -2.8938
# 2 21.8440 90.1619 24.7309 -4.7289 1.2703 -3.9830
# 3 28.2439 24.7309 136.7023 8.4370 9.2547 -5.3104
# 4 10.8922 -4.7289 8.4370 36.5969 6.0302 -6.0550
# 5 11.0972 1.2703 9.2547 6.0302 28.5127 2.3779
# 6 -2.8938 -3.9830 -5.3104 -6.0550 2.3779 33.1878
#
#
#
# Elastic Compliance Matrix: (Units=1/GPa)
#
#
# Indices 1 2 3 4 5 6 
#
# 1 0.014896 -0.003187 -0.001978 -0.003647 -0.004262 0.000240
# 2 -0.003187 0.012578 -0.001786 0.003154 0.000468 0.001488
# 3 -0.001978 -0.001786 0.008262 -0.001132 -0.001664 0.000848
# 4 -0.003647 0.003154 -0.001132 0.030945 -0.005391 0.005912
# 5 -0.004262 0.000468 -0.001664 -0.005391 0.038752 -0.004342
# 6 0.000240 0.001488 0.000848 0.005912 -0.004342 0.031856
#
#
# Mechanical properties :
#
#
# Convention : Reuss Voigt Hill
#
# Bulk Modulus (GPa) = 45.79876 50.88296 48.34086
# Shear Modulus (GPa) = 31.55174 35.22545 33.38859
#
# Velocity S-wave (km/s) = 3.71639 3.92679 3.82304
# Velocity P-wave (km/s) = 6.20189 6.54471 6.37560
#
# Compressibility (1/GPa) = 0.02183465
#
# Stress axis : x y z
#
# Youngs Moduli (GPa) = 67.13162 79.50620 121.03107
#
# Poissons Ratio (x) = 0.25339 0.23942
# Poissons Ratio (y) = 0.21395 0.21611
# Poissons Ratio (z) = 0.13280 0.14196
#
# Static dielectric constant tensor:
#      x y z
#    x 3.734350 0.172860 -0.030360 
#    y 0.172860 4.307800 0.068690 
#    z -0.030360 0.068690 4.621420 
# 
# 
# High freq. dielectric constant tensor:
#      x y z
#    x 1.873530 0.017770 -0.003780 
#    y 0.017770 1.915340 -0.000680 
#    z -0.003780 -0.000680 1.917720 
# 
# From -- ./inp_files/500229.got.cif
#   From: 2010.06.25/outbox.cif.g09.slc.cpg/sg2_251_cif.got.tgz:500229.got - 2010.06.27 13:26:56.
