data_PCOD8020014
_publ_section_title
;
Structure prediction by ZEFSAII (Michael W. Deem and Ramdas Pophale) SiO2 
 PCOD8020014
Probable space group: P -1
;
_chemical_formula_sum "Si O2"
_cell_formula_units_Z 16
_cell_length_a 9.087147
_cell_length_b 12.097000
_cell_length_c 15.414799
_cell_angle_alpha 38.315258
_cell_angle_beta 116.973192
_cell_angle_gamma 133.375222
_cell_volume 749.835498
_symmetry_space_group_name_H-M "P -1"
_symmetry_group_IT_number 2
_symmetry_cell_setting 'triclinic'
loop_
_space_group_symop_operation_xyz
x,y,z
-x,-y,-z
loop_
_atom_site_type_symbol
_atom_site_label
_atom_site_fract_x
_atom_site_fract_y
_atom_site_fract_z
Si Si1 0.928724 0.572136 0.323497
Si Si2 0.882681 0.948346 0.296776
Si Si3 0.445168 0.169927 0.862806
Si Si4 0.870391 0.084942 0.385163
Si Si5 0.162178 0.439116 0.368213
Si Si6 0.552867 0.095149 0.551651
Si Si7 0.788082 0.971759 0.783012
Si Si8 0.768889 0.783686 0.064620
O O1 0.769623 0.337988 0.472340
O O2 0.782389 0.580342 0.209620
O O3 0.116846 0.583491 0.325161
O O4 0.028263 0.778521 0.288518
O O5 0.737508 0.924126 0.196599
O O6 0.810378 0.717946 0.467005
O O7 0.111266 0.072106 0.242676
O O8 0.888281 0.110894 0.269713
O O9 0.634818 0.401378 0.731758
O O10 0.382087 0.216885 0.907997
O O11 0.500000 0.000000 0.000000
O O12 0.970985 0.310507 0.327863
O O13 0.631544 0.907424 0.456722
O O14 0.000000 0.000000 0.500000
O O15 0.585633 0.941110 0.713541
O O16 0.500000 0.000000 0.500000
O O17 0.697146 0.781575 0.949242
O O18 0.000000 0.000000 0.000000
#
# Coordination Sequence:
#
# PCOD8020014 Si02
#       8
#     2   2   2   2   2   2   2   2
#     4  11  22  40  69  99 126 168 217 272 317 383
#     4  11  23  42  66  99 130 170 212 275 322 381
#     4  12  25  41  68  96 134 174 214 268 330 382
#     4  10  24  42  63  94 136 170 208 271 323 388
#     4  11  24  43  65 100 129 168 220 267 330 380
#     4  12  23  42  68  95 131 174 219 263 327 380
#     4  11  23  42  68  97 130 167 222 268 323 380
#     4  10  22  42  64  95 133 169 211 268 323 386
#
# _framework density 21.338013
#
# number of rings (size 3 to 8) (size 9 to 14) (size 15 to 20)
#    0.000    1.000    5.000    3.000    7.000    0.000 
#    0.000    1.250    0.000    0.000    0.000    0.000 
#    0.000    0.000    0.000    0.000    0.000    0.000 
#
# Total GULP energy -198332.881323 kJ/mol
# GULP energy per Si atom -12395.805083 kJ/mol
# Density = 2.128945 g / cm^3
# Si number density = 21.338013 Si / 1000 Ang^3
#
#
#
# Elastic Constant Matrix: (Units=GPa)
#
#
# Indices 1 2 3 4 5 6 
#
# 1 151.1999 11.8504 46.0927 16.7990 -15.5631 5.0080
# 2 11.8504 43.0586 8.5295 21.2650 -0.6416 -2.3681
# 3 46.0927 8.5295 112.8089 39.5956 6.0714 3.4431
# 4 16.7990 21.2650 39.5956 31.9938 3.0371 -1.0676
# 5 -15.5631 -0.6416 6.0714 3.0371 45.2187 6.0766
# 6 5.0080 -2.3681 3.4431 -1.0676 6.0766 35.0628
#
#
#
# Elastic Compliance Matrix: (Units=1/GPa)
#
#
# Indices 1 2 3 4 5 6 
#
# 1 0.008200 -0.002383 -0.003929 0.001768 0.003396 -0.001481
# 2 -0.002383 0.042578 0.012745 -0.042889 0.000886 0.000505
# 3 -0.003929 0.012745 0.020943 -0.032216 -0.001641 -0.001331
# 4 0.001768 -0.042889 -0.032216 0.099088 -0.002802 0.003517
# 5 0.003396 0.000886 -0.001641 -0.002802 0.024318 -0.004564
# 6 -0.001481 0.000505 -0.001331 0.003517 -0.004564 0.029795
#
#
# Mechanical properties :
#
#
# Convention : Reuss Voigt Hill
#
# Bulk Modulus (GPa) = 11.82199 48.89027 30.35613
# Shear Modulus (GPa) = 20.81165 38.49472 29.65319
#
# Velocity S-wave (km/s) = 3.12642 4.25201 3.73190
# Velocity P-wave (km/s) = 4.31104 6.86062 5.72945
#
# Compressibility (1/GPa) = 0.08458816
#
# Stress axis : x y z
#
# Youngs Moduli (GPa) = 121.94635 23.48657 47.74928
#
# Poissons Ratio (x) = 0.05596 0.18759
# Poissons Ratio (y) = 0.29057 -0.60857
# Poissons Ratio (z) = 0.47909 -0.29934
#
# Static dielectric constant tensor:
#      x y z
#    x 4.014300 -0.333490 -0.204650 
#    y -0.333490 4.018120 0.085900 
#    z -0.204650 0.085900 3.725310 
# 
# 
# High freq. dielectric constant tensor:
#      x y z
#    x 1.856950 -0.000490 -0.000860 
#    y -0.000490 1.820580 0.026570 
#    z -0.000860 0.026570 1.831600 
# 
# From -- ./inp_files/205598.got.cif
#   From: 2010.06.25/outbox.cif.g09.slc.cpg/sg2_103_cif.got.tgz:205598.got - 2010.06.27 13:26:56.
