data_PCOD8020214
_publ_section_title
;
Structure prediction by ZEFSAII (Michael W. Deem and Ramdas Pophale) SiO2 
 PCOD8020214
Probable space group: P -1
;
_chemical_formula_sum "Si O2"
_cell_formula_units_Z 16
_cell_length_a 16.779420
_cell_length_b 9.931502
_cell_length_c 7.005578
_cell_angle_alpha 44.868488
_cell_angle_beta 101.634338
_cell_angle_gamma 89.508200
_cell_volume 787.058372
_symmetry_space_group_name_H-M "P -1"
_symmetry_group_IT_number 2
_symmetry_cell_setting 'triclinic'
loop_
_space_group_symop_operation_xyz
x,y,z
-x,-y,-z
loop_
_atom_site_type_symbol
_atom_site_label
_atom_site_fract_x
_atom_site_fract_y
_atom_site_fract_z
Si Si1 0.575269 0.064054 0.075537
Si Si2 0.043446 0.679787 0.855847
Si Si3 0.234385 0.912113 0.426223
Si Si4 0.956435 0.008024 0.768782
Si Si5 0.765728 0.395999 0.957293
Si Si6 0.462788 0.371820 0.962510
Si Si7 0.666850 0.320095 0.628741
Si Si8 0.666982 0.781694 0.705496
O O1 0.631801 0.878775 0.392559
O O2 0.542397 0.233565 0.042644
O O3 0.632015 0.139053 0.872176
O O4 0.500000 0.000000 0.000000
O O5 0.035984 0.794188 0.536019
O O6 0.139109 0.596254 0.042825
O O7 0.999795 0.819401 0.861107
O O8 0.000000 0.500000 0.000000
O O9 0.139257 0.999221 0.235684
O O10 0.275288 0.753644 0.449016
O O11 0.280414 0.090020 0.281787
O O12 0.240107 0.806984 0.740222
O O13 0.000000 0.000000 0.000000
O O14 0.719556 0.408728 0.720685
O O15 0.725083 0.572758 0.898263
O O16 0.409512 0.505848 0.641632
O O17 0.500000 0.500000 0.000000
O O18 0.409120 0.238871 0.175570
#
# Coordination Sequence:
#
# PCOD8020214 Si02
#       8
#     2   2   2   2   2   2   2   2
#     4  12  24  40  62  96 122 162 220 262 308 382
#     4  10  22  42  66  96 130 166 208 256 312 374
#     4  11  23  43  65  95 132 165 207 264 313 373
#     4  10  22  42  66  96 130 166 208 256 312 374
#     4  11  23  43  65  95 132 165 207 264 313 373
#     4  12  24  42  64  92 128 166 210 268 322 368
#     4  12  23  43  66  92 129 168 213 260 320 373
#     4  12  23  43  66  92 129 168 213 260 320 373
#
# _framework density 20.328859000000001
#
# number of rings (size 3 to 8) (size 9 to 14) (size 15 to 20)
#    0.000    0.750    2.500    6.000    0.000    0.500 
#    4.500    0.000    0.000    0.000    0.000    0.000 
#    0.000    0.000    0.000    0.000    0.000    0.000 
#
# Total GULP energy -198543.121676 kJ/mol
# GULP energy per Si atom -12408.945105 kJ/mol
# Density = 2.028259 g / cm^3
# Si number density = 20.328859 Si / 1000 Ang^3
#
#
#
# Elastic Constant Matrix: (Units=GPa)
#
#
# Indices 1 2 3 4 5 6 
#
# 1 119.7349 34.8267 39.6658 -1.0301 1.1647 13.4438
# 2 34.8267 104.2288 19.4721 7.7610 4.4138 18.4506
# 3 39.6658 19.4721 110.0323 5.8110 5.7662 23.7118
# 4 -1.0301 7.7610 5.8110 21.8145 5.8784 4.0498
# 5 1.1647 4.4138 5.7662 5.8784 38.2968 -4.4580
# 6 13.4438 18.4506 23.7118 4.0498 -4.4580 40.8532
#
#
#
# Elastic Compliance Matrix: (Units=1/GPa)
#
#
# Indices 1 2 3 4 5 6 
#
# 1 0.010360 -0.002968 -0.003255 0.002465 0.000091 -0.000414
# 2 -0.002968 0.011586 0.000152 -0.003189 -0.001263 -0.004166
# 3 -0.003255 0.000152 0.011694 -0.001670 -0.002104 -0.005848
# 4 0.002465 -0.003189 -0.001670 0.050394 -0.007684 -0.004236
# 5 0.000091 -0.001263 -0.002104 -0.007684 0.028405 0.005623
# 6 -0.000414 -0.004166 -0.005848 -0.004236 0.005623 0.030924
#
#
# Mechanical properties :
#
#
# Convention : Reuss Voigt Hill
#
# Bulk Modulus (GPa) = 46.51685 57.99168 52.25427
# Shear Modulus (GPa) = 30.73696 36.19500 33.46598
#
# Velocity S-wave (km/s) = 3.89265 4.22414 4.06178
# Velocity P-wave (km/s) = 6.56776 7.23740 6.91069
#
# Compressibility (1/GPa) = 0.02149759
#
# Stress axis : x y z
#
# Youngs Moduli (GPa) = 96.52340 86.31187 85.51649
#
# Poissons Ratio (x) = 0.25614 0.27838
# Poissons Ratio (y) = 0.28645 -0.01298
# Poissons Ratio (z) = 0.31421 -0.01311
#
# Static dielectric constant tensor:
#      x y z
#    x 4.062920 -0.139610 0.086580 
#    y -0.139610 3.658130 -0.038300 
#    z 0.086580 -0.038300 3.700130 
# 
# 
# High freq. dielectric constant tensor:
#      x y z
#    x 1.810810 -0.000680 0.002440 
#    y -0.000680 1.801450 -0.000160 
#    z 0.002440 -0.000160 1.801540 
# 
# From -- ./inp_files/47641.got.cif
#   From: 2010.06.25/outbox.cif.g09.slc.cpg/sg2_24_cif.got.tgz:47641.got - 2010.06.27 13:26:56.
