data_PCOD8020743
_publ_section_title
;
Structure prediction by ZEFSAII (Michael W. Deem and Ramdas Pophale) SiO2 
 PCOD8020743
Probable space group: P -1
;
_chemical_formula_sum "Si O2"
_cell_formula_units_Z 16
_cell_length_a 25.897267
_cell_length_b 14.179282
_cell_length_c 17.480690
_cell_angle_alpha 150.330403
_cell_angle_beta 161.066638
_cell_angle_gamma 20.477347
_cell_volume 720.181555
_symmetry_space_group_name_H-M "P -1"
_symmetry_group_IT_number 2
_symmetry_cell_setting 'triclinic'
loop_
_space_group_symop_operation_xyz
x,y,z
-x,-y,-z
loop_
_atom_site_type_symbol
_atom_site_label
_atom_site_fract_x
_atom_site_fract_y
_atom_site_fract_z
Si Si1 0.791282 0.353876 0.393060
Si Si2 0.962184 0.220530 0.054384
Si Si3 0.490521 0.223495 0.122459
Si Si4 0.850864 0.064700 0.033358
Si Si5 0.562793 0.647303 0.038147
Si Si6 0.870109 0.153028 0.586872
Si Si7 0.618051 0.678671 0.513319
Si Si8 0.361140 0.186287 0.600244
O O1 0.817460 0.491949 0.595782
O O2 0.706103 0.546766 0.336666
O O3 0.617251 0.344718 0.172139
O O4 0.021170 0.044529 0.474791
O O5 0.158164 0.208680 0.334374
O O6 0.722593 0.508501 0.944351
O O7 0.000000 0.000000 0.000000
O O8 0.955797 0.165390 0.917625
O O9 0.720064 0.129518 0.407790
O O10 0.494003 0.246542 0.052470
O O11 0.500000 0.000000 0.000000
O O12 0.808296 0.329611 0.158361
O O13 0.615303 0.166911 0.750101
O O14 0.934169 0.933829 0.143323
O O15 0.565600 0.837352 0.226309
O O16 0.689887 0.468981 0.531956
O O17 0.577083 0.918041 0.664956
#
# Coordination Sequence:
#
# PCOD8020743 Si02
#       8
#     2   2   2   2   2   2   2   2
#     4  11  22  42  72  98 141 183 220 276 346 416
#     4  11  23  46  69  93 140 182 224 287 336 395
#     4  12  26  42  65 102 136 173 240 286 327 406
#     4  10  22  42  73  95 131 183 226 268 348 405
#     4  11  23  44  70 101 139 177 226 281 341 412
#     4  12  23  43  71  99 133 188 222 275 353 399
#     4  10  23  42  65 102 140 169 225 278 331 411
#     4  11  23  41  72 105 133 182 228 279 349 400
#
# _framework density 22.216619999999999
#
# number of rings (size 3 to 8) (size 9 to 14) (size 15 to 20)
#    0.000    1.000    5.000    2.625    1.750    3.000 
#    0.000    0.625    0.000    0.000    0.000    0.000 
#    0.000    0.000    0.000    0.000    0.000    0.000 
#
# Total GULP energy -198255.971504 kJ/mol
# GULP energy per Si atom -12390.998219 kJ/mol
# Density = 2.216605 g / cm^3
# Si number density = 22.216620 Si / 1000 Ang^3
#
#
#
# Elastic Constant Matrix: (Units=GPa)
#
#
# Indices 1 2 3 4 5 6 
#
# 1 101.5636 48.0170 38.8711 4.1322 2.3134 -10.4936
# 2 48.0170 141.6032 46.3157 2.8136 4.6606 -24.4594
# 3 38.8711 46.3157 64.2707 -0.1571 -8.2204 -4.2268
# 4 4.1322 2.8136 -0.1571 28.0657 -3.8218 -6.3179
# 5 2.3134 4.6606 -8.2204 -3.8218 39.8830 7.2353
# 6 -10.4936 -24.4594 -4.2268 -6.3179 7.2353 55.3162
#
#
#
# Elastic Compliance Matrix: (Units=1/GPa)
#
#
# Indices 1 2 3 4 5 6 
#
# 1 0.013788 -0.002002 -0.007130 -0.001913 -0.002452 0.001288
# 2 -0.002002 0.010791 -0.006711 -0.000315 -0.003335 0.004279
# 3 -0.007130 -0.006711 0.025432 0.002154 0.007204 -0.003073
# 4 -0.001913 -0.000315 0.002154 0.037214 0.003532 0.003451
# 5 -0.002452 -0.003335 0.007204 0.003532 0.028278 -0.004685
# 6 0.001288 0.004279 -0.003073 0.003451 -0.004685 0.020986
#
#
# Mechanical properties :
#
#
# Convention : Reuss Voigt Hill
#
# Bulk Modulus (GPa) = 54.57130 63.76056 59.16593
# Shear Modulus (GPa) = 28.68853 36.26858 32.47855
#
# Velocity S-wave (km/s) = 3.59738 4.04480 3.82763
# Velocity P-wave (km/s) = 6.47081 7.11166 6.79879
#
# Compressibility (1/GPa) = 0.01832465
#
# Stress axis : x y z
#
# Youngs Moduli (GPa) = 72.52564 92.66715 39.32001
#
# Poissons Ratio (x) = 0.18555 0.28035
# Poissons Ratio (y) = 0.14522 0.26389
# Poissons Ratio (z) = 0.51710 0.62193
#
# Static dielectric constant tensor:
#      x y z
#    x 4.408850 -0.515370 -0.107080 
#    y -0.515370 4.639950 0.170400 
#    z -0.107080 0.170400 3.783880 
# 
# 
# High freq. dielectric constant tensor:
#      x y z
#    x 1.881240 -0.015090 -0.008570 
#    y -0.015090 1.893920 0.005990 
#    z -0.008570 0.005990 1.846160 
# 
# From -- ./inp_files/579892.got.cif
#   From: 2010.06.25/outbox.cif.g09.slc.cpg/sg2_290_cif.got.tgz:579892.got - 2010.06.27 13:26:56.
