data_PCOD8020823
_publ_section_title
;
Structure prediction by ZEFSAII (Michael W. Deem and Ramdas Pophale) SiO2 
 PCOD8020823
Probable space group: P -1
;
_chemical_formula_sum "Si O2"
_cell_formula_units_Z 14
_cell_length_a 14.176908
_cell_length_b 14.313828
_cell_length_c 6.938500
_cell_angle_alpha 88.887424
_cell_angle_beta 77.519495
_cell_angle_gamma 28.112219
_cell_volume 601.254612
_symmetry_space_group_name_H-M "P -1"
_symmetry_group_IT_number 2
_symmetry_cell_setting 'triclinic'
loop_
_space_group_symop_operation_xyz
x,y,z
-x,-y,-z
loop_
_atom_site_type_symbol
_atom_site_label
_atom_site_fract_x
_atom_site_fract_y
_atom_site_fract_z
Si Si1 0.548136 0.357211 0.571040
Si Si2 0.485082 0.291979 0.251911
Si Si3 0.241466 0.238997 0.615045
Si Si4 0.128937 0.746393 0.948053
Si Si5 0.951261 0.401897 0.410932
Si Si6 0.239860 0.824823 0.126524
Si Si7 0.830252 0.848318 0.055920
O O1 0.500000 0.500000 0.500000
O O2 0.609939 0.228894 0.384471
O O3 0.321153 0.522689 0.764023
O O4 0.745432 0.187866 0.647297
O O5 0.222852 0.511501 0.398471
O O6 0.579534 0.106103 0.170057
O O7 0.542799 0.310701 0.048306
O O8 0.183256 0.398596 0.644478
O O9 0.151806 0.268000 0.848180
O O10 0.133268 0.284659 0.476963
O O11 0.500000 0.000000 0.500000
O O12 0.237494 0.719799 0.059672
O O13 0.986503 0.929310 0.847914
O O14 0.976982 0.798056 0.107059
O O15 0.087172 0.226095 0.198312
#
# Coordination Sequence:
#
# PCOD8020823 Si02
#       7
#     2   2   2   2   2   2   2
#     4  12  24  41  68  98 139 187 228 278 337 395
#     4  11  24  44  67 105 137 177 236 272 337 410
#     4  11  25  48  72 102 133 173 226 281 341 415
#     4  10  22  43  63  98 136 182 226 273 342 386
#     4  11  25  46  71 101 135 179 219 278 350 399
#     4  10  24  43  63  99 143 178 229 285 322 404
#     4  11  24  45  70  99 139 175 227 281 333 407
#
# _framework density 23.284644
#
# number of rings (size 3 to 8) (size 9 to 14) (size 15 to 20)
#    0.000    1.143    4.286    0.857    2.000    3.429 
#    2.571    0.000    0.000    0.000    0.000    0.000 
#    0.000    0.000    0.000    0.000    0.000    0.000 
#
# Total GULP energy -173598.575261 kJ/mol
# GULP energy per Si atom -12399.898233 kJ/mol
# Density = 2.323165 g / cm^3
# Si number density = 23.284644 Si / 1000 Ang^3
#
#
#
# Elastic Constant Matrix: (Units=GPa)
#
#
# Indices 1 2 3 4 5 6 
#
# 1 86.5597 20.2802 21.8604 -4.3054 1.6644 -4.9584
# 2 20.2802 82.0569 34.0196 4.0312 9.2741 -11.9118
# 3 21.8604 34.0196 85.2757 4.5703 18.6517 -8.5341
# 4 -4.3054 4.0312 4.5703 41.6554 3.2812 3.9039
# 5 1.6644 9.2741 18.6517 3.2812 31.2088 5.9668
# 6 -4.9584 -11.9118 -8.5341 3.9039 5.9668 26.6366
#
#
#
# Elastic Compliance Matrix: (Units=1/GPa)
#
#
# Indices 1 2 3 4 5 6 
#
# 1 0.012851 -0.002282 -0.002823 0.001751 0.001521 -0.000130
# 2 -0.002282 0.015887 -0.004394 -0.001635 -0.002983 0.006180
# 3 -0.002823 -0.004394 0.016883 -0.001464 -0.009485 0.005258
# 4 0.001751 -0.001635 -0.001464 0.024961 -0.000512 -0.004418
# 5 0.001521 -0.002983 -0.009485 -0.000512 0.041097 -0.013221
# 6 -0.000130 0.006180 0.005258 -0.004418 -0.013221 0.045575
#
#
# Mechanical properties :
#
#
# Convention : Reuss Voigt Hill
#
# Bulk Modulus (GPa) = 37.56540 45.13476 41.35008
# Shear Modulus (GPa) = 27.00840 31.74898 29.37869
#
# Velocity S-wave (km/s) = 3.40946 3.69659 3.55592
# Velocity P-wave (km/s) = 5.62738 6.13561 5.88698
#
# Compressibility (1/GPa) = 0.02662024
#
# Stress axis : x y z
#
# Youngs Moduli (GPa) = 77.81562 62.94406 59.23234
#
# Poissons Ratio (x) = 0.14366 0.16724
# Poissons Ratio (y) = 0.17761 0.26029
# Poissons Ratio (z) = 0.21970 0.27660
#
# Static dielectric constant tensor:
#      x y z
#    x 4.308040 0.045750 -0.106940 
#    y 0.045750 4.127150 0.166710 
#    z -0.106940 0.166710 4.223720 
# 
# 
# High freq. dielectric constant tensor:
#      x y z
#    x 1.924940 -0.001420 -0.009040 
#    y -0.001420 1.916800 0.009500 
#    z -0.009040 0.009500 1.917380 
# 
# From -- ./inp_files/98071.got.cif
#   From: 2010.06.25/outbox.cif.g09.slc.cpg/sg2_50_cif.got.tgz:98071.got - 2010.06.27 13:26:56.
