data_PCOD8020654
_publ_section_title
;
Structure prediction by ZEFSAII (Michael W. Deem and Ramdas Pophale) SiO2 
 PCOD8020654
Probable space group: P -1
;
_chemical_formula_sum "Si O2"
_cell_formula_units_Z 16
_cell_length_a 16.135028
_cell_length_b 13.731237
_cell_length_c 6.494955
_cell_angle_alpha 109.312127
_cell_angle_beta 43.151919
_cell_angle_gamma 130.810809
_cell_volume 714.612361
_symmetry_space_group_name_H-M "P -1"
_symmetry_group_IT_number 2
_symmetry_cell_setting 'triclinic'
loop_
_space_group_symop_operation_xyz
x,y,z
-x,-y,-z
loop_
_atom_site_type_symbol
_atom_site_label
_atom_site_fract_x
_atom_site_fract_y
_atom_site_fract_z
Si Si1 0.386499 0.200702 0.287261
Si Si2 0.278923 0.485315 0.868646
Si Si3 0.260926 0.801508 0.754051
Si Si4 0.616015 0.662088 0.256449
Si Si5 0.713049 0.391661 0.674056
Si Si6 0.516693 0.937960 0.727457
Si Si7 0.838674 0.858718 0.650594
Si Si8 0.907710 0.665054 0.270397
O O1 0.359622 0.292859 0.518931
O O2 0.416354 0.132513 0.360036
O O3 0.231450 0.099969 0.362403
O O4 0.523996 0.289245 0.930486
O O5 0.426682 0.573317 0.499817
O O6 0.321080 0.421176 0.919881
O O7 0.120411 0.376122 0.950055
O O8 0.251813 0.574766 0.117960
O O9 0.235292 0.689153 0.573345
O O10 0.353359 0.829364 0.821341
O O11 0.353997 0.943153 0.572376
O O12 0.086245 0.746809 0.079194
O O13 0.719664 0.790264 0.010478
O O14 0.796029 0.528475 0.501773
O O15 0.500000 0.000000 0.000000
O O16 0.859512 0.755864 0.455863
O O17 0.000000 0.000000 0.500000
#
# Coordination Sequence:
#
# PCOD8020654 Si02
#       8
#     2   2   2   2   2   2   2   2
#     4  11  25  44  74 102 129 181 232 281 338 405
#     4  10  22  42  71 101 134 181 222 280 345 401
#     4  11  28  46  70 103 136 184 230 283 339 398
#     4  10  22  43  67 100 139 174 229 272 333 421
#     4  11  24  45  71 101 136 182 229 283 337 402
#     4  11  26  49  73  97 135 184 240 279 327 406
#     4  12  28  42  67 103 144 180 220 281 350 406
#     4  12  26  44  67 104 147 174 224 284 345 414
#
# _framework density 22.389761
#
# number of rings (size 3 to 8) (size 9 to 14) (size 15 to 20)
#    0.000    1.000    3.750    1.125    8.750    4.000 
#    0.000    0.000    0.000    0.000    0.000    0.000 
#    0.000    0.000    0.000    0.000    0.000    0.000 
#
# Total GULP energy -198258.310146 kJ/mol
# GULP energy per Si atom -12391.144384 kJ/mol
# Density = 2.233880 g / cm^3
# Si number density = 22.389761 Si / 1000 Ang^3
#
#
#
# Elastic Constant Matrix: (Units=GPa)
#
#
# Indices 1 2 3 4 5 6 
#
# 1 144.3991 50.6785 53.1126 -27.4577 -5.9222 14.6574
# 2 50.6785 96.3385 30.5161 -19.0623 2.6334 5.5093
# 3 53.1126 30.5161 76.1617 -2.0009 1.8860 -3.0147
# 4 -27.4577 -19.0623 -2.0009 35.9883 -0.4148 1.6856
# 5 -5.9222 2.6334 1.8860 -0.4148 20.7734 -5.8035
# 6 14.6574 5.5093 -3.0147 1.6856 -5.8035 32.1420
#
#
#
# Elastic Compliance Matrix: (Units=1/GPa)
#
#
# Indices 1 2 3 4 5 6 
#
# 1 0.013284 -0.002304 -0.008441 0.008779 0.003253 -0.006327
# 2 -0.002304 0.014176 -0.003959 0.005618 -0.002689 -0.002531
# 3 -0.008441 -0.003959 0.020709 -0.007714 -0.002125 0.006491
# 4 0.008779 0.005618 -0.007714 0.037394 0.001159 -0.007442
# 5 0.003253 -0.002689 -0.002125 0.001159 0.051882 0.008085
# 6 -0.006327 -0.002531 0.006491 -0.007442 0.008085 0.036890
#
#
# Mechanical properties :
#
#
# Convention : Reuss Voigt Hill
#
# Bulk Modulus (GPa) = 53.30151 65.05709 59.17930
# Shear Modulus (GPa) = 23.80993 29.95354 26.88173
#
# Velocity S-wave (km/s) = 3.26456 3.66159 3.46876
# Velocity P-wave (km/s) = 6.16990 6.85537 6.52165
#
# Compressibility (1/GPa) = 0.01876119
#
# Stress axis : x y z
#
# Youngs Moduli (GPa) = 75.28104 70.54090 48.28710
#
# Poissons Ratio (x) = 0.16253 0.40758
# Poissons Ratio (y) = 0.17345 0.19118
# Poissons Ratio (z) = 0.63542 0.27929
#
# Static dielectric constant tensor:
#      x y z
#    x 3.995550 -0.052770 0.021120 
#    y -0.052770 4.437170 0.168110 
#    z 0.021120 0.168110 4.029180 
# 
# 
# High freq. dielectric constant tensor:
#      x y z
#    x 1.875860 0.004030 0.005700 
#    y 0.004030 1.895800 0.006350 
#    z 0.005700 0.006350 1.880160 
# 
# From -- ./inp_files/72369.got.cif
#   From: 2010.06.25/outbox.cif.g09.slc.cpg/sg2_37_cif.got.tgz:72369.got - 2010.06.27 13:26:56.
