data_PCOD8020558
_publ_section_title
;
Structure prediction by ZEFSAII (Michael W. Deem and Ramdas Pophale) SiO2 
 PCOD8020558
Probable space group: P -1
;
_chemical_formula_sum "Si O2"
_cell_formula_units_Z 8
_cell_length_a 8.774111
_cell_length_b 8.088171
_cell_length_c 6.957867
_cell_angle_alpha 141.970674
_cell_angle_beta 107.469401
_cell_angle_gamma 71.703120
_cell_volume 287.634335
_symmetry_space_group_name_H-M "P -1"
_symmetry_group_IT_number 2
_symmetry_cell_setting 'triclinic'
loop_
_space_group_symop_operation_xyz
x,y,z
-x,-y,-z
loop_
_atom_site_type_symbol
_atom_site_label
_atom_site_fract_x
_atom_site_fract_y
_atom_site_fract_z
Si Si1 0.631990 0.022729 0.224851
Si Si2 0.941300 0.741114 0.334372
Si Si3 0.779392 0.522194 0.614679
Si Si4 0.598941 0.717747 0.337216
O O1 0.681409 0.320571 0.513413
O O2 0.525004 0.019752 0.383181
O O3 0.500000 0.000000 0.000000
O O4 0.774959 0.784888 0.996996
O O5 0.746835 0.805462 0.341150
O O6 0.037047 0.642094 0.479930
O O7 0.000000 0.000000 0.500000
O O8 0.000000 0.500000 0.000000
O O9 0.699503 0.577146 0.427373
O O10 0.500000 0.500000 0.000000
#
# Coordination Sequence:
#
# PCOD8020558 Si02
#       4
#     2   2   2   2
#     4  10  22  42  69  97 129 169 217 270 325 385
#     4  12  27  45  66  96 134 175 220 269 324 387
#     4  11  23  45  68  97 133 171 214 272 329 387
#     4  11  23  42  68  98 130 173 219 267 325 389
#
# _framework density 27.813091
#
# number of rings (size 3 to 8) (size 9 to 14) (size 15 to 20)
#    0.000    1.000    0.000    8.250    0.000    6.000 
#    0.000   23.750    0.000    0.000    0.000    0.000 
#    0.000    0.000    0.000    0.000    0.000    0.000 
#
# Total GULP energy -99119.930042 kJ/mol
# GULP energy per Si atom -12389.991255 kJ/mol
# Density = 2.774979 g / cm^3
# Si number density = 27.813091 Si / 1000 Ang^3
#
#
#
# Elastic Constant Matrix: (Units=GPa)
#
#
# Indices 1 2 3 4 5 6 
#
# 1 225.4392 101.9744 77.5321 11.5150 0.3725 -45.6671
# 2 101.9744 183.7421 63.3329 -4.9052 -12.9095 -32.4876
# 3 77.5321 63.3329 188.3518 15.0279 6.4962 -0.6974
# 4 11.5150 -4.9052 15.0279 52.5119 2.4407 -4.3789
# 5 0.3725 -12.9095 6.4962 2.4407 45.2835 20.4191
# 6 -45.6671 -32.4876 -0.6974 -4.3789 20.4191 82.6956
#
#
#
# Elastic Compliance Matrix: (Units=1/GPa)
#
#
# Indices 1 2 3 4 5 6 
#
# 1 0.007059 -0.002912 -0.001769 -0.000954 -0.002020 0.003188
# 2 -0.002912 0.008042 -0.001719 0.001888 0.001939 0.001158
# 3 -0.001769 -0.001719 0.006777 -0.001809 -0.000661 -0.001528
# 4 -0.000954 0.001888 -0.001809 0.020116 -0.000955 0.001501
# 5 -0.002020 0.001939 -0.000661 -0.000955 0.025863 -0.006796
# 6 0.003188 0.001158 -0.001528 0.001501 -0.006796 0.016053
#
#
# Mechanical properties :
#
#
# Convention : Reuss Voigt Hill
#
# Bulk Modulus (GPa) = 110.14614 120.35689 115.25152
# Shear Modulus (GPa) = 50.13236 59.74444 54.93840
#
# Velocity S-wave (km/s) = 4.25016 4.63975 4.44922
# Velocity P-wave (km/s) = 7.98582 8.48944 8.24148
#
# Compressibility (1/GPa) = 0.00907885
#
# Stress axis : x y z
#
# Youngs Moduli (GPa) = 141.66131 124.34312 147.56051
#
# Poissons Ratio (x) = 0.36205 0.26105
# Poissons Ratio (y) = 0.41247 0.25364
# Poissons Ratio (z) = 0.25062 0.21373
#
# Static dielectric constant tensor:
#      x y z
#    x 29.267230 -10.980080 -13.076900 
#    y -10.980080 10.701910 4.763850 
#    z -13.076900 4.763850 10.757380 
# 
# 
# High freq. dielectric constant tensor:
#      x y z
#    x 2.152960 -0.042010 -0.010250 
#    y -0.042010 2.214590 -0.003130 
#    z -0.010250 -0.003130 2.122580 
# 
# From -- ./inp_files/152601.got.cif
#   From: 2010.06.25/outbox.cif.g09.slc.cpg/sg2_77_cif.got.tgz:152601.got - 2010.06.27 13:26:56.
