data_PCOD8020732
_publ_section_title
;
Structure prediction by ZEFSAII (Michael W. Deem and Ramdas Pophale) SiO2 
 PCOD8020732
Probable space group: P -1
;
_chemical_formula_sum "Si O2"
_cell_formula_units_Z 16
_cell_length_a 18.738204
_cell_length_b 11.228977
_cell_length_c 8.565621
_cell_angle_alpha 126.980165
_cell_angle_beta 85.087020
_cell_angle_gamma 137.018160
_cell_volume 745.288339
_symmetry_space_group_name_H-M "P -1"
_symmetry_group_IT_number 2
_symmetry_cell_setting 'triclinic'
loop_
_space_group_symop_operation_xyz
x,y,z
-x,-y,-z
loop_
_atom_site_type_symbol
_atom_site_label
_atom_site_fract_x
_atom_site_fract_y
_atom_site_fract_z
Si Si1 0.510600 0.357211 0.800275
Si Si2 0.793327 0.771519 0.193187
Si Si3 0.234528 0.757234 0.496605
Si Si4 0.962298 0.348879 0.547459
Si Si5 0.764128 0.653986 0.458931
Si Si6 0.242890 0.719649 0.827605
Si Si7 0.497957 0.666243 0.582994
Si Si8 0.038184 0.152831 0.959520
O O1 0.523447 0.388106 0.638437
O O2 0.381126 0.023591 0.598241
O O3 0.500000 0.500000 0.000000
O O4 0.638920 0.488817 0.937083
O O5 0.779889 0.758919 0.371202
O O6 0.886173 0.795752 0.154903
O O7 0.868236 0.037376 0.295429
O O8 0.141025 0.720354 0.404730
O O9 0.263263 0.812377 0.720168
O O10 0.152886 0.467146 0.243246
O O11 0.000000 0.500000 0.500000
O O12 0.098007 0.538117 0.767217
O O13 0.765598 0.475436 0.311566
O O14 0.624932 0.460271 0.414200
O O15 0.892928 0.953730 0.764708
O O16 0.362329 0.997236 0.133749
O O17 0.500000 0.500000 0.500000
O O18 0.000000 0.000000 0.000000
#
# Coordination Sequence:
#
# PCOD8020732 Si02
#       8
#     2   2   2   2   2   2   2   2
#     4  12  26  48  72 102 143 183 239 294 356 424
#     4  12  25  45  74  99 145 189 236 296 355 419
#     4  11  24  43  74 105 142 187 241 289 349 426
#     4  10  22  42  73 102 135 190 232 294 349 415
#     4  12  26  47  71 105 149 186 236 295 354 430
#     4  11  24  47  70 103 149 186 235 289 359 418
#     4  12  29  45  73 105 140 190 239 297 359 423
#     4  12  24  45  71 109 142 188 237 287 357 417
#
# _framework density 21.468201000000001
#
# number of rings (size 3 to 8) (size 9 to 14) (size 15 to 20)
#    0.000    0.500    3.750    4.500    5.250    0.500 
#    0.000    1.250    0.000    0.000    0.000    0.000 
#    0.000    0.000    0.000    0.000    0.000    0.000 
#
# Total GULP energy -198251.563783 kJ/mol
# GULP energy per Si atom -12390.722736 kJ/mol
# Density = 2.141934 g / cm^3
# Si number density = 21.468201 Si / 1000 Ang^3
#
#
#
# Elastic Constant Matrix: (Units=GPa)
#
#
# Indices 1 2 3 4 5 6 
#
# 1 100.8346 38.8470 38.5402 11.0553 17.8361 5.1888
# 2 38.8470 148.0432 57.6533 9.5631 2.2006 -8.0401
# 3 38.5402 57.6533 131.4435 9.4727 20.9881 6.2824
# 4 11.0553 9.5631 9.4727 52.0210 -0.5716 4.6935
# 5 17.8361 2.2006 20.9881 -0.5716 47.7884 11.0060
# 6 5.1888 -8.0401 6.2824 4.6935 11.0060 39.6862
#
#
#
# Elastic Compliance Matrix: (Units=1/GPa)
#
#
# Indices 1 2 3 4 5 6 
#
# 1 0.012418 -0.002396 -0.001854 -0.001846 -0.003594 -0.000601
# 2 -0.002396 0.008895 -0.003497 -0.000684 0.001473 0.002341
# 3 -0.001854 -0.003497 0.010344 -0.000790 -0.003457 -0.001051
# 4 -0.001846 -0.000684 -0.000790 0.020149 0.001928 -0.002690
# 5 -0.003594 0.001473 -0.003457 0.001928 0.025093 -0.005871
# 6 -0.000601 0.002341 -0.001051 -0.002690 -0.005871 0.027863
#
#
# Mechanical properties :
#
#
# Convention : Reuss Voigt Hill
#
# Bulk Modulus (GPa) = 61.87078 72.26692 67.06885
# Shear Modulus (GPa) = 39.79480 44.25116 42.02298
#
# Velocity S-wave (km/s) = 4.31009 4.54502 4.42911
# Velocity P-wave (km/s) = 7.32472 7.82804 7.58056
#
# Compressibility (1/GPa) = 0.01616272
#
# Stress axis : x y z
#
# Youngs Moduli (GPa) = 80.52674 112.42619 96.67042
#
# Poissons Ratio (x) = 0.26941 0.17927
# Poissons Ratio (y) = 0.19297 0.33801
# Poissons Ratio (z) = 0.14933 0.39310
#
# Static dielectric constant tensor:
#      x y z
#    x 4.216740 0.273220 0.235750 
#    y 0.273220 3.967550 0.164530 
#    z 0.235750 0.164530 3.911930 
# 
# 
# High freq. dielectric constant tensor:
#      x y z
#    x 1.854050 0.002940 0.012790 
#    y 0.002940 1.855080 0.016510 
#    z 0.012790 0.016510 1.849690 
# 
# From -- ./inp_files/333769.got.cif
#   From: 2010.06.25/outbox.cif.g09.slc.cpg/sg2_167_cif.got.tgz:333769.got - 2010.06.27 13:26:56.
