data_PCOD8020187
_publ_section_title
;
Structure prediction by ZEFSAII (Michael W. Deem and Ramdas Pophale) SiO2 
 PCOD8020187
Probable space group: P -1
;
_chemical_formula_sum "Si O2"
_cell_formula_units_Z 16
_cell_length_a 7.985827
_cell_length_b 17.594768
_cell_length_c 8.937045
_cell_angle_alpha 113.268677
_cell_angle_beta 130.624582
_cell_angle_gamma 99.581260
_cell_volume 695.409987
_symmetry_space_group_name_H-M "P -1"
_symmetry_group_IT_number 2
_symmetry_cell_setting 'triclinic'
loop_
_space_group_symop_operation_xyz
x,y,z
-x,-y,-z
loop_
_atom_site_type_symbol
_atom_site_label
_atom_site_fract_x
_atom_site_fract_y
_atom_site_fract_z
Si Si1 0.498033 0.629931 0.133488
Si Si2 0.577564 0.327457 0.550826
Si Si3 0.687750 0.116523 0.141086
Si Si4 0.655159 0.166816 0.479672
Si Si5 0.146759 0.947713 0.056318
Si Si6 0.959254 0.601846 0.355828
Si Si7 0.115973 0.219842 0.985402
Si Si8 0.461004 0.754280 0.970094
O O1 0.417029 0.620034 0.253175
O O2 0.793651 0.652053 0.297545
O O3 0.261117 0.520469 0.833078
O O4 0.499976 0.721706 0.130471
O O5 0.467289 0.207321 0.416115
O O6 0.346590 0.317920 0.300427
O O7 0.882191 0.385118 0.697958
O O8 0.775114 0.189946 0.395289
O O9 0.551025 0.148218 0.963133
O O10 0.930465 0.127852 0.192764
O O11 0.500000 0.000000 0.000000
O O12 0.477687 0.044639 0.319560
O O13 0.913672 0.238407 0.799278
O O14 0.080986 0.887176 0.123227
O O15 0.000000 0.000000 0.000000
O O16 0.179519 0.652904 0.657583
O O17 0.267655 0.202654 0.933759
#
# Coordination Sequence:
#
# PCOD8020187 Si02
#       8
#     2   2   2   2   2   2   2   2
#     4  11  25  42  72 101 129 181 218 277 346 393
#     4  11  23  42  68  97 135 170 220 276 330 400
#     4  10  22  42  66  93 132 174 218 275 324 391
#     4  11  22  42  63  93 132 174 219 270 327 395
#     4  11  22  41  64  93 135 170 221 276 327 391
#     4  10  23  46  67  99 141 167 225 278 333 409
#     4  11  23  39  62  92 129 175 215 271 326 388
#     4  11  23  43  67  97 133 175 222 274 334 398
#
# _framework density 23.008009999999999
#
# number of rings (size 3 to 8) (size 9 to 14) (size 15 to 20)
#    0.000    1.250    3.750    2.625    3.500    0.000 
#    0.000    3.125    0.000    8.250    0.000    0.000 
#    0.000    0.000    0.000    0.000    0.000    0.000 
#
# Total GULP energy -198250.287878 kJ/mol
# GULP energy per Si atom -12390.642992 kJ/mol
# Density = 2.295564 g / cm^3
# Si number density = 23.008010 Si / 1000 Ang^3
#
#
#
# Elastic Constant Matrix: (Units=GPa)
#
#
# Indices 1 2 3 4 5 6 
#
# 1 123.2865 25.3621 40.0161 -14.2844 -4.0454 3.7087
# 2 25.3621 90.6628 14.7807 -20.5996 -1.0554 -4.8575
# 3 40.0161 14.7807 77.8906 -23.3900 0.3223 -4.2578
# 4 -14.2844 -20.5996 -23.3900 34.7691 1.0806 1.2773
# 5 -4.0454 -1.0554 0.3223 1.0806 27.9786 5.0473
# 6 3.7087 -4.8575 -4.2578 1.2773 5.0473 31.0485
#
#
#
# Elastic Compliance Matrix: (Units=1/GPa)
#
#
# Indices 1 2 3 4 5 6 
#
# 1 0.010348 -0.002293 -0.005204 -0.000573 0.001962 -0.002604
# 2 -0.002293 0.013344 0.001058 0.007608 -0.000546 0.002282
# 3 -0.005204 0.001058 0.018828 0.011097 -0.001940 0.003228
# 4 -0.000573 0.007608 0.011097 0.040501 -0.001740 0.001397
# 5 0.001962 -0.000546 -0.001940 -0.001740 0.037280 -0.006575
# 6 -0.002604 0.002282 0.003228 0.001397 -0.006575 0.034330
#
#
# Mechanical properties :
#
#
# Convention : Reuss Voigt Hill
#
# Bulk Modulus (GPa) = 33.73707 50.23972 41.98840
# Shear Modulus (GPa) = 28.18653 32.87132 30.52892
#
# Velocity S-wave (km/s) = 3.50390 3.78390 3.64659
# Velocity P-wave (km/s) = 5.57358 6.40107 6.00160
#
# Compressibility (1/GPa) = 0.02964098
#
# Stress axis : x y z
#
# Youngs Moduli (GPa) = 96.63435 74.94247 53.11254
#
# Poissons Ratio (x) = 0.17187 0.27639
# Poissons Ratio (y) = 0.22162 -0.05618
# Poissons Ratio (z) = 0.50287 -0.07928
#
# Static dielectric constant tensor:
#      x y z
#    x 5.318210 -2.386310 -2.005240 
#    y -2.386310 11.450130 5.898060 
#    z -2.005240 5.898060 8.889760 
# 
# 
# High freq. dielectric constant tensor:
#      x y z
#    x 1.922240 0.011170 0.009570 
#    y 0.011170 1.905510 0.000230 
#    z 0.009570 0.000230 1.892430 
# 
# From -- ./inp_files/218115.got.cif
#   From: 2010.06.25/outbox.cif.g09.slc.cpg/sg2_110_cif.got.tgz:218115.got - 2010.06.27 13:26:56.
