data_PCOD8020806
_publ_section_title
;
Structure prediction by ZEFSAII (Michael W. Deem and Ramdas Pophale) SiO2 
 PCOD8020806
Probable space group: P -1
;
_chemical_formula_sum "Si O2"
_cell_formula_units_Z 16
_cell_length_a 26.536588
_cell_length_b 9.360853
_cell_length_c 9.749477
_cell_angle_alpha 122.472949
_cell_angle_beta 153.237078
_cell_angle_gamma 45.469748
_cell_volume 746.768562
_symmetry_space_group_name_H-M "P -1"
_symmetry_group_IT_number 2
_symmetry_cell_setting 'triclinic'
loop_
_space_group_symop_operation_xyz
x,y,z
-x,-y,-z
loop_
_atom_site_type_symbol
_atom_site_label
_atom_site_fract_x
_atom_site_fract_y
_atom_site_fract_z
Si Si1 0.980557 0.046490 0.704059
Si Si2 0.630371 0.326623 0.644806
Si Si3 0.311909 0.623534 0.716992
Si Si4 0.526637 0.162872 0.095409
Si Si5 0.218926 0.645232 0.205216
Si Si6 0.415462 0.894721 0.094016
Si Si7 0.283896 0.230862 0.169510
Si Si8 0.860931 0.936369 0.130501
O O1 0.953192 0.907791 0.469618
O O2 0.845121 0.239332 0.544053
O O3 0.048512 0.139424 0.828346
O O4 0.085765 0.884316 0.992063
O O5 0.500000 0.500000 0.500000
O O6 0.610931 0.176901 0.428375
O O7 0.681800 0.430095 0.724744
O O8 0.743886 0.184340 0.961865
O O9 0.309033 0.615756 0.541414
O O10 0.387815 0.393719 0.847062
O O11 0.394767 0.720935 0.009783
O O12 0.618512 0.069461 0.132176
O O13 0.500000 0.000000 0.000000
O O14 0.179596 0.480866 0.026640
O O15 0.570045 0.825632 0.453331
O O16 0.306042 0.107883 0.019060
O O17 0.211599 0.180139 0.083618
#
# Coordination Sequence:
#
# PCOD8020806 Si02
#       8
#     2   2   2   2   2   2   2   2
#     4  10  23  44  68  91 127 186 220 260 319 391
#     4  11  24  38  65  96 129 175 212 263 337 396
#     4  12  22  46  67  96 131 178 214 267 329 396
#     4  12  25  40  63  99 136 164 212 273 333 388
#     4  11  24  41  68  96 131 172 226 268 316 390
#     4  11  23  41  68  97 135 171 207 271 342 391
#     4  11  23  40  68 100 129 168 213 276 331 381
#     4  10  22  43  63  91 136 165 221 266 317 380
#
# _framework density 21.425646
#
# number of rings (size 3 to 8) (size 9 to 14) (size 15 to 20)
#    0.000    1.000    3.750    3.000    5.250    0.500 
#    0.000    0.625    0.000    0.000    0.000    0.000 
#    0.000    0.000    0.000    0.000    0.000    0.000 
#
# Total GULP energy -198385.639287 kJ/mol
# GULP energy per Si atom -12399.102455 kJ/mol
# Density = 2.137688 g / cm^3
# Si number density = 21.425646 Si / 1000 Ang^3
#
#
#
# Elastic Constant Matrix: (Units=GPa)
#
#
# Indices 1 2 3 4 5 6 
#
# 1 116.5364 52.0471 29.4473 6.5204 28.3125 10.4297
# 2 52.0471 101.7152 30.9841 15.5924 11.8088 14.9884
# 3 29.4473 30.9841 75.0662 4.0015 8.7811 8.3660
# 4 6.5204 15.5924 4.0015 32.8486 -1.0116 2.1310
# 5 28.3125 11.8088 8.7811 -1.0116 42.4258 4.2305
# 6 10.4297 14.9884 8.3660 2.1310 4.2305 38.6635
#
#
#
# Elastic Compliance Matrix: (Units=1/GPa)
#
#
# Indices 1 2 3 4 5 6 
#
# 1 0.013155 -0.005223 -0.002167 -0.000060 -0.006848 -0.000303
# 2 -0.005223 0.014835 -0.003450 -0.005360 0.000274 -0.003330
# 3 -0.002167 -0.003450 0.015829 0.000210 -0.000722 -0.001436
# 4 -0.000060 -0.005360 0.000210 0.033045 0.002278 -0.000022
# 5 -0.006848 0.000274 -0.000722 0.002278 0.028401 -0.001336
# 6 -0.000303 -0.003330 -0.001436 -0.000022 -0.001336 0.027695
#
#
# Mechanical properties :
#
#
# Convention : Reuss Voigt Hill
#
# Bulk Modulus (GPa) = 45.16593 57.58608 51.37601
# Shear Modulus (GPa) = 30.86054 34.84355 32.85205
#
# Velocity S-wave (km/s) = 3.79932 4.03706 3.91999
# Velocity P-wave (km/s) = 6.35394 6.97610 6.67227
#
# Compressibility (1/GPa) = 0.02214058
#
# Stress axis : x y z
#
# Youngs Moduli (GPa) = 76.01531 67.40698 63.17613
#
# Poissons Ratio (x) = 0.35204 0.13690
# Poissons Ratio (y) = 0.39700 0.21794
# Poissons Ratio (z) = 0.16472 0.23254
#
# Static dielectric constant tensor:
#      x y z
#    x 4.203340 0.015320 0.001320 
#    y 0.015320 3.820980 0.079720 
#    z 0.001320 0.079720 3.907760 
# 
# 
# High freq. dielectric constant tensor:
#      x y z
#    x 1.855250 0.004920 -0.001570 
#    y 0.004920 1.827730 0.003800 
#    z -0.001570 0.003800 1.837320 
# 
# From -- ./inp_files/352351.got.cif
#   From: 2010.06.25/outbox.cif.g09.slc.cpg/sg2_177_cif.got.tgz:352351.got - 2010.06.27 13:26:56.
