data_PCOD8020569
_publ_section_title
;
Structure prediction by ZEFSAII (Michael W. Deem and Ramdas Pophale) SiO2 
 PCOD8020569
Probable space group: P -1
;
_chemical_formula_sum "Si O2"
_cell_formula_units_Z 12
_cell_length_a 9.303898
_cell_length_b 13.510755
_cell_length_c 7.750461
_cell_angle_alpha 90.904268
_cell_angle_beta 68.054219
_cell_angle_gamma 143.095451
_cell_volume 467.328056
_symmetry_space_group_name_H-M "P -1"
_symmetry_group_IT_number 2
_symmetry_cell_setting 'triclinic'
loop_
_space_group_symop_operation_xyz
x,y,z
-x,-y,-z
loop_
_atom_site_type_symbol
_atom_site_label
_atom_site_fract_x
_atom_site_fract_y
_atom_site_fract_z
Si Si1 0.153115 0.887538 0.821575
Si Si2 0.686079 0.633946 0.755254
Si Si3 0.664892 0.815649 0.591088
Si Si4 0.626643 0.711065 0.231053
Si Si5 0.301038 0.707244 0.281246
Si Si6 0.218157 0.709835 0.939185
O O1 0.112609 0.753256 0.900296
O O2 0.030683 0.832227 0.676250
O O3 0.501728 0.111233 0.679298
O O4 0.951920 0.847643 0.036223
O O5 0.534253 0.648295 0.743980
O O6 0.628326 0.514272 0.639539
O O7 0.500000 0.500000 0.000000
O O8 0.635565 0.782938 0.399684
O O9 0.524997 0.842596 0.715606
O O10 0.000000 0.000000 0.500000
O O11 0.505259 0.722853 0.142489
O O12 0.000000 0.500000 0.500000
O O13 0.239334 0.736022 0.136771
O O14 0.000000 0.500000 0.000000
#
# Coordination Sequence:
#
# PCOD8020569 Si02
#       6
#     2   2   2   2   2   2
#     4  11  24  47  73 101 137 183 232 287 345 409
#     4  10  22  42  69  99 132 177 228 281 338 404
#     4  12  25  43  68 101 139 181 226 279 344 414
#     4  11  23  44  72 101 135 182 233 282 341 414
#     4  12  26  44  70 105 139 180 232 289 345 409
#     4  12  25  46  69 101 141 181 226 286 347 410
#
# _framework density 25.677894999999999
#
# number of rings (size 3 to 8) (size 9 to 14) (size 15 to 20)
#    0.000    0.667    0.000    9.500    0.000    2.667 
#    0.000    5.000    0.000    0.000    0.000    0.000 
#    0.000    0.000    0.000    0.000    0.000    0.000 
#
# Total GULP energy -148709.312984 kJ/mol
# GULP energy per Si atom -12392.442749 kJ/mol
# Density = 2.561945 g / cm^3
# Si number density = 25.677895 Si / 1000 Ang^3
#
#
#
# Elastic Constant Matrix: (Units=GPa)
#
#
# Indices 1 2 3 4 5 6 
#
# 1 130.4249 -18.9278 12.1187 1.5266 -3.8593 -15.2256
# 2 -18.9278 127.7899 8.4371 -12.0243 -10.2057 25.3627
# 3 12.1187 8.4371 86.9825 -1.4855 -8.4518 9.2538
# 4 1.5266 -12.0243 -1.4855 38.5518 6.0224 2.0029
# 5 -3.8593 -10.2057 -8.4518 6.0224 37.7991 3.0543
# 6 -15.2256 25.3627 9.2538 2.0029 3.0543 49.4741
#
#
#
# Elastic Compliance Matrix: (Units=1/GPa)
#
#
# Indices 1 2 3 4 5 6 
#
# 1 0.008219 0.000869 -0.001422 -0.000327 0.000620 0.002325
# 2 0.000869 0.009372 -0.000233 0.002734 0.002516 -0.004760
# 3 -0.001422 -0.000233 0.012283 0.000175 0.002736 -0.002792
# 4 -0.000327 0.002734 0.000175 0.027475 -0.003437 -0.002435
# 5 0.000620 0.002516 0.002736 -0.003437 0.028619 -0.003239
# 6 0.002325 -0.004760 -0.002792 -0.002435 -0.003239 0.024189
#
#
# Mechanical properties :
#
#
# Convention : Reuss Voigt Hill
#
# Bulk Modulus (GPa) = 35.33277 38.71702 37.02490
# Shear Modulus (GPa) = 41.26637 48.06961 44.66799
#
# Velocity S-wave (km/s) = 4.01319 4.33138 4.17532
# Velocity P-wave (km/s) = 5.93836 6.33444 6.13960
#
# Compressibility (1/GPa) = 0.02830234
#
# Stress axis : x y z
#
# Youngs Moduli (GPa) = 121.66886 106.69789 81.41248
#
# Poissons Ratio (x) = -0.09267 0.11577
# Poissons Ratio (y) = -0.10567 0.01893
# Poissons Ratio (z) = 0.17302 0.02481
#
# Static dielectric constant tensor:
#      x y z
#    x 8.390010 0.533510 0.951200 
#    y 0.533510 5.813790 -0.156960 
#    z 0.951200 -0.156960 4.467840 
# 
# 
# High freq. dielectric constant tensor:
#      x y z
#    x 2.050030 -0.002540 0.004640 
#    y -0.002540 2.049420 -0.010190 
#    z 0.004640 -0.010190 1.998460 
# 
# From -- ./inp_files/152382.got.cif
#   From: 2010.06.25/outbox.cif.g09.slc.cpg/sg2_77_cif.got.tgz:152382.got - 2010.06.27 13:26:56.
