data_PCOD8020939
_publ_section_title
;
Structure prediction by ZEFSAII (Michael W. Deem and Ramdas Pophale) SiO2 
 PCOD8020939
Probable space group: P -1
;
_chemical_formula_sum "Si O2"
_cell_formula_units_Z 16
_cell_length_a 8.353371
_cell_length_b 14.758269
_cell_length_c 12.034179
_cell_angle_alpha 149.094207
_cell_angle_beta 81.999651
_cell_angle_gamma 105.189830
_cell_volume 724.332802
_symmetry_space_group_name_H-M "P -1"
_symmetry_group_IT_number 2
_symmetry_cell_setting 'triclinic'
loop_
_space_group_symop_operation_xyz
x,y,z
-x,-y,-z
loop_
_atom_site_type_symbol
_atom_site_label
_atom_site_fract_x
_atom_site_fract_y
_atom_site_fract_z
Si Si1 0.274711 0.283343 0.561492
Si Si2 0.625152 0.542641 0.836374
Si Si3 0.173602 0.877398 0.197742
Si Si4 0.041344 0.315570 0.181014
Si Si5 0.008363 0.298955 0.767180
Si Si6 0.499812 0.127029 0.742267
Si Si7 0.973606 0.692602 0.580797
Si Si8 0.749318 0.208116 0.510015
O O1 0.455464 0.425023 0.668234
O O2 0.192043 0.340292 0.739553
O O3 0.168754 0.272025 0.447491
O O4 0.285381 0.084783 0.390363
O O5 0.766758 0.631269 0.824755
O O6 0.690489 0.391177 0.739457
O O7 0.586109 0.704366 0.086827
O O8 0.312362 0.779357 0.127344
O O9 0.020677 0.825488 0.248652
O O10 0.085398 0.826925 0.035611
O O11 0.040805 0.226883 0.210202
O O12 0.951677 0.476897 0.365021
O O13 0.872339 0.186434 0.573887
O O14 0.000000 0.500000 0.000000
O O15 0.500000 0.000000 0.500000
O O16 0.396156 0.980917 0.687589
O O17 0.158645 0.779650 0.604137
#
# Coordination Sequence:
#
# PCOD8020939 Si02
#       8
#     2   2   2   2   2   2   2   2
#     4  11  24  40  65  96 133 169 217 272 327 392
#     4  11  24  43  66  98 133 172 219 270 332 385
#     4  12  24  42  62  97 132 172 222 262 329 390
#     4  10  23  44  71  93 126 176 222 271 327 392
#     4  11  22  40  63  91 130 173 216 265 325 393
#     4  12  25  42  64  96 138 172 219 270 324 392
#     4   9  21  45  70  92 130 169 224 272 328 387
#     4  10  22  43  65  98 129 171 218 271 327 389
#
# _framework density 22.089293999999999
#
# number of rings (size 3 to 8) (size 9 to 14) (size 15 to 20)
#    0.000    1.250    2.500    4.125    3.500    3.500 
#    0.000    1.875    0.000    0.000    0.000    0.000 
#    0.000    0.000    0.000    0.000    0.000    0.000 
#
# Total GULP energy -198225.648752 kJ/mol
# GULP energy per Si atom -12389.103047 kJ/mol
# Density = 2.203902 g / cm^3
# Si number density = 22.089294 Si / 1000 Ang^3
#
#
#
# Elastic Constant Matrix: (Units=GPa)
#
#
# Indices 1 2 3 4 5 6 
#
# 1 98.7813 31.0386 39.7429 -5.7383 4.7449 10.9345
# 2 31.0386 96.1384 47.5214 -7.2109 7.7422 1.1362
# 3 39.7429 47.5214 88.7119 -3.0834 4.7374 7.6252
# 4 -5.7383 -7.2109 -3.0834 37.2618 -3.1947 3.0679
# 5 4.7449 7.7422 4.7374 -3.1947 31.4527 7.1722
# 6 10.9345 1.1362 7.6252 3.0679 7.1722 26.6795
#
#
#
# Elastic Compliance Matrix: (Units=1/GPa)
#
#
# Indices 1 2 3 4 5 6 
#
# 1 0.013051 -0.001870 -0.004436 0.001659 0.000303 -0.004273
# 2 -0.001870 0.014844 -0.007149 0.001530 -0.002766 0.002745
# 3 -0.004436 -0.007149 0.017303 -0.000358 0.000448 -0.002902
# 4 0.001659 0.001530 -0.000358 0.028040 0.003363 -0.004771
# 5 0.000303 -0.002766 0.000448 0.003363 0.034965 -0.009921
# 6 -0.004273 0.002745 -0.002902 -0.004771 -0.009921 0.043161
#
#
# Mechanical properties :
#
#
# Convention : Reuss Voigt Hill
#
# Bulk Modulus (GPa) = 54.68419 57.80417 56.24418
# Shear Modulus (GPa) = 27.11930 30.10072 28.61001
#
# Velocity S-wave (km/s) = 3.50767 3.69546 3.60279
# Velocity P-wave (km/s) = 6.41987 6.66587 6.54402
#
# Compressibility (1/GPa) = 0.01828682
#
# Stress axis : x y z
#
# Youngs Moduli (GPa) = 76.62472 67.36595 57.79502
#
# Poissons Ratio (x) = 0.12598 0.25638
# Poissons Ratio (y) = 0.14330 0.41318
# Poissons Ratio (z) = 0.33991 0.48161
#
# Static dielectric constant tensor:
#      x y z
#    x 4.168710 0.068040 -0.088370 
#    y 0.068040 3.995260 0.112790 
#    z -0.088370 0.112790 3.867980 
# 
# 
# High freq. dielectric constant tensor:
#      x y z
#    x 1.875270 0.006100 -0.001570 
#    y 0.006100 1.867450 0.017700 
#    z -0.001570 0.017700 1.858360 
# 
# From -- ./inp_files/400020.got.cif
#   From: 2010.06.25/outbox.cif.g09.slc.cpg/sg2_201_cif.got.tgz:400020.got - 2010.06.27 13:26:56.
