data_PCOD8020808
_publ_section_title
;
Structure prediction by ZEFSAII (Michael W. Deem and Ramdas Pophale) SiO2 
 PCOD8020808
Probable space group: P -1
;
_chemical_formula_sum "Si O2"
_cell_formula_units_Z 16
_cell_length_a 11.207177
_cell_length_b 13.746560
_cell_length_c 14.549604
_cell_angle_alpha 124.330074
_cell_angle_beta 42.788977
_cell_angle_gamma 147.836408
_cell_volume 800.338724
_symmetry_space_group_name_H-M "P -1"
_symmetry_group_IT_number 2
_symmetry_cell_setting 'triclinic'
loop_
_space_group_symop_operation_xyz
x,y,z
-x,-y,-z
loop_
_atom_site_type_symbol
_atom_site_label
_atom_site_fract_x
_atom_site_fract_y
_atom_site_fract_z
Si Si1 0.965497 0.720951 0.969876
Si Si2 0.569436 0.784547 0.455335
Si Si3 0.827350 0.834732 0.708110
Si Si4 0.038376 0.541700 0.167520
Si Si5 0.024049 0.619817 0.707739
Si Si6 0.469102 0.352540 0.405910
Si Si7 0.434284 0.073291 0.010329
Si Si8 0.587737 0.482812 0.745273
O O1 0.956386 0.585854 0.950379
O O2 0.015935 0.732540 0.837493
O O3 0.677446 0.637678 0.104355
O O4 0.210693 0.923995 0.980940
O O5 0.327946 0.756751 0.566687
O O6 0.615572 0.776084 0.531203
O O7 0.495611 0.627101 0.358893
O O8 0.845303 0.985130 0.365846
O O9 0.769770 0.776529 0.603467
O O10 0.719664 0.676683 0.751030
O O11 0.677472 0.878360 0.840107
O O12 0.289380 0.750880 0.105477
O O13 0.050613 0.532395 0.267060
O O14 0.756292 0.460038 0.254560
O O15 0.806776 0.516670 0.693790
O O16 0.500000 0.500000 0.500000
O O17 0.500000 0.000000 0.000000
#
# Coordination Sequence:
#
# PCOD8020808 Si02
#       8
#     2   2   2   2   2   2   2   2
#     4  10  22  43  63  93 128 161 213 258 313 369
#     4  11  24  44  63  95 129 163 217 257 319 379
#     4  12  25  39  65  97 127 165 213 259 318 378
#     4   9  23  43  62  93 126 166 210 256 315 374
#     4   9  23  46  66  90 129 169 211 264 308 378
#     4  11  23  41  64  89 130 172 200 262 317 379
#     4  12  25  38  65  97 129 167 208 262 315 377
#     4  12  22  44  68  92 128 167 212 265 315 367
#
# _framework density 19.991534000000001
#
# number of rings (size 3 to 8) (size 9 to 14) (size 15 to 20)
#    0.750    0.500    3.750    1.875    3.500    2.500 
#    2.250    1.250    0.000    0.000    0.000    0.000 
#    0.000    0.000    0.000    0.000    0.000    0.000 
#
# Total GULP energy -198429.586269 kJ/mol
# GULP energy per Si atom -12401.849142 kJ/mol
# Density = 1.994603 g / cm^3
# Si number density = 19.991534 Si / 1000 Ang^3
#
#
#
# Elastic Constant Matrix: (Units=GPa)
#
#
# Indices 1 2 3 4 5 6 
#
# 1 66.7056 27.1146 24.9086 -3.1334 -9.2695 9.2688
# 2 27.1146 117.4970 39.9201 -9.2258 0.2323 5.4665
# 3 24.9086 39.9201 109.0569 -10.6653 -16.4864 6.0883
# 4 -3.1334 -9.2258 -10.6653 34.9021 6.0749 -1.6480
# 5 -9.2695 0.2323 -16.4864 6.0749 29.5918 -1.3048
# 6 9.2688 5.4665 6.0883 -1.6480 -1.3048 22.1299
#
#
#
# Elastic Compliance Matrix: (Units=1/GPa)
#
#
# Indices 1 2 3 4 5 6 
#
# 1 0.018594 -0.003389 -0.002054 -0.000952 0.004629 -0.006183
# 2 -0.003389 0.010641 -0.003431 0.002053 -0.003492 -0.000318
# 3 -0.002054 -0.003431 0.011967 0.001522 0.005688 -0.001136
# 4 -0.000952 0.002053 0.001522 0.030632 -0.005692 0.001418
# 5 0.004629 -0.003492 0.005688 -0.005692 0.039576 -0.000732
# 6 -0.006183 -0.000318 -0.001136 0.001418 -0.000732 0.048231
#
#
# Mechanical properties :
#
#
# Convention : Reuss Voigt Hill
#
# Bulk Modulus (GPa) = 42.63706 53.01622 47.82664
# Shear Modulus (GPa) = 26.99694 30.74582 28.87138
#
# Velocity S-wave (km/s) = 3.67879 3.92591 3.80436
# Velocity P-wave (km/s) = 6.27842 6.86493 6.57822
#
# Compressibility (1/GPa) = 0.02345377
#
# Stress axis : x y z
#
# Youngs Moduli (GPa) = 53.78164 93.97244 83.56627
#
# Poissons Ratio (x) = 0.31848 0.17167
# Poissons Ratio (y) = 0.18227 0.28668
# Poissons Ratio (z) = 0.11048 0.32238
#
# Static dielectric constant tensor:
#      x y z
#    x 3.457680 0.093780 -0.062190 
#    y 0.093780 3.545500 -0.007440 
#    z -0.062190 -0.007440 3.758640 
# 
# 
# High freq. dielectric constant tensor:
#      x y z
#    x 1.770120 0.010680 -0.008020 
#    y 0.010680 1.774820 -0.002020 
#    z -0.008020 -0.002020 1.793880 
# 
# From -- ./inp_files/522417.got.cif
#   From: 2010.06.25/outbox.cif.g09.slc.cpg/sg2_262_cif.got.tgz:522417.got - 2010.06.27 13:26:56.
