data_PCOD8020284
_publ_section_title
;
Structure prediction by ZEFSAII (Michael W. Deem and Ramdas Pophale) SiO2 
 PCOD8020284
Probable space group: P -1
;
_chemical_formula_sum "Si O2"
_cell_formula_units_Z 10
_cell_length_a 14.938859
_cell_length_b 14.112652
_cell_length_c 5.548294
_cell_angle_alpha 76.940978
_cell_angle_beta 77.884272
_cell_angle_gamma 19.338061
_cell_volume 377.308208
_symmetry_space_group_name_H-M "P -1"
_symmetry_group_IT_number 2
_symmetry_cell_setting 'triclinic'
loop_
_space_group_symop_operation_xyz
x,y,z
-x,-y,-z
loop_
_atom_site_type_symbol
_atom_site_label
_atom_site_fract_x
_atom_site_fract_y
_atom_site_fract_z
Si Si1 0.797191 0.405480 0.674926
Si Si2 0.114285 0.811679 0.854375
Si Si3 0.701219 0.191032 0.484763
Si Si4 0.748476 0.821779 0.959415
Si Si5 0.082610 0.305557 0.563528
O O1 0.593290 0.567260 0.492821
O O2 0.813240 0.506768 0.602247
O O3 0.712863 0.446427 0.962018
O O4 0.105293 0.059898 0.666803
O O5 0.315809 0.674968 0.647803
O O6 0.854585 0.025556 0.745690
O O7 0.000000 0.000000 0.000000
O O8 0.752606 0.881386 0.672924
O O9 0.751453 0.882427 0.172552
O O10 0.000000 0.500000 0.000000
O O11 0.500000 0.000000 0.000000
O O12 0.000000 0.500000 0.500000
#
# Coordination Sequence:
#
# PCOD8020284 Si02
#       5
#     2   2   2   2   2
#     4  11  24  40  65  96 133 174 224 275 339 401
#     4   9  21  42  65  96 129 174 218 276 340 405
#     4  10  23  41  65  95 133 170 223 277 338 405
#     4  10  22  42  67  91 127 173 225 275 334 392
#     4  10  24  45  67 102 136 183 227 284 338 407
#
# _framework density 26.503530999999999
#
# number of rings (size 3 to 8) (size 9 to 14) (size 15 to 20)
#    0.000    2.000    0.000    1.200    2.800   16.800 
#    0.000    0.000    0.000    0.000    0.000    0.000 
#    0.000    0.000    0.000    0.000    0.000    0.000 
#
# Total GULP energy -123896.244176 kJ/mol
# GULP energy per Si atom -12389.624418 kJ/mol
# Density = 2.644321 g / cm^3
# Si number density = 26.503531 Si / 1000 Ang^3
#
#
#
# Elastic Constant Matrix: (Units=GPa)
#
#
# Indices 1 2 3 4 5 6 
#
# 1 202.5529 50.1735 72.3808 -13.7455 -1.3261 -54.4475
# 2 50.1735 71.1210 22.4214 -2.8037 -14.1469 -43.7423
# 3 72.3808 22.4214 196.1985 2.9568 29.7734 -28.4660
# 4 -13.7455 -2.8037 2.9568 26.6330 -7.4804 -0.2174
# 5 -1.3261 -14.1469 29.7734 -7.4804 49.0164 -8.1072
# 6 -54.4475 -43.7423 -28.4660 -0.2174 -8.1072 51.7057
#
#
#
# Elastic Compliance Matrix: (Units=1/GPa)
#
#
# Indices 1 2 3 4 5 6 
#
# 1 0.008700 0.002917 -0.002923 0.006813 0.005703 0.010943
# 2 0.002917 0.045296 -0.003973 0.014046 0.024847 0.043159
# 3 -0.002923 -0.003973 0.007235 -0.004705 -0.006927 -0.003562
# 4 0.006813 0.014046 -0.004705 0.048185 0.017665 0.019439
# 5 0.005703 0.024847 -0.006927 0.017665 0.039507 0.029480
# 6 0.010943 0.043159 -0.003562 0.019439 0.029480 0.070118
#
#
# Mechanical properties :
#
#
# Convention : Reuss Voigt Hill
#
# Bulk Modulus (GPa) = 18.77154 84.42485 51.59820
# Shear Modulus (GPa) = 20.42847 47.13079 33.77963
#
# Velocity S-wave (km/s) = 2.77931 4.22154 3.57393
# Velocity P-wave (km/s) = 4.17103 7.46226 6.04494
#
# Compressibility (1/GPa) = 0.05327213
#
# Stress axis : x y z
#
# Youngs Moduli (GPa) = 114.94009 22.07698 138.22308
#
# Poissons Ratio (x) = -0.06440 0.40408
# Poissons Ratio (y) = -0.33527 0.54915
# Poissons Ratio (z) = 0.33602 0.08771
#
# Static dielectric constant tensor:
#      x y z
#    x 5.557620 -0.564760 1.452950 
#    y -0.564760 4.302620 -1.548490 
#    z 1.452950 -1.548490 16.436330 
# 
# 
# High freq. dielectric constant tensor:
#      x y z
#    x 2.066060 -0.014820 0.011760 
#    y -0.014820 2.031140 0.007480 
#    z 0.011760 0.007480 2.085620 
# 
# From -- ./inp_files/2296.got.cif
#   From: 2010.06.25/outbox.cif.g09.slc.cpg/sg2_2_cif.got.tgz:2296.got - 2010.06.27 13:26:56.
