data_PCOD8020477
_publ_section_title
;
Structure prediction by ZEFSAII (Michael W. Deem and Ramdas Pophale) SiO2 
 PCOD8020477
Probable space group: P -1
;
_chemical_formula_sum "Si O2"
_cell_formula_units_Z 16
_cell_length_a 12.691071
_cell_length_b 13.236717
_cell_length_c 5.418264
_cell_angle_alpha 85.222433
_cell_angle_beta 69.943265
_cell_angle_gamma 125.585576
_cell_volume 645.908830
_symmetry_space_group_name_H-M "P -1"
_symmetry_group_IT_number 2
_symmetry_cell_setting 'triclinic'
loop_
_space_group_symop_operation_xyz
x,y,z
-x,-y,-z
loop_
_atom_site_type_symbol
_atom_site_label
_atom_site_fract_x
_atom_site_fract_y
_atom_site_fract_z
Si Si1 0.036287 0.864267 0.425265
Si Si2 0.537951 0.735039 0.839183
Si Si3 0.843403 0.274879 0.707694
Si Si4 0.109586 0.525428 0.704165
Si Si5 0.266924 0.294505 0.524760
Si Si6 0.393084 0.577293 0.485197
Si Si7 0.118956 0.106587 0.075482
Si Si8 0.461647 0.916423 0.797695
O O1 0.902214 0.766213 0.358110
O O2 0.952312 0.836771 0.751724
O O3 0.146199 0.834284 0.372122
O O4 0.144582 0.023302 0.245848
O O5 0.691665 0.759202 0.727611
O O6 0.482096 0.642540 0.654801
O O7 0.549725 0.861151 0.738586
O O8 0.448016 0.670652 0.178326
O O9 0.800775 0.326356 0.512609
O O10 0.009080 0.403965 0.620152
O O11 0.715974 0.208924 0.033304
O O12 0.232768 0.523237 0.709446
O O13 0.000000 0.500000 0.000000
O O14 0.381040 0.453789 0.434117
O O15 0.269739 0.229824 0.790920
O O16 0.000000 0.000000 0.000000
O O17 0.500000 0.000000 0.500000
O O18 0.500000 0.000000 0.000000
#
# Coordination Sequence:
#
# PCOD8020477 Si02
#       8
#     2   2   2   2   2   2   2   2
#     4  10  22  42  68  97 146 178 242 298 357 429
#     4  12  28  49  73 105 150 190 248 300 360 446
#     4  11  25  45  72 108 140 192 245 301 373 428
#     4  11  25  42  74 106 146 190 239 314 363 436
#     4  11  25  41  72 103 140 195 236 294 375 427
#     4  12  26  48  72 110 146 189 245 306 366 436
#     4   9  22  40  60  99 135 183 235 295 349 429
#     4  12  29  51  76 107 149 200 247 300 367 444
#
# _framework density 24.771298000000002
#
# number of rings (size 3 to 8) (size 9 to 14) (size 15 to 20)
#    0.000    1.000    2.500    2.250   10.500    3.000 
#    0.000    0.000    0.000    0.000    0.000    0.000 
#    0.000    0.000    0.000    0.000    0.000    0.000 
#
# Total GULP energy -198273.416138 kJ/mol
# GULP energy per Si atom -12392.088509 kJ/mol
# Density = 2.471492 g / cm^3
# Si number density = 24.771298 Si / 1000 Ang^3
#
#
#
# Elastic Constant Matrix: (Units=GPa)
#
#
# Indices 1 2 3 4 5 6 
#
# 1 68.1194 20.6537 16.9192 -0.6416 -11.4905 -27.7398
# 2 20.6537 106.6949 28.0852 -0.9231 11.3500 -35.2803
# 3 16.9192 28.0852 145.2011 -10.4554 3.4211 -14.9257
# 4 -0.6416 -0.9231 -10.4554 46.3352 -2.9192 -3.7801
# 5 -11.4905 11.3500 3.4211 -2.9192 36.2739 14.9057
# 6 -27.7398 -35.2803 -14.9257 -3.7801 14.9057 37.6697
#
#
#
# Elastic Compliance Matrix: (Units=1/GPa)
#
#
# Indices 1 2 3 4 5 6 
#
# 1 0.021428 0.002204 -0.000929 0.001535 -0.001117 0.018072
# 2 0.002204 0.019420 -0.000888 0.001330 -0.015809 0.025849
# 3 -0.000929 -0.000888 0.007562 0.001764 -0.001515 0.002257
# 4 0.001535 0.001330 0.001764 0.022445 -0.000572 0.005554
# 5 -0.001117 -0.015809 -0.001515 -0.000572 0.046513 -0.034692
# 6 0.018072 0.025849 0.002257 0.005554 -0.034692 0.079243
#
#
# Mechanical properties :
#
#
# Convention : Reuss Voigt Hill
#
# Bulk Modulus (GPa) = 20.33121 50.14796 35.23959
# Shear Modulus (GPa) = 23.55934 41.01293 32.28614
#
# Velocity S-wave (km/s) = 3.08729 4.07340 3.61414
# Velocity P-wave (km/s) = 4.57536 6.51243 5.62786
#
# Compressibility (1/GPa) = 0.04918546
#
# Stress axis : x y z
#
# Youngs Moduli (GPa) = 46.66845 51.49308 132.24493
#
# Poissons Ratio (x) = -0.11351 0.12281
# Poissons Ratio (y) = -0.10288 0.11741
# Poissons Ratio (z) = 0.04334 0.04572
#
# Static dielectric constant tensor:
#      x y z
#    x 5.894040 -0.428030 0.873520 
#    y -0.428030 4.695030 -0.700190 
#    z 0.873520 -0.700190 5.519950 
# 
# 
# High freq. dielectric constant tensor:
#      x y z
#    x 1.991390 -0.003190 -0.006800 
#    y -0.003190 1.998180 -0.000480 
#    z -0.006800 -0.000480 1.989250 
# 
# From -- ./inp_files/84977.got.cif
#   From: 2010.06.25/outbox.cif.g09.slc.cpg/sg2_43_cif.got.tgz:84977.got - 2010.06.27 13:26:56.
