data_PCOD8020036
_publ_section_title
;
Structure prediction by ZEFSAII (Michael W. Deem and Ramdas Pophale) SiO2 
 PCOD8020036
Probable space group: P -1
;
_chemical_formula_sum "Si O2"
_cell_formula_units_Z 12
_cell_length_a 27.834265
_cell_length_b 15.042294
_cell_length_c 15.670845
_cell_angle_alpha 18.791012
_cell_angle_beta 16.653164
_cell_angle_gamma 17.830544
_cell_volume 528.934448
_symmetry_space_group_name_H-M "P -1"
_symmetry_group_IT_number 2
_symmetry_cell_setting 'triclinic'
loop_
_space_group_symop_operation_xyz
x,y,z
-x,-y,-z
loop_
_atom_site_type_symbol
_atom_site_label
_atom_site_fract_x
_atom_site_fract_y
_atom_site_fract_z
Si Si1 0.865669 0.365794 0.380089
Si Si2 0.573804 0.822854 0.154652
Si Si3 0.527348 0.732842 0.507149
Si Si4 0.146498 0.802967 0.134230
Si Si5 0.757902 0.702987 0.429990
Si Si6 0.742287 0.106546 0.485897
O O1 0.708016 0.432109 0.515138
O O2 0.751674 0.541119 0.500160
O O3 0.000000 0.000000 0.500000
O O4 0.000000 0.500000 0.000000
O O5 0.582360 0.821983 0.242613
O O6 0.691475 0.469322 0.239412
O O7 0.353821 0.974236 0.357372
O O8 0.665731 0.032449 0.772250
O O9 0.460116 0.040351 0.404107
O O10 0.348882 0.659533 0.868055
O O11 0.143746 0.556946 0.428396
O O12 0.972565 0.894112 0.281323
O O13 0.116743 0.114604 0.954510
#
# Coordination Sequence:
#
# PCOD8020036 Si02
#       6
#     2   2   2   2   2   2
#     4  12  28  43  68  98 129 173 220 273 325 389
#     4  10  23  40  68  96 134 169 220 264 326 382
#     4  10  27  42  69  95 132 175 219 269 323 393
#     4  10  23  40  69  91 132 178 208 271 320 390
#     4  10  24  44  62  98 130 175 208 276 321 385
#     4  10  22  42  64  99 133 173 210 274 319 385
#
# _framework density 22.687121999999999
#
# number of rings (size 3 to 8) (size 9 to 14) (size 15 to 20)
#    1.000    0.667    0.000    2.500   11.667    1.333 
#    0.000    0.833    0.000    0.000    0.000    0.000 
#    0.000    0.000    0.000    0.000    0.000    0.000 
#
# Total GULP energy -148764.305909 kJ/mol
# GULP energy per Si atom -12397.025492 kJ/mol
# Density = 2.263548 g / cm^3
# Si number density = 22.687122 Si / 1000 Ang^3
#
#
#
# Elastic Constant Matrix: (Units=GPa)
#
#
# Indices 1 2 3 4 5 6 
#
# 1 91.1472 52.4108 7.8994 7.9852 10.3770 -27.4653
# 2 52.4108 111.9362 40.4920 -1.3993 -1.2049 -36.6276
# 3 7.8994 40.4920 77.0348 -10.3208 -3.2494 -23.1444
# 4 7.9852 -1.3993 -10.3208 42.2947 -10.0822 -6.2114
# 5 10.3770 -1.2049 -3.2494 -10.0822 31.6969 5.0617
# 6 -27.4653 -36.6276 -23.1444 -6.2114 5.0617 50.4495
#
#
#
# Elastic Compliance Matrix: (Units=1/GPa)
#
#
# Indices 1 2 3 4 5 6 
#
# 1 0.018355 -0.007915 0.003211 -0.004016 -0.008224 0.006050
# 2 -0.007915 0.016461 -0.006029 0.001857 0.002413 0.004863
# 3 0.003211 -0.006029 0.018420 0.004891 0.001157 0.006307
# 4 -0.004016 0.001857 0.004891 0.028707 0.010396 0.003897
# 5 -0.008224 0.002413 0.001157 0.010396 0.038522 -0.004780
# 6 0.006050 0.004863 0.006307 0.003897 -0.004780 0.030499
#
#
# Mechanical properties :
#
#
# Convention : Reuss Voigt Hill
#
# Bulk Modulus (GPa) = 31.47620 53.52474 42.50047
# Shear Modulus (GPa) = 27.31928 36.84262 32.08095
#
# Velocity S-wave (km/s) = 3.47389 4.03419 3.76448
# Velocity P-wave (km/s) = 5.47674 6.73375 6.13751
#
# Compressibility (1/GPa) = 0.03177003
#
# Stress axis : x y z
#
# Youngs Moduli (GPa) = 54.47981 60.74998 54.28840
#
# Poissons Ratio (x) = 0.48083 -0.17431
# Poissons Ratio (y) = 0.43120 0.32732
# Poissons Ratio (z) = -0.17493 0.36628
#
# Static dielectric constant tensor:
#      x y z
#    x 3.908900 -0.237380 0.059080 
#    y -0.237380 4.047690 -0.076870 
#    z 0.059080 -0.076870 4.013050 
# 
# 
# High freq. dielectric constant tensor:
#      x y z
#    x 1.878470 -0.023750 0.006060 
#    y -0.023750 1.893650 -0.011150 
#    z 0.006060 -0.011150 1.897720 
# 
# From -- ./inp_files/544217.got.cif
#   From: 2010.06.25/outbox.cif.g09.slc.cpg/sg2_273_cif.got.tgz:544217.got - 2010.06.27 13:26:56.
