data_PCOD8020443
_publ_section_title
;
Structure prediction by ZEFSAII (Michael W. Deem and Ramdas Pophale) SiO2 
 PCOD8020443
Probable space group: P -1
;
_chemical_formula_sum "Si O2"
_cell_formula_units_Z 16
_cell_length_a 18.217851
_cell_length_b 9.050923
_cell_length_c 12.234973
_cell_angle_alpha 59.792002
_cell_angle_beta 28.065065
_cell_angle_gamma 50.841970
_cell_volume 727.838665
_symmetry_space_group_name_H-M "P -1"
_symmetry_group_IT_number 2
_symmetry_cell_setting 'triclinic'
loop_
_space_group_symop_operation_xyz
x,y,z
-x,-y,-z
loop_
_atom_site_type_symbol
_atom_site_label
_atom_site_fract_x
_atom_site_fract_y
_atom_site_fract_z
Si Si1 0.735252 0.454350 0.003689
Si Si2 0.753262 0.748038 0.287953
Si Si3 0.189780 0.823968 0.180868
Si Si4 0.364802 0.115225 0.040777
Si Si5 0.566699 0.998850 0.244196
Si Si6 0.076267 0.775650 0.952937
Si Si7 0.659651 0.413909 0.506378
Si Si8 0.822747 0.127172 0.583209
O O1 0.874996 0.350216 0.954471
O O2 0.549431 0.465249 0.281465
O O3 0.813818 0.333557 0.835899
O O4 0.723695 0.657577 0.911420
O O5 0.703757 0.817775 0.202213
O O6 0.747482 0.546620 0.380145
O O7 0.621040 0.906371 0.486372
O O8 0.943146 0.725990 0.076660
O O9 0.192824 0.755237 0.328010
O O10 0.018388 0.031657 0.310999
O O11 0.363430 0.843628 0.916346
O O12 0.212888 0.050359 0.267554
O O13 0.459392 0.071035 0.814595
O O14 0.500000 0.000000 0.000000
O O15 0.250703 0.706629 0.675473
O O16 0.000000 0.000000 0.000000
O O17 0.683620 0.265706 0.627610
#
# Coordination Sequence:
#
# PCOD8020443 Si02
#       8
#     2   2   2   2   2   2   2   2
#     4  12  25  43  69 100 138 174 225 278 333 395
#     4  11  24  42  70  97 129 179 223 277 328 400
#     4  10  22  44  66  97 130 174 227 273 329 396
#     4  11  24  42  65  99 136 175 218 278 337 388
#     4  10  22  42  68  95 132 174 225 269 337 402
#     4  12  28  43  69 103 141 172 217 282 342 393
#     4  12  24  43  68  98 135 176 229 267 333 402
#     4  10  23  42  69  94 134 181 218 278 329 396
#
# _framework density 21.982894999999999
#
# number of rings (size 3 to 8) (size 9 to 14) (size 15 to 20)
#    0.000    1.000    2.500    3.750    3.500    6.000 
#    0.000    0.000    0.000    0.000    0.000    0.000 
#    0.000    0.000    0.000    0.000    0.000    0.000 
#
# Total GULP energy -198465.274966 kJ/mol
# GULP energy per Si atom -12404.079685 kJ/mol
# Density = 2.193286 g / cm^3
# Si number density = 21.982895 Si / 1000 Ang^3
#
#
#
# Elastic Constant Matrix: (Units=GPa)
#
#
# Indices 1 2 3 4 5 6 
#
# 1 144.5244 56.2765 39.1074 9.6912 24.9773 -10.5705
# 2 56.2765 116.9932 20.5577 -4.2038 18.4819 -6.9282
# 3 39.1074 20.5577 79.5404 9.7700 13.2410 1.5454
# 4 9.6912 -4.2038 9.7700 30.7629 3.8342 -1.0108
# 5 24.9773 18.4819 13.2410 3.8342 39.6393 2.7552
# 6 -10.5705 -6.9282 1.5454 -1.0108 2.7552 37.0065
#
#
#
# Elastic Compliance Matrix: (Units=1/GPa)
#
#
# Indices 1 2 3 4 5 6 
#
# 1 0.010184 -0.003688 -0.003243 -0.002152 -0.003584 0.002562
# 2 -0.003688 0.011178 -0.001030 0.003433 -0.002973 0.001397
# 3 -0.003243 -0.001030 0.015277 -0.003766 -0.002097 -0.001704
# 4 -0.002152 0.003433 -0.003766 0.035203 -0.002485 0.001332
# 5 -0.003584 -0.002973 -0.002097 -0.002485 0.030077 -0.003800
# 6 0.002562 0.001397 -0.001704 0.001332 -0.003800 0.028406
#
#
# Mechanical properties :
#
#
# Convention : Reuss Voigt Hill
#
# Bulk Modulus (GPa) = 48.26590 63.66015 55.96303
# Shear Modulus (GPa) = 32.64698 36.48950 34.56824
#
# Velocity S-wave (km/s) = 3.85789 4.07861 3.96979
# Velocity P-wave (km/s) = 6.46902 7.15555 6.82093
#
# Compressibility (1/GPa) = 0.02071856
#
# Stress axis : x y z
#
# Youngs Moduli (GPa) = 98.19340 89.45841 65.45604
#
# Poissons Ratio (x) = 0.32995 0.21226
# Poissons Ratio (y) = 0.36217 0.06739
# Poissons Ratio (z) = 0.31841 0.09210
#
# Static dielectric constant tensor:
#      x y z
#    x 4.076550 0.029270 0.062830 
#    y 0.029270 3.845710 0.021320 
#    z 0.062830 0.021320 3.963620 
# 
# 
# High freq. dielectric constant tensor:
#      x y z
#    x 1.877740 0.001790 0.006450 
#    y 0.001790 1.858820 0.002730 
#    z 0.006450 0.002730 1.868190 
# 
# From -- ./inp_files/278976.got.cif
#   From: 2010.06.25/outbox.cif.g09.slc.cpg/sg2_140_cif.got.tgz:278976.got - 2010.06.27 13:26:56.
