data_PCOD8020305
_publ_section_title
;
Structure prediction by ZEFSAII (Michael W. Deem and Ramdas Pophale) SiO2 
 PCOD8020305
Probable space group: P -1
;
_chemical_formula_sum "Si O2"
_cell_formula_units_Z 12
_cell_length_a 7.100311
_cell_length_b 14.423276
_cell_length_c 8.607977
_cell_angle_alpha 95.723901
_cell_angle_beta 142.396745
_cell_angle_gamma 84.455826
_cell_volume 535.000647
_symmetry_space_group_name_H-M "P -1"
_symmetry_group_IT_number 2
_symmetry_cell_setting 'triclinic'
loop_
_space_group_symop_operation_xyz
x,y,z
-x,-y,-z
loop_
_atom_site_type_symbol
_atom_site_label
_atom_site_fract_x
_atom_site_fract_y
_atom_site_fract_z
Si Si1 0.600668 0.265771 0.762968
Si Si2 0.341490 0.888680 0.719122
Si Si3 0.676605 0.719254 0.751102
Si Si4 0.307096 0.421418 0.784299
Si Si5 0.669762 0.451507 0.460488
Si Si6 0.375210 0.100666 0.758504
O O1 0.422367 0.296894 0.495144
O O2 0.481124 0.322985 0.846907
O O3 0.539717 0.157401 0.738782
O O4 0.960452 0.283258 0.985156
O O5 0.538079 0.817902 0.730985
O O6 0.982590 0.866437 0.460210
O O7 0.405928 0.992085 0.716012
O O8 0.445099 0.878321 0.962492
O O9 0.545295 0.632668 0.751934
O O10 0.243598 0.464565 0.580781
O O11 0.010513 0.402788 0.697614
O O12 0.500000 0.500000 0.000000
O O13 0.500000 0.500000 0.500000
#
# Coordination Sequence:
#
# PCOD8020305 Si02
#       6
#     2   2   2   2   2   2
#     4  12  26  42  64  99 132 170 219 272 325 390
#     4  10  22  42  67  95 125 177 214 270 331 380
#     4  12  26  41  67  95 134 172 216 273 326 389
#     4  11  26  41  69  94 129 179 217 274 329 381
#     4  11  24  45  65  95 133 170 223 271 324 393
#     4  10  22  42  67  93 132 166 223 269 322 397
#
# _framework density 22.429880000000001
#
# number of rings (size 3 to 8) (size 9 to 14) (size 15 to 20)
#    0.000    1.000    1.667    4.000    7.000    2.667 
#    0.000    0.000    0.000    0.000    0.000    0.000 
#    0.000    0.000    0.000    0.000    0.000    0.000 
#
# Total GULP energy -148738.289819 kJ/mol
# GULP energy per Si atom -12394.857485 kJ/mol
# Density = 2.237883 g / cm^3
# Si number density = 22.429880 Si / 1000 Ang^3
#
#
#
# Elastic Constant Matrix: (Units=GPa)
#
#
# Indices 1 2 3 4 5 6 
#
# 1 90.1981 37.4360 12.3137 2.4954 31.4053 -10.9594
# 2 37.4360 104.6642 11.5722 9.4963 21.2350 -7.3678
# 3 12.3137 11.5722 78.9793 -0.1513 16.3077 5.8065
# 4 2.4954 9.4963 -0.1513 30.2917 1.1947 5.9007
# 5 31.4053 21.2350 16.3077 1.1947 41.1365 3.4214
# 6 -10.9594 -7.3678 5.8065 5.9007 3.4214 55.5756
#
#
#
# Elastic Compliance Matrix: (Units=1/GPa)
#
#
# Indices 1 2 3 4 5 6 
#
# 1 0.016964 -0.003428 -0.000049 -0.000585 -0.011450 0.003663
# 2 -0.003428 0.011970 -0.000655 -0.003648 -0.003327 0.001571
# 3 -0.000049 -0.000655 0.013906 0.000734 -0.005049 -0.001316
# 4 -0.000585 -0.003648 0.000734 0.035026 0.001394 -0.004480
# 5 -0.011450 -0.003327 -0.005049 0.001394 0.037112 -0.004604
# 6 0.003663 0.001571 -0.001316 -0.004480 -0.004604 0.019821
#
#
# Mechanical properties :
#
#
# Convention : Reuss Voigt Hill
#
# Bulk Modulus (GPa) = 28.92247 44.05394 36.48821
# Shear Modulus (GPa) = 32.34427 39.56875 35.95651
#
# Velocity S-wave (km/s) = 3.80151 4.20469 4.00817
# Velocity P-wave (km/s) = 5.67373 6.57692 6.14195
#
# Compressibility (1/GPa) = 0.03457519
#
# Stress axis : x y z
#
# Youngs Moduli (GPa) = 58.94813 83.54532 71.91216
#
# Poissons Ratio (x) = 0.28643 0.00351
# Poissons Ratio (y) = 0.20210 0.04710
# Poissons Ratio (z) = 0.00288 0.05472
#
# Static dielectric constant tensor:
#      x y z
#    x 3.614490 -0.255640 0.242020 
#    y -0.255640 4.328730 -0.025640 
#    z 0.242020 -0.025640 4.170850 
# 
# 
# High freq. dielectric constant tensor:
#      x y z
#    x 1.878260 0.002640 0.011910 
#    y 0.002640 1.904030 0.003400 
#    z 0.011910 0.003400 1.890630 
# 
# From -- ./inp_files/3285.got.cif
#   From: 2010.06.25/outbox.cif.g09.slc.cpg/sg2_2_cif.got.tgz:3285.got - 2010.06.27 13:26:56.
