data_PCOD8020148
_publ_section_title
;
Structure prediction by ZEFSAII (Michael W. Deem and Ramdas Pophale) SiO2 
 PCOD8020148
Probable space group: P -1
;
_chemical_formula_sum "Si O2"
_cell_formula_units_Z 16
_cell_length_a 9.876593
_cell_length_b 17.064483
_cell_length_c 5.214352
_cell_angle_alpha 65.645151
_cell_angle_beta 101.002743
_cell_angle_gamma 66.605748
_cell_volume 665.446115
_symmetry_space_group_name_H-M "P -1"
_symmetry_group_IT_number 2
_symmetry_cell_setting 'triclinic'
loop_
_space_group_symop_operation_xyz
x,y,z
-x,-y,-z
loop_
_atom_site_type_symbol
_atom_site_label
_atom_site_fract_x
_atom_site_fract_y
_atom_site_fract_z
Si Si1 0.198381 0.940961 0.144737
Si Si2 0.605121 0.520867 0.703114
Si Si3 0.665999 0.334423 0.254398
Si Si4 0.946509 0.466936 0.775427
Si Si5 0.495940 0.098907 0.451297
Si Si6 0.306773 0.831636 0.824540
Si Si7 0.870491 0.773124 0.816841
Si Si8 0.985599 0.827809 0.280277
O O1 0.047520 0.057913 0.909819
O O2 0.821669 0.107633 0.535659
O O3 0.211798 0.871455 0.002785
O O4 0.370743 0.935777 0.225602
O O5 0.500000 0.500000 0.500000
O O6 0.489739 0.627058 0.667182
O O7 0.750399 0.524245 0.614683
O O8 0.684404 0.428233 0.060532
O O9 0.635830 0.285690 0.053522
O O10 0.825140 0.256117 0.580414
O O11 0.000000 0.500000 0.500000
O O12 0.025989 0.347281 0.974304
O O13 0.000000 0.500000 0.000000
O O14 0.545654 0.148035 0.171766
O O15 0.317618 0.185065 0.367510
O O16 0.500000 0.000000 0.500000
O O17 0.934830 0.814539 0.562951
O O18 0.881550 0.816103 0.037613
#
# Coordination Sequence:
#
# PCOD8020148 Si02
#       8
#     2   2   2   2   2   2   2   2
#     4  10  23  42  66 107 146 188 241 295 378 427
#     4  11  27  51  82 106 149 207 255 318 384 459
#     4  11  27  47  76 105 148 192 267 302 378 454
#     4  12  29  51  76 116 156 189 253 324 388 448
#     4  10  22  42  66 103 143 191 241 293 366 450
#     4  10  25  42  66 105 141 194 239 303 363 437
#     4  12  25  42  73 105 141 195 240 299 379 444
#     4  12  24  44  73 105 141 193 249 298 364 444
#
# _framework density 24.044021999999998
#
# number of rings (size 3 to 8) (size 9 to 14) (size 15 to 20)
#    0.750    0.250    2.500    3.000    8.750    2.000 
#    0.000    0.000    0.000    0.000    0.000    0.000 
#    0.000    0.000    0.000    0.000    0.000    0.000 
#
# Total GULP energy -198407.648769 kJ/mol
# GULP energy per Si atom -12400.478048 kJ/mol
# Density = 2.398930 g / cm^3
# Si number density = 24.044022 Si / 1000 Ang^3
#
#
#
# Elastic Constant Matrix: (Units=GPa)
#
#
# Indices 1 2 3 4 5 6 
#
# 1 127.9073 30.9524 39.6505 -3.3744 11.4467 -26.2497
# 2 30.9524 140.0913 41.9755 13.9957 10.6089 -21.3146
# 3 39.6505 41.9755 101.8564 11.3206 2.9528 -19.1423
# 4 -3.3744 13.9957 11.3206 49.6654 -2.6738 6.8545
# 5 11.4467 10.6089 2.9528 -2.6738 50.2411 -3.7194
# 6 -26.2497 -21.3146 -19.1423 6.8545 -3.7194 43.2836
#
#
#
# Elastic Compliance Matrix: (Units=1/GPa)
#
#
# Indices 1 2 3 4 5 6 
#
# 1 0.009873 -0.000666 -0.002841 0.000850 -0.001591 0.004132
# 2 -0.000666 0.008867 -0.002487 -0.002488 -0.001475 0.003130
# 3 -0.002841 -0.002487 0.012857 -0.002842 0.000505 0.003232
# 4 0.000850 -0.002488 -0.002842 0.022356 0.001289 -0.005396
# 5 -0.001591 -0.001475 0.000505 0.001289 0.020624 0.000100
# 6 0.004132 0.003130 0.003232 -0.005396 0.000100 0.029443
#
#
# Mechanical properties :
#
#
# Convention : Reuss Voigt Hill
#
# Bulk Modulus (GPa) = 50.99698 66.11242 58.55470
# Shear Modulus (GPa) = 40.80164 45.78979 43.29571
#
# Velocity S-wave (km/s) = 4.12388 4.36869 4.24805
# Velocity P-wave (km/s) = 6.62805 7.28034 6.96184
#
# Compressibility (1/GPa) = 0.01960900
#
# Stress axis : x y z
#
# Youngs Moduli (GPa) = 101.29027 112.77544 77.77767
#
# Poissons Ratio (x) = 0.07511 0.22093
# Poissons Ratio (y) = 0.06746 0.19346
# Poissons Ratio (z) = 0.28772 0.28052
#
# Static dielectric constant tensor:
#      x y z
#    x 4.611360 -0.042640 -0.055110 
#    y -0.042640 4.722120 0.204680 
#    z -0.055110 0.204680 4.986450 
# 
# 
# High freq. dielectric constant tensor:
#      x y z
#    x 1.967560 0.001790 0.006510 
#    y 0.001790 1.965690 -0.006150 
#    z 0.006510 -0.006150 1.958410 
# 
# From -- ./inp_files/47153.got.cif
#   From: 2010.06.25/outbox.cif.g09.slc.cpg/sg2_24_cif.got.tgz:47153.got - 2010.06.27 13:26:56.
