data_PCOD8020954
_publ_section_title
;
Structure prediction by ZEFSAII (Michael W. Deem and Ramdas Pophale) SiO2 
 PCOD8020954
Probable space group: P -1
;
_chemical_formula_sum "Si O2"
_cell_formula_units_Z 16
_cell_length_a 12.641396
_cell_length_b 9.228309
_cell_length_c 13.738562
_cell_angle_alpha 104.695655
_cell_angle_beta 58.757334
_cell_angle_gamma 54.580841
_cell_volume 676.640616
_symmetry_space_group_name_H-M "P -1"
_symmetry_group_IT_number 2
_symmetry_cell_setting 'triclinic'
loop_
_space_group_symop_operation_xyz
x,y,z
-x,-y,-z
loop_
_atom_site_type_symbol
_atom_site_label
_atom_site_fract_x
_atom_site_fract_y
_atom_site_fract_z
Si Si1 0.417306 0.227032 0.014196
Si Si2 0.950065 0.699281 0.619230
Si Si3 0.995062 0.618305 0.139147
Si Si4 0.607582 0.395450 0.215951
Si Si5 0.010199 0.195663 0.993710
Si Si6 0.407181 0.749530 0.542145
Si Si7 0.820581 0.533143 0.322453
Si Si8 0.800763 0.335601 0.646632
O O1 0.254801 0.339906 0.020249
O O2 0.248495 0.515536 0.207141
O O3 0.500000 0.000000 0.000000
O O4 0.663243 0.041828 0.819252
O O5 0.000000 0.500000 0.500000
O O6 0.036764 0.580011 0.666924
O O7 0.109918 0.660924 0.487058
O O8 0.808559 0.697293 0.291135
O O9 0.021344 0.602463 0.004534
O O10 0.875188 0.912876 0.252002
O O11 0.828465 0.262777 0.043815
O O12 0.434986 0.694289 0.403566
O O13 0.460385 0.465679 0.214421
O O14 0.715692 0.156829 0.200055
O O15 0.961280 0.263366 0.144298
O O16 0.500000 0.500000 0.500000
O O17 0.558379 0.737506 0.505068
O O18 0.000000 0.000000 0.500000
#
# Coordination Sequence:
#
# PCOD8020954 Si02
#       8
#     2   2   2   2   2   2   2   2
#     4  12  26  51  73 110 153 199 251 309 368 454
#     4  12  26  49  79 105 148 207 245 309 383 440
#     4  12  24  44  71 105 143 190 245 301 370 440
#     4  10  22  43  66 101 141 180 238 296 366 437
#     4  10  23  42  70 101 142 187 230 304 374 429
#     4  11  22  43  67 100 144 186 234 301 374 435
#     4  11  24  44  70 108 140 182 251 298 365 452
#     4  12  27  48  77 112 147 195 258 309 371 446
#
# _framework density 23.646232000000001
#
# number of rings (size 3 to 8) (size 9 to 14) (size 15 to 20)
#    0.000    0.750    3.750    3.000    1.750    0.500 
#    6.750    0.000    0.000    0.000    0.000    0.000 
#    0.000    0.000    0.000    0.000    0.000    0.000 
#
# Total GULP energy -198252.783377 kJ/mol
# GULP energy per Si atom -12390.798961 kJ/mol
# Density = 2.359241 g / cm^3
# Si number density = 23.646232 Si / 1000 Ang^3
#
#
#
# Elastic Constant Matrix: (Units=GPa)
#
#
# Indices 1 2 3 4 5 6 
#
# 1 77.4035 27.2489 7.3776 -11.2226 -16.8338 10.5477
# 2 27.2489 124.5857 18.9225 -3.1532 -10.7369 13.3283
# 3 7.3776 18.9225 103.6470 -0.3664 -3.3117 7.4452
# 4 -11.2226 -3.1532 -0.3664 38.8662 2.0943 2.8689
# 5 -16.8338 -10.7369 -3.3117 2.0943 36.2371 -0.1235
# 6 10.5477 13.3283 7.4452 2.8689 -0.1235 33.3229
#
#
#
# Elastic Compliance Matrix: (Units=1/GPa)
#
#
# Indices 1 2 3 4 5 6 
#
# 1 0.016519 -0.002405 -0.000178 0.004553 0.006666 -0.004594
# 2 -0.002405 0.009155 -0.001264 0.000152 0.001462 -0.002626
# 3 -0.000178 -0.001264 0.010027 0.000040 0.000451 -0.001680
# 4 0.004553 0.000152 0.000040 0.027311 0.000572 -0.003860
# 5 0.006666 0.001462 0.000451 0.000572 0.031125 -0.002730
# 6 -0.004594 -0.002626 -0.001680 -0.003860 -0.002730 0.033211
#
#
# Mechanical properties :
#
#
# Convention : Reuss Voigt Hill
#
# Bulk Modulus (GPa) = 35.70480 45.85937 40.78208
# Shear Modulus (GPa) = 34.63142 38.49105 36.56123
#
# Velocity S-wave (km/s) = 3.83111 4.03896 3.93641
# Velocity P-wave (km/s) = 5.89086 6.41771 6.15992
#
# Compressibility (1/GPa) = 0.02800744
#
# Stress axis : x y z
#
# Youngs Moduli (GPa) = 60.53726 109.22549 99.73209
#
# Poissons Ratio (x) = 0.26265 0.01772
# Poissons Ratio (y) = 0.14557 0.12610
# Poissons Ratio (z) = 0.01076 0.13811
#
# Static dielectric constant tensor:
#      x y z
#    x 4.326880 0.244060 0.057610 
#    y 0.244060 4.518680 -0.228460 
#    z 0.057610 -0.228460 4.819990 
# 
# 
# High freq. dielectric constant tensor:
#      x y z
#    x 1.934170 0.011030 0.005740 
#    y 0.011030 1.938090 -0.006640 
#    z 0.005740 -0.006640 1.954210 
# 
# From -- ./inp_files/515913.got.cif
#   From: 2010.06.25/outbox.cif.g09.slc.cpg/sg2_258_cif.got.tgz:515913.got - 2010.06.27 13:26:56.
