data_PCOD8020908
_publ_section_title
;
Structure prediction by ZEFSAII (Michael W. Deem and Ramdas Pophale) SiO2 
 PCOD8020908
Probable space group: P -1
;
_chemical_formula_sum "Si O2"
_cell_formula_units_Z 14
_cell_length_a 19.191213
_cell_length_b 8.284727
_cell_length_c 8.665553
_cell_angle_alpha 69.926645
_cell_angle_beta 146.737322
_cell_angle_gamma 121.005368
_cell_volume 636.386994
_symmetry_space_group_name_H-M "P -1"
_symmetry_group_IT_number 2
_symmetry_cell_setting 'triclinic'
loop_
_space_group_symop_operation_xyz
x,y,z
-x,-y,-z
loop_
_atom_site_type_symbol
_atom_site_label
_atom_site_fract_x
_atom_site_fract_y
_atom_site_fract_z
Si Si1 0.667548 0.910299 0.829947
Si Si2 0.534503 0.054206 0.787878
Si Si3 0.680102 0.253879 0.302736
Si Si4 0.984598 0.047720 0.260012
Si Si5 0.758204 0.637623 0.196733
Si Si6 0.070354 0.372064 0.742032
Si Si7 0.981645 0.323678 0.918881
O O1 0.645352 0.043504 0.874003
O O2 0.559578 0.861619 0.503517
O O3 0.638220 0.709973 0.926483
O O4 0.826337 0.008899 0.026664
O O5 0.428530 0.845723 0.727420
O O6 0.614639 0.186125 0.035231
O O7 0.716734 0.479003 0.305146
O O8 0.820543 0.222712 0.589130
O O9 0.092642 0.178107 0.548460
O O10 0.012759 0.861383 0.348492
O O11 0.018403 0.169021 0.124146
O O12 0.782475 0.557962 0.102022
O O13 0.000000 0.500000 0.500000
O O14 0.091186 0.412835 0.950042
O O15 0.000000 0.500000 0.000000
#
# Coordination Sequence:
#
# PCOD8020908 Si02
#       7
#     2   2   2   2   2   2   2
#     4  10  22  43  65  93 123 164 219 264 314 379
#     4  10  24  43  67  86 122 182 216 255 309 375
#     4  11  23  42  63  92 128 170 219 256 310 381
#     4  11  23  41  66 101 131 162 209 268 332 382
#     4  11  24  40  67  99 129 159 210 276 325 377
#     4  11  22  39  62  98 128 168 201 258 336 376
#     4  12  23  40  64  97 136 165 210 264 327 383
#
# _framework density 21.999192000000001
#
# number of rings (size 3 to 8) (size 9 to 14) (size 15 to 20)
#    0.000    1.143    4.286    2.143    4.000    2.286 
#    0.000    0.000    0.000    0.000    0.000    0.000 
#    0.000    0.000    0.000    0.000    0.000    0.000 
#
# Total GULP energy -173519.422972 kJ/mol
# GULP energy per Si atom -12394.244498 kJ/mol
# Density = 2.194912 g / cm^3
# Si number density = 21.999192 Si / 1000 Ang^3
#
#
#
# Elastic Constant Matrix: (Units=GPa)
#
#
# Indices 1 2 3 4 5 6 
#
# 1 92.1948 24.3580 37.6487 -9.0052 -10.2618 -4.5219
# 2 24.3580 127.1594 31.9120 -32.9551 3.0287 -1.1752
# 3 37.6487 31.9120 112.6764 -25.7325 -4.9722 -12.8136
# 4 -9.0052 -32.9551 -25.7325 43.0537 6.1901 -2.3293
# 5 -10.2618 3.0287 -4.9722 6.1901 30.9456 -3.3962
# 6 -4.5219 -1.1752 -12.8136 -2.3293 -3.3962 28.4049
#
#
#
# Elastic Compliance Matrix: (Units=1/GPa)
#
#
# Indices 1 2 3 4 5 6 
#
# 1 0.013400 -0.002134 -0.004029 -0.001844 0.004440 0.000607
# 2 -0.002134 0.010512 -0.000652 0.007698 -0.003378 0.000028
# 3 -0.004029 -0.000652 0.012500 0.006419 0.000056 0.005504
# 4 -0.001844 0.007698 0.006419 0.033777 -0.006551 0.004907
# 5 0.004440 -0.003378 0.000056 -0.006551 0.035915 0.004349
# 6 0.000607 0.000028 0.005504 0.004907 0.004349 0.038708
#
#
# Mechanical properties :
#
#
# Convention : Reuss Voigt Hill
#
# Bulk Modulus (GPa) = 43.89453 57.76309 50.82881
# Shear Modulus (GPa) = 30.11401 36.35497 33.23449
#
# Velocity S-wave (km/s) = 3.70384 4.06958 3.89101
# Velocity P-wave (km/s) = 6.18767 6.95671 6.58343
#
# Compressibility (1/GPa) = 0.02278188
#
# Stress axis : x y z
#
# Youngs Moduli (GPa) = 74.62947 95.12780 79.99866
#
# Poissons Ratio (x) = 0.20298 0.32232
# Poissons Ratio (y) = 0.15924 0.05218
# Poissons Ratio (z) = 0.30069 0.06204
#
# Static dielectric constant tensor:
#      x y z
#    x 4.043240 0.156410 -0.156650 
#    y 0.156410 4.219250 -0.342120 
#    z -0.156650 -0.342120 4.033790 
# 
# 
# High freq. dielectric constant tensor:
#      x y z
#    x 1.865910 0.011000 -0.017950 
#    y 0.011000 1.872550 -0.025530 
#    z -0.017950 -0.025530 1.857460 
# 
# From -- ./inp_files/342650.got.cif
#   From: 2010.06.25/outbox.cif.g09.slc.cpg/sg2_172_cif.got.tgz:342650.got - 2010.06.27 13:26:56.
