data_PCOD8020232
_publ_section_title
;
Structure prediction by ZEFSAII (Michael W. Deem and Ramdas Pophale) SiO2 
 PCOD8020232
Probable space group: P -1
;
_chemical_formula_sum "Si O2"
_cell_formula_units_Z 14
_cell_length_a 8.962376
_cell_length_b 7.734454
_cell_length_c 8.885457
_cell_angle_alpha 81.345580
_cell_angle_beta 86.461903
_cell_angle_gamma 103.210062
_cell_volume 589.843548
_symmetry_space_group_name_H-M "P -1"
_symmetry_group_IT_number 2
_symmetry_cell_setting 'triclinic'
loop_
_space_group_symop_operation_xyz
x,y,z
-x,-y,-z
loop_
_atom_site_type_symbol
_atom_site_label
_atom_site_fract_x
_atom_site_fract_y
_atom_site_fract_z
Si Si1 0.586251 0.199682 0.910656
Si Si2 0.930631 0.322980 0.825387
Si Si3 0.590988 0.640491 0.352543
Si Si4 0.613792 0.888290 0.567889
Si Si5 0.645711 0.351858 0.194495
Si Si6 0.070148 0.971985 0.342414
Si Si7 0.027793 0.706781 0.836869
O O1 0.759913 0.196022 0.861578
O O2 0.515039 0.267097 0.758543
O O3 0.597930 0.349769 0.022527
O O4 0.500000 0.000000 0.000000
O O5 0.941032 0.534171 0.762771
O O6 0.005129 0.223847 0.701941
O O7 0.015855 0.328899 0.980147
O O8 0.500000 0.500000 0.500000
O O9 0.686973 0.801164 0.432215
O O10 0.695370 0.551004 0.244340
O O11 0.510560 0.739565 0.700206
O O12 0.748130 0.008314 0.644061
O O13 0.500000 0.000000 0.500000
O O14 0.788486 0.256582 0.214058
O O15 0.039627 0.124531 0.215182
O O16 0.000000 0.000000 0.500000
#
# Coordination Sequence:
#
# PCOD8020232 Si02
#       7
#     2   2   2   2   2   2   2
#     4  11  22  42  70 101 130 177 230 291 337 408
#     4  10  24  46  69  97 136 179 226 287 341 404
#     4  10  23  39  65  97 137 174 221 278 344 404
#     4  11  23  43  64  97 138 178 221 279 341 407
#     4  10  22  42  66  98 128 173 229 282 334 403
#     4  12  26  42  69 102 138 183 224 279 345 415
#     4  10  24  46  70  96 136 178 229 282 344 405
#
# _framework density 23.735106999999999
#
# number of rings (size 3 to 8) (size 9 to 14) (size 15 to 20)
#    0.000    1.429    0.000    4.286    6.000    2.857 
#   10.286    0.000    0.000    0.000    0.000    0.000 
#    0.000    0.000    0.000    0.000    0.000    0.000 
#
# Total GULP energy -173448.851615 kJ/mol
# GULP energy per Si atom -12389.203687 kJ/mol
# Density = 2.368109 g / cm^3
# Si number density = 23.735107 Si / 1000 Ang^3
#
#
#
# Elastic Constant Matrix: (Units=GPa)
#
#
# Indices 1 2 3 4 5 6 
#
# 1 58.4233 10.5168 12.6539 7.9464 12.6583 -0.0605
# 2 10.5168 116.6676 53.3595 35.5933 15.9914 -2.7738
# 3 12.6539 53.3595 130.2396 31.9812 8.8543 -6.7640
# 4 7.9464 35.5933 31.9812 62.0318 -7.3717 2.9017
# 5 12.6583 15.9914 8.8543 -7.3717 35.6281 -1.1119
# 6 -0.0605 -2.7738 -6.7640 2.9017 -1.1119 35.2503
#
#
#
# Elastic Compliance Matrix: (Units=1/GPa)
#
#
# Indices 1 2 3 4 5 6 
#
# 1 0.019284 0.000714 -0.000820 -0.003367 -0.007666 -0.000033
# 2 0.000714 0.012952 -0.003250 -0.006668 -0.006616 0.000737
# 3 -0.000820 -0.003250 0.010154 -0.003527 -0.001443 0.001936
# 4 -0.003367 -0.006668 -0.003527 0.023498 0.009839 -0.002831
# 5 -0.007666 -0.006616 -0.001443 0.009839 0.036140 -0.000481
# 6 -0.000033 0.000737 0.001936 -0.002831 -0.000481 0.029016
#
#
# Mechanical properties :
#
#
# Convention : Reuss Voigt Hill
#
# Bulk Modulus (GPa) = 28.02882 50.93234 39.48058
# Shear Modulus (GPa) = 33.41100 41.83539 37.62320
#
# Velocity S-wave (km/s) = 3.75595 4.20288 3.98569
# Velocity P-wave (km/s) = 5.53572 6.71249 6.15231
#
# Compressibility (1/GPa) = 0.03567756
#
# Stress axis : x y z
#
# Youngs Moduli (GPa) = 51.85564 77.20563 98.48088
#
# Poissons Ratio (x) = -0.05510 0.08074
# Poissons Ratio (y) = -0.03701 0.32011
# Poissons Ratio (z) = 0.04252 0.25095
#
# Static dielectric constant tensor:
#      x y z
#    x 3.995890 0.234970 -0.122640 
#    y 0.234970 5.329610 -0.406810 
#    z -0.122640 -0.406810 6.154970 
# 
# 
# High freq. dielectric constant tensor:
#      x y z
#    x 1.926290 0.001570 -0.001860 
#    y 0.001570 1.946650 0.029000 
#    z -0.001860 0.029000 1.955320 
# 
# From -- ./inp_files/158679.got.cif
#   From: 2010.06.25/outbox.cif.g09.slc.cpg/sg2_80_cif.got.tgz:158679.got - 2010.06.27 13:26:56.
