data_PCOD8020516
_publ_section_title
;
Structure prediction by ZEFSAII (Michael W. Deem and Ramdas Pophale) SiO2 
 PCOD8020516
Probable space group: P -1
;
_chemical_formula_sum "Si O2"
_cell_formula_units_Z 16
_cell_length_a 4.907237
_cell_length_b 27.593129
_cell_length_c 6.008882
_cell_angle_alpha 127.392823
_cell_angle_beta 89.238775
_cell_angle_gamma 86.656600
_cell_volume 644.110458
_symmetry_space_group_name_H-M "P -1"
_symmetry_group_IT_number 2
_symmetry_cell_setting 'triclinic'
loop_
_space_group_symop_operation_xyz
x,y,z
-x,-y,-z
loop_
_atom_site_type_symbol
_atom_site_label
_atom_site_fract_x
_atom_site_fract_y
_atom_site_fract_z
Si Si1 0.886104 0.045765 0.941136
Si Si2 0.732911 0.124491 0.544314
Si Si3 0.180216 0.545227 0.493422
Si Si4 0.806988 0.347782 0.490490
Si Si5 0.322846 0.733141 0.109962
Si Si6 0.745750 0.933069 0.391930
Si Si7 0.565835 0.574290 0.948566
Si Si8 0.162256 0.315133 0.781411
O O1 0.136250 0.072608 0.877088
O O2 0.709614 0.005696 0.664031
O O3 0.697508 0.099121 0.220160
O O4 0.000000 0.000000 0.000000
O O5 0.661760 0.196257 0.744407
O O6 0.543519 0.095111 0.650146
O O7 0.044937 0.106689 0.560206
O O8 0.035171 0.600990 0.505804
O O9 0.381607 0.578571 0.742977
O O10 0.350727 0.496629 0.189096
O O11 0.000000 0.500000 0.500000
O O12 0.035537 0.305903 0.510782
O O13 0.581714 0.386938 0.746530
O O14 0.625348 0.304528 0.224227
O O15 0.527159 0.713662 0.258409
O O16 0.017540 0.717912 0.132397
O O17 0.835470 0.610731 0.981187
#
# Coordination Sequence:
#
# PCOD8020516 Si02
#       8
#     2   2   2   2   2   2   2   2
#     4   9  21  41  72 105 148 191 232 306 367 430
#     4  11  24  45  68 104 144 197 241 308 362 426
#     4  11  24  45  72 107 144 176 232 302 360 446
#     4  12  25  46  73 102 141 190 234 298 366 431
#     4  12  28  49  72 102 150 187 250 301 354 429
#     4  10  22  42  69 109 144 186 250 292 369 441
#     4  11  24  44  71 107 137 183 236 291 371 434
#     4  12  26  50  71 105 138 193 240 296 362 436
#
# _framework density 24.840461000000001
#
# number of rings (size 3 to 8) (size 9 to 14) (size 15 to 20)
#    0.000    1.000    2.500    3.000    1.750   11.500 
#    2.250    0.000    0.000    0.000    0.000    0.000 
#    0.000    0.000    0.000    0.000    0.000    0.000 
#
# Total GULP energy -198300.032160 kJ/mol
# GULP energy per Si atom -12393.752010 kJ/mol
# Density = 2.478392 g / cm^3
# Si number density = 24.840461 Si / 1000 Ang^3
#
#
#
# Elastic Constant Matrix: (Units=GPa)
#
#
# Indices 1 2 3 4 5 6 
#
# 1 81.5927 26.9267 31.6284 5.6043 5.5289 14.6601
# 2 26.9267 133.3012 79.8174 13.0286 1.2394 9.8520
# 3 31.6284 79.8174 143.3333 12.9054 -11.8326 8.4804
# 4 5.6043 13.0286 12.9054 33.2347 3.7582 -2.3880
# 5 5.5289 1.2394 -11.8326 3.7582 27.3447 -4.6133
# 6 14.6601 9.8520 8.4804 -2.3880 -4.6133 49.2785
#
#
#
# Elastic Compliance Matrix: (Units=1/GPa)
#
#
# Indices 1 2 3 4 5 6 
#
# 1 0.014784 -0.000830 -0.002873 -0.000813 -0.004796 -0.004226
# 2 -0.000830 0.011813 -0.006415 -0.001745 -0.003138 -0.001389
# 3 -0.002873 -0.006415 0.011886 -0.002302 0.006430 0.000582
# 4 -0.000813 -0.001745 -0.002302 0.032506 -0.004864 0.002107
# 5 -0.004796 -0.003138 0.006430 -0.004864 0.041915 0.004636
# 6 -0.004226 -0.001389 0.000582 0.002107 0.004636 0.022264
#
#
# Mechanical properties :
#
#
# Convention : Reuss Voigt Hill
#
# Bulk Modulus (GPa) = 54.79964 70.55246 62.67605
# Shear Modulus (GPa) = 30.96271 36.62856 33.79563
#
# Velocity S-wave (km/s) = 3.53436 3.84416 3.69251
# Velocity P-wave (km/s) = 6.22608 6.94026 6.59285
#
# Compressibility (1/GPa) = 0.01824830
#
# Stress axis : x y z
#
# Youngs Moduli (GPa) = 67.64260 84.65362 84.12923
#
# Poissons Ratio (x) = 0.07023 0.24169
# Poissons Ratio (y) = 0.05612 0.53968
# Poissons Ratio (z) = 0.19432 0.54304
#
# Static dielectric constant tensor:
#      x y z
#    x 4.353070 0.033890 -0.019910 
#    y 0.033890 4.608290 -0.043720 
#    z -0.019910 -0.043720 5.028190 
# 
# 
# High freq. dielectric constant tensor:
#      x y z
#    x 1.983080 0.006590 0.000850 
#    y 0.006590 1.996570 -0.007610 
#    z 0.000850 -0.007610 1.983480 
# 
# From -- ./inp_files/14794.got.cif
#   From: 2010.06.25/outbox.cif.g09.slc.cpg/sg2_8_cif.got.tgz:14794.got - 2010.06.27 13:26:56.
