data_PCOD8020114
_publ_section_title
;
Structure prediction by ZEFSAII (Michael W. Deem and Ramdas Pophale) SiO2 
 PCOD8020114
Probable space group: P -1
;
_chemical_formula_sum "Si O2"
_cell_formula_units_Z 14
_cell_length_a 8.250824
_cell_length_b 9.255287
_cell_length_c 14.758009
_cell_angle_alpha 129.261857
_cell_angle_beta 47.539268
_cell_angle_gamma 124.900123
_cell_volume 622.673956
_symmetry_space_group_name_H-M "P -1"
_symmetry_group_IT_number 2
_symmetry_cell_setting 'triclinic'
loop_
_space_group_symop_operation_xyz
x,y,z
-x,-y,-z
loop_
_atom_site_type_symbol
_atom_site_label
_atom_site_fract_x
_atom_site_fract_y
_atom_site_fract_z
Si Si1 0.769641 0.407423 0.000295
Si Si2 0.683679 0.471304 0.491440
Si Si3 0.391204 0.231843 0.815609
Si Si4 0.131454 0.874584 0.669143
Si Si5 0.365570 0.280146 0.235512
Si Si6 0.319125 0.917547 0.232068
Si Si7 0.852778 0.219252 0.577536
O O1 0.691982 0.581708 0.050680
O O2 0.578137 0.293497 0.096217
O O3 0.815145 0.255460 0.850372
O O4 0.000000 0.500000 0.000000
O O5 0.500000 0.500000 0.500000
O O6 0.704706 0.251056 0.401567
O O7 0.613333 0.522128 0.638835
O O8 0.928807 0.604090 0.425523
O O9 0.440112 0.126078 0.847459
O O10 0.626997 0.302069 0.697427
O O11 0.203151 0.086912 0.768310
O O12 0.145555 0.895298 0.562467
O O13 0.869094 0.778003 0.755692
O O14 0.367806 0.122242 0.248796
O O15 0.167065 0.920688 0.381758
#
# Coordination Sequence:
#
# PCOD8020114 Si02
#       7
#     2   2   2   2   2   2   2
#     4  12  25  44  67  91 127 175 220 264 318 378
#     4  11  23  39  65 100 132 168 208 264 324 385
#     4  10  22  42  65  96 126 167 215 260 321 378
#     4  11  21  42  66  98 130 170 208 260 332 382
#     4  11  24  43  65  93 132 167 217 263 322 380
#     4  10  24  43  64  96 127 170 218 264 315 369
#     4   9  22  40  66  92 135 161 214 257 326 379
#
# _framework density 22.483675999999999
#
# number of rings (size 3 to 8) (size 9 to 14) (size 15 to 20)
#    0.857    0.571    0.000    6.429    2.000    2.286 
#    2.571    1.429    0.000    0.000    0.000    0.000 
#    0.000    0.000    0.000    0.000    0.000    0.000 
#
# Total GULP energy -173561.532602 kJ/mol
# GULP energy per Si atom -12397.252329 kJ/mol
# Density = 2.243250 g / cm^3
# Si number density = 22.483676 Si / 1000 Ang^3
#
#
#
# Elastic Constant Matrix: (Units=GPa)
#
#
# Indices 1 2 3 4 5 6 
#
# 1 117.7327 29.1827 16.7902 -15.3243 0.5835 11.5971
# 2 29.1827 77.1708 25.2123 2.2274 3.5732 -13.4207
# 3 16.7902 25.2123 58.7864 -8.4083 -1.6665 6.4149
# 4 -15.3243 2.2274 -8.4083 26.5228 0.2320 -1.7242
# 5 0.5835 3.5732 -1.6665 0.2320 28.8932 3.0796
# 6 11.5971 -13.4207 6.4149 -1.7242 3.0796 43.9724
#
#
#
# Elastic Compliance Matrix: (Units=1/GPa)
#
#
# Indices 1 2 3 4 5 6 
#
# 1 0.011053 -0.005398 0.000634 0.006743 0.000901 -0.004454
# 2 -0.005398 0.019863 -0.009052 -0.007052 -0.003750 0.008793
# 3 0.000634 -0.009052 0.022590 0.007864 0.002999 -0.006127
# 4 0.006743 -0.007052 0.007864 0.044452 0.001197 -0.003419
# 5 0.000901 -0.003750 0.002999 0.001197 0.035674 -0.004271
# 6 -0.004454 0.008793 -0.006127 -0.003419 -0.004271 0.027659
#
#
# Mechanical properties :
#
#
# Convention : Reuss Voigt Hill
#
# Bulk Modulus (GPa) = 38.64641 44.00670 41.32655
# Shear Modulus (GPa) = 25.31035 32.04465 28.67750
#
# Velocity S-wave (km/s) = 3.35882 3.77933 3.57526
# Velocity P-wave (km/s) = 5.68051 6.21769 5.95516
#
# Compressibility (1/GPa) = 0.02587563
#
# Stress axis : x y z
#
# Youngs Moduli (GPa) = 90.46995 50.34459 44.26741
#
# Poissons Ratio (x) = 0.27176 -0.02807
# Poissons Ratio (y) = 0.48836 0.40069
# Poissons Ratio (z) = -0.05738 0.45570
#
# Static dielectric constant tensor:
#      x y z
#    x 4.196560 -0.020640 -0.115330 
#    y -0.020640 3.830540 0.023370 
#    z -0.115330 0.023370 3.979960 
# 
# 
# High freq. dielectric constant tensor:
#      x y z
#    x 1.898930 -0.003830 -0.004750 
#    y -0.003830 1.880650 0.009910 
#    z -0.004750 0.009910 1.874600 
# 
# From -- ./inp_files/493776.got.cif
#   From: 2010.06.25/outbox.cif.g09.slc.cpg/sg2_247_cif.got.tgz:493776.got - 2010.06.27 13:26:56.
