data_PCOD8020658
_publ_section_title
;
Structure prediction by ZEFSAII (Michael W. Deem and Ramdas Pophale) SiO2 
 PCOD8020658
Probable space group: P -1
;
_chemical_formula_sum "Si O2"
_cell_formula_units_Z 12
_cell_length_a 9.457501
_cell_length_b 8.732350
_cell_length_c 9.482000
_cell_angle_alpha 81.459005
_cell_angle_beta 132.767384
_cell_angle_gamma 105.995742
_cell_volume 551.788650
_symmetry_space_group_name_H-M "P -1"
_symmetry_group_IT_number 2
_symmetry_cell_setting 'triclinic'
loop_
_space_group_symop_operation_xyz
x,y,z
-x,-y,-z
loop_
_atom_site_type_symbol
_atom_site_label
_atom_site_fract_x
_atom_site_fract_y
_atom_site_fract_z
Si Si1 0.214208 0.125888 0.148679
Si Si2 0.289653 0.863074 0.814316
Si Si3 0.429067 0.899763 0.192317
Si Si4 0.372943 0.322469 0.969349
Si Si5 0.624400 0.665169 0.505868
Si Si6 0.086579 0.351708 0.535893
O O1 0.245769 0.209991 0.311664
O O2 0.377746 0.021603 0.255287
O O3 0.261267 0.276099 0.050352
O O4 0.000000 0.000000 0.000000
O O5 0.093335 0.789879 0.609451
O O6 0.367780 0.034180 0.768706
O O7 0.252341 0.865846 0.958122
O O8 0.470200 0.781423 0.924810
O O9 0.460048 0.742513 0.310279
O O10 0.192324 0.283913 0.743727
O O11 0.500000 0.500000 0.000000
O O12 0.500000 0.500000 0.500000
O O13 0.767502 0.605888 0.502352
O O14 0.000000 0.500000 0.500000
#
# Coordination Sequence:
#
# PCOD8020658 Si02
#       6
#     2   2   2   2   2   2
#     4  11  26  45  69 105 146 187 237 295 367 427
#     4  10  22  42  71 102 133 179 243 291 341 413
#     4  10  23  45  70  98 143 184 230 297 354 419
#     4  11  22  44  70 101 144 187 238 298 346 424
#     4  12  27  45  71 105 147 189 231 296 371 422
#     4  12  25  41  74 104 135 186 247 284 347 426
#
# _framework density 21.747457000000001
#
# number of rings (size 3 to 8) (size 9 to 14) (size 15 to 20)
#    0.000    1.000    3.333    2.500    4.667    2.000 
#    0.000    2.500    0.000    0.000    0.000    0.000 
#    0.000    0.000    0.000    0.000    0.000    0.000 
#
# Total GULP energy -148673.489718 kJ/mol
# GULP energy per Si atom -12389.457477 kJ/mol
# Density = 2.169796 g / cm^3
# Si number density = 21.747457 Si / 1000 Ang^3
#
#
#
# Elastic Constant Matrix: (Units=GPa)
#
#
# Indices 1 2 3 4 5 6 
#
# 1 104.8113 34.5718 31.8822 -11.9650 -11.9467 -7.9263
# 2 34.5718 119.8071 43.9123 -7.5555 -2.9452 19.9832
# 3 31.8822 43.9123 133.7046 5.1209 2.9656 12.1564
# 4 -11.9650 -7.5555 5.1209 40.4250 2.3202 -2.8515
# 5 -11.9467 -2.9452 2.9656 2.3202 35.5055 5.7066
# 6 -7.9263 19.9832 12.1564 -2.8515 5.7066 37.2406
#
#
#
# Elastic Compliance Matrix: (Units=1/GPa)
#
#
# Indices 1 2 3 4 5 6 
#
# 1 0.012538 -0.003198 -0.002605 0.003619 0.003126 0.005033
# 2 -0.003198 0.011252 -0.002447 0.000989 0.000960 -0.005991
# 3 -0.002605 -0.002447 0.009232 -0.002480 -0.001328 -0.002241
# 4 0.003619 0.000989 -0.002480 0.026576 -0.000744 0.003198
# 5 0.003126 0.000960 -0.001328 -0.000744 0.030113 -0.004088
# 6 0.005033 -0.005991 -0.002241 0.003198 -0.004088 0.032741
#
#
# Mechanical properties :
#
#
# Convention : Reuss Voigt Hill
#
# Bulk Modulus (GPa) = 60.52535 64.33952 62.43243
# Shear Modulus (GPa) = 34.61191 39.16466 36.88828
#
# Velocity S-wave (km/s) = 3.99374 4.24829 4.12298
# Velocity P-wave (km/s) = 7.01128 7.32891 7.17185
#
# Compressibility (1/GPa) = 0.01652200
#
# Stress axis : x y z
#
# Youngs Moduli (GPa) = 79.75657 88.87573 108.31451
#
# Poissons Ratio (x) = 0.28419 0.28217
# Poissons Ratio (y) = 0.25503 0.26509
# Poissons Ratio (z) = 0.20777 0.21751
#
# Static dielectric constant tensor:
#      x y z
#    x 4.096310 0.027130 -0.212120 
#    y 0.027130 4.440600 0.008000 
#    z -0.212120 0.008000 4.252170 
# 
# 
# High freq. dielectric constant tensor:
#      x y z
#    x 1.856310 -0.002460 -0.007770 
#    y -0.002460 1.862830 0.001280 
#    z -0.007770 0.001280 1.864670 
# 
# From -- ./inp_files/148598.got.cif
#   From: 2010.06.25/outbox.cif.g09.slc.cpg/sg2_75_cif.got.tgz:148598.got - 2010.06.27 13:26:56.
