data_PCOD8020545
_publ_section_title
;
Structure prediction by ZEFSAII (Michael W. Deem and Ramdas Pophale) SiO2 
 PCOD8020545
Probable space group: P -1
;
_chemical_formula_sum "Si O2"
_cell_formula_units_Z 16
_cell_length_a 21.241139
_cell_length_b 11.529267
_cell_length_c 18.378926
_cell_angle_alpha 150.548742
_cell_angle_beta 20.413631
_cell_angle_gamma 140.804011
_cell_volume 749.394978
_symmetry_space_group_name_H-M "P -1"
_symmetry_group_IT_number 2
_symmetry_cell_setting 'triclinic'
loop_
_space_group_symop_operation_xyz
x,y,z
-x,-y,-z
loop_
_atom_site_type_symbol
_atom_site_label
_atom_site_fract_x
_atom_site_fract_y
_atom_site_fract_z
Si Si1 0.257248 0.282196 0.893955
Si Si2 0.399256 0.492447 0.716057
Si Si3 0.571574 0.234481 0.635086
Si Si4 0.223428 0.016951 0.137538
Si Si5 0.063968 0.107273 0.714096
Si Si6 0.427707 0.989826 0.335106
Si Si7 0.179790 0.507507 0.713086
Si Si8 0.848734 0.526321 0.446175
O O1 0.321570 0.446605 0.853204
O O2 0.365384 0.312282 0.867092
O O3 0.304109 0.001051 0.667834
O O4 0.037569 0.369766 0.192317
O O5 0.391002 0.274973 0.551221
O O6 0.605819 0.524391 0.517890
O O7 0.269469 0.735785 0.957140
O O8 0.676213 0.447323 0.626715
O O9 0.544737 0.186053 0.721957
O O10 0.174893 0.189181 0.354634
O O11 0.045767 0.065771 0.302962
O O12 0.391525 0.088078 0.952380
O O13 0.252949 0.945872 0.455057
O O14 0.110229 0.289431 0.704046
O O15 0.936417 0.239263 0.990508
O O16 0.145209 0.511478 0.667038
#
# Coordination Sequence:
#
# PCOD8020545 Si02
#       8
#     2   2   2   2   2   2   2   2
#     4  10  22  42  69  96 127 169 218 275 318 377
#     4  11  20  42  70  97 130 167 219 272 321 384
#     4  10  23  43  69  93 124 176 225 268 312 376
#     4  12  26  41  65  98 139 172 206 268 333 392
#     4  11  23  40  67  97 127 172 215 264 322 385
#     4  11  23  43  68  95 129 173 224 270 311 379
#     4  11  21  40  69  96 129 168 218 267 319 388
#     4  12  26  43  65 100 136 169 214 267 328 389
#
# _framework density 21.350556999999998
#
# number of rings (size 3 to 8) (size 9 to 14) (size 15 to 20)
#    0.000    1.000    3.750    4.500    0.000    5.000 
#    0.000    1.250    0.000    0.000    0.000    0.000 
#    0.000    0.000    0.000    0.000    0.000    0.000 
#
# Total GULP energy -198500.213540 kJ/mol
# GULP energy per Si atom -12406.263346 kJ/mol
# Density = 2.130196 g / cm^3
# Si number density = 21.350557 Si / 1000 Ang^3
#
#
#
# Elastic Constant Matrix: (Units=GPa)
#
#
# Indices 1 2 3 4 5 6 
#
# 1 133.0422 55.3661 45.8912 -2.7318 -20.2845 6.6175
# 2 55.3661 57.0833 26.7427 -4.2480 7.4641 8.5747
# 3 45.8912 26.7427 37.5070 -10.9244 -13.2847 11.2862
# 4 -2.7318 -4.2480 -10.9244 16.8513 9.8634 -8.3503
# 5 -20.2845 7.4641 -13.2847 9.8634 37.6812 -8.8838
# 6 6.6175 8.5747 11.2862 -8.3503 -8.8838 29.0273
#
#
#
# Elastic Compliance Matrix: (Units=1/GPa)
#
#
# Indices 1 2 3 4 5 6 
#
# 1 0.022694 -0.019529 -0.014926 -0.017623 0.016974 0.006524
# 2 -0.019529 0.051447 -0.017632 0.012332 -0.032579 -0.010313
# 3 -0.014926 -0.017632 0.072462 0.029676 0.011464 -0.007517
# 4 -0.017623 0.012332 0.029676 0.098091 -0.024921 0.009427
# 5 0.016974 -0.032579 0.011464 -0.024921 0.055300 0.011053
# 6 0.006524 -0.010313 -0.007517 0.009427 0.011053 0.045027
#
#
# Mechanical properties :
#
#
# Convention : Reuss Voigt Hill
#
# Bulk Modulus (GPa) = 23.56893 53.73696 38.65295
# Shear Modulus (GPa) = 10.79127 23.35413 17.07270
#
# Velocity S-wave (km/s) = 2.25062 3.31092 2.83085
# Velocity P-wave (km/s) = 4.22099 6.31187 5.36919
#
# Compressibility (1/GPa) = 0.04242873
#
# Stress axis : x y z
#
# Youngs Moduli (GPa) = 44.06497 19.43745 13.80034
#
# Poissons Ratio (x) = 0.37960 0.20599
# Poissons Ratio (y) = 0.86055 0.24332
# Poissons Ratio (z) = 0.65772 0.34271
#
# Static dielectric constant tensor:
#      x y z
#    x 4.002570 0.078090 -0.148730 
#    y 0.078090 3.795710 -0.236820 
#    z -0.148730 -0.236820 3.788600 
# 
# 
# High freq. dielectric constant tensor:
#      x y z
#    x 1.850250 0.005100 -0.010590 
#    y 0.005100 1.834330 -0.020660 
#    z -0.010590 -0.020660 1.829810 
# 
# From -- ./inp_files/398096.got.cif
#   From: 2010.06.25/outbox.cif.g09.slc.cpg/sg2_200_cif.got.tgz:398096.got - 2010.06.27 13:26:56.
