data_PCOD8020799
_publ_section_title
;
Structure prediction by ZEFSAII (Michael W. Deem and Ramdas Pophale) SiO2 
 PCOD8020799
Probable space group: P -1
;
_chemical_formula_sum "Si O2"
_cell_formula_units_Z 16
_cell_length_a 12.523508
_cell_length_b 15.424778
_cell_length_c 12.309241
_cell_angle_alpha 151.674652
_cell_angle_beta 106.232878
_cell_angle_gamma 55.912419
_cell_volume 783.944022
_symmetry_space_group_name_H-M "P -1"
_symmetry_group_IT_number 2
_symmetry_cell_setting 'triclinic'
loop_
_space_group_symop_operation_xyz
x,y,z
-x,-y,-z
loop_
_atom_site_type_symbol
_atom_site_label
_atom_site_fract_x
_atom_site_fract_y
_atom_site_fract_z
Si Si1 0.400016 0.093835 0.351575
Si Si2 0.099539 0.023945 0.191636
Si Si3 0.215338 0.063412 0.870024
Si Si4 0.218375 0.778869 0.728222
Si Si5 0.644089 0.187445 0.815475
Si Si6 0.063147 0.458201 0.593630
Si Si7 0.393608 0.214792 0.119688
Si Si8 0.595130 0.229412 0.603271
O O1 0.240881 0.319384 0.491964
O O2 0.474927 0.200641 0.523915
O O3 0.374463 0.992438 0.335812
O O4 0.510966 0.856445 0.040986
O O5 0.041951 0.295938 0.474130
O O6 0.950738 0.065157 0.198361
O O7 0.208458 0.872696 0.160212
O O8 0.204854 0.869562 0.945573
O O9 0.294168 0.846277 0.745894
O O10 0.265882 0.931923 0.621950
O O11 0.258475 0.226024 0.071893
O O12 0.031951 0.276712 0.076502
O O13 0.325598 0.481154 0.436353
O O14 0.674402 0.125308 0.628149
O O15 0.491668 0.479891 0.114365
O O16 0.000000 0.500000 0.500000
O O17 0.500000 0.000000 0.000000
#
# Coordination Sequence:
#
# PCOD8020799 Si02
#       8
#     2   2   2   2   2   2   2   2
#     4  10  23  38  64  88 120 164 201 247 311 359
#     4  10  23  37  61  91 123 165 201 245 306 369
#     4  11  23  39  62  91 124 157 207 247 307 357
#     4  11  23  38  61  90 129 161 195 250 308 371
#     4  10  22  43  63  87 121 157 214 252 302 355
#     4  11  20  39  60  92 129 162 196 246 303 375
#     4  11  24  37  58  93 127 157 199 250 301 368
#     4  10  23  42  66  87 117 161 208 262 298 356
#
# _framework density 20.409621000000001
#
# number of rings (size 3 to 8) (size 9 to 14) (size 15 to 20)
#    0.000    1.500    2.500    1.875    7.000    0.500 
#    0.000    3.125    2.750    0.000    0.000    0.000 
#    0.000    0.000    0.000    0.000    0.000    0.000 
#
# Total GULP energy -198379.459548 kJ/mol
# GULP energy per Si atom -12398.716222 kJ/mol
# Density = 2.036317 g / cm^3
# Si number density = 20.409621 Si / 1000 Ang^3
#
#
#
# Elastic Constant Matrix: (Units=GPa)
#
#
# Indices 1 2 3 4 5 6 
#
# 1 60.9762 33.5849 31.3762 0.9264 -9.3779 -1.5018
# 2 33.5849 140.6937 56.9646 -5.3845 -12.4284 -4.2416
# 3 31.3762 56.9646 138.2688 -2.3942 -8.1250 13.4907
# 4 0.9264 -5.3845 -2.3942 29.4410 3.3078 5.5760
# 5 -9.3779 -12.4284 -8.1250 3.3078 25.4648 2.0065
# 6 -1.5018 -4.2416 13.4907 5.5760 2.0065 30.6345
#
#
#
# Elastic Compliance Matrix: (Units=1/GPa)
#
#
# Indices 1 2 3 4 5 6 
#
# 1 0.020761 -0.003169 -0.003356 -0.002499 0.005181 0.002172
# 2 -0.003169 0.009479 -0.003270 0.000895 0.002119 0.002295
# 3 -0.003356 -0.003270 0.009908 0.001241 0.000582 -0.005245
# 4 -0.002499 0.000895 0.001241 0.036080 -0.004236 -0.006835
# 5 0.005181 0.002119 0.000582 -0.004236 0.043086 -0.001760
# 6 0.002172 0.002295 -0.005245 -0.006835 -0.001760 0.036736
#
#
# Mechanical properties :
#
#
# Convention : Reuss Voigt Hill
#
# Bulk Modulus (GPa) = 48.64485 64.86556 56.75521
# Shear Modulus (GPa) = 27.39821 31.64227 29.52024
#
# Velocity S-wave (km/s) = 3.66787 3.94173 3.80727
# Velocity P-wave (km/s) = 6.46713 7.25032 6.86990
#
# Compressibility (1/GPa) = 0.02055716
#
# Stress axis : x y z
#
# Youngs Moduli (GPa) = 48.16770 105.49966 100.92466
#
# Poissons Ratio (x) = 0.33437 0.33871
# Poissons Ratio (y) = 0.15266 0.33001
# Poissons Ratio (z) = 0.16166 0.34497
#
# Static dielectric constant tensor:
#      x y z
#    x 3.831480 -0.009340 -0.023020 
#    y -0.009340 3.717640 0.066500 
#    z -0.023020 0.066500 3.828510 
# 
# 
# High freq. dielectric constant tensor:
#      x y z
#    x 1.798240 0.007290 0.004480 
#    y 0.007290 1.786090 0.011240 
#    z 0.004480 0.011240 1.806800 
# 
# From -- ./inp_files/273697.got.cif
#   From: 2010.06.25/outbox.cif.g09.slc.cpg/sg2_137_cif.got.tgz:273697.got - 2010.06.27 13:26:56.
