data_PCOD8020105
_publ_section_title
;
Structure prediction by ZEFSAII (Michael W. Deem and Ramdas Pophale) SiO2 
 PCOD8020105
Probable space group: P -1
;
_chemical_formula_sum "Si O2"
_cell_formula_units_Z 16
_cell_length_a 9.761232
_cell_length_b 11.703003
_cell_length_c 12.532530
_cell_angle_alpha 96.164277
_cell_angle_beta 51.920394
_cell_angle_gamma 130.395896
_cell_volume 749.311041
_symmetry_space_group_name_H-M "P -1"
_symmetry_group_IT_number 2
_symmetry_cell_setting 'triclinic'
loop_
_space_group_symop_operation_xyz
x,y,z
-x,-y,-z
loop_
_atom_site_type_symbol
_atom_site_label
_atom_site_fract_x
_atom_site_fract_y
_atom_site_fract_z
Si Si1 0.244683 0.004347 0.650721
Si Si2 0.437569 0.057361 0.130336
Si Si3 0.844228 0.788410 0.343950
Si Si4 0.792085 0.604400 0.853356
Si Si5 0.519374 0.477306 0.332887
Si Si6 0.402451 0.955814 0.366576
Si Si7 0.765120 0.436700 0.040375
Si Si8 0.108526 0.427628 0.422884
O O1 0.390533 0.048807 0.472731
O O2 0.974991 0.804151 0.771836
O O3 0.186388 0.109498 0.696449
O O4 0.428105 0.065273 0.669191
O O5 0.585704 0.249378 0.056551
O O6 0.527782 0.059246 0.205067
O O7 0.130307 0.924376 0.268100
O O8 0.500000 0.000000 0.000000
O O9 0.785160 0.653410 0.278164
O O10 0.637519 0.682516 0.528395
O O11 0.805257 0.531729 0.736447
O O12 0.500000 0.500000 0.000000
O O13 0.891229 0.574143 0.899705
O O14 0.583572 0.431910 0.195789
O O15 0.351912 0.509064 0.387220
O O16 0.113154 0.772384 0.462312
O O17 0.000000 0.500000 0.000000
O O18 0.000000 0.500000 0.500000
#
# Coordination Sequence:
#
# PCOD8020105 Si02
#       8
#     2   2   2   2   2   2   2   2
#     4  10  22  42  67  98 129 176 221 284 333 400
#     4  12  26  43  66  99 138 179 226 281 341 409
#     4  11  24  42  69  99 134 171 228 279 343 397
#     4  11  23  42  66  97 135 176 236 272 339 412
#     4  11  24  44  68  99 137 176 232 281 338 414
#     4  10  22  42  65  95 130 168 231 267 335 405
#     4  12  26  44  70  98 138 185 222 283 347 405
#     4  11  23  40  70  94 132 179 223 284 331 399
#
# _framework density 21.352947
#
# number of rings (size 3 to 8) (size 9 to 14) (size 15 to 20)
#    0.000    1.000    2.500    3.750    3.500    5.000 
#    0.000    1.250    0.000    0.000    0.000    0.000 
#    0.000    0.000    0.000    0.000    0.000    0.000 
#
# Total GULP energy -198451.493345 kJ/mol
# GULP energy per Si atom -12403.218334 kJ/mol
# Density = 2.130435 g / cm^3
# Si number density = 21.352947 Si / 1000 Ang^3
#
#
#
# Elastic Constant Matrix: (Units=GPa)
#
#
# Indices 1 2 3 4 5 6 
#
# 1 126.7695 34.0906 36.2044 -3.7551 5.4236 -5.1343
# 2 34.0906 107.0586 43.5065 -0.3733 1.0577 -6.2125
# 3 36.2044 43.5065 106.5425 6.4899 14.3445 -9.9968
# 4 -3.7551 -0.3733 6.4899 31.3240 0.9514 -4.2311
# 5 5.4236 1.0577 14.3445 0.9514 39.8966 -2.5896
# 6 -5.1343 -6.2125 -9.9968 -4.2311 -2.5896 37.1136
#
#
#
# Elastic Compliance Matrix: (Units=1/GPa)
#
#
# Indices 1 2 3 4 5 6 
#
# 1 0.009156 -0.001933 -0.002328 0.001632 -0.000365 0.000477
# 2 -0.001933 0.011746 -0.004330 0.000858 0.001535 0.000738
# 3 -0.002328 -0.004330 0.012814 -0.002617 -0.003995 0.001828
# 4 0.001632 0.000858 -0.002617 0.033135 0.000130 0.003451
# 5 -0.000365 0.001535 -0.003995 0.000130 0.026572 0.000999
# 6 0.000477 0.000738 0.001828 0.003451 0.000999 0.028089
#
#
# Mechanical properties :
#
#
# Convention : Reuss Voigt Hill
#
# Bulk Modulus (GPa) = 60.47441 63.10817 61.79129
# Shear Modulus (GPa) = 34.67319 36.77145 35.72232
#
# Velocity S-wave (km/s) = 4.03403 4.15430 4.09460
# Velocity P-wave (km/s) = 7.07677 7.25464 7.16626
#
# Compressibility (1/GPa) = 0.01653592
#
# Stress axis : x y z
#
# Youngs Moduli (GPa) = 109.21668 85.13405 78.04165
#
# Poissons Ratio (x) = 0.16453 0.18166
# Poissons Ratio (y) = 0.21108 0.33789
# Poissons Ratio (z) = 0.25423 0.36860
#
# Static dielectric constant tensor:
#      x y z
#    x 3.918580 0.063020 0.066840 
#    y 0.063020 3.866800 -0.084170 
#    z 0.066840 -0.084170 3.875040 
# 
# 
# High freq. dielectric constant tensor:
#      x y z
#    x 1.850880 0.007160 0.005460 
#    y 0.007160 1.838950 -0.006980 
#    z 0.005460 -0.006980 1.837970 
# 
# From -- ./inp_files/278711.got.cif
#   From: 2010.06.25/outbox.cif.g09.slc.cpg/sg2_140_cif.got.tgz:278711.got - 2010.06.27 13:26:56.
