data_PCOD8020170
_publ_section_title
;
Structure prediction by ZEFSAII (Michael W. Deem and Ramdas Pophale) SiO2 
 PCOD8020170
Probable space group: P -1
;
_chemical_formula_sum "Si O2"
_cell_formula_units_Z 16
_cell_length_a 15.153977
_cell_length_b 8.932792
_cell_length_c 10.116207
_cell_angle_alpha 68.400531
_cell_angle_beta 47.984820
_cell_angle_gamma 98.409522
_cell_volume 778.316975
_symmetry_space_group_name_H-M "P -1"
_symmetry_group_IT_number 2
_symmetry_cell_setting 'triclinic'
loop_
_space_group_symop_operation_xyz
x,y,z
-x,-y,-z
loop_
_atom_site_type_symbol
_atom_site_label
_atom_site_fract_x
_atom_site_fract_y
_atom_site_fract_z
Si Si1 0.591149 0.914361 0.970436
Si Si2 0.898032 0.667114 0.513858
Si Si3 0.365157 0.293526 0.239765
Si Si4 0.108142 0.534748 0.770566
Si Si5 0.061204 0.891782 0.042663
Si Si6 0.870338 0.295724 0.560535
Si Si7 0.408495 0.627050 0.482745
Si Si8 0.632027 0.760551 0.433876
O O1 0.631196 0.853721 0.814719
O O2 0.743834 0.091784 0.818088
O O3 0.510500 0.745939 0.216201
O O4 0.500000 0.000000 0.000000
O O5 0.772818 0.699951 0.653113
O O6 0.837708 0.458614 0.574061
O O7 0.022838 0.858818 0.246642
O O8 0.974538 0.657736 0.571469
O O9 0.380528 0.248432 0.391487
O O10 0.500000 0.500000 0.000000
O O11 0.127811 0.703770 0.600029
O O12 0.267497 0.626675 0.637173
O O13 0.028891 0.325790 0.850329
O O14 0.000000 0.500000 0.000000
O O15 0.233578 0.020102 0.808911
O O16 0.000000 0.000000 0.000000
O O17 0.490880 0.716526 0.511145
O O18 0.346154 0.400797 0.594176
#
# Coordination Sequence:
#
# PCOD8020170 Si02
#       8
#     2   2   2   2   2   2   2   2
#     4  12  24  42  68  94 131 175 211 266 332 385
#     4  10  22  42  66  95 125 169 218 267 318 384
#     4  12  24  40  65  97 132 168 222 262 319 389
#     4  11  24  41  63  93 129 169 210 262 321 384
#     4  11  20  39  68  89 125 167 214 256 325 381
#     4  10  22  42  66  91 130 169 211 267 328 377
#     4  11  23  44  66  95 135 166 215 269 333 379
#     4  11  23  42  68  99 125 172 215 272 320 385
#
# _framework density 20.557176999999999
#
# number of rings (size 3 to 8) (size 9 to 14) (size 15 to 20)
#    0.000    1.000    5.000    2.250    1.750    1.500 
#    0.000    3.750    0.000    0.000    0.000    0.000 
#    0.000    0.000    0.000    0.000    0.000    0.000 
#
# Total GULP energy -198248.810764 kJ/mol
# GULP energy per Si atom -12390.550673 kJ/mol
# Density = 2.051039 g / cm^3
# Si number density = 20.557177 Si / 1000 Ang^3
#
#
#
# Elastic Constant Matrix: (Units=GPa)
#
#
# Indices 1 2 3 4 5 6 
#
# 1 147.1104 48.1671 66.5327 17.2030 -6.5805 -2.0119
# 2 48.1671 70.9110 41.4576 2.8213 -7.7761 -2.7342
# 3 66.5327 41.4576 143.0044 -2.7022 -19.6956 -0.9043
# 4 17.2030 2.8213 -2.7022 42.1587 0.5373 -6.3733
# 5 -6.5805 -7.7761 -19.6956 0.5373 28.2271 -7.0822
# 6 -2.0119 -2.7342 -0.9043 -6.3733 -7.0822 21.2433
#
#
#
# Elastic Compliance Matrix: (Units=1/GPa)
#
#
# Indices 1 2 3 4 5 6 
#
# 1 0.010600 -0.005069 -0.003829 -0.004480 -0.001966 -0.001811
# 2 -0.005069 0.019645 -0.002882 0.001020 0.003011 0.003236
# 3 -0.003829 -0.002882 0.010543 0.002749 0.006278 0.002633
# 4 -0.004480 0.001020 0.002749 0.026960 0.002866 0.008868
# 5 -0.001966 0.003011 0.006278 0.002866 0.044151 0.016048
# 6 -0.001811 0.003236 0.002633 0.008868 0.016048 0.055441
#
#
# Mechanical properties :
#
#
# Convention : Reuss Voigt Hill
#
# Bulk Modulus (GPa) = 58.04679 74.81562 66.43120
# Shear Modulus (GPa) = 25.42665 31.98371 28.70518
#
# Velocity S-wave (km/s) = 3.52074 3.94869 3.74084
# Velocity P-wave (km/s) = 6.69519 7.56720 7.14451
#
# Compressibility (1/GPa) = 0.01722748
#
# Stress axis : x y z
#
# Youngs Moduli (GPa) = 94.33686 50.90404 94.84772
#
# Poissons Ratio (x) = 0.25802 0.36319
# Poissons Ratio (y) = 0.47818 0.27339
# Poissons Ratio (z) = 0.36124 0.14672
#
# Static dielectric constant tensor:
#      x y z
#    x 4.023690 0.002720 0.207910 
#    y 0.002720 3.440150 -0.426340 
#    z 0.207910 -0.426340 4.237620 
# 
# 
# High freq. dielectric constant tensor:
#      x y z
#    x 1.816060 0.003250 0.001280 
#    y 0.003250 1.790460 -0.019980 
#    z 0.001280 -0.019980 1.816750 
# 
# From -- ./inp_files/206877.got.cif
#   From: 2010.06.25/outbox.cif.g09.slc.cpg/sg2_104_cif.got.tgz:206877.got - 2010.06.27 13:26:56.
