data_PCOD8020386
_publ_section_title
;
Structure prediction by ZEFSAII (Michael W. Deem and Ramdas Pophale) SiO2 
 PCOD8020386
Probable space group: P -1
;
_chemical_formula_sum "Si O2"
_cell_formula_units_Z 16
_cell_length_a 6.751103
_cell_length_b 20.226790
_cell_length_c 9.763397
_cell_angle_alpha 60.633527
_cell_angle_beta 131.685987
_cell_angle_gamma 131.495176
_cell_volume 742.797725
_symmetry_space_group_name_H-M "P -1"
_symmetry_group_IT_number 2
_symmetry_cell_setting 'triclinic'
loop_
_space_group_symop_operation_xyz
x,y,z
-x,-y,-z
loop_
_atom_site_type_symbol
_atom_site_label
_atom_site_fract_x
_atom_site_fract_y
_atom_site_fract_z
Si Si1 0.798146 0.553746 0.990823
Si Si2 0.792723 0.525780 0.705170
Si Si3 0.752215 0.272925 0.301222
Si Si4 0.645055 0.065997 0.125661
Si Si5 0.794921 0.798455 0.372098
Si Si6 0.664701 0.047734 0.664323
Si Si7 0.691015 0.854614 0.558871
Si Si8 0.264145 0.746621 0.998545
O O1 0.074753 0.539538 0.184168
O O2 0.924903 0.658993 0.950878
O O3 0.500000 0.500000 0.000000
O O4 0.689288 0.521083 0.819303
O O5 0.500000 0.500000 0.500000
O O6 0.079805 0.622739 0.701784
O O7 0.459886 0.223284 0.318054
O O8 0.994859 0.243202 0.473930
O O9 0.629213 0.245707 0.117484
O O10 0.963232 0.071112 0.310284
O O11 0.392868 0.025469 0.174218
O O12 0.730166 0.165992 0.033925
O O13 0.500000 0.000000 0.000000
O O14 0.701216 0.812695 0.463480
O O15 0.493842 0.732169 0.214430
O O16 0.974346 0.888996 0.271911
O O17 0.516749 0.102295 0.601671
O O18 0.500000 0.000000 0.500000
#
# Coordination Sequence:
#
# PCOD8020386 Si02
#       8
#     2   2   2   2   2   2   2   2
#     4  10  24  43  68 100 135 169 215 273 327 392
#     4  10  22  42  68 100 133 169 216 267 330 396
#     4  10  23  42  66  95 128 171 210 263 320 383
#     4  12  25  39  62  95 124 171 221 260 316 381
#     4  11  23  42  63  91 129 169 214 263 317 377
#     4  11  23  41  61  85 122 170 216 268 319 365
#     4  11  23  42  62  89 129 168 215 268 314 377
#     4  11  24  44  64  94 132 168 212 267 320 382
#
# _framework density 21.540184
#
# number of rings (size 3 to 8) (size 9 to 14) (size 15 to 20)
#    0.000    1.250    2.500    2.625    5.250    2.000 
#    0.000    0.000    0.000    0.000    0.000    0.000 
#    0.000    0.000    0.000    0.000    0.000    0.000 
#
# Total GULP energy -198414.528437 kJ/mol
# GULP energy per Si atom -12400.908027 kJ/mol
# Density = 2.149116 g / cm^3
# Si number density = 21.540184 Si / 1000 Ang^3
#
#
#
# Elastic Constant Matrix: (Units=GPa)
#
#
# Indices 1 2 3 4 5 6 
#
# 1 103.5954 54.2095 43.4366 -4.3676 -20.3926 18.0548
# 2 54.2095 127.6934 37.5509 -5.5997 -21.7261 4.3157
# 3 43.4366 37.5509 136.4101 15.6700 -14.4472 4.9252
# 4 -4.3676 -5.5997 15.6700 34.1640 6.5524 -3.5313
# 5 -20.3926 -21.7261 -14.4472 6.5524 26.0334 -10.4668
# 6 18.0548 4.3157 4.9252 -3.5313 -10.4668 39.8257
#
#
#
# Elastic Compliance Matrix: (Units=1/GPa)
#
#
# Indices 1 2 3 4 5 6 
#
# 1 0.015004 -0.004567 -0.003079 0.001325 0.003985 -0.004761
# 2 -0.004567 0.011058 -0.001174 0.000922 0.005825 0.002630
# 3 -0.003079 -0.001174 0.009645 -0.005637 0.003703 0.000804
# 4 0.001325 0.000922 -0.005637 0.034088 -0.009713 0.000466
# 5 0.003985 0.005825 0.003703 -0.009713 0.055219 0.010755
# 6 -0.004761 0.002630 0.000804 0.000466 0.010755 0.029752
#
#
# Mechanical properties :
#
#
# Convention : Reuss Voigt Hill
#
# Bulk Modulus (GPa) = 55.34684 70.89917 63.12300
# Shear Modulus (GPa) = 28.02275 35.50474 31.76375
#
# Velocity S-wave (km/s) = 3.61078 4.06433 3.84425
# Velocity P-wave (km/s) = 6.56766 7.41697 7.00520
#
# Compressibility (1/GPa) = 0.01806788
#
# Stress axis : x y z
#
# Youngs Moduli (GPa) = 66.64963 90.43343 103.68084
#
# Poissons Ratio (x) = 0.41302 0.31920
# Poissons Ratio (y) = 0.30440 0.12168
# Poissons Ratio (z) = 0.20519 0.10613
#
# Static dielectric constant tensor:
#      x y z
#    x 3.290610 0.254830 -0.254200 
#    y 0.254830 4.167750 -0.121660 
#    z -0.254200 -0.121660 3.898250 
# 
# 
# High freq. dielectric constant tensor:
#      x y z
#    x 1.839230 0.005130 -0.007040 
#    y 0.005130 1.857420 -0.005960 
#    z -0.007040 -0.005960 1.851020 
# 
# From -- ./inp_files/124789.got.cif
#   From: 2010.06.25/outbox.cif.g09.slc.cpg/sg2_63_cif.got.tgz:124789.got - 2010.06.27 13:26:56.
