data_PCOD8020792
_publ_section_title
;
Structure prediction by ZEFSAII (Michael W. Deem and Ramdas Pophale) SiO2 
 PCOD8020792
Probable space group: P -1
;
_chemical_formula_sum "Si O2"
_cell_formula_units_Z 16
_cell_length_a 8.574460
_cell_length_b 13.391944
_cell_length_c 7.011304
_cell_angle_alpha 88.845558
_cell_angle_beta 78.893656
_cell_angle_gamma 110.401565
_cell_volume 737.121247
_symmetry_space_group_name_H-M "P -1"
_symmetry_group_IT_number 2
_symmetry_cell_setting 'triclinic'
loop_
_space_group_symop_operation_xyz
x,y,z
-x,-y,-z
loop_
_atom_site_type_symbol
_atom_site_label
_atom_site_fract_x
_atom_site_fract_y
_atom_site_fract_z
Si Si1 0.284437 0.134782 0.422548
Si Si2 0.630098 0.044635 0.791791
Si Si3 0.154226 0.406044 0.611900
Si Si4 0.024675 0.157407 0.744377
Si Si5 0.813755 0.442912 0.717301
Si Si6 0.316442 0.462638 0.954913
Si Si7 0.471407 0.766016 0.317189
Si Si8 0.756292 0.768838 0.967613
O O1 0.108720 0.091182 0.590075
O O2 0.423623 0.227570 0.511806
O O3 0.239267 0.181989 0.240457
O O4 0.364183 0.045691 0.354365
O O5 0.566702 0.125464 0.688128
O O6 0.822616 0.104893 0.815614
O O7 0.500000 0.000000 0.000000
O O8 0.087315 0.277627 0.637736
O O9 0.215962 0.456862 0.387808
O O10 0.306704 0.459090 0.726708
O O11 0.005088 0.450244 0.691403
O O12 0.091642 0.152807 0.942415
O O13 0.703526 0.334538 0.637704
O O14 0.763906 0.453509 0.947484
O O15 0.500000 0.500000 0.000000
O O16 0.213087 0.342107 0.055016
O O17 0.576243 0.751623 0.110766
#
# Coordination Sequence:
#
# PCOD8020792 Si02
#       8
#     2   2   2   2   2   2   2   2
#     4  11  24  43  67  93 129 168 218 261 327 379
#     4  12  24  46  69  95 126 168 216 272 327 373
#     4  10  23  41  62  94 129 170 208 255 317 380
#     4  10  23  45  67  93 134 165 213 268 315 386
#     4  11  22  40  64  91 131 170 209 253 318 374
#     4  11  22  36  62  93 128 165 212 254 306 376
#     4  11  23  42  65  93 131 165 215 273 309 378
#     4  10  22  43  62  97 129 172 210 260 321 380
#
# _framework density 21.706061999999999
#
# number of rings (size 3 to 8) (size 9 to 14) (size 15 to 20)
#    0.000    1.250    3.750    1.875    1.750    1.000 
#    4.500    1.250    0.000    0.000    0.000    0.000 
#    0.000    0.000    0.000    0.000    0.000    0.000 
#
# Total GULP energy -198306.037893 kJ/mol
# GULP energy per Si atom -12394.127368 kJ/mol
# Density = 2.165666 g / cm^3
# Si number density = 21.706062 Si / 1000 Ang^3
#
#
#
# Elastic Constant Matrix: (Units=GPa)
#
#
# Indices 1 2 3 4 5 6 
#
# 1 92.9419 16.3774 39.0364 4.1159 5.7160 10.7743
# 2 16.3774 78.6413 34.2143 9.9619 1.2957 -0.9843
# 3 39.0364 34.2143 105.1306 13.3493 4.8211 4.8605
# 4 4.1159 9.9619 13.3493 28.9340 -2.5625 -0.8013
# 5 5.7160 1.2957 4.8211 -2.5625 32.2279 4.5251
# 6 10.7743 -0.9843 4.8605 -0.8013 4.5251 42.0985
#
#
#
# Elastic Compliance Matrix: (Units=1/GPa)
#
#
# Indices 1 2 3 4 5 6 
#
# 1 0.013165 -0.000850 -0.004467 0.000296 -0.001225 -0.002736
# 2 -0.000850 0.015158 -0.004258 -0.003124 -0.000214 0.001027
# 3 -0.004467 -0.004258 0.013153 -0.004091 -0.001271 -0.000416
# 4 0.000296 -0.003124 -0.004091 0.037819 0.003600 0.000656
# 5 -0.001225 -0.000214 -0.001271 0.003600 0.032143 -0.002931
# 6 -0.002736 0.001027 -0.000416 0.000656 -0.002931 0.024854
#
#
# Mechanical properties :
#
#
# Convention : Reuss Voigt Hill
#
# Bulk Modulus (GPa) = 44.79117 50.66331 47.72724
# Shear Modulus (GPa) = 30.69680 33.12445 31.91062
#
# Velocity S-wave (km/s) = 3.76467 3.91070 3.83838
# Velocity P-wave (km/s) = 6.29103 6.61685 6.45600
#
# Compressibility (1/GPa) = 0.02232583
#
# Stress axis : x y z
#
# Youngs Moduli (GPa) = 75.96161 65.97274 76.02608
#
# Poissons Ratio (x) = 0.05607 0.33957
# Poissons Ratio (y) = 0.06456 0.32375
# Poissons Ratio (z) = 0.33929 0.28094
#
# Static dielectric constant tensor:
#      x y z
#    x 4.144190 -0.328900 -0.457970 
#    y -0.328900 4.274940 1.076550 
#    z -0.457970 1.076550 7.006370 
# 
# 
# High freq. dielectric constant tensor:
#      x y z
#    x 1.864320 -0.008970 0.006600 
#    y -0.008970 1.850280 0.017420 
#    z 0.006600 0.017420 1.849180 
# 
# From -- ./inp_files/38641.got.cif
#   From: 2010.06.25/outbox.cif.g09.slc.cpg/sg2_20_cif.got.tgz:38641.got - 2010.06.27 13:26:56.
