data_PCOD8020587
_publ_section_title
;
Structure prediction by ZEFSAII (Michael W. Deem and Ramdas Pophale) SiO2 
 PCOD8020587
Probable space group: P -1
;
_chemical_formula_sum "Si O2"
_cell_formula_units_Z 16
_cell_length_a 11.932545
_cell_length_b 9.398518
_cell_length_c 8.096099
_cell_angle_alpha 94.310560
_cell_angle_beta 62.237191
_cell_angle_gamma 118.532826
_cell_volume 693.065511
_symmetry_space_group_name_H-M "P -1"
_symmetry_group_IT_number 2
_symmetry_cell_setting 'triclinic'
loop_
_space_group_symop_operation_xyz
x,y,z
-x,-y,-z
loop_
_atom_site_type_symbol
_atom_site_label
_atom_site_fract_x
_atom_site_fract_y
_atom_site_fract_z
Si Si1 0.028534 0.772388 0.011058
Si Si2 0.566034 0.936903 0.725519
Si Si3 0.246742 0.271375 0.975905
Si Si4 0.159397 0.763830 0.574433
Si Si5 0.836916 0.534496 0.367922
Si Si6 0.428490 0.577448 0.669772
Si Si7 0.078216 0.192422 0.422244
Si Si8 0.323577 0.019032 0.975149
O O1 0.896257 0.808008 0.054939
O O2 0.962715 0.605395 0.147898
O O3 0.109271 0.759985 0.794846
O O4 0.148106 0.908506 0.063153
O O5 0.541614 0.762035 0.665915
O O6 0.416336 0.944522 0.821161
O O7 0.678686 0.080918 0.541526
O O8 0.636206 0.961467 0.859279
O O9 0.351115 0.463043 0.874082
O O10 0.349837 0.188186 0.884592
O O11 0.192660 0.248974 0.199526
O O12 0.148112 0.588811 0.526523
O O13 0.052837 0.773840 0.517954
O O14 0.688452 0.413581 0.365290
O O15 0.834089 0.687998 0.473773
O O16 0.500000 0.500000 0.500000
O O17 0.000000 0.000000 0.500000
#
# Coordination Sequence:
#
# PCOD8020587 Si02
#       8
#     2   2   2   2   2   2   2   2
#     4  10  22  42  70 102 133 171 230 288 345 396
#     4  11  27  45  64 104 138 188 224 276 347 403
#     4  10  24  44  70  99 130 182 228 284 345 391
#     4  11  24  41  71  99 140 176 228 282 342 414
#     4  11  24  43  68 101 133 182 228 281 349 396
#     4  11  28  46  66  97 142 184 231 279 332 418
#     4  11  24  43  72 104 138 174 229 291 337 405
#     4  11  24  44  71  95 142 174 229 283 334 417
#
# _framework density 23.085843000000001
#
# number of rings (size 3 to 8) (size 9 to 14) (size 15 to 20)
#    0.000    1.250    0.000    4.125    7.000    7.500 
#    0.000    0.000    0.000    0.000    0.000    0.000 
#    0.000    0.000    0.000    0.000    0.000    0.000 
#
# Total GULP energy -198327.721148 kJ/mol
# GULP energy per Si atom -12395.482572 kJ/mol
# Density = 2.303330 g / cm^3
# Si number density = 23.085843 Si / 1000 Ang^3
#
#
#
# Elastic Constant Matrix: (Units=GPa)
#
#
# Indices 1 2 3 4 5 6 
#
# 1 88.5532 38.5543 29.1605 -7.2880 0.6811 -17.8656
# 2 38.5543 144.4472 62.1473 -6.8589 4.1891 -17.4990
# 3 29.1605 62.1473 116.3668 -12.4921 -0.7883 -3.0672
# 4 -7.2880 -6.8589 -12.4921 38.7318 -1.9972 4.8140
# 5 0.6811 4.1891 -0.7883 -1.9972 26.4287 2.8189
# 6 -17.8656 -17.4990 -3.0672 4.8140 2.8189 43.3176
#
#
#
# Elastic Compliance Matrix: (Units=1/GPa)
#
#
# Indices 1 2 3 4 5 6 
#
# 1 0.013963 -0.002199 -0.002103 0.000956 -0.000497 0.004647
# 2 -0.002199 0.009951 -0.004770 -0.000665 -0.002031 0.002981
# 3 -0.002103 -0.004770 0.011937 0.002992 0.001647 -0.002388
# 4 0.000956 -0.000665 0.002992 0.027333 0.002541 -0.002865
# 5 -0.000497 -0.002031 0.001647 0.002541 0.038810 -0.003717
# 6 0.004647 0.002981 -0.002388 -0.002865 -0.003717 0.026598
#
#
# Mechanical properties :
#
#
# Convention : Reuss Voigt Hill
#
# Bulk Modulus (GPa) = 56.47428 67.67682 62.07555
# Shear Modulus (GPa) = 32.75763 36.32929 34.54346
#
# Velocity S-wave (km/s) = 3.77098 3.97124 3.87241
# Velocity P-wave (km/s) = 6.59365 7.09976 6.85138
#
# Compressibility (1/GPa) = 0.01770718
#
# Stress axis : x y z
#
# Youngs Moduli (GPa) = 71.61925 100.49708 83.77257
#
# Poissons Ratio (x) = 0.22103 0.17614
# Poissons Ratio (y) = 0.15751 0.39957
# Poissons Ratio (z) = 0.15058 0.47934
#
# Static dielectric constant tensor:
#      x y z
#    x 4.825080 0.131580 -0.151480 
#    y 0.131580 4.221380 -0.230500 
#    z -0.151480 -0.230500 4.133410 
# 
# 
# High freq. dielectric constant tensor:
#      x y z
#    x 1.925250 -0.005670 0.003860 
#    y -0.005670 1.913130 -0.009910 
#    z 0.003860 -0.009910 1.911880 
# 
# From -- ./inp_files/244447.got.cif
#   From: 2010.06.25/outbox.cif.g09.slc.cpg/sg2_123_cif.got.tgz:244447.got - 2010.06.27 13:26:56.
