data_PCOD8020190
_publ_section_title
;
Structure prediction by ZEFSAII (Michael W. Deem and Ramdas Pophale) SiO2 
 PCOD8020190
Probable space group: P -1
;
_chemical_formula_sum "Si O2"
_cell_formula_units_Z 14
_cell_length_a 12.076060
_cell_length_b 12.285334
_cell_length_c 10.140207
_cell_angle_alpha 37.164233
_cell_angle_beta 69.173391
_cell_angle_gamma 95.192121
_cell_volume 636.586398
_symmetry_space_group_name_H-M "P -1"
_symmetry_group_IT_number 2
_symmetry_cell_setting 'triclinic'
loop_
_space_group_symop_operation_xyz
x,y,z
-x,-y,-z
loop_
_atom_site_type_symbol
_atom_site_label
_atom_site_fract_x
_atom_site_fract_y
_atom_site_fract_z
Si Si1 0.673842 0.255236 0.176893
Si Si2 0.812733 0.311307 0.783651
Si Si3 0.573845 0.340893 0.760295
Si Si4 0.293690 0.983147 0.403144
Si Si5 0.221735 0.272990 0.245131
Si Si6 0.120159 0.050000 0.237893
Si Si7 0.341683 0.193381 0.777781
O O1 0.500000 0.000000 0.500000
O O2 0.759974 0.248408 0.272344
O O3 0.775028 0.320086 0.941720
O O4 0.660574 0.454036 0.019473
O O5 0.733954 0.382720 0.651343
O O6 0.000000 0.500000 0.500000
O O7 0.744185 0.043833 0.042535
O O8 0.486083 0.246622 0.746266
O O9 0.598417 0.578395 0.557824
O O10 0.467803 0.142244 0.111221
O O11 0.301857 0.157926 0.336539
O O12 0.165342 0.896966 0.426363
O O13 0.064934 0.126100 0.544846
O O14 0.170423 0.249387 0.134759
O O15 0.218555 0.173965 0.943860
#
# Coordination Sequence:
#
# PCOD8020190 Si02
#       7
#     2   2   2   2   2   2   2
#     4  12  25  38  62  91 124 167 204 239 314 373
#     4  12  27  43  60  96 135 166 204 257 315 382
#     4  10  22  42  66  94 117 167 218 258 307 365
#     4   9  20  39  62  92 116 160 204 255 307 352
#     4   9  20  39  62  91 124 148 207 264 296 367
#     4   8  18  42  63  92 117 155 205 261 311 350
#     4  10  22  42  69  89 125 165 211 260 313 368
#
# _framework density 21.992303
#
# number of rings (size 3 to 8) (size 9 to 14) (size 15 to 20)
#    0.857    1.143    1.429    1.286    2.000    4.000 
#    5.143    0.000    0.000    0.000    0.000    0.000 
#    0.000    0.000    0.000    0.000    0.000    0.000 
#
# Total GULP energy -173476.141076 kJ/mol
# GULP energy per Si atom -12391.152934 kJ/mol
# Density = 2.194225 g / cm^3
# Si number density = 21.992303 Si / 1000 Ang^3
#
#
#
# Elastic Constant Matrix: (Units=GPa)
#
#
# Indices 1 2 3 4 5 6 
#
# 1 80.2514 0.0080 19.7620 6.4132 -15.2662 -10.1332
# 2 0.0080 62.8165 14.2941 -9.5879 0.9019 -6.7922
# 3 19.7620 14.2941 52.0052 0.7714 2.0809 3.3158
# 4 6.4132 -9.5879 0.7714 43.2634 0.3751 -2.5622
# 5 -15.2662 0.9019 2.0809 0.3751 34.3878 2.9476
# 6 -10.1332 -6.7922 3.3158 -2.5622 2.9476 21.0703
#
#
#
# Elastic Compliance Matrix: (Units=1/GPa)
#
#
# Indices 1 2 3 4 5 6 
#
# 1 0.017069 0.002496 -0.008022 -0.001358 0.007233 0.009099
# 2 0.002496 0.019136 -0.006855 0.004523 0.000203 0.008970
# 3 -0.008022 -0.006855 0.024954 -0.001308 -0.004055 -0.009586
# 4 -0.001358 0.004523 -0.001308 0.024600 -0.001269 0.004180
# 5 0.007233 0.000203 -0.004055 -0.001269 0.032590 -0.000532
# 6 0.009099 0.008970 -0.009586 0.004180 -0.000532 0.056819
#
#
# Mechanical properties :
#
#
# Convention : Reuss Voigt Hill
#
# Bulk Modulus (GPa) = 27.47443 29.24462 28.35953
# Shear Modulus (GPa) = 23.57785 30.47823 27.02804
#
# Velocity S-wave (km/s) = 3.27784 3.72675 3.50948
# Velocity P-wave (km/s) = 5.18127 5.64312 5.41712
#
# Compressibility (1/GPa) = 0.03639748
#
# Stress axis : x y z
#
# Youngs Moduli (GPa) = 58.58486 52.25684 40.07331
#
# Poissons Ratio (x) = -0.13043 0.32146
# Poissons Ratio (y) = -0.14623 0.27472
# Poissons Ratio (z) = 0.46995 0.35824
#
# Static dielectric constant tensor:
#      x y z
#    x 4.095260 -0.132410 0.123180 
#    y -0.132410 3.753000 0.043750 
#    z 0.123180 0.043750 3.914840 
# 
# 
# High freq. dielectric constant tensor:
#      x y z
#    x 1.858850 -0.011850 -0.006200 
#    y -0.011850 1.849060 0.005090 
#    z -0.006200 0.005090 1.856240 
# 
# From -- ./inp_files/429388.got.cif
#   From: 2010.06.25/outbox.cif.g09.slc.cpg/sg2_215_cif.got.tgz:429388.got - 2010.06.27 13:26:56.
