data_PCOD8020277
_publ_section_title
;
Structure prediction by ZEFSAII (Michael W. Deem and Ramdas Pophale) SiO2 
 PCOD8020277
Probable space group: P -1
;
_chemical_formula_sum "Si O2"
_cell_formula_units_Z 16
_cell_length_a 15.500337
_cell_length_b 8.643470
_cell_length_c 9.387670
_cell_angle_alpha 46.085471
_cell_angle_beta 102.066247
_cell_angle_gamma 79.647744
_cell_volume 786.298010
_symmetry_space_group_name_H-M "P -1"
_symmetry_group_IT_number 2
_symmetry_cell_setting 'triclinic'
loop_
_space_group_symop_operation_xyz
x,y,z
-x,-y,-z
loop_
_atom_site_type_symbol
_atom_site_label
_atom_site_fract_x
_atom_site_fract_y
_atom_site_fract_z
Si Si1 0.823090 0.507761 0.364709
Si Si2 0.813806 0.216363 0.013167
Si Si3 0.519376 0.226447 0.880563
Si Si4 0.169932 0.363015 0.396287
Si Si5 0.667412 0.160950 0.206317
Si Si6 0.326684 0.693484 0.571305
Si Si7 0.022035 0.169133 0.505197
Si Si8 0.706133 0.044119 0.878247
O O1 0.852461 0.519846 0.529777
O O2 0.772552 0.334936 0.438971
O O3 0.922448 0.396126 0.377573
O O4 0.745898 0.766960 0.110856
O O5 0.733335 0.266046 0.079277
O O6 0.918291 0.992777 0.235890
O O7 0.828569 0.452691 0.839780
O O8 0.779696 0.143156 0.901960
O O9 0.415801 0.464904 0.673069
O O10 0.597175 0.210556 0.797780
O O11 0.563265 0.234445 0.045940
O O12 0.500000 0.000000 0.000000
O O13 0.086672 0.280715 0.377180
O O14 0.276701 0.129567 0.585148
O O15 0.642129 0.265898 0.288267
O O16 0.301109 0.926323 0.313768
O O17 0.000000 0.000000 0.500000
#
# Coordination Sequence:
#
# PCOD8020277 Si02
#       8
#     2   2   2   2   2   2   2   2
#     4  12  22  41  68  92 126 168 216 257 308 383
#     4  10  22  42  67  90 126 171 209 258 312 374
#     4  11  21  44  67  89 129 172 210 256 313 379
#     4  11  21  42  67  91 126 171 214 253 309 384
#     4  10  23  42  63  98 134 160 208 267 316 364
#     4  12  24  40  66  96 128 164 209 267 321 365
#     4  11  25  41  62  97 134 162 206 268 316 365
#     4  11  23  41  67  96 121 167 218 257 311 380
#
# _framework density 20.348520000000001
#
# number of rings (size 3 to 8) (size 9 to 14) (size 15 to 20)
#    0.000    1.000    6.250    2.625    0.000    4.000 
#    0.000    0.625    0.000    0.000    0.000    0.000 
#    0.000    0.000    0.000    0.000    0.000    0.000 
#
# Total GULP energy -198449.354167 kJ/mol
# GULP energy per Si atom -12403.084635 kJ/mol
# Density = 2.030221 g / cm^3
# Si number density = 20.348520 Si / 1000 Ang^3
#
#
#
# Elastic Constant Matrix: (Units=GPa)
#
#
# Indices 1 2 3 4 5 6 
#
# 1 85.9925 23.9582 43.1651 6.7968 -5.5123 14.5725
# 2 23.9582 84.9231 21.2713 15.0716 -10.4383 5.2445
# 3 43.1651 21.2713 93.5748 8.6128 -22.3003 -6.9777
# 4 6.7968 15.0716 8.6128 33.8018 -0.0312 7.3546
# 5 -5.5123 -10.4383 -22.3003 -0.0312 37.6841 -4.5145
# 6 14.5725 5.2445 -6.9777 7.3546 -4.5145 32.2910
#
#
#
# Elastic Compliance Matrix: (Units=1/GPa)
#
#
# Indices 1 2 3 4 5 6 
#
# 1 0.019368 -0.003267 -0.010756 0.002912 -0.005874 -0.012019
# 2 -0.003267 0.014157 -0.000313 -0.005766 0.003360 0.000890
# 3 -0.010756 -0.000313 0.019857 -0.005364 0.011527 0.012029
# 4 0.002912 -0.005766 -0.005364 0.035178 -0.005553 -0.010325
# 5 -0.005874 0.003360 0.011527 -0.005553 0.034708 0.010713
# 6 -0.012019 0.000890 0.012029 -0.010325 0.010713 0.042697
#
#
# Mechanical properties :
#
#
# Convention : Reuss Voigt Hill
#
# Bulk Modulus (GPa) = 40.46891 49.03107 44.74999
# Shear Modulus (GPa) = 24.64589 32.49510 28.57049
#
# Velocity S-wave (km/s) = 3.48399 4.00049 3.75114
# Velocity P-wave (km/s) = 6.00960 6.74437 6.38756
#
# Compressibility (1/GPa) = 0.02471032
#
# Stress axis : x y z
#
# Youngs Moduli (GPa) = 51.63126 70.63760 50.35919
#
# Poissons Ratio (x) = 0.23074 0.54166
# Poissons Ratio (y) = 0.16866 0.01578
# Poissons Ratio (z) = 0.55534 0.02214
#
# Static dielectric constant tensor:
#      x y z
#    x 3.912200 0.033720 0.177220 
#    y 0.033720 3.613390 -0.001740 
#    z 0.177220 -0.001740 3.759920 
# 
# 
# High freq. dielectric constant tensor:
#      x y z
#    x 1.801440 0.004930 0.005840 
#    y 0.004930 1.787880 -0.000800 
#    z 0.005840 -0.000800 1.797280 
# 
# From -- ./inp_files/187283.got.cif
#   From: 2010.06.25/outbox.cif.g09.slc.cpg/sg2_94_cif.got.tgz:187283.got - 2010.06.27 13:26:56.
