data_PCOD8020260
_publ_section_title
;
Structure prediction by ZEFSAII (Michael W. Deem and Ramdas Pophale) SiO2 
 PCOD8020260
Probable space group: P -1
;
_chemical_formula_sum "Si O2"
_cell_formula_units_Z 14
_cell_length_a 11.145649
_cell_length_b 5.098049
_cell_length_c 11.999593
_cell_angle_alpha 97.492369
_cell_angle_beta 74.592909
_cell_angle_gamma 126.460360
_cell_volume 528.334411
_symmetry_space_group_name_H-M "P -1"
_symmetry_group_IT_number 2
_symmetry_cell_setting 'triclinic'
loop_
_space_group_symop_operation_xyz
x,y,z
-x,-y,-z
loop_
_atom_site_type_symbol
_atom_site_label
_atom_site_fract_x
_atom_site_fract_y
_atom_site_fract_z
Si Si1 0.581240 0.339701 0.431400
Si Si2 0.660496 0.514312 0.172603
Si Si3 0.623717 0.580059 0.861334
Si Si4 0.100308 0.439472 0.572541
Si Si5 0.143289 0.242073 0.344100
Si Si6 0.242666 0.721608 0.049908
Si Si7 0.052632 0.796830 0.789548
O O1 0.500000 0.500000 0.500000
O O2 0.575615 0.313468 0.295770
O O3 0.760886 0.589275 0.432560
O O4 0.500000 0.000000 0.500000
O O5 0.551550 0.542934 0.115634
O O6 0.804296 0.886476 0.172604
O O7 0.726110 0.330090 0.087935
O O8 0.681764 0.611935 0.720673
O O9 0.647352 0.326936 0.902235
O O10 0.712905 0.919900 0.924718
O O11 0.126142 0.500574 0.433404
O O12 0.119017 0.702010 0.666715
O O13 0.933455 0.098513 0.593602
O O14 0.059678 0.137316 0.239154
O O15 0.058853 0.481084 0.108241
#
# Coordination Sequence:
#
# PCOD8020260 Si02
#       7
#     2   2   2   2   2   2   2
#     4  12  28  47  69 106 147 185 239 301 369 430
#     4  12  26  48  75 108 150 194 243 313 371 426
#     4  11  25  48  73 110 149 195 249 301 365 442
#     4  11  22  42  71  97 143 192 242 291 362 431
#     4  10  22  42  67 101 139 196 239 294 355 440
#     4  11  26  48  75 109 148 198 249 297 366 448
#     4  11  23  45  71 111 145 192 247 304 363 438
#
# _framework density 26.498370000000001
#
# number of rings (size 3 to 8) (size 9 to 14) (size 15 to 20)
#    0.000    0.857    2.857    3.429    0.000    6.857 
#    0.000    2.857    0.000    0.000    0.000    0.000 
#    0.000    0.000    0.000    0.000    0.000    0.000 
#
# Total GULP energy -173442.013499 kJ/mol
# GULP energy per Si atom -12388.715250 kJ/mol
# Density = 2.643806 g / cm^3
# Si number density = 26.498370 Si / 1000 Ang^3
#
#
#
# Elastic Constant Matrix: (Units=GPa)
#
#
# Indices 1 2 3 4 5 6 
#
# 1 38.0845 32.1622 11.3498 -16.4036 -14.7841 1.3642
# 2 32.1622 62.7861 45.4618 -4.0335 8.4323 0.6103
# 3 11.3498 45.4618 177.9213 7.1206 -39.6303 0.6921
# 4 -16.4036 -4.0335 7.1206 26.5523 10.6607 -0.2391
# 5 -14.7841 8.4323 -39.6303 10.6607 31.1939 -3.2500
# 6 1.3642 0.6103 0.6921 -0.2391 -3.2500 39.1956
#
#
#
# Elastic Compliance Matrix: (Units=1/GPa)
#
#
# Indices 1 2 3 4 5 6 
#
# 1 -0.055163 0.077205 -0.043116 0.035162 -0.114621 -0.007811
# 2 0.077205 -0.063030 0.034359 -0.011997 0.102013 0.006073
# 3 -0.043116 0.034359 -0.009484 -0.002349 -0.041208 -0.002298
# 4 0.035162 -0.011997 -0.002349 0.059606 -0.003544 -0.000926
# 5 -0.114621 0.102013 -0.041208 -0.003544 -0.101538 -0.005313
# 6 -0.007811 0.006073 -0.002298 -0.000926 -0.005313 0.025285
#
#
# Mechanical properties :
#
#
# Convention : Reuss Voigt Hill
#
# Bulk Modulus (GPa) = 108.46923 50.74884 79.60903
# Shear Modulus (GPa) = -17.97596 32.04290 7.03347
#
# Velocity S-wave (km/s) = -2.60740 3.48119 1.63097
# Velocity P-wave (km/s) = 5.65318 5.94571 5.80129
#
# Compressibility (1/GPa) = 0.00921920
#
# Stress axis : x y z
#
# Youngs Moduli (GPa) = -18.12798 -15.86538 -105.43703
#
# Poissons Ratio (x) = 1.22489 -4.54602
# Poissons Ratio (y) = 1.39957 3.62274
# Poissons Ratio (z) = -0.78160 0.54512
#
# Static dielectric constant tensor:
#      x y z
#    x 5.032670 0.385890 -0.339380 
#    y 0.385890 4.137160 -0.067320 
#    z -0.339380 -0.067320 5.585350 
# 
# 
# High freq. dielectric constant tensor:
#      x y z
#    x 2.068990 0.009630 -0.017860 
#    y 0.009630 2.045260 -0.005540 
#    z -0.017860 -0.005540 2.095120 
# 
# From -- ./inp_files/411039.got.cif
#   From: 2010.06.25/outbox.cif.g09.slc.cpg/sg2_206_cif.got.tgz:411039.got - 2010.06.27 13:26:56.
