data_PCOD8020625
_publ_section_title
;
Structure prediction by ZEFSAII (Michael W. Deem and Ramdas Pophale) SiO2 
 PCOD8020625
Probable space group: P -1
;
_chemical_formula_sum "Si O2"
_cell_formula_units_Z 14
_cell_length_a 15.019184
_cell_length_b 17.180574
_cell_length_c 14.955721
_cell_angle_alpha 156.000031
_cell_angle_beta 142.903285
_cell_angle_gamma 24.104845
_cell_volume 625.595216
_symmetry_space_group_name_H-M "P -1"
_symmetry_group_IT_number 2
_symmetry_cell_setting 'triclinic'
loop_
_space_group_symop_operation_xyz
x,y,z
-x,-y,-z
loop_
_atom_site_type_symbol
_atom_site_label
_atom_site_fract_x
_atom_site_fract_y
_atom_site_fract_z
Si Si1 0.679066 0.366394 0.252462
Si Si2 0.065920 0.728654 0.890095
Si Si3 0.575348 0.218699 0.183392
Si Si4 0.232426 0.839429 0.286235
Si Si5 0.720041 0.765673 0.696334
Si Si6 0.486566 0.130815 0.535105
Si Si7 0.868196 0.171699 0.484897
O O1 0.634532 0.323970 0.269431
O O2 0.458385 0.556528 0.218176
O O3 0.753819 0.511577 0.479573
O O4 0.881606 0.049884 0.035911
O O5 0.275795 0.485568 0.738424
O O6 0.959408 0.626051 0.720058
O O7 0.151874 0.734668 0.057480
O O8 0.744414 0.097288 0.273785
O O9 0.318673 0.483862 0.287001
O O10 0.609299 0.975631 0.913909
O O11 0.286819 0.967159 0.398931
O O12 0.044110 0.084238 0.462637
O O13 0.556232 0.956731 0.679159
O O14 0.500000 0.000000 0.500000
O O15 0.000000 0.000000 0.500000
#
# Coordination Sequence:
#
# PCOD8020625 Si02
#       7
#     2   2   2   2   2   2   2
#     4  10  22  42  70  96 141 173 230 274 335 408
#     4  11  24  44  69  97 134 189 222 276 344 393
#     4  10  22  42  70  99 133 179 225 276 345 404
#     4  11  23  44  68 101 135 181 226 283 337 398
#     4  10  23  45  68 101 137 179 226 285 334 401
#     4  11  27  43  69 103 141 177 235 278 336 406
#     4  11  21  40  74  97 132 180 223 276 346 407
#
# _framework density 22.378688
#
# number of rings (size 3 to 8) (size 9 to 14) (size 15 to 20)
#    0.000    1.429    4.286    0.857    6.000    2.286 
#    0.000    5.714    3.143    0.000    0.000    0.000 
#    0.000    0.000    0.000    0.000    0.000    0.000 
#
# Total GULP energy -173579.742437 kJ/mol
# GULP energy per Si atom -12398.553031 kJ/mol
# Density = 2.232775 g / cm^3
# Si number density = 22.378688 Si / 1000 Ang^3
#
#
#
# Elastic Constant Matrix: (Units=GPa)
#
#
# Indices 1 2 3 4 5 6 
#
# 1 84.2176 39.5808 37.4650 4.7171 3.6460 -17.2093
# 2 39.5808 125.8917 24.9919 1.3250 -1.7238 -7.6733
# 3 37.4650 24.9919 95.7222 7.9480 2.0699 -10.2117
# 4 4.7171 1.3250 7.9480 43.4433 -8.3894 -9.7514
# 5 3.6460 -1.7238 2.0699 -8.3894 46.8650 1.7829
# 6 -17.2093 -7.6733 -10.2117 -9.7514 1.7829 42.4907
#
#
#
# Elastic Compliance Matrix: (Units=1/GPa)
#
#
# Indices 1 2 3 4 5 6 
#
# 1 0.017151 -0.004097 -0.005076 0.000048 -0.001445 0.005058
# 2 -0.004097 0.009414 -0.000921 0.000454 0.000791 -0.000109
# 3 -0.005076 -0.000921 0.012885 -0.001773 -0.000544 0.000490
# 4 0.000048 0.000454 -0.001773 0.025372 0.004431 0.005312
# 5 -0.001445 0.000791 -0.000544 0.004431 0.022315 -0.000492
# 6 0.005058 -0.000109 0.000490 0.005312 -0.000492 0.026921
#
#
# Mechanical properties :
#
#
# Convention : Reuss Voigt Hill
#
# Bulk Modulus (GPa) = 51.91459 56.65632 54.28545
# Shear Modulus (GPa) = 35.54500 40.14607 37.84554
#
# Velocity S-wave (km/s) = 3.98972 4.24009 4.11681
# Velocity P-wave (km/s) = 6.66877 7.02447 6.84893
#
# Compressibility (1/GPa) = 0.01926241
#
# Stress axis : x y z
#
# Youngs Moduli (GPa) = 58.30544 106.23031 77.60670
#
# Poissons Ratio (x) = 0.43518 0.39396
# Poissons Ratio (y) = 0.23885 0.07147
# Poissons Ratio (z) = 0.29598 0.09783
#
# Static dielectric constant tensor:
#      x y z
#    x 4.089490 -0.192400 -0.253670 
#    y -0.192400 4.314770 -0.013160 
#    z -0.253670 -0.013160 4.071880 
# 
# 
# High freq. dielectric constant tensor:
#      x y z
#    x 1.877670 -0.008850 -0.017850 
#    y -0.008850 1.898070 -0.009760 
#    z -0.017850 -0.009760 1.873310 
# 
# From -- ./inp_files/576328.got.cif
#   From: 2010.06.25/outbox.cif.g09.slc.cpg/sg2_289_cif.got.tgz:576328.got - 2010.06.27 13:26:56.
