data_PCOD8020873
_publ_section_title
;
Structure prediction by ZEFSAII (Michael W. Deem and Ramdas Pophale) SiO2 
 PCOD8020873
Probable space group: P -1
;
_chemical_formula_sum "Si O2"
_cell_formula_units_Z 12
_cell_length_a 17.748996
_cell_length_b 12.325530
_cell_length_c 9.602695
_cell_angle_alpha 138.972925
_cell_angle_beta 23.149088
_cell_angle_gamma 139.648628
_cell_volume 522.696368
_symmetry_space_group_name_H-M "P -1"
_symmetry_group_IT_number 2
_symmetry_cell_setting 'triclinic'
loop_
_space_group_symop_operation_xyz
x,y,z
-x,-y,-z
loop_
_atom_site_type_symbol
_atom_site_label
_atom_site_fract_x
_atom_site_fract_y
_atom_site_fract_z
Si Si1 0.054045 0.555326 0.237647
Si Si2 0.731604 0.694187 0.473134
Si Si3 0.304833 0.343277 0.188043
Si Si4 0.566509 0.201614 0.101231
Si Si5 0.287947 0.141456 0.755452
Si Si6 0.974754 0.211495 0.160790
O O1 0.890595 0.595981 0.455570
O O2 0.944399 0.402706 0.382877
O O3 0.217825 0.489684 0.804911
O O4 0.192206 0.725052 0.245053
O O5 0.727732 0.743953 0.689427
O O6 0.518510 0.693447 0.769650
O O7 0.898766 0.829684 0.228434
O O8 0.500000 0.500000 0.000000
O O9 0.329113 0.196549 0.898574
O O10 0.483212 0.233025 0.425350
O O11 0.500000 0.000000 0.000000
O O12 0.234573 0.933903 0.626706
O O13 0.100477 0.206998 0.083358
#
# Coordination Sequence:
#
# PCOD8020873 Si02
#       6
#     2   2   2   2   2   2
#     4  10  23  42  71  91 133 182 219 262 332 396
#     4   9  22  45  63  96 137 170 217 263 339 390
#     4  12  26  40  67 102 137 171 220 276 334 387
#     4  11  24  44  71  96 130 179 225 269 328 397
#     4  10  22  43  64  99 134 164 226 277 311 392
#     4   8  21  41  69  89 132 171 224 260 324 379
#
# _framework density 22.957878999999998
#
# number of rings (size 3 to 8) (size 9 to 14) (size 15 to 20)
#    1.000    1.000    0.000    2.000    9.333    2.667 
#    0.000    1.667    0.000    0.000    0.000    0.000 
#    0.000    0.000    0.000    0.000    0.000    0.000 
#
# Total GULP energy -148726.024247 kJ/mol
# GULP energy per Si atom -12393.835354 kJ/mol
# Density = 2.290563 g / cm^3
# Si number density = 22.957879 Si / 1000 Ang^3
#
#
#
# Elastic Constant Matrix: (Units=GPa)
#
#
# Indices 1 2 3 4 5 6 
#
# 1 138.3904 41.3503 37.1301 -10.5760 1.0591 3.1305
# 2 41.3503 106.7641 20.5366 -21.8928 -11.8085 9.8579
# 3 37.1301 20.5366 77.4378 -14.5740 -25.4321 -4.2562
# 4 -10.5760 -21.8928 -14.5740 38.0986 4.1322 1.1839
# 5 1.0591 -11.8085 -25.4321 4.1322 36.8268 -3.3653
# 6 3.1305 9.8579 -4.2562 1.1839 -3.3653 29.2177
#
#
#
# Elastic Compliance Matrix: (Units=1/GPa)
#
#
# Indices 1 2 3 4 5 6 
#
# 1 0.009783 -0.003300 -0.005806 -0.000775 -0.005387 -0.001369
# 2 -0.003300 0.012561 0.000289 0.006171 0.003291 -0.003713
# 3 -0.005806 0.000289 0.021892 0.005107 0.015286 0.005267
# 4 -0.000775 0.006171 0.005107 0.031410 0.001791 -0.002321
# 5 -0.005387 0.003291 0.015286 0.001791 0.039281 0.006146
# 6 -0.001369 -0.003713 0.005267 -0.002321 0.006146 0.037195
#
#
# Mechanical properties :
#
#
# Convention : Reuss Voigt Hill
#
# Bulk Modulus (GPa) = 37.59144 57.84735 47.71940
# Shear Modulus (GPa) = 27.99196 35.73364 31.86280
#
# Velocity S-wave (km/s) = 3.49560 3.94951 3.72947
# Velocity P-wave (km/s) = 5.71856 6.78602 6.27503
#
# Compressibility (1/GPa) = 0.02660180
#
# Stress axis : x y z
#
# Youngs Moduli (GPa) = 102.22069 79.60925 45.67973
#
# Poissons Ratio (x) = 0.26275 0.26521
# Poissons Ratio (y) = 0.33737 -0.01321
# Poissons Ratio (z) = 0.59347 -0.02303
#
# Static dielectric constant tensor:
#      x y z
#    x 3.956570 -0.028450 0.161090 
#    y -0.028450 3.891860 -0.088320 
#    z 0.161090 -0.088320 4.151410 
# 
# 
# High freq. dielectric constant tensor:
#      x y z
#    x 1.892250 -0.001130 0.015120 
#    y -0.001130 1.897790 -0.005830 
#    z 0.015120 -0.005830 1.916350 
# 
# From -- ./inp_files/308426.got.cif
#   From: 2010.06.25/outbox.cif.g09.slc.cpg/sg2_155_cif.got.tgz:308426.got - 2010.06.27 13:26:56.
