data_PCOD8020112
_publ_section_title
;
Structure prediction by ZEFSAII (Michael W. Deem and Ramdas Pophale) SiO2 
 PCOD8020112
Probable space group: P -1
;
_chemical_formula_sum "Si O2"
_cell_formula_units_Z 16
_cell_length_a 21.121562
_cell_length_b 8.203999
_cell_length_c 11.916135
_cell_angle_alpha 51.286781
_cell_angle_beta 29.022112
_cell_angle_gamma 44.336960
_cell_volume 700.101712
_symmetry_space_group_name_H-M "P -1"
_symmetry_group_IT_number 2
_symmetry_cell_setting 'triclinic'
loop_
_space_group_symop_operation_xyz
x,y,z
-x,-y,-z
loop_
_atom_site_type_symbol
_atom_site_label
_atom_site_fract_x
_atom_site_fract_y
_atom_site_fract_z
Si Si1 0.991002 0.872193 0.460765
Si Si2 0.294984 0.421484 0.160822
Si Si3 0.120792 0.675558 0.683561
Si Si4 0.007573 0.357251 0.870537
Si Si5 0.482349 0.283581 0.566738
Si Si6 0.783161 0.660305 0.921163
Si Si7 0.423533 0.556247 0.332171
Si Si8 0.295815 0.012836 0.487550
O O1 0.139502 0.638777 0.324539
O O2 0.845483 0.836995 0.708529
O O3 0.000000 0.000000 0.500000
O O4 0.966360 0.046250 0.320398
O O5 0.301519 0.374402 0.038379
O O6 0.309427 0.210627 0.307109
O O7 0.438536 0.458636 0.946773
O O8 0.071399 0.538676 0.728310
O O9 0.295736 0.571807 0.439545
O O10 0.090661 0.645586 0.872681
O O11 0.133337 0.104784 0.749878
O O12 0.917532 0.434398 0.861035
O O13 0.500000 0.500000 0.500000
O O14 0.482942 0.318447 0.416683
O O15 0.609641 0.044596 0.519763
O O16 0.335945 0.257067 0.831949
O O17 0.345352 0.784777 0.433330
#
# Coordination Sequence:
#
# PCOD8020112 Si02
#       8
#     2   2   2   2   2   2   2   2
#     4  12  26  45  67  99 136 176 222 268 331 398
#     4  12  25  42  67 102 134 173 220 272 335 393
#     4  11  25  46  66  95 135 178 219 270 331 394
#     4  11  25  44  68  94 133 176 225 271 326 392
#     4  10  22  42  65  95 139 167 216 276 330 387
#     4  12  22  44  68  97 135 172 222 278 325 389
#     4  11  24  42  66  99 132 170 219 276 329 393
#     4  11  23  43  64  98 133 171 218 272 329 389
#
# _framework density 22.853822000000001
#
# number of rings (size 3 to 8) (size 9 to 14) (size 15 to 20)
#    0.000    0.750    6.250    1.500    5.250    0.500 
#    2.250    1.875    0.000    0.000    0.000    0.000 
#    0.000    0.000    0.000    0.000    0.000    0.000 
#
# Total GULP energy -198293.397645 kJ/mol
# GULP energy per Si atom -12393.337353 kJ/mol
# Density = 2.280181 g / cm^3
# Si number density = 22.853822 Si / 1000 Ang^3
#
#
#
# Elastic Constant Matrix: (Units=GPa)
#
#
# Indices 1 2 3 4 5 6 
#
# 1 52.4866 33.0890 20.3049 -6.6496 -9.0462 -34.4053
# 2 33.0890 91.9315 15.4070 -14.8445 -6.2267 -40.2887
# 3 20.3049 15.4070 113.3943 -9.2577 -27.3959 -5.9344
# 4 -6.6496 -14.8445 -9.2577 25.9888 -8.1842 -0.1315
# 5 -9.0462 -6.2267 -27.3959 -8.1842 37.7791 3.0434
# 6 -34.4053 -40.2887 -5.9344 -0.1315 3.0434 41.6012
#
#
#
# Elastic Compliance Matrix: (Units=1/GPa)
#
#
# Indices 1 2 3 4 5 6 
#
# 1 0.052827 0.007394 -0.003308 0.020570 0.011933 0.049571
# 2 0.007394 0.024626 0.000244 0.018606 0.007661 0.029497
# 3 -0.003308 0.000244 0.012173 0.006656 0.009634 -0.001447
# 4 0.020570 0.018606 0.006656 0.064476 0.024013 0.034428
# 5 0.011933 0.007661 0.009634 0.024013 0.041513 0.015701
# 6 0.049571 0.029497 -0.001447 0.034428 0.015701 0.092355
#
#
# Mechanical properties :
#
#
# Convention : Reuss Voigt Hill
#
# Bulk Modulus (GPa) = 10.17433 43.93492 27.05462
# Shear Modulus (GPa) = 16.02195 33.67457 24.84826
#
# Velocity S-wave (km/s) = 2.65063 3.84275 3.30095
# Velocity P-wave (km/s) = 3.71879 6.24140 5.13734
#
# Compressibility (1/GPa) = 0.09828659
#
# Stress axis : x y z
#
# Youngs Moduli (GPa) = 18.92970 40.60776 82.14764
#
# Poissons Ratio (x) = -0.30026 0.27171
# Poissons Ratio (y) = -0.13997 -0.02001
# Poissons Ratio (z) = 0.06261 -0.00989
#
# Static dielectric constant tensor:
#      x y z
#    x 4.243850 -0.491630 -0.147690 
#    y -0.491630 4.120780 -0.239720 
#    z -0.147690 -0.239720 4.131790 
# 
# 
# High freq. dielectric constant tensor:
#      x y z
#    x 1.898970 -0.035410 -0.010660 
#    y -0.035410 1.895330 -0.011040 
#    z -0.010660 -0.011040 1.915570 
# 
# From -- ./inp_files/262628.got.cif
#   From: 2010.06.25/outbox.cif.g09.slc.cpg/sg2_132_cif.got.tgz:262628.got - 2010.06.27 13:26:56.
