data_PCOD8020533
_publ_section_title
;
Structure prediction by ZEFSAII (Michael W. Deem and Ramdas Pophale) SiO2 
 PCOD8020533
Probable space group: P -1
;
_chemical_formula_sum "Si O2"
_cell_formula_units_Z 16
_cell_length_a 14.716173
_cell_length_b 25.872861
_cell_length_c 16.614770
_cell_angle_alpha 21.010609
_cell_angle_beta 31.875097
_cell_angle_gamma 20.257215
_cell_volume 767.111728
_symmetry_space_group_name_H-M "P -1"
_symmetry_group_IT_number 2
_symmetry_cell_setting 'triclinic'
loop_
_space_group_symop_operation_xyz
x,y,z
-x,-y,-z
loop_
_atom_site_type_symbol
_atom_site_label
_atom_site_fract_x
_atom_site_fract_y
_atom_site_fract_z
Si Si1 0.252941 0.698689 0.844184
Si Si2 0.647653 0.765685 0.761094
Si Si3 0.815416 0.928573 0.639656
Si Si4 0.600482 0.495988 0.152838
Si Si5 0.202807 0.455157 0.726447
Si Si6 0.527047 0.096541 0.132616
Si Si7 0.242756 0.162600 0.014366
Si Si8 0.908399 0.219903 0.773249
O O1 0.349570 0.633431 0.774262
O O2 0.010185 0.742987 0.980553
O O3 0.175434 0.909029 0.621825
O O4 0.500000 0.500000 0.000000
O O5 0.574622 0.771381 0.899080
O O6 0.965228 0.577213 0.789879
O O7 0.500000 0.000000 0.500000
O O8 0.542650 0.701205 0.877856
O O9 0.609443 0.972533 0.674832
O O10 0.718425 0.963912 0.753034
O O11 0.118151 0.681416 0.751621
O O12 0.353504 0.593684 0.246374
O O13 0.171903 0.639166 0.451814
O O14 0.465710 0.246464 0.886225
O O15 0.183719 0.363327 0.796359
O O16 0.847654 0.866580 0.233860
O O17 0.500000 0.000000 0.000000
O O18 0.000000 0.000000 0.000000
#
# Coordination Sequence:
#
# PCOD8020533 Si02
#       8
#     2   2   2   2   2   2   2   2
#     4  11  25  42  67 100 130 170 225 272 331 400
#     4  12  21  41  71  93 131 177 222 269 330 400
#     4  10  24  44  68  94 132 175 220 271 327 407
#     4  11  23  46  64  96 132 177 218 274 339 388
#     4  11  24  42  70  97 134 176 220 276 332 400
#     4  11  24  43  70  99 133 173 232 263 340 395
#     4  10  22  42  69  94 127 171 218 268 335 385
#     4  12  26  44  65 100 139 174 218 283 334 388
#
# _framework density 20.857455999999999
#
# number of rings (size 3 to 8) (size 9 to 14) (size 15 to 20)
#    0.000    1.000    6.250    1.875    7.000    2.500 
#    0.000    1.250    0.000    0.000    0.000    0.000 
#    0.000    0.000    0.000    0.000    0.000    0.000 
#
# Total GULP energy -198317.759038 kJ/mol
# GULP energy per Si atom -12394.859940 kJ/mol
# Density = 2.080998 g / cm^3
# Si number density = 20.857456 Si / 1000 Ang^3
#
#
#
# Elastic Constant Matrix: (Units=GPa)
#
#
# Indices 1 2 3 4 5 6 
#
# 1 74.3835 46.2048 33.4658 -5.5980 -5.3237 -20.3859
# 2 46.2048 178.5781 26.4063 7.8876 4.7302 -2.6320
# 3 33.4658 26.4063 127.4918 -7.9419 -4.5526 -2.9589
# 4 -5.5980 7.8876 -7.9419 23.9483 2.6234 -0.1758
# 5 -5.3237 4.7302 -4.5526 2.6234 34.0879 -2.7487
# 6 -20.3859 -2.6320 -2.9589 -0.1758 -2.7487 31.9717
#
#
#
# Elastic Compliance Matrix: (Units=1/GPa)
#
#
# Indices 1 2 3 4 5 6 
#
# 1 0.023583 -0.005640 -0.004169 0.005585 0.004658 0.014618
# 2 -0.005640 0.007283 -0.000400 -0.003663 -0.001923 -0.003219
# 3 -0.004169 -0.000400 0.009123 0.002135 0.000313 -0.001808
# 4 0.005585 -0.003663 0.002135 0.045170 -0.001522 0.003574
# 5 0.004658 -0.001923 0.000313 -0.001522 0.030932 0.005492
# 6 0.014618 -0.003219 -0.001808 0.003574 0.005492 0.040658
#
#
# Mechanical properties :
#
#
# Convention : Reuss Voigt Hill
#
# Bulk Modulus (GPa) = 51.09214 65.84524 58.46869
# Shear Modulus (GPa) = 27.22001 36.29335 31.75668
#
# Velocity S-wave (km/s) = 3.61647 4.17594 3.90623
# Velocity P-wave (km/s) = 6.47977 7.40871 6.95976
#
# Compressibility (1/GPa) = 0.01957248
#
# Stress axis : x y z
#
# Youngs Moduli (GPa) = 42.40425 137.29873 109.61467
#
# Poissons Ratio (x) = 0.77435 0.45695
# Poissons Ratio (y) = 0.23915 0.04381
# Poissons Ratio (z) = 0.17677 0.05487
#
# Static dielectric constant tensor:
#      x y z
#    x 2.955820 -0.001480 1.219540 
#    y -0.001480 4.150100 -0.520850 
#    z 1.219540 -0.520850 1.763350 
# 
# 
# High freq. dielectric constant tensor:
#      x y z
#    x 1.805070 -0.005850 -0.013700 
#    y -0.005850 1.822760 -0.004670 
#    z -0.013700 -0.004670 1.819830 
# 
# From -- ./inp_files/574512.got.cif
#   From: 2010.06.25/outbox.cif.g09.slc.cpg/sg2_288_cif.got.tgz:574512.got - 2010.06.27 13:26:56.
