data_PCOD8020294
_publ_section_title
;
Structure prediction by ZEFSAII (Michael W. Deem and Ramdas Pophale) SiO2 
 PCOD8020294
Probable space group: P -1
;
_chemical_formula_sum "Si O2"
_cell_formula_units_Z 16
_cell_length_a 5.105846
_cell_length_b 9.641194
_cell_length_c 18.400617
_cell_angle_alpha 48.428057
_cell_angle_beta 88.252642
_cell_angle_gamma 95.113871
_cell_volume 670.048805
_symmetry_space_group_name_H-M "P -1"
_symmetry_group_IT_number 2
_symmetry_cell_setting 'triclinic'
loop_
_space_group_symop_operation_xyz
x,y,z
-x,-y,-z
loop_
_atom_site_type_symbol
_atom_site_label
_atom_site_fract_x
_atom_site_fract_y
_atom_site_fract_z
Si Si1 0.557808 0.846215 0.752595
Si Si2 0.951133 0.708389 0.560663
Si Si3 0.366986 0.803483 0.098492
Si Si4 0.073136 0.890633 0.644789
Si Si5 0.896648 0.233945 0.022903
Si Si6 0.415783 0.495566 0.585503
Si Si7 0.562540 0.891359 0.216175
Si Si8 0.559578 0.568485 0.068365
O O1 0.850551 0.826886 0.729058
O O2 0.425174 0.650363 0.855696
O O3 0.367336 0.899286 0.671388
O O4 0.590039 0.004996 0.758557
O O5 0.031625 0.738762 0.633522
O O6 0.656757 0.595148 0.597988
O O7 0.159703 0.597695 0.558119
O O8 0.962805 0.905263 0.452473
O O9 0.348173 0.811596 0.183037
O O10 0.537618 0.641764 0.126434
O O11 0.092906 0.774633 0.063973
O O12 0.500000 0.000000 0.000000
O O13 0.685625 0.374978 0.996560
O O14 0.809980 0.030954 0.131570
O O15 0.187634 0.320736 0.015004
O O16 0.500000 0.500000 0.500000
O O17 0.327782 0.282852 0.686783
#
# Coordination Sequence:
#
# PCOD8020294 Si02
#       8
#     2   2   2   2   2   2   2   2
#     4  12  26  43  67 101 138 177 225 286 330 412
#     4  11  25  45  74  95 131 187 226 284 345 398
#     4   8  20  43  62  97 128 175 224 281 324 406
#     4  11  25  47  68  98 135 176 236 282 334 404
#     4   9  22  43  66  95 133 178 227 280 323 407
#     4  12  26  45  70 106 142 174 226 284 340 409
#     4  11  25  43  67 103 136 184 219 281 357 391
#     4  10  22  42  67  92 135 175 223 283 321 398
#
# _framework density 23.878861000000001
#
# number of rings (size 3 to 8) (size 9 to 14) (size 15 to 20)
#    0.750    0.750    0.000    4.125    3.500    8.000 
#    2.250    0.000    0.000    0.000    0.000    0.000 
#    0.000    0.000    0.000    0.000    0.000    0.000 
#
# Total GULP energy -198308.360458 kJ/mol
# GULP energy per Si atom -12394.272529 kJ/mol
# Density = 2.382451 g / cm^3
# Si number density = 23.878861 Si / 1000 Ang^3
#
#
#
# Elastic Constant Matrix: (Units=GPa)
#
#
# Indices 1 2 3 4 5 6 
#
# 1 87.9545 27.1444 8.6180 -3.5136 -6.7804 -7.2245
# 2 27.1444 64.7300 49.1184 -1.6024 20.0803 -4.3560
# 3 8.6180 49.1184 108.8384 -7.1205 2.1664 -2.6495
# 4 -3.5136 -1.6024 -7.1205 44.1849 2.0972 6.8432
# 5 -6.7804 20.0803 2.1664 2.0972 33.7299 -3.0697
# 6 -7.2245 -4.3560 -2.6495 6.8432 -3.0697 26.9413
#
#
#
# Elastic Compliance Matrix: (Units=1/GPa)
#
#
# Indices 1 2 3 4 5 6 
#
# 1 0.016406 -0.013891 0.004862 0.000440 0.011577 0.003839
# 2 -0.013891 0.043368 -0.018018 -0.000914 -0.027523 -0.001389
# 3 0.004862 -0.018018 0.016862 0.001826 0.010579 0.000790
# 4 0.000440 -0.000914 0.001826 0.023947 -0.001529 -0.006107
# 5 0.011577 -0.027523 0.010579 -0.001529 0.048284 0.005585
# 6 0.003839 -0.001389 0.000790 -0.006107 0.005585 0.040188
#
#
# Mechanical properties :
#
#
# Convention : Reuss Voigt Hill
#
# Bulk Modulus (GPa) = 44.36147 47.92051 46.14099
# Shear Modulus (GPa) = 19.94711 32.74736 26.34723
#
# Velocity S-wave (km/s) = 2.89337 3.70725 3.32531
# Velocity P-wave (km/s) = 5.45712 6.19973 5.84024
#
# Compressibility (1/GPa) = 0.02254208
#
# Stress axis : x y z
#
# Youngs Moduli (GPa) = 60.95483 23.05830 59.30327
#
# Poissons Ratio (x) = 0.32031 -0.28832
# Poissons Ratio (y) = 0.84673 1.06852
# Poissons Ratio (z) = -0.29635 0.41546
#
# Static dielectric constant tensor:
#      x y z
#    x 3.960930 -0.099760 0.040720 
#    y -0.099760 4.023660 -0.281140 
#    z 0.040720 -0.281140 4.046150 
# 
# 
# High freq. dielectric constant tensor:
#      x y z
#    x 1.933760 0.003200 0.007590 
#    y 0.003200 1.966950 -0.002970 
#    z 0.007590 -0.002970 1.943430 
# 
# From -- ./inp_files/547754.got.cif
#   From: 2010.06.25/outbox.cif.g09.slc.cpg/sg2_274_cif.got.tgz:547754.got - 2010.06.27 13:26:56.
