data_PCOD8020880
_publ_section_title
;
Structure prediction by ZEFSAII (Michael W. Deem and Ramdas Pophale) SiO2 
 PCOD8020880
Probable space group: P -1
;
_chemical_formula_sum "Si O2"
_cell_formula_units_Z 14
_cell_length_a 10.130466
_cell_length_b 16.336161
_cell_length_c 13.139903
_cell_angle_alpha 23.471094
_cell_angle_beta 134.460269
_cell_angle_gamma 145.141689
_cell_volume 481.795916
_symmetry_space_group_name_H-M "P -1"
_symmetry_group_IT_number 2
_symmetry_cell_setting 'triclinic'
loop_
_space_group_symop_operation_xyz
x,y,z
-x,-y,-z
loop_
_atom_site_type_symbol
_atom_site_label
_atom_site_fract_x
_atom_site_fract_y
_atom_site_fract_z
Si Si1 0.291967 0.072739 0.380162
Si Si2 0.851250 0.708174 0.291277
Si Si3 0.878944 0.341687 0.845055
Si Si4 0.840634 0.822608 0.524079
Si Si5 0.399592 0.118501 0.939463
Si Si6 0.553707 0.245996 0.523347
Si Si7 0.309990 0.606120 0.919810
O O1 0.434546 0.258591 0.343782
O O2 0.429336 0.255140 0.148112
O O3 0.299143 0.837021 0.670260
O O4 0.008661 0.926521 0.395978
O O5 0.985591 0.617474 0.528340
O O6 0.766298 0.543567 0.328378
O O7 0.650169 0.679710 0.285585
O O8 0.000000 0.000000 0.000000
O O9 0.094166 0.392735 0.969218
O O10 0.782791 0.096360 0.998625
O O11 0.671500 0.301749 0.843643
O O12 0.635232 0.854503 0.366889
O O13 0.714125 0.521234 0.837870
O O14 0.000000 0.000000 0.500000
O O15 0.374044 0.943487 0.222869
#
# Coordination Sequence:
#
# PCOD8020880 Si02
#       7
#     2   2   2   2   2   2   2
#     4  10  24  42  67 100 135 177 227 272 333 400
#     4  11  26  41  69 101 126 176 223 272 341 398
#     4  10  23  44  66 100 132 174 220 277 332 397
#     4  10  22  43  65 101 134 178 222 271 336 397
#     4  10  23  45  70  94 132 174 223 278 332 396
#     4  10  24  42  71  95 133 176 224 274 336 395
#     4  11  24  41  70 102 137 180 220 276 339 397
#
# _framework density 29.057946000000001
#
# number of rings (size 3 to 8) (size 9 to 14) (size 15 to 20)
#    0.000    1.714    0.000    2.571    8.000    4.571 
#    5.143    0.000    0.000    0.000    0.000    0.000 
#    0.000    0.000    0.000    0.000    0.000    0.000 
#
# Total GULP energy -173435.598965 kJ/mol
# GULP energy per Si atom -12388.257069 kJ/mol
# Density = 2.899181 g / cm^3
# Si number density = 29.057946 Si / 1000 Ang^3
#
#
#
# Elastic Constant Matrix: (Units=GPa)
#
#
# Indices 1 2 3 4 5 6 
#
# 1 74.1359 -19.3637 13.6452 -4.7167 -20.8886 16.2431
# 2 -19.3637 46.2099 21.3018 9.3143 -19.9407 1.1869
# 3 13.6452 21.3018 123.0803 6.1844 3.9710 -2.1022
# 4 -4.7167 9.3143 6.1844 45.3100 2.4635 -0.7768
# 5 -20.8886 -19.9407 3.9710 2.4635 39.7750 -10.8464
# 6 16.2431 1.1869 -2.1022 -0.7768 -10.8464 23.5849
#
#
#
# Elastic Compliance Matrix: (Units=1/GPa)
#
#
# Indices 1 2 3 4 5 6 
#
# 1 0.040767 0.041936 -0.013053 -0.005020 0.040537 -0.012874
# 2 0.041936 0.077598 -0.019564 -0.012392 0.061879 -0.006481
# 3 -0.013053 -0.019564 0.013479 0.001816 -0.017216 0.003318
# 4 -0.005020 -0.012392 0.001816 0.024421 -0.010481 0.000227
# 5 0.040537 0.061879 -0.017216 -0.010481 0.081004 0.004341
# 6 -0.012874 -0.006481 0.003318 0.000227 0.004341 0.053892
#
#
# Mechanical properties :
#
#
# Convention : Reuss Voigt Hill
#
# Bulk Modulus (GPa) = 6.64533 30.51032 18.57783
# Shear Modulus (GPa) = 15.49504 36.92350 26.20927
#
# Velocity S-wave (km/s) = 2.31172 3.56853 3.00653
# Velocity P-wave (km/s) = 3.06876 5.24422 4.29646
#
# Compressibility (1/GPa) = 0.15048152
#
# Stress axis : x y z
#
# Youngs Moduli (GPa) = 24.52939 12.88693 74.19093
#
# Poissons Ratio (x) = -0.54042 0.96842
# Poissons Ratio (y) = -1.02865 1.45145
# Poissons Ratio (z) = 0.32018 0.25212
#
# Static dielectric constant tensor:
#      x y z
#    x 6.400110 0.768200 0.087920 
#    y 0.768200 5.774570 -0.131260 
#    z 0.087920 -0.131260 5.731170 
# 
# 
# High freq. dielectric constant tensor:
#      x y z
#    x 2.174810 0.010600 0.008230 
#    y 0.010600 2.165300 -0.006150 
#    z 0.008230 -0.006150 2.210290 
# 
# From -- ./inp_files/570690.got.cif
#   From: 2010.06.25/outbox.cif.g09.slc.cpg/sg2_286_cif.got.tgz:570690.got - 2010.06.27 13:26:56.
