data_PCOD8020115
_publ_section_title
;
Structure prediction by ZEFSAII (Michael W. Deem and Ramdas Pophale) SiO2 
 PCOD8020115
Probable space group: P -1
;
_chemical_formula_sum "Si O2"
_cell_formula_units_Z 8
_cell_length_a 9.258136
_cell_length_b 13.095542
_cell_length_c 6.930318
_cell_angle_alpha 47.419632
_cell_angle_beta 125.671781
_cell_angle_gamma 146.804875
_cell_volume 338.428042
_symmetry_space_group_name_H-M "P -1"
_symmetry_group_IT_number 2
_symmetry_cell_setting 'triclinic'
loop_
_space_group_symop_operation_xyz
x,y,z
-x,-y,-z
loop_
_atom_site_type_symbol
_atom_site_label
_atom_site_fract_x
_atom_site_fract_y
_atom_site_fract_z
Si Si1 0.483165 0.905127 0.805884
Si Si2 0.848092 0.280944 0.872708
Si Si3 0.355389 0.568279 0.664516
Si Si4 0.283858 0.222986 0.991007
O O1 0.504540 0.753371 0.980337
O O2 0.500000 0.000000 0.500000
O O3 0.728276 0.088875 0.896605
O O4 0.207158 0.777711 0.867035
O O5 0.688392 0.330867 0.642026
O O6 0.153945 0.467162 0.819922
O O7 0.646887 0.741623 0.768754
O O8 0.313096 0.401199 0.724980
O O9 0.000000 0.000000 0.000000
#
# Coordination Sequence:
#
# PCOD8020115 Si02
#       4
#     2   2   2   2
#     4  11  22  42  66  93 128 171 208 258 320 372
#     4  10  22  42  67  94 126 164 216 262 307 379
#     4  10  22  42  65  96 127 162 215 262 309 379
#     4  11  22  40  65  93 133 165 206 261 319 375
#
# _framework density 23.638705000000002
#
# number of rings (size 3 to 8) (size 9 to 14) (size 15 to 20)
#    0.000    1.500    5.000    0.000    0.000    2.000 
#    0.000    7.500    0.000    0.000    0.000    0.000 
#    0.000    0.000    0.000    0.000    0.000    0.000 
#
# Total GULP energy -99130.070177 kJ/mol
# GULP energy per Si atom -12391.258772 kJ/mol
# Density = 2.358490 g / cm^3
# Si number density = 23.638705 Si / 1000 Ang^3
#
#
#
# Elastic Constant Matrix: (Units=GPa)
#
#
# Indices 1 2 3 4 5 6 
#
# 1 90.9426 31.7469 42.1381 -3.7809 4.2998 -32.9437
# 2 31.7469 139.3699 18.1417 4.5041 7.7080 -20.4574
# 3 42.1381 18.1417 98.5685 -3.3125 -15.9650 -8.4029
# 4 -3.7809 4.5041 -3.3125 24.1235 -4.6664 7.8112
# 5 4.2998 7.7080 -15.9650 -4.6664 51.6861 -15.9407
# 6 -32.9437 -20.4574 -8.4029 7.8112 -15.9407 48.3345
#
#
#
# Elastic Compliance Matrix: (Units=1/GPa)
#
#
# Indices 1 2 3 4 5 6 
#
# 1 0.018674 -0.001709 -0.006795 -0.001269 -0.000123 0.010988
# 2 -0.001709 0.008148 -0.000806 -0.002816 -0.000862 0.002314
# 3 -0.006795 -0.000806 0.013938 0.002363 0.004787 -0.001352
# 4 -0.001269 -0.002816 0.002363 0.045255 0.002870 -0.008013
# 5 -0.000123 -0.000862 0.004787 0.002870 0.023600 0.007703
# 6 0.010988 0.002314 -0.001352 -0.008013 0.007703 0.032758
#
#
# Mechanical properties :
#
#
# Convention : Reuss Voigt Hill
#
# Bulk Modulus (GPa) = 45.16558 56.99271 51.07914
# Shear Modulus (GPa) = 29.69637 40.61910 35.15774
#
# Velocity S-wave (km/s) = 3.54822 4.14977 3.86073
# Velocity P-wave (km/s) = 5.99455 6.86462 6.44429
#
# Compressibility (1/GPa) = 0.02214075
#
# Stress axis : x y z
#
# Youngs Moduli (GPa) = 53.55029 122.73364 71.74755
#
# Poissons Ratio (x) = 0.20970 0.48750
# Poissons Ratio (y) = 0.09150 0.05784
# Poissons Ratio (z) = 0.36385 0.09894
#
# Static dielectric constant tensor:
#      x y z
#    x 4.572220 -0.288920 0.181440 
#    y -0.288920 4.416320 -0.078490 
#    z 0.181440 -0.078490 3.939590 
# 
# 
# High freq. dielectric constant tensor:
#      x y z
#    x 1.939370 -0.024690 0.014520 
#    y -0.024690 1.949600 -0.000400 
#    z 0.014520 -0.000400 1.901960 
# 
# From -- ./inp_files/15347.got.cif
#   From: 2010.06.25/outbox.cif.g09.slc.cpg/sg2_8_cif.got.tgz:15347.got - 2010.06.27 13:26:56.
