data_PCOD8020784
_publ_section_title
;
Structure prediction by ZEFSAII (Michael W. Deem and Ramdas Pophale) SiO2 
 PCOD8020784
Probable space group: P -1
;
_chemical_formula_sum "Si O2"
_cell_formula_units_Z 16
_cell_length_a 8.135673
_cell_length_b 23.065878
_cell_length_c 6.394611
_cell_angle_alpha 79.133151
_cell_angle_beta 59.009015
_cell_angle_gamma 43.355819
_cell_volume 670.080605
_symmetry_space_group_name_H-M "P -1"
_symmetry_group_IT_number 2
_symmetry_cell_setting 'triclinic'
loop_
_space_group_symop_operation_xyz
x,y,z
-x,-y,-z
loop_
_atom_site_type_symbol
_atom_site_label
_atom_site_fract_x
_atom_site_fract_y
_atom_site_fract_z
Si Si1 0.355766 0.946903 0.884708
Si Si2 0.352130 0.680707 0.793031
Si Si3 0.020789 0.181072 0.414248
Si Si4 0.806321 0.648930 0.777242
Si Si5 0.135119 0.674349 0.326549
Si Si6 0.370824 0.464984 0.622380
Si Si7 0.821214 0.069005 0.382810
Si Si8 0.402244 0.816069 0.190208
O O1 0.339146 0.943032 0.645875
O O2 0.645837 0.914707 0.783160
O O3 0.351867 0.881372 0.023191
O O4 0.066741 0.046195 0.095433
O O5 0.148177 0.768348 0.724555
O O6 0.539029 0.680670 0.815481
O O7 0.559367 0.590513 0.587512
O O8 0.145690 0.686277 0.065521
O O9 0.048491 0.234478 0.492647
O O10 0.870146 0.165435 0.660804
O O11 0.985372 0.646114 0.491472
O O12 0.022214 0.550753 0.806933
O O13 0.692830 0.714887 0.000487
O O14 0.471772 0.600435 0.235845
O O15 0.500000 0.500000 0.500000
O O16 0.585023 0.166428 0.583130
O O17 0.000000 0.000000 0.500000
#
# Coordination Sequence:
#
# PCOD8020784 Si02
#       8
#     2   2   2   2   2   2   2   2
#     4  10  22  46  68  93 131 167 211 259 317 381
#     4  11  24  42  63  94 129 172 219 265 318 377
#     4  11  24  40  63  99 129 165 217 263 311 381
#     4  11  22  42  64  94 130 170 214 271 321 378
#     4  10  22  43  62  90 129 171 218 270 317 375
#     4   9  22  43  61  92 128 169 226 266 319 378
#     4   9  22  44  70  96 126 168 208 258 320 382
#     4  11  23  41  65  99 131 165 212 261 321 384
#
# _framework density 23.877723
#
# number of rings (size 3 to 8) (size 9 to 14) (size 15 to 20)
#    0.000    1.750    2.500    0.375    1.750    6.000 
#    2.250    5.625    0.000    0.000    0.000    0.000 
#    0.000    0.000    0.000    0.000    0.000    0.000 
#
# Total GULP energy -198290.406952 kJ/mol
# GULP energy per Si atom -12393.150434 kJ/mol
# Density = 2.382338 g / cm^3
# Si number density = 23.877723 Si / 1000 Ang^3
#
#
#
# Elastic Constant Matrix: (Units=GPa)
#
#
# Indices 1 2 3 4 5 6 
#
# 1 69.7956 13.3574 35.7872 4.8493 2.9902 -10.9692
# 2 13.3574 42.0303 46.4279 10.7299 5.4653 -11.9354
# 3 35.7872 46.4279 121.4496 11.9038 6.1772 -10.0284
# 4 4.8493 10.7299 11.9038 39.8025 6.3466 -6.5334
# 5 2.9902 5.4653 6.1772 6.3466 49.3533 4.7825
# 6 -10.9692 -11.9354 -10.0284 -6.5334 4.7825 33.5300
#
#
#
# Elastic Compliance Matrix: (Units=1/GPa)
#
#
# Indices 1 2 3 4 5 6 
#
# 1 0.017585 0.002050 -0.005493 -0.000062 -0.001080 0.004982
# 2 0.002050 0.046987 -0.016879 -0.005340 -0.003675 0.011831
# 3 -0.005493 -0.016879 0.016038 -0.000171 0.000519 -0.003116
# 4 -0.000062 -0.005340 -0.000171 0.027798 -0.003338 0.003920
# 5 -0.001080 -0.003675 0.000519 -0.003338 0.021606 -0.005238
# 6 0.004982 0.011831 -0.003116 0.003920 -0.005238 0.036244
#
#
# Mechanical properties :
#
#
# Convention : Reuss Voigt Hill
#
# Bulk Modulus (GPa) = 25.02106 47.15782 36.08944
# Shear Modulus (GPa) = 22.70403 33.71736 28.21069
#
# Velocity S-wave (km/s) = 3.08692 3.76185 3.44097
# Velocity P-wave (km/s) = 4.81737 6.21782 5.56185
#
# Compressibility (1/GPa) = 0.03996633
#
# Stress axis : x y z
#
# Youngs Moduli (GPa) = 56.86574 21.28258 62.35128
#
# Poissons Ratio (x) = -0.04363 0.34251
# Poissons Ratio (y) = -0.11659 1.05243
# Poissons Ratio (z) = 0.31237 0.35923
#
# Static dielectric constant tensor:
#      x y z
#    x 4.156790 0.006910 0.201630 
#    y 0.006910 4.722410 0.461310 
#    z 0.201630 0.461310 4.767980 
# 
# 
# High freq. dielectric constant tensor:
#      x y z
#    x 1.936180 -0.006420 0.001330 
#    y -0.006420 1.942070 0.010710 
#    z 0.001330 0.010710 1.949990 
# 
# From -- ./inp_files/56390.got.cif
#   From: 2010.06.25/outbox.cif.g09.slc.cpg/sg2_29_cif.got.tgz:56390.got - 2010.06.27 13:26:56.
