data_PCOD8020091
_publ_section_title
;
Structure prediction by ZEFSAII (Michael W. Deem and Ramdas Pophale) SiO2 
 PCOD8020091
Probable space group: P -1
;
_chemical_formula_sum "Si O2"
_cell_formula_units_Z 14
_cell_length_a 11.377622
_cell_length_b 14.372756
_cell_length_c 9.861029
_cell_angle_alpha 75.245345
_cell_angle_beta 140.672382
_cell_angle_gamma 131.607448
_cell_volume 639.932354
_symmetry_space_group_name_H-M "P -1"
_symmetry_group_IT_number 2
_symmetry_cell_setting 'triclinic'
loop_
_space_group_symop_operation_xyz
x,y,z
-x,-y,-z
loop_
_atom_site_type_symbol
_atom_site_label
_atom_site_fract_x
_atom_site_fract_y
_atom_site_fract_z
Si Si1 0.231908 0.464357 0.488696
Si Si2 0.466857 0.090590 0.279762
Si Si3 0.400059 0.278791 0.099937
Si Si4 0.357499 0.316404 0.746555
Si Si5 0.225270 0.507199 0.169004
Si Si6 0.234032 0.851138 0.741461
Si Si7 0.068835 0.780842 0.147260
O O1 0.306419 0.586608 0.601483
O O2 0.414158 0.453711 0.733486
O O3 0.352794 0.524651 0.421740
O O4 0.897221 0.298082 0.249051
O O5 0.323357 0.137600 0.109764
O O6 0.680157 0.145238 0.331747
O O7 0.665871 0.166754 0.561828
O O8 0.201435 0.912309 0.115245
O O9 0.470223 0.320816 0.987881
O O10 0.141284 0.245582 0.927599
O O11 0.535810 0.345337 0.766887
O O12 0.013648 0.163851 0.480058
O O13 0.000000 0.500000 0.000000
O O14 0.089498 0.361861 0.028324
O O15 0.500000 0.000000 0.000000
#
# Coordination Sequence:
#
# PCOD8020091 Si02
#       7
#     2   2   2   2   2   2   2
#     4  10  23  41  68  96 137 177 223 286 349 386
#     4  11  25  40  69 101 133 189 229 276 348 419
#     4  12  23  44  72 105 133 181 237 284 346 412
#     4  10  24  41  70  99 140 179 222 292 349 396
#     4  12  25  42  70 105 135 184 233 285 350 414
#     4  10  22  42  65  93 137 186 221 277 350 399
#     4  11  23  46  66  96 148 173 230 292 339 408
#
# _framework density 21.877313000000001
#
# number of rings (size 3 to 8) (size 9 to 14) (size 15 to 20)
#    0.857    0.286    2.857    3.000    4.000    0.571 
#    0.000    3.571    0.000    0.000    0.000    0.000 
#    0.000    0.000    0.000    0.000    0.000    0.000 
#
# Total GULP energy -173465.326816 kJ/mol
# GULP energy per Si atom -12390.380487 kJ/mol
# Density = 2.182752 g / cm^3
# Si number density = 21.877313 Si / 1000 Ang^3
#
#
#
# Elastic Constant Matrix: (Units=GPa)
#
#
# Indices 1 2 3 4 5 6 
#
# 1 115.4437 58.6135 43.6888 -1.9663 -2.4459 23.9275
# 2 58.6135 103.1167 54.8782 -5.7425 -3.0424 5.7005
# 3 43.6888 54.8782 100.2081 2.7195 -16.7318 -0.6071
# 4 -1.9663 -5.7425 2.7195 45.0449 6.1755 1.6484
# 5 -2.4459 -3.0424 -16.7318 6.1755 34.7476 -5.7407
# 6 23.9275 5.7005 -0.6071 1.6484 -5.7407 33.7958
#
#
#
# Elastic Compliance Matrix: (Units=1/GPa)
#
#
# Indices 1 2 3 4 5 6 
#
# 1 0.015409 -0.006068 -0.004039 0.000984 -0.003312 -0.010569
# 2 -0.006068 0.017008 -0.007200 0.002692 -0.002768 0.000696
# 3 -0.004039 -0.007200 0.017335 -0.003609 0.009082 0.006104
# 4 0.000984 0.002692 -0.003609 0.023784 -0.006227 -0.003433
# 5 -0.003312 -0.002768 0.009082 -0.006227 0.035316 0.009278
# 6 -0.010569 0.000696 0.006104 -0.003433 0.009278 0.038808
#
#
# Mechanical properties :
#
#
# Convention : Reuss Voigt Hill
#
# Bulk Modulus (GPa) = 66.05786 70.34773 68.20280
# Shear Modulus (GPa) = 26.69246 33.49018 30.09132
#
# Velocity S-wave (km/s) = 3.49678 3.91681 3.71274
# Velocity P-wave (km/s) = 6.82375 7.25814 7.04429
#
# Compressibility (1/GPa) = 0.01513824
#
# Stress axis : x y z
#
# Youngs Moduli (GPa) = 64.89890 58.79415 57.68836
#
# Poissons Ratio (x) = 0.35675 0.23298
# Poissons Ratio (y) = 0.39380 0.41537
# Poissons Ratio (z) = 0.26210 0.42333
#
# Static dielectric constant tensor:
#      x y z
#    x 4.939420 0.691050 -0.199980 
#    y 0.691050 4.185040 -0.172970 
#    z -0.199980 -0.172970 3.905420 
# 
# 
# High freq. dielectric constant tensor:
#      x y z
#    x 1.863560 0.017500 -0.001380 
#    y 0.017500 1.857160 -0.003540 
#    z -0.001380 -0.003540 1.853830 
# 
# From -- ./inp_files/272741.got.cif
#   From: 2010.06.25/outbox.cif.g09.slc.cpg/sg2_137_cif.got.tgz:272741.got - 2010.06.27 13:26:56.
