data_PCOD8020686
_publ_section_title
;
Structure prediction by ZEFSAII (Michael W. Deem and Ramdas Pophale) SiO2 
 PCOD8020686
Probable space group: P -1
;
_chemical_formula_sum "Si O2"
_cell_formula_units_Z 16
_cell_length_a 23.187118
_cell_length_b 5.625686
_cell_length_c 4.982561
_cell_angle_alpha 86.505043
_cell_angle_beta 94.535865
_cell_angle_gamma 100.221193
_cell_volume 636.894673
_symmetry_space_group_name_H-M "P -1"
_symmetry_group_IT_number 2
_symmetry_cell_setting 'triclinic'
loop_
_space_group_symop_operation_xyz
x,y,z
-x,-y,-z
loop_
_atom_site_type_symbol
_atom_site_label
_atom_site_fract_x
_atom_site_fract_y
_atom_site_fract_z
Si Si1 0.430919 0.425642 0.988388
Si Si2 0.180182 0.569500 0.243814
Si Si3 0.346771 0.747163 0.866748
Si Si4 0.374355 0.174372 0.473296
Si Si5 0.766086 0.606142 0.236885
Si Si6 0.067166 0.544729 0.932420
Si Si7 0.265493 0.012400 0.169212
Si Si8 0.041930 0.033968 0.761595
O O1 0.399577 0.649353 0.048489
O O2 0.405032 0.367170 0.685757
O O3 0.500000 0.500000 0.000000
O O4 0.412669 0.208864 0.210045
O O5 0.198309 0.369845 0.467970
O O6 0.215739 0.832525 0.329212
O O7 0.199608 0.540976 0.946287
O O8 0.109774 0.555169 0.208585
O O9 0.300403 0.527943 0.738708
O O10 0.374053 0.911324 0.617189
O O11 0.315642 0.882630 0.070307
O O12 0.305030 0.198016 0.381291
O O13 0.766152 0.866783 0.088087
O O14 0.078489 0.312589 0.768861
O O15 0.080799 0.814901 0.781639
O O16 0.000000 0.500000 0.000000
O O17 0.000000 0.000000 0.500000
O O18 0.000000 0.000000 0.000000
#
# Coordination Sequence:
#
# PCOD8020686 Si02
#       8
#     2   2   2   2   2   2   2   2
#     4  12  29  46  68 105 144 185 235 291 354 433
#     4  11  27  43  70 109 142 184 239 303 361 439
#     4  11  24  44  73  97 137 185 233 285 366 416
#     4  12  24  45  72  97 136 185 233 289 354 423
#     4  11  25  43  70 101 144 178 240 299 365 423
#     4  10  24  48  72 108 150 199 242 304 377 454
#     4  11  25  45  73 104 135 187 240 299 362 428
#     4  10  22  42  71  98 135 190 243 288 349 438
#
# _framework density 25.12189
#
# number of rings (size 3 to 8) (size 9 to 14) (size 15 to 20)
#    0.000    1.000    3.750    0.750    7.000    5.000 
#    0.000    0.000    0.000    0.000    0.000    0.000 
#    0.000    0.000    0.000    0.000    0.000    0.000 
#
# Total GULP energy -198288.593594 kJ/mol
# GULP energy per Si atom -12393.037100 kJ/mol
# Density = 2.506471 g / cm^3
# Si number density = 25.121890 Si / 1000 Ang^3
#
#
#
# Elastic Constant Matrix: (Units=GPa)
#
#
# Indices 1 2 3 4 5 6 
#
# 1 135.5520 32.7158 41.8354 -4.8555 38.2494 13.8242
# 2 32.7158 136.2451 31.3873 -9.3293 21.2342 -10.6248
# 3 41.8354 31.3873 132.3416 -6.9372 33.9868 10.1265
# 4 -4.8555 -9.3293 -6.9372 37.7927 5.8802 13.2747
# 5 38.2494 21.2342 33.9868 5.8802 44.0642 -6.9265
# 6 13.8242 -10.6248 10.1265 13.2747 -6.9265 34.6544
#
#
#
# Elastic Compliance Matrix: (Units=1/GPa)
#
#
# Indices 1 2 3 4 5 6 
#
# 1 0.012916 -0.001543 0.001319 0.007960 -0.014425 -0.011943
# 2 -0.001543 0.008529 -0.001391 0.000776 -0.001317 0.003077
# 3 0.001319 -0.001391 0.011613 0.007122 -0.011866 -0.009446
# 4 0.007960 0.000776 0.007122 0.041334 -0.022270 -0.025303
# 5 -0.014425 -0.001317 -0.011866 -0.022270 0.052346 0.027811
# 6 -0.011943 0.003077 -0.009446 -0.025303 0.027811 0.052576
#
#
# Mechanical properties :
#
#
# Convention : Reuss Voigt Hill
#
# Bulk Modulus (GPa) = 33.52846 68.44619 50.98733
# Shear Modulus (GPa) = 25.97558 43.18228 34.57893
#
# Velocity S-wave (km/s) = 3.21905 4.15047 3.71407
# Velocity P-wave (km/s) = 5.21456 7.09037 6.22354
#
# Compressibility (1/GPa) = 0.02982540
#
# Stress axis : x y z
#
# Youngs Moduli (GPa) = 77.42198 117.24371 86.11157
#
# Poissons Ratio (x) = 0.18096 -0.11354
# Poissons Ratio (y) = 0.11950 0.11982
# Poissons Ratio (z) = -0.10208 0.16314
#
# Static dielectric constant tensor:
#      x y z
#    x 4.417590 -0.078740 0.213650 
#    y -0.078740 6.185730 -0.082490 
#    z 0.213650 -0.082490 4.714360 
# 
# 
# High freq. dielectric constant tensor:
#      x y z
#    x 1.983980 0.004000 0.015010 
#    y 0.004000 2.007780 -0.005800 
#    z 0.015010 -0.005800 2.004490 
# 
# From -- ./inp_files/121169.got.cif
#   From: 2010.06.25/outbox.cif.g09.slc.cpg/sg2_61_cif.got.tgz:121169.got - 2010.06.27 13:26:56.
