data_PCOD8020219
_publ_section_title
;
Structure prediction by ZEFSAII (Michael W. Deem and Ramdas Pophale) SiO2 
 PCOD8020219
Probable space group: P -1
;
_chemical_formula_sum "Si O2"
_cell_formula_units_Z 12
_cell_length_a 5.907595
_cell_length_b 4.776388
_cell_length_c 22.237805
_cell_angle_alpha 85.220963
_cell_angle_beta 51.762855
_cell_angle_gamma 90.678565
_cell_volume 489.532820
_symmetry_space_group_name_H-M "P -1"
_symmetry_group_IT_number 2
_symmetry_cell_setting 'triclinic'
loop_
_space_group_symop_operation_xyz
x,y,z
-x,-y,-z
loop_
_atom_site_type_symbol
_atom_site_label
_atom_site_fract_x
_atom_site_fract_y
_atom_site_fract_z
Si Si1 0.825942 0.123405 0.441064
Si Si2 0.476791 0.108096 0.905995
Si Si3 0.011897 0.278219 0.055782
Si Si4 0.265054 0.730652 0.417666
Si Si5 0.667945 0.267982 0.342126
Si Si6 0.867269 0.634203 0.837665
O O1 0.878246 0.311502 0.490454
O O2 0.853391 0.318189 0.372996
O O3 0.500000 0.000000 0.500000
O O4 0.035286 0.866878 0.409233
O O5 0.601281 0.424336 0.860901
O O6 0.257217 0.960458 0.895496
O O7 0.761224 0.939571 0.864267
O O8 0.307149 0.123619 0.997355
O O9 0.019584 0.454336 0.113581
O O10 0.000000 0.500000 0.000000
O O11 0.378829 0.437771 0.381331
O O12 0.557482 0.939811 0.366239
O O13 0.871921 0.348890 0.251704
#
# Coordination Sequence:
#
# PCOD8020219 Si02
#       6
#     2   2   2   2   2   2
#     4   9  21  41  70  96 128 175 224 269 331 401
#     4  11  25  44  69  96 130 178 227 276 338 402
#     4  11  25  44  69 100 128 175 233 279 333 404
#     4  10  22  42  66  96 133 173 221 277 327 402
#     4  11  24  43  62  99 135 175 220 276 342 399
#     4  12  26  43  67  97 139 175 222 281 340 402
#
# _framework density 24.513169999999999
#
# number of rings (size 3 to 8) (size 9 to 14) (size 15 to 20)
#    0.000    1.333    1.667    2.500    4.667   10.000 
#    3.000    0.000    0.000    0.000    0.000    0.000 
#    0.000    0.000    0.000    0.000    0.000    0.000 
#
# Total GULP energy -148757.197414 kJ/mol
# GULP energy per Si atom -12396.433118 kJ/mol
# Density = 2.445738 g / cm^3
# Si number density = 24.513170 Si / 1000 Ang^3
#
#
#
# Elastic Constant Matrix: (Units=GPa)
#
#
# Indices 1 2 3 4 5 6 
#
# 1 107.8111 23.1386 68.5230 7.6824 4.2475 -18.6819
# 2 23.1386 86.4347 42.9506 11.3060 4.9329 -5.6241
# 3 68.5230 42.9506 184.2543 5.7116 -1.6745 -10.1601
# 4 7.6824 11.3060 5.7116 31.1913 -0.2963 -10.3786
# 5 4.2475 4.9329 -1.6745 -0.2963 29.1363 -2.4079
# 6 -18.6819 -5.6241 -10.1601 -10.3786 -2.4079 43.0585
#
#
#
# Elastic Compliance Matrix: (Units=1/GPa)
#
#
# Indices 1 2 3 4 5 6 
#
# 1 0.013141 -0.000840 -0.004449 -0.000711 -0.001683 0.004277
# 2 -0.000840 0.013903 -0.002836 -0.004482 -0.002476 -0.000436
# 3 -0.004449 -0.002836 0.007724 0.000646 0.001560 -0.000235
# 4 -0.000711 -0.004482 0.000646 0.036475 0.001945 0.008159
# 5 -0.001683 -0.002476 0.001560 0.001945 0.035240 0.001754
# 6 0.004277 -0.000436 -0.000235 0.008159 0.001754 0.027032
#
#
# Mechanical properties :
#
#
# Convention : Reuss Voigt Hill
#
# Bulk Modulus (GPa) = 54.00027 71.96940 62.98484
# Shear Modulus (GPa) = 32.06402 36.93641 34.50021
#
# Velocity S-wave (km/s) = 3.62060 3.88596 3.75562
# Velocity P-wave (km/s) = 6.28929 7.03971 6.67505
#
# Compressibility (1/GPa) = 0.01851843
#
# Stress axis : x y z
#
# Youngs Moduli (GPa) = 76.09525 71.92839 129.46556
#
# Poissons Ratio (x) = 0.06042 0.57597
# Poissons Ratio (y) = 0.06392 0.36717
# Poissons Ratio (z) = 0.33854 0.20399
#
# Static dielectric constant tensor:
#      x y z
#    x 4.938670 0.136340 0.186190 
#    y 0.136340 4.471220 0.176000 
#    z 0.186190 0.176000 4.419600 
# 
# 
# High freq. dielectric constant tensor:
#      x y z
#    x 1.979840 0.004660 -0.021210 
#    y 0.004660 1.982670 0.003440 
#    z -0.021210 0.003440 1.956380 
# 
# From -- ./inp_files/8553.got.cif
#   From: 2010.06.25/outbox.cif.g09.slc.cpg/sg2_5_cif.got.tgz:8553.got - 2010.06.27 13:26:56.
