data_PCOD8020734
_publ_section_title
;
Structure prediction by ZEFSAII (Michael W. Deem and Ramdas Pophale) SiO2 
 PCOD8020734
Probable space group: P -1
;
_chemical_formula_sum "Si O2"
_cell_formula_units_Z 12
_cell_length_a 11.863837
_cell_length_b 9.312576
_cell_length_c 8.934797
_cell_angle_alpha 88.776426
_cell_angle_beta 142.078514
_cell_angle_gamma 109.033419
_cell_volume 524.103577
_symmetry_space_group_name_H-M "P -1"
_symmetry_group_IT_number 2
_symmetry_cell_setting 'triclinic'
loop_
_space_group_symop_operation_xyz
x,y,z
-x,-y,-z
loop_
_atom_site_type_symbol
_atom_site_label
_atom_site_fract_x
_atom_site_fract_y
_atom_site_fract_z
Si Si1 0.222095 0.665653 0.192819
Si Si2 0.765301 0.591717 0.954888
Si Si3 0.912057 0.072054 0.283596
Si Si4 0.123724 0.678325 0.554286
Si Si5 0.510721 0.743266 0.775286
Si Si6 0.964911 0.831385 0.896476
O O1 0.308425 0.603436 0.143723
O O2 0.394875 0.728107 0.500199
O O3 0.000000 0.500000 0.000000
O O4 0.178521 0.815850 0.111148
O O5 0.589227 0.607785 0.865803
O O6 0.787983 0.679983 0.813750
O O7 0.993448 0.689333 0.275497
O O8 0.841209 0.189658 0.285739
O O9 0.091276 0.170767 0.339472
O O10 0.000000 0.000000 0.500000
O O11 0.711591 0.926015 0.991985
O O12 0.353322 0.709880 0.747966
O O13 0.000000 0.500000 0.500000
O O14 0.000000 0.000000 0.000000
#
# Coordination Sequence:
#
# PCOD8020734 Si02
#       6
#     2   2   2   2   2   2
#     4  10  22  42  73 104 141 180 239 305 340 414
#     4  11  23  48  72 105 143 183 246 299 345 427
#     4  12  26  47  72 106 150 189 233 297 360 435
#     4  12  26  48  73 103 150 190 238 298 358 433
#     4  12  24  46  78 103 143 196 240 291 370 418
#     4  11  21  44  74 101 142 186 232 301 350 411
#
# _framework density 22.896238
#
# number of rings (size 3 to 8) (size 9 to 14) (size 15 to 20)
#    0.000    0.667    6.667    2.000    2.333    1.333 
#    0.000    0.000    0.000    0.000    0.000    0.000 
#    0.000    0.000    0.000    0.000    0.000    0.000 
#
# Total GULP energy -148730.765569 kJ/mol
# GULP energy per Si atom -12394.230464 kJ/mol
# Density = 2.284413 g / cm^3
# Si number density = 22.896238 Si / 1000 Ang^3
#
#
#
# Elastic Constant Matrix: (Units=GPa)
#
#
# Indices 1 2 3 4 5 6 
#
# 1 168.6973 64.9538 30.2521 -7.1252 -8.8355 -38.5590
# 2 64.9538 128.1431 32.7680 -7.6612 -3.3333 -41.2519
# 3 30.2521 32.7680 115.2336 1.6853 -12.0591 -10.1102
# 4 -7.1252 -7.6612 1.6853 30.6070 -9.0131 -7.7515
# 5 -8.8355 -3.3333 -12.0591 -9.0131 35.7755 2.2149
# 6 -38.5590 -41.2519 -10.1102 -7.7515 2.2149 65.3701
#
#
#
# Elastic Compliance Matrix: (Units=1/GPa)
#
#
# Indices 1 2 3 4 5 6 
#
# 1 0.008039 -0.002596 -0.000931 0.002644 0.001897 0.003209
# 2 -0.002596 0.011911 -0.002187 0.004168 0.000402 0.006127
# 3 -0.000931 -0.002187 0.009789 -0.000644 0.002740 -0.000584
# 4 0.002644 0.004168 -0.000644 0.039522 0.010259 0.008429
# 5 0.001897 0.000402 0.002740 0.010259 0.031847 0.001934
# 6 0.003209 0.006127 -0.000584 0.008429 0.001934 0.021900
#
#
# Mechanical properties :
#
#
# Convention : Reuss Voigt Hill
#
# Bulk Modulus (GPa) = 54.61081 74.22464 64.41773
# Shear Modulus (GPa) = 35.57703 45.29052 40.43377
#
# Velocity S-wave (km/s) = 3.94615 4.45238 4.20689
# Velocity P-wave (km/s) = 6.68326 7.67593 7.19673
#
# Compressibility (1/GPa) = 0.01831139
#
# Stress axis : x y z
#
# Youngs Moduli (GPa) = 124.39660 83.95447 102.15452
#
# Poissons Ratio (x) = 0.21798 0.09508
# Poissons Ratio (y) = 0.32299 0.22338
# Poissons Ratio (z) = 0.11578 0.18359
#
# Static dielectric constant tensor:
#      x y z
#    x 4.537390 -0.412740 0.007670 
#    y -0.412740 4.550030 -0.018950 
#    z 0.007670 -0.018950 4.370560 
# 
# 
# High freq. dielectric constant tensor:
#      x y z
#    x 1.919800 -0.033700 -0.016260 
#    y -0.033700 1.905770 -0.009930 
#    z -0.016260 -0.009930 1.887730 
# 
# From -- ./inp_files/174244.got.cif
#   From: 2010.06.25/outbox.cif.g09.slc.cpg/sg2_88_cif.got.tgz:174244.got - 2010.06.27 13:26:56.
