data_PCOD8020363
_publ_section_title
;
Structure prediction by ZEFSAII (Michael W. Deem and Ramdas Pophale) SiO2 
 PCOD8020363
Probable space group: P -1
;
_chemical_formula_sum "Si O2"
_cell_formula_units_Z 16
_cell_length_a 5.681835
_cell_length_b 8.222477
_cell_length_c 19.346483
_cell_angle_alpha 124.556363
_cell_angle_beta 118.478179
_cell_angle_gamma 63.151129
_cell_volume 633.483677
_symmetry_space_group_name_H-M "P -1"
_symmetry_group_IT_number 2
_symmetry_cell_setting 'triclinic'
loop_
_space_group_symop_operation_xyz
x,y,z
-x,-y,-z
loop_
_atom_site_type_symbol
_atom_site_label
_atom_site_fract_x
_atom_site_fract_y
_atom_site_fract_z
Si Si1 0.184451 0.853639 0.434320
Si Si2 0.079361 0.040714 0.316924
Si Si3 0.915068 0.330801 0.842660
Si Si4 0.444107 0.694986 0.877990
Si Si5 0.527994 0.896925 0.802831
Si Si6 0.977497 0.501857 0.742228
Si Si7 0.707544 0.622734 0.524510
Si Si8 0.502404 0.730014 0.042041
O O1 0.063049 0.653900 0.360273
O O2 0.510251 0.775179 0.479561
O O3 0.165874 0.977186 0.391421
O O4 0.000000 0.000000 0.500000
O O5 0.193577 0.241681 0.368721
O O6 0.749268 0.080815 0.274384
O O7 0.216538 0.863728 0.238021
O O8 0.715128 0.521904 0.896939
O O9 0.997688 0.399496 0.795321
O O10 0.178430 0.256482 0.910957
O O11 0.491595 0.859107 0.870444
O O12 0.254874 0.570159 0.782599
O O13 0.344803 0.799269 0.963312
O O14 0.742316 0.711283 0.753786
O O15 0.631589 0.109013 0.875849
O O16 0.500000 0.500000 0.500000
O O17 0.000000 0.500000 0.500000
O O18 0.500000 0.500000 0.000000
#
# Coordination Sequence:
#
# PCOD8020363 Si02
#       8
#     2   2   2   2   2   2   2   2
#     4  11  25  46  77 107 143 191 250 306 373 448
#     4  10  23  47  69  97 140 184 238 297 366 438
#     4   9  21  42  65  96 133 177 230 293 344 432
#     4  11  22  40  68  95 135 180 229 281 359 425
#     4  10  24  45  66  96 142 180 233 291 355 435
#     4  10  22  42  67  97 137 183 229 293 358 429
#     4  12  27  47  74 109 147 192 245 314 378 449
#     4  11  21  42  66 100 134 180 233 292 351 420
#
# _framework density 25.257159999999999
#
# number of rings (size 3 to 8) (size 9 to 14) (size 15 to 20)
#    0.000    1.500    1.250    2.625    3.500    0.500 
#    9.000    0.000    0.000    0.000    0.000    0.000 
#    0.000    0.000    0.000    0.000    0.000    0.000 
#
# Total GULP energy -198227.580536 kJ/mol
# GULP energy per Si atom -12389.223784 kJ/mol
# Density = 2.519967 g / cm^3
# Si number density = 25.257160 Si / 1000 Ang^3
#
#
#
# Elastic Constant Matrix: (Units=GPa)
#
#
# Indices 1 2 3 4 5 6 
#
# 1 68.9985 20.4334 40.1573 11.0056 2.2631 -11.3350
# 2 20.4334 110.1695 51.6323 16.0739 0.2383 -24.9623
# 3 40.1573 51.6323 177.1988 26.2157 19.8778 1.6684
# 4 11.0056 16.0739 26.2157 49.1685 7.4784 13.7520
# 5 2.2631 0.2383 19.8778 7.4784 38.7904 5.0538
# 6 -11.3350 -24.9623 1.6684 13.7520 5.0538 32.5910
#
#
#
# Elastic Compliance Matrix: (Units=1/GPa)
#
#
# Indices 1 2 3 4 5 6 
#
# 1 0.018957 0.001512 -0.004098 -0.005507 0.000721 0.010173
# 2 0.001512 0.015291 -0.003941 -0.007776 0.001315 0.015516
# 3 -0.004098 -0.003941 0.008206 -0.000510 -0.003304 -0.004137
# 4 -0.005507 -0.007776 -0.000510 0.030455 -0.002597 -0.020293
# 5 0.000721 0.001315 -0.003304 -0.002597 0.028164 -0.001844
# 6 0.010173 0.015516 -0.004137 -0.020293 -0.001844 0.055166
#
#
# Mechanical properties :
#
#
# Convention : Reuss Voigt Hill
#
# Bulk Modulus (GPa) = 34.01697 64.53475 49.27586
# Shear Modulus (GPa) = 27.91831 40.38622 34.15226
#
# Velocity S-wave (km/s) = 3.32831 4.00309 3.68119
# Velocity P-wave (km/s) = 5.31673 6.85367 6.13353
#
# Compressibility (1/GPa) = 0.02939709
#
# Stress axis : x y z
#
# Youngs Moduli (GPa) = 52.75212 65.39754 121.86733
#
# Poissons Ratio (x) = -0.09886 0.49947
# Poissons Ratio (y) = -0.07975 0.48032
# Poissons Ratio (z) = 0.21620 0.25776
#
# Static dielectric constant tensor:
#      x y z
#    x 4.187330 -0.077700 0.216250 
#    y -0.077700 4.974120 0.258800 
#    z 0.216250 0.258800 5.019360 
# 
# 
# High freq. dielectric constant tensor:
#      x y z
#    x 1.970740 0.000840 0.012740 
#    y 0.000840 2.029900 0.007320 
#    z 0.012740 0.007320 2.035500 
# 
# From -- ./inp_files/582624.got.cif
#   From: 2010.06.25/outbox.cif.g09.slc.cpg/sg2_292_cif.got.tgz:582624.got - 2010.06.27 13:26:56.
