data_PCOD8020186
_publ_section_title
;
Structure prediction by ZEFSAII (Michael W. Deem and Ramdas Pophale) SiO2 
 PCOD8020186
Probable space group: P -1
;
_chemical_formula_sum "Si O2"
_cell_formula_units_Z 16
_cell_length_a 19.056685
_cell_length_b 9.225825
_cell_length_c 16.124184
_cell_angle_alpha 28.533834
_cell_angle_beta 35.448657
_cell_angle_gamma 37.434499
_cell_volume 753.295109
_symmetry_space_group_name_H-M "P -1"
_symmetry_group_IT_number 2
_symmetry_cell_setting 'triclinic'
loop_
_space_group_symop_operation_xyz
x,y,z
-x,-y,-z
loop_
_atom_site_type_symbol
_atom_site_label
_atom_site_fract_x
_atom_site_fract_y
_atom_site_fract_z
Si Si1 0.143640 0.791038 0.712455
Si Si2 0.659973 0.270068 0.582406
Si Si3 0.445969 0.733139 0.648233
Si Si4 0.441158 0.328828 0.016622
Si Si5 0.325961 0.682102 0.105678
Si Si6 0.221533 0.217949 0.540270
Si Si7 0.115709 0.179423 0.119230
Si Si8 0.136017 0.799747 0.440458
O O1 0.278458 0.692840 0.584690
O O2 0.028264 0.840835 0.733889
O O3 0.129520 0.106682 0.621350
O O4 0.128963 0.527812 0.923854
O O5 0.534298 0.556217 0.576058
O O6 0.763231 0.291413 0.539087
O O7 0.631803 0.935219 0.784572
O O8 0.500000 0.000000 0.500000
O O9 0.306886 0.903809 0.661935
O O10 0.443859 0.470428 0.851268
O O11 0.371137 0.609901 0.004608
O O12 0.579237 0.182651 0.997236
O O13 0.312011 0.371630 0.322439
O O14 0.195034 0.956677 0.082481
O O15 0.135571 0.471229 0.559916
O O16 0.179844 0.027940 0.219200
O O17 0.000000 0.000000 0.500000
#
# Coordination Sequence:
#
# PCOD8020186 Si02
#       8
#     2   2   2   2   2   2   2   2
#     4  11  25  44  66  98 129 171 229 270 326 381
#     4  12  25  42  69  99 131 179 219 265 335 391
#     4  12  24  41  64  97 141 167 213 275 326 390
#     4  11  24  41  64 101 132 174 218 266 335 391
#     4  10  22  42  66  93 132 173 218 266 329 393
#     4  11  24  43  65  99 129 173 217 269 329 387
#     4  10  24  43  67  92 133 172 217 278 323 388
#     4  11  23  44  69  93 131 173 218 267 331 391
#
# _framework density 21.240016000000001
#
# number of rings (size 3 to 8) (size 9 to 14) (size 15 to 20)
#    0.000    1.000    5.000    1.125    5.250    3.500 
#    0.000    0.625    0.000    0.000    0.000    0.000 
#    0.000    0.000    0.000    0.000    0.000    0.000 
#
# Total GULP energy -198378.858247 kJ/mol
# GULP energy per Si atom -12398.678640 kJ/mol
# Density = 2.119167 g / cm^3
# Si number density = 21.240016 Si / 1000 Ang^3
#
#
#
# Elastic Constant Matrix: (Units=GPa)
#
#
# Indices 1 2 3 4 5 6 
#
# 1 54.4473 25.9202 32.2894 -4.8767 -6.5936 20.3630
# 2 25.9202 139.1701 28.7755 11.8115 -2.5130 1.9662
# 3 32.2894 28.7755 78.1627 2.3223 -20.1410 7.1888
# 4 -4.8767 11.8115 2.3223 27.3139 -1.7867 0.8456
# 5 -6.5936 -2.5130 -20.1410 -1.7867 26.1558 -6.7668
# 6 20.3630 1.9662 7.1888 0.8456 -6.7668 28.0957
#
#
#
# Elastic Compliance Matrix: (Units=1/GPa)
#
#
# Indices 1 2 3 4 5 6 
#
# 1 0.039108 -0.005027 -0.014156 0.010680 -0.007660 -0.026537
# 2 -0.005027 0.008791 -0.001616 -0.004738 -0.001134 0.003311
# 3 -0.014156 -0.001616 0.022579 -0.002987 0.015646 0.008454
# 4 0.010680 -0.004738 -0.002987 0.041109 0.000753 -0.007701
# 5 -0.007660 -0.001134 0.015646 0.000753 0.051944 0.014116
# 6 -0.026537 0.003311 0.008454 -0.007701 0.014116 0.056063
#
#
# Mechanical properties :
#
#
# Convention : Reuss Voigt Hill
#
# Bulk Modulus (GPa) = 34.62378 49.52781 42.07579
# Shear Modulus (GPa) = 18.46266 28.63275 23.54771
#
# Velocity S-wave (km/s) = 2.95149 3.67557 3.33325
# Velocity P-wave (km/s) = 5.28693 6.43288 5.88785
#
# Compressibility (1/GPa) = 0.02888189
#
# Stress axis : x y z
#
# Youngs Moduli (GPa) = 25.57027 113.75798 44.28822
#
# Poissons Ratio (x) = 0.57183 0.62693
# Poissons Ratio (y) = 0.12853 0.07155
# Poissons Ratio (z) = 0.36197 0.18378
#
# Static dielectric constant tensor:
#      x y z
#    x 3.890690 0.039350 0.044770 
#    y 0.039350 4.118400 0.173930 
#    z 0.044770 0.173930 3.849820 
# 
# 
# High freq. dielectric constant tensor:
#      x y z
#    x 1.828610 0.004970 0.000040 
#    y 0.004970 1.842280 0.002460 
#    z 0.000040 0.002460 1.830130 
# 
# From -- ./inp_files/188781.got.cif
#   From: 2010.06.25/outbox.cif.g09.slc.cpg/sg2_95_cif.got.tgz:188781.got - 2010.06.27 13:26:56.
