data_PCOD8020669
_publ_section_title
;
Structure prediction by ZEFSAII (Michael W. Deem and Ramdas Pophale) SiO2 
 PCOD8020669
Probable space group: P -1
;
_chemical_formula_sum "Si O2"
_cell_formula_units_Z 14
_cell_length_a 9.396400
_cell_length_b 14.055277
_cell_length_c 14.065167
_cell_angle_alpha 150.027721
_cell_angle_beta 55.616110
_cell_angle_gamma 104.470285
_cell_volume 623.610025
_symmetry_space_group_name_H-M "P -1"
_symmetry_group_IT_number 2
_symmetry_cell_setting 'triclinic'
loop_
_space_group_symop_operation_xyz
x,y,z
-x,-y,-z
loop_
_atom_site_type_symbol
_atom_site_label
_atom_site_fract_x
_atom_site_fract_y
_atom_site_fract_z
Si Si1 0.036282 0.753880 0.754556
Si Si2 0.189350 0.738003 0.980131
Si Si3 0.730223 0.937678 0.862958
Si Si4 0.940655 0.510116 0.295260
Si Si5 0.396493 0.196521 0.836133
Si Si6 0.303249 0.878042 0.502906
Si Si7 0.419701 0.450227 0.209871
O O1 0.010846 0.654496 0.774413
O O2 0.265937 0.559361 0.453804
O O3 0.852305 0.798822 0.791943
O O4 0.000000 0.000000 0.000000
O O5 0.270060 0.835256 0.953766
O O6 0.217124 0.506751 0.728000
O O7 0.338913 0.657727 0.945924
O O8 0.943112 0.930675 0.262430
O O9 0.844954 0.773937 0.586248
O O10 0.500000 0.000000 0.000000
O O11 0.163142 0.410447 0.073243
O O12 0.574204 0.186710 0.698676
O O13 0.401754 0.964326 0.617263
O O14 0.423329 0.240902 0.975323
O O15 0.332171 0.651510 0.338751
#
# Coordination Sequence:
#
# PCOD8020669 Si02
#       7
#     2   2   2   2   2   2   2
#     4  12  23  42  66  92 134 173 211 261 322 380
#     4  11  25  43  63  99 129 167 214 266 315 380
#     4  12  25  39  61  95 130 168 215 262 309 382
#     4  11  23  43  63  91 132 172 213 255 325 377
#     4  10  22  42  71  93 124 173 214 263 319 385
#     4  10  22  47  67  93 132 164 214 269 321 374
#     4  12  24  41  69  95 127 173 213 261 327 372
#
# _framework density 22.449928
#
# number of rings (size 3 to 8) (size 9 to 14) (size 15 to 20)
#    0.000    0.857    4.286    2.571    4.000    2.857 
#    0.000    6.429    0.000    0.000    0.000    0.000 
#    0.000    0.000    0.000    0.000    0.000    0.000 
#
# Total GULP energy -173571.913206 kJ/mol
# GULP energy per Si atom -12397.993800 kJ/mol
# Density = 2.239883 g / cm^3
# Si number density = 22.449928 Si / 1000 Ang^3
#
#
#
# Elastic Constant Matrix: (Units=GPa)
#
#
# Indices 1 2 3 4 5 6 
#
# 1 157.2173 -1.3168 47.1234 -3.8044 -5.6241 5.9466
# 2 -1.3168 29.6038 15.0081 -13.6524 -10.0885 5.0158
# 3 47.1234 15.0081 89.8676 -17.0475 -1.0321 -0.7901
# 4 -3.8044 -13.6524 -17.0475 33.3062 4.7816 -6.0302
# 5 -5.6241 -10.0885 -1.0321 4.7816 44.9276 -0.1651
# 6 5.9466 5.0158 -0.7901 -6.0302 -0.1651 25.4068
#
#
#
# Elastic Compliance Matrix: (Units=1/GPa)
#
#
# Indices 1 2 3 4 5 6 
#
# 1 0.008041 0.003551 -0.005000 -0.000977 0.001782 -0.002959
# 2 0.003551 0.048566 -0.007294 0.013870 0.009679 -0.007291
# 3 -0.005000 -0.007294 0.016087 0.005843 -0.002500 0.004481
# 4 -0.000977 0.013870 0.005843 0.040046 -0.001109 0.007170
# 5 0.001782 0.009679 -0.002500 -0.001109 0.024706 -0.002509
# 6 -0.002959 -0.007291 0.004481 0.007170 -0.002509 0.043316
#
#
# Mechanical properties :
#
#
# Convention : Reuss Voigt Hill
#
# Bulk Modulus (GPa) = 18.11415 44.25759 31.18587
# Shear Modulus (GPa) = 23.07852 35.11972 29.09912
#
# Velocity S-wave (km/s) = 3.20972 3.95949 3.60415
# Velocity P-wave (km/s) = 4.67147 6.37653 5.58940
#
# Compressibility (1/GPa) = 0.05520545
#
# Stress axis : x y z
#
# Youngs Moduli (GPa) = 124.35991 20.59073 62.16295
#
# Poissons Ratio (x) = -0.07311 0.31084
# Poissons Ratio (y) = -0.44158 0.45344
# Poissons Ratio (z) = 0.62185 0.15020
#
# Static dielectric constant tensor:
#      x y z
#    x 4.337500 0.324310 0.161200 
#    y 0.324310 3.794190 -0.029680 
#    z 0.161200 -0.029680 4.378230 
# 
# 
# High freq. dielectric constant tensor:
#      x y z
#    x 1.901170 0.028780 0.007250 
#    y 0.028780 1.856660 -0.004300 
#    z 0.007250 -0.004300 1.893650 
# 
# From -- ./inp_files/176940.got.cif
#   From: 2010.06.25/outbox.cif.g09.slc.cpg/sg2_89_cif.got.tgz:176940.got - 2010.06.27 13:26:56.
