data_PCOD8020056
_publ_section_title
;
Structure prediction by ZEFSAII (Michael W. Deem and Ramdas Pophale) SiO2 
 PCOD8020056
Probable space group: P -1
;
_chemical_formula_sum "Si O2"
_cell_formula_units_Z 16
_cell_length_a 9.012270
_cell_length_b 8.991907
_cell_length_c 10.861605
_cell_angle_alpha 117.286304
_cell_angle_beta 79.502698
_cell_angle_gamma 119.698608
_cell_volume 678.348483
_symmetry_space_group_name_H-M "P -1"
_symmetry_group_IT_number 2
_symmetry_cell_setting 'triclinic'
loop_
_space_group_symop_operation_xyz
x,y,z
-x,-y,-z
loop_
_atom_site_type_symbol
_atom_site_label
_atom_site_fract_x
_atom_site_fract_y
_atom_site_fract_z
Si Si1 0.254533 0.361255 0.243044
Si Si2 0.038552 0.020745 0.317494
Si Si3 0.128972 0.377478 0.880179
Si Si4 0.774683 0.055564 0.530703
Si Si5 0.969565 0.380559 0.152170
Si Si6 0.616255 0.115480 0.198949
Si Si7 0.586250 0.252318 0.527266
Si Si8 0.514124 0.275254 0.044974
O O1 0.142251 0.159149 0.244984
O O2 0.138849 0.439122 0.224956
O O3 0.362695 0.524455 0.389501
O O4 0.367683 0.337416 0.109337
O O5 0.946586 0.114622 0.447805
O O6 0.175836 0.973870 0.349460
O O7 0.879701 0.824841 0.219964
O O8 0.316019 0.538681 0.953714
O O9 0.072945 0.443389 0.786441
O O10 0.987328 0.330886 0.989587
O O11 0.715342 0.216809 0.584237
O O12 0.609349 0.860284 0.438691
O O13 0.816840 0.199499 0.171577
O O14 0.593361 0.179860 0.361776
O O15 0.532050 0.196775 0.144962
O O16 0.532523 0.886621 0.113515
#
# Coordination Sequence:
#
# PCOD8020056 Si02
#       8
#     2   2   2   2   2   2   2   2
#     4  12  25  40  65  98 127 161 210 262 309 367
#     4  11  23  40  63  92 127 164 208 260 312 368
#     4  10  22  42  65  89 125 169 207 254 314 373
#     4  10  24  41  61  89 127 167 208 254 312 372
#     4  10  23  40  63  91 125 164 209 255 311 371
#     4  10  22  42  65  92 127 167 208 255 312 372
#     4  11  24  42  65  92 127 168 208 255 312 372
#     4  10  23  41  65  95 127 163 208 259 312 369
#
# _framework density 23.586697000000001
#
# number of rings (size 3 to 8) (size 9 to 14) (size 15 to 20)
#    0.000    1.500    0.000    3.750    0.000   17.500 
#    0.000    0.000    0.000    0.000    0.000    0.000 
#    0.000    0.000    0.000    0.000    0.000    0.000 
#
# Total GULP energy -198353.977313 kJ/mol
# GULP energy per Si atom -12397.123582 kJ/mol
# Density = 2.353301 g / cm^3
# Si number density = 23.586697 Si / 1000 Ang^3
#
#
#
# Elastic Constant Matrix: (Units=GPa)
#
#
# Indices 1 2 3 4 5 6 
#
# 1 85.9667 22.6607 12.4730 2.3283 -1.7485 16.3856
# 2 22.6607 102.1628 28.8638 27.2341 -7.8738 4.6084
# 3 12.4730 28.8638 83.3434 18.6088 -3.7853 -6.9258
# 4 2.3283 27.2341 18.6088 44.7209 1.4074 1.8372
# 5 -1.7485 -7.8738 -3.7853 1.4074 20.7045 -10.8129
# 6 16.3856 4.6084 -6.9258 1.8372 -10.8129 18.4459
#
#
#
# Elastic Compliance Matrix: (Units=1/GPa)
#
#
# Indices 1 2 3 4 5 6 
#
# 1 0.018021 -0.003824 -0.005419 0.005207 -0.015092 -0.026453
# 2 -0.003824 0.013549 -0.001675 -0.007773 0.007399 0.004495
# 3 -0.005419 -0.001675 0.017229 -0.007099 0.012997 0.020027
# 4 0.005207 -0.007773 -0.007099 0.030950 -0.014875 -0.017151
# 5 -0.015092 0.007399 0.012997 -0.014875 0.090197 0.070792
# 6 -0.026453 0.004495 0.020027 -0.017151 0.070792 0.127314
#
#
# Mechanical properties :
#
#
# Convention : Reuss Voigt Hill
#
# Bulk Modulus (GPa) = 37.08804 44.38533 40.73669
# Shear Modulus (GPa) = 15.24002 30.60594 22.92298
#
# Velocity S-wave (km/s) = 2.54466 3.60612 3.12085
# Velocity P-wave (km/s) = 4.93883 6.01644 5.50407
#
# Compressibility (1/GPa) = 0.02696287
#
# Stress axis : x y z
#
# Youngs Moduli (GPa) = 55.49180 73.80435 58.04124
#
# Poissons Ratio (x) = 0.28224 0.31451
# Poissons Ratio (y) = 0.21221 0.09723
# Poissons Ratio (z) = 0.30070 0.12363
#
# Static dielectric constant tensor:
#      x y z
#    x 4.325210 0.004510 0.030570 
#    y 0.004510 4.230460 0.064480 
#    z 0.030570 0.064480 3.881210 
# 
# 
# High freq. dielectric constant tensor:
#      x y z
#    x 1.941640 0.006020 0.000040 
#    y 0.006020 1.940230 0.003920 
#    z 0.000040 0.003920 1.916160 
# 
# From -- ./inp_files/205853.got.cif
#   From: 2010.06.25/outbox.cif.g09.slc.cpg/sg2_103_cif.got.tgz:205853.got - 2010.06.27 13:26:56.
