data_PCOD8020540
_publ_section_title
;
Structure prediction by ZEFSAII (Michael W. Deem and Ramdas Pophale) SiO2 
 PCOD8020540
Probable space group: P -1
;
_chemical_formula_sum "Si O2"
_cell_formula_units_Z 16
_cell_length_a 12.280619
_cell_length_b 28.107046
_cell_length_c 9.306871
_cell_angle_alpha 152.743340
_cell_angle_beta 140.615704
_cell_angle_gamma 29.016593
_cell_volume 713.498490
_symmetry_space_group_name_H-M "P -1"
_symmetry_group_IT_number 2
_symmetry_cell_setting 'triclinic'
loop_
_space_group_symop_operation_xyz
x,y,z
-x,-y,-z
loop_
_atom_site_type_symbol
_atom_site_label
_atom_site_fract_x
_atom_site_fract_y
_atom_site_fract_z
Si Si1 0.122854 0.352652 0.790122
Si Si2 0.601948 0.819633 0.663634
Si Si3 0.245231 0.668654 0.901310
Si Si4 0.202236 0.049747 0.724089
Si Si5 0.493031 0.707334 0.470891
Si Si6 0.963733 0.008081 0.151803
Si Si7 0.374437 0.401010 0.376374
Si Si8 0.808826 0.288023 0.349161
O O1 0.246977 0.244678 0.497730
O O2 0.946163 0.342156 0.655458
O O3 0.302466 0.323595 0.013442
O O4 0.000000 0.500000 0.000000
O O5 0.655614 0.706393 0.525479
O O6 0.338332 0.915965 0.605851
O O7 0.638739 0.912641 0.037548
O O8 0.201060 0.562836 0.598436
O O9 0.334375 0.651822 0.784727
O O10 0.414726 0.637023 0.113712
O O11 0.020418 0.823392 0.085754
O O12 0.142722 0.018318 0.429710
O O13 0.631611 0.618005 0.510880
O O14 0.289342 0.862012 0.721321
O O15 0.009132 0.875182 0.900009
O O16 0.000000 0.000000 0.000000
O O17 0.625042 0.341809 0.430482
#
# Coordination Sequence:
#
# PCOD8020540 Si02
#       8
#     2   2   2   2   2   2   2   2
#     4  12  26  46  71 104 135 177 236 279 335 407
#     4  11  23  43  68 101 132 174 230 282 334 404
#     4  11  22  44  67  96 131 178 235 271 333 407
#     4  10  22  42  69  95 132 175 230 281 331 396
#     4  11  25  41  68  98 140 178 220 284 350 399
#     4  11  23  43  63 100 139 175 226 277 343 409
#     4  12  25  45  67 104 138 180 224 281 344 407
#     4  12  24  44  74  98 135 184 227 283 334 402
#
# _framework density 22.424714999999999
#
# number of rings (size 3 to 8) (size 9 to 14) (size 15 to 20)
#    0.000    0.750    3.750    3.750    3.500    3.000 
#    0.000    2.500    0.000    0.000    0.000    0.000 
#    0.000    0.000    0.000    0.000    0.000    0.000 
#
# Total GULP energy -198400.584314 kJ/mol
# GULP energy per Si atom -12400.036520 kJ/mol
# Density = 2.237367 g / cm^3
# Si number density = 22.424715 Si / 1000 Ang^3
#
#
#
# Elastic Constant Matrix: (Units=GPa)
#
#
# Indices 1 2 3 4 5 6 
#
# 1 98.2562 27.3717 40.0871 -23.7663 4.4634 17.6596
# 2 27.3717 66.8040 25.6005 -7.5532 5.5106 18.8649
# 3 40.0871 25.6005 123.6932 -18.2237 13.4825 11.1716
# 4 -23.7663 -7.5532 -18.2237 40.1264 0.9256 -2.4132
# 5 4.4634 5.5106 13.4825 0.9256 27.2751 -5.2452
# 6 17.6596 18.8649 11.1716 -2.4132 -5.2452 42.9005
#
#
#
# Elastic Compliance Matrix: (Units=1/GPa)
#
#
# Indices 1 2 3 4 5 6 
#
# 1 0.014397 -0.002990 -0.002582 0.006599 -0.001419 -0.003742
# 2 -0.002990 0.019348 -0.001854 0.000685 -0.003918 -0.007235
# 3 -0.002582 -0.001854 0.010342 0.002852 -0.004647 -0.001223
# 4 0.006599 0.000685 0.002852 0.030195 -0.004147 -0.002569
# 5 -0.001419 -0.003918 -0.004647 -0.004147 0.041738 0.008387
# 6 -0.003742 -0.007235 -0.001223 -0.002569 0.008387 0.029231
#
#
# Mechanical properties :
#
#
# Convention : Reuss Voigt Hill
#
# Bulk Modulus (GPa) = 34.20481 52.76357 43.48419
# Shear Modulus (GPa) = 29.43789 35.10667 32.27228
#
# Velocity S-wave (km/s) = 3.62711 3.96098 3.79771
# Velocity P-wave (km/s) = 5.72953 6.67079 6.21800
#
# Compressibility (1/GPa) = 0.02923565
#
# Stress axis : x y z
#
# Youngs Moduli (GPa) = 69.45891 51.68389 96.69004
#
# Poissons Ratio (x) = 0.15451 0.24968
# Poissons Ratio (y) = 0.20765 0.17929
# Poissons Ratio (z) = 0.17936 0.09584
#
# Static dielectric constant tensor:
#      x y z
#    x 3.901300 0.032420 0.035690 
#    y 0.032420 4.135980 -0.023380 
#    z 0.035690 -0.023380 4.413990 
# 
# 
# High freq. dielectric constant tensor:
#      x y z
#    x 1.866270 0.005430 0.001210 
#    y 0.005430 1.884580 0.003280 
#    z 0.001210 0.003280 1.901640 
# 
# From -- ./inp_files/217320.got.cif
#   From: 2010.06.25/outbox.cif.g09.slc.cpg/sg2_109_cif.got.tgz:217320.got - 2010.06.27 13:26:56.
