data_PCOD8020347
_publ_section_title
;
Structure prediction by ZEFSAII (Michael W. Deem and Ramdas Pophale) SiO2 
 PCOD8020347
Probable space group: P -1
;
_chemical_formula_sum "Si O2"
_cell_formula_units_Z 16
_cell_length_a 26.983046
_cell_length_b 27.007127
_cell_length_c 7.882519
_cell_angle_alpha 136.546895
_cell_angle_beta 136.325579
_cell_angle_gamma 10.422316
_cell_volume 712.680624
_symmetry_space_group_name_H-M "P -1"
_symmetry_group_IT_number 2
_symmetry_cell_setting 'triclinic'
loop_
_space_group_symop_operation_xyz
x,y,z
-x,-y,-z
loop_
_atom_site_type_symbol
_atom_site_label
_atom_site_fract_x
_atom_site_fract_y
_atom_site_fract_z
Si Si1 0.631179 0.666902 0.605803
Si Si2 0.777599 0.069929 0.183171
Si Si3 0.865574 0.838684 0.639631
Si Si4 0.261888 0.319274 0.823745
Si Si5 0.427311 0.727389 0.439263
Si Si6 0.100305 0.826366 0.882970
Si Si7 0.240953 0.176618 0.399396
Si Si8 0.678150 0.394053 0.741283
O O1 0.560488 0.673166 0.579709
O O2 0.873732 0.402833 0.433622
O O3 0.390297 0.921736 0.519431
O O4 0.711355 0.660158 0.890054
O O5 0.684362 0.158159 0.364315
O O6 0.526316 0.339806 0.113690
O O7 0.046050 0.861549 0.322266
O O8 0.855845 0.915049 0.932233
O O9 0.886277 0.746898 0.574630
O O10 0.301137 0.198060 0.673481
O O11 0.961364 0.624110 0.765361
O O12 0.481092 0.128032 0.744360
O O13 0.656421 0.442366 0.298358
O O14 0.171183 0.960633 0.258774
O O15 0.224743 0.713106 0.094891
O O16 0.000000 0.000000 0.000000
O O17 0.500000 0.500000 0.500000
#
# Coordination Sequence:
#
# PCOD8020347 Si02
#       8
#     2   2   2   2   2   2   2   2
#     4  12  25  42  66  97 133 172 216 269 326 382
#     4  12  26  45  68  96 130 172 219 267 324 386
#     4  12  25  42  66  97 133 172 216 269 326 382
#     4  10  22  42  67  96 132 174 218 265 320 384
#     4  12  26  45  68  96 130 172 219 267 324 386
#     4  12  26  47  70  97 132 169 214 268 327 388
#     4  10  22  42  67  96 132 174 218 265 320 384
#     4  12  26  47  70  97 132 169 214 268 327 388
#
# _framework density 22.450448999999999
#
# number of rings (size 3 to 8) (size 9 to 14) (size 15 to 20)
#    0.000    0.500    0.000    9.000    0.000    5.000 
#    0.000    1.250    0.000    0.000    0.000    0.000 
#    0.000    0.000    0.000    0.000    0.000    0.000 
#
# Total GULP energy -198508.137251 kJ/mol
# GULP energy per Si atom -12406.758578 kJ/mol
# Density = 2.239935 g / cm^3
# Si number density = 22.450449 Si / 1000 Ang^3
#
#
#
# Elastic Constant Matrix: (Units=GPa)
#
#
# Indices 1 2 3 4 5 6 
#
# 1 146.1712 45.5002 55.2902 5.6902 2.3556 -8.8959
# 2 45.5002 137.4946 42.9679 -0.7746 -3.0356 -4.1716
# 3 55.2902 42.9679 130.7459 -0.3401 -4.9641 0.3020
# 4 5.6902 -0.7746 -0.3401 40.0730 -2.4948 -4.7579
# 5 2.3556 -3.0356 -4.9641 -2.4948 23.1294 -0.1253
# 6 -8.8959 -4.1716 0.3020 -4.7579 -0.1253 42.6828
#
#
#
# Elastic Compliance Matrix: (Units=1/GPa)
#
#
# Indices 1 2 3 4 5 6 
#
# 1 0.008816 -0.001929 -0.003175 -0.001257 -0.001960 0.001526
# 2 -0.001929 0.008564 -0.001962 0.000543 0.000961 0.000512
# 3 -0.003175 -0.001962 0.009723 0.000531 0.002205 -0.000857
# 4 -0.001257 0.000543 0.000531 0.025656 0.003095 0.002656
# 5 -0.001960 0.000961 0.002205 0.003095 0.044369 0.000145
# 6 0.001526 0.000512 -0.000857 0.002656 0.000145 0.024099
#
#
# Mechanical properties :
#
#
# Convention : Reuss Voigt Hill
#
# Bulk Modulus (GPa) = 77.09846 77.99206 77.54526
# Shear Modulus (GPa) = 35.79485 39.22059 37.50772
#
# Velocity S-wave (km/s) = 3.99732 4.18423 4.09184
# Velocity P-wave (km/s) = 7.46464 7.62619 7.54585
#
# Compressibility (1/GPa) = 0.01297043
#
# Stress axis : x y z
#
# Youngs Moduli (GPa) = 113.42591 116.76228 102.84726
#
# Poissons Ratio (x) = 0.22526 0.32659
# Poissons Ratio (y) = 0.21883 0.20179
# Poissons Ratio (z) = 0.36018 0.22909
#
# Static dielectric constant tensor:
#      x y z
#    x 3.985320 -0.117300 0.104890 
#    y -0.117300 4.689690 -0.012340 
#    z 0.104890 -0.012340 4.072650 
# 
# 
# High freq. dielectric constant tensor:
#      x y z
#    x 1.886940 -0.004080 0.001580 
#    y -0.004080 1.911220 -0.002090 
#    z 0.001580 -0.002090 1.892400 
# 
# From -- ./inp_files/358026.got.cif
#   From: 2010.06.25/outbox.cif.g09.slc.cpg/sg2_180_cif.got.tgz:358026.got - 2010.06.27 13:26:56.
