data_PCOD8020089
_publ_section_title
;
Structure prediction by ZEFSAII (Michael W. Deem and Ramdas Pophale) SiO2 
 PCOD8020089
Probable space group: P -1
;
_chemical_formula_sum "Si O2"
_cell_formula_units_Z 16
_cell_length_a 6.323099
_cell_length_b 19.317532
_cell_length_c 17.934268
_cell_angle_alpha 27.428295
_cell_angle_beta 135.194502
_cell_angle_gamma 129.824996
_cell_volume 710.714040
_symmetry_space_group_name_H-M "P -1"
_symmetry_group_IT_number 2
_symmetry_cell_setting 'triclinic'
loop_
_space_group_symop_operation_xyz
x,y,z
-x,-y,-z
loop_
_atom_site_type_symbol
_atom_site_label
_atom_site_fract_x
_atom_site_fract_y
_atom_site_fract_z
Si Si1 0.501091 0.328435 0.819855
Si Si2 0.667415 0.507313 0.237494
Si Si3 0.238369 0.250788 0.428883
Si Si4 0.398476 0.830784 0.623945
Si Si5 0.297818 0.936392 0.340707
Si Si6 0.809698 0.738413 0.930829
Si Si7 0.695306 0.856971 0.180502
Si Si8 0.285563 0.379264 0.479195
O O1 0.331313 0.369349 0.813851
O O2 0.304497 0.198638 0.852444
O O3 0.518596 0.471465 0.632269
O O4 0.833156 0.271224 0.975662
O O5 0.377728 0.394379 0.281421
O O6 0.968750 0.414830 0.404944
O O7 0.661976 0.596019 0.073316
O O8 0.405768 0.095218 0.603241
O O9 0.247250 0.281071 0.489565
O O10 0.890935 0.219269 0.350684
O O11 0.320200 0.817020 0.529718
O O12 0.671622 0.732384 0.818004
O O13 0.500000 0.000000 0.500000
O O14 0.023891 0.893566 0.259166
O O15 0.283989 0.108054 0.198789
O O16 0.541207 0.723736 0.319787
O O17 0.500000 0.000000 0.000000
#
# Coordination Sequence:
#
# PCOD8020089 Si02
#       8
#     2   2   2   2   2   2   2   2
#     4  10  23  41  66  94 132 176 208 264 327 378
#     4  10  22  42  65  93 135 168 217 265 316 393
#     4  11  21  42  70  93 129 175 212 267 327 385
#     4  10  23  41  68  94 132 173 212 268 327 384
#     4  11  23  43  65  98 134 167 220 264 329 388
#     4  10  23  42  63  99 131 168 217 267 322 385
#     4  12  22  41  69  96 131 170 213 271 320 382
#     4  10  22  44  64  92 135 171 214 264 322 387
#
# _framework density 22.512571999999999
#
# number of rings (size 3 to 8) (size 9 to 14) (size 15 to 20)
#    0.000    1.500    3.750    0.375    0.000    7.000 
#    4.500   10.000    0.000    0.000    0.000    0.000 
#    0.000    0.000    0.000    0.000    0.000    0.000 
#
# Total GULP energy -198301.978787 kJ/mol
# GULP energy per Si atom -12393.873674 kJ/mol
# Density = 2.246133 g / cm^3
# Si number density = 22.512572 Si / 1000 Ang^3
#
#
#
# Elastic Constant Matrix: (Units=GPa)
#
#
# Indices 1 2 3 4 5 6 
#
# 1 100.8924 33.2917 42.2496 4.6470 11.8571 -13.4920
# 2 33.2917 80.9261 33.2760 14.1290 6.8964 -4.5926
# 3 42.2496 33.2760 149.5608 9.1941 1.1838 -8.8696
# 4 4.6470 14.1290 9.1941 33.2326 -3.4638 9.8539
# 5 11.8571 6.8964 1.1838 -3.4638 29.7771 -14.8547
# 6 -13.4920 -4.5926 -8.8696 9.8539 -14.8547 24.9033
#
#
#
# Elastic Compliance Matrix: (Units=1/GPa)
#
#
# Indices 1 2 3 4 5 6 
#
# 1 0.013120 -0.003715 -0.002505 -0.001197 -0.002005 0.004809
# 2 -0.003715 0.016116 -0.002036 -0.006435 -0.002183 0.001478
# 3 -0.002505 -0.002036 0.008141 -0.001786 0.002665 0.003463
# 4 -0.001197 -0.006435 -0.001786 0.039046 -0.003360 -0.019926
# 5 -0.002005 -0.002183 0.002665 -0.003360 0.049520 0.030328
# 6 0.004809 0.001478 0.003463 -0.019926 0.030328 0.070242
#
#
# Mechanical properties :
#
#
# Convention : Reuss Voigt Hill
#
# Bulk Modulus (GPa) = 47.92571 61.00154 54.46363
# Shear Modulus (GPa) = 22.76347 32.42007 27.59177
#
# Velocity S-wave (km/s) = 3.18330 3.79896 3.50468
# Velocity P-wave (km/s) = 5.90304 6.81163 6.37355
#
# Compressibility (1/GPa) = 0.02086563
#
# Stress axis : x y z
#
# Youngs Moduli (GPa) = 76.21874 62.05182 122.83611
#
# Poissons Ratio (x) = 0.23049 0.30773
# Poissons Ratio (y) = 0.28312 0.25006
# Poissons Ratio (z) = 0.19095 0.12632
#
# Static dielectric constant tensor:
#      x y z
#    x 4.182950 -0.180590 -0.049290 
#    y -0.180590 4.176220 0.065480 
#    z -0.049290 0.065480 4.513350 
# 
# 
# High freq. dielectric constant tensor:
#      x y z
#    x 1.877040 -0.009850 0.001460 
#    y -0.009850 1.894760 -0.007550 
#    z 0.001460 -0.007550 1.890530 
# 
# From -- ./inp_files/85177.got.cif
#   From: 2010.06.25/outbox.cif.g09.slc.cpg/sg2_43_cif.got.tgz:85177.got - 2010.06.27 13:26:56.
