data_PCOD8020542
_publ_section_title
;
Structure prediction by ZEFSAII (Michael W. Deem and Ramdas Pophale) SiO2 
 PCOD8020542
Probable space group: P -1
;
_chemical_formula_sum "Si O2"
_cell_formula_units_Z 16
_cell_length_a 18.305908
_cell_length_b 15.190740
_cell_length_c 12.030688
_cell_angle_alpha 130.532649
_cell_angle_beta 149.317390
_cell_angle_gamma 27.885574
_cell_volume 708.120031
_symmetry_space_group_name_H-M "P -1"
_symmetry_group_IT_number 2
_symmetry_cell_setting 'triclinic'
loop_
_space_group_symop_operation_xyz
x,y,z
-x,-y,-z
loop_
_atom_site_type_symbol
_atom_site_label
_atom_site_fract_x
_atom_site_fract_y
_atom_site_fract_z
Si Si1 0.315611 0.302883 0.745628
Si Si2 0.915711 0.500586 0.033760
Si Si3 0.700381 0.226750 0.771699
Si Si4 0.673667 0.620258 0.413573
Si Si5 0.445654 0.637437 0.787477
Si Si6 0.971740 0.203097 0.501394
Si Si7 0.756940 0.832920 0.983091
Si Si8 0.612682 0.232302 0.406455
O O1 0.434012 0.257492 0.742669
O O2 0.000000 0.500000 0.500000
O O3 0.406750 0.341750 0.980196
O O4 0.462027 0.082677 0.787338
O O5 0.683631 0.598273 0.877413
O O6 0.075342 0.287425 0.009531
O O7 0.757378 0.697233 0.907276
O O8 0.100573 0.443707 0.311455
O O9 0.536707 0.248544 0.653698
O O10 0.641027 0.398360 0.868760
O O11 0.628575 0.265694 0.580154
O O12 0.000000 0.000000 0.000000
O O13 0.793608 0.413296 0.371965
O O14 0.198961 0.789452 0.672265
O O15 0.325826 0.717083 0.569777
O O16 0.087526 0.192467 0.749141
O O17 0.194252 0.008171 0.549521
#
# Coordination Sequence:
#
# PCOD8020542 Si02
#       8
#     2   2   2   2   2   2   2   2
#     4  12  27  42  70 101 136 175 224 273 337 397
#     4  10  22  42  69  95 133 175 222 274 328 385
#     4  11  27  43  67 100 135 179 217 265 342 403
#     4  10  25  44  64 100 139 175 220 273 334 398
#     4  11  25  45  64  99 136 169 224 281 327 387
#     4  10  23  41  70  98 127 177 224 275 334 382
#     4  10  22  43  67  97 133 168 224 274 329 393
#     4  12  23  41  72  99 127 174 227 276 322 402
#
# _framework density 22.595037999999999
#
# number of rings (size 3 to 8) (size 9 to 14) (size 15 to 20)
#    0.000    1.250    1.250    4.500    5.250    4.500 
#    0.000    0.000    0.000    0.000    0.000    0.000 
#    0.000    0.000    0.000    0.000    0.000    0.000 
#
# Total GULP energy -198302.957876 kJ/mol
# GULP energy per Si atom -12393.934867 kJ/mol
# Density = 2.254361 g / cm^3
# Si number density = 22.595038 Si / 1000 Ang^3
#
#
#
# Elastic Constant Matrix: (Units=GPa)
#
#
# Indices 1 2 3 4 5 6 
#
# 1 73.3545 16.3140 22.5303 6.2078 -18.4779 -10.3728
# 2 16.3140 127.2245 32.0838 -10.9691 4.7712 -8.9583
# 3 22.5303 32.0838 82.4551 -6.1029 3.9425 -4.1805
# 4 6.2078 -10.9691 -6.1029 31.0022 -0.7204 -2.0786
# 5 -18.4779 4.7712 3.9425 -0.7204 29.5198 -7.4765
# 6 -10.3728 -8.9583 -4.1805 -2.0786 -7.4765 34.4680
#
#
#
# Elastic Compliance Matrix: (Units=1/GPa)
#
#
# Indices 1 2 3 4 5 6 
#
# 1 0.021762 -0.001738 -0.006015 -0.005184 0.016782 0.008696
# 2 -0.001738 0.009199 -0.002720 0.003115 -0.001797 0.001336
# 3 -0.006015 -0.002720 0.015238 0.002992 -0.005726 -0.001731
# 4 -0.005184 0.003115 0.002992 0.034986 -0.003024 0.001067
# 5 0.016782 -0.001797 -0.005726 -0.003024 0.048992 0.014334
# 6 0.008696 0.001336 -0.001731 0.001067 0.014334 0.034940
#
#
# Mechanical properties :
#
#
# Convention : Reuss Voigt Hill
#
# Bulk Modulus (GPa) = 39.60112 47.21001 43.40557
# Shear Modulus (GPa) = 25.70947 33.13838 29.42393
#
# Velocity S-wave (km/s) = 3.37684 3.83380 3.61256
# Velocity P-wave (km/s) = 5.72439 6.36685 6.05415
#
# Compressibility (1/GPa) = 0.02525181
#
# Stress axis : x y z
#
# Youngs Moduli (GPa) = 45.95148 108.70743 65.62740
#
# Poissons Ratio (x) = 0.18889 0.39478
# Poissons Ratio (y) = 0.07984 0.17853
# Poissons Ratio (z) = 0.27642 0.29573
#
# Static dielectric constant tensor:
#      x y z
#    x 4.211050 -0.006740 0.023850 
#    y -0.006740 4.294680 -0.134200 
#    z 0.023850 -0.134200 3.879280 
# 
# 
# High freq. dielectric constant tensor:
#      x y z
#    x 1.897730 -0.007130 0.000820 
#    y -0.007130 1.896940 -0.004390 
#    z 0.000820 -0.004390 1.881070 
# 
# From -- ./inp_files/466132.got.cif
#   From: 2010.06.25/outbox.cif.g09.slc.cpg/sg2_234_cif.got.tgz:466132.got - 2010.06.27 13:26:56.
