data_PCOD8020454
_publ_section_title
;
Structure prediction by ZEFSAII (Michael W. Deem and Ramdas Pophale) SiO2 
 PCOD8020454
Probable space group: P -1
;
_chemical_formula_sum "Si O2"
_cell_formula_units_Z 16
_cell_length_a 10.048380
_cell_length_b 9.349237
_cell_length_c 16.162381
_cell_angle_alpha 77.582884
_cell_angle_beta 131.094516
_cell_angle_gamma 68.592903
_cell_volume 811.045791
_symmetry_space_group_name_H-M "P -1"
_symmetry_group_IT_number 2
_symmetry_cell_setting 'triclinic'
loop_
_space_group_symop_operation_xyz
x,y,z
-x,-y,-z
loop_
_atom_site_type_symbol
_atom_site_label
_atom_site_fract_x
_atom_site_fract_y
_atom_site_fract_z
Si Si1 0.967924 0.316772 0.086780
Si Si2 0.721510 0.476888 0.399331
Si Si3 0.359223 0.229819 0.144364
Si Si4 0.479277 0.072492 0.892258
Si Si5 0.238782 0.832635 0.067824
Si Si6 0.218311 0.138380 0.384178
Si Si7 0.991701 0.527472 0.615653
Si Si8 0.233618 0.879023 0.554117
O O1 0.187255 0.213744 0.124368
O O2 0.072404 0.208458 0.230903
O O3 0.804752 0.555839 0.995772
O O4 0.792570 0.286932 0.990238
O O5 0.457182 0.677629 0.238512
O O6 0.933310 0.387227 0.428945
O O7 0.711920 0.311425 0.438395
O O8 0.778120 0.544296 0.493468
O O9 0.538112 0.199214 0.288316
O O10 0.511027 0.058165 0.157875
O O11 0.701023 0.058977 0.974901
O O12 0.222980 0.297020 0.755322
O O13 0.500000 0.000000 0.000000
O O14 0.000000 0.000000 0.000000
O O15 0.110183 0.341960 0.359761
O O16 0.500000 0.000000 0.500000
O O17 0.180474 0.015268 0.438627
O O18 0.000000 0.000000 0.500000
#
# Coordination Sequence:
#
# PCOD8020454 Si02
#       8
#     2   2   2   2   2   2   2   2
#     4  11  24  43  67 100 137 174 222 274 329 398
#     4  10  22  42  68  96 127 174 223 268 323 398
#     4  11  23  43  70  94 135 181 217 269 337 395
#     4  11  24  43  68  99 134 172 221 278 332 387
#     4  11  23  41  68  97 129 176 225 264 324 400
#     4  12  26  42  67 101 136 173 220 277 334 390
#     4  10  23  43  66  95 133 172 216 272 334 391
#     4  12  23  42  68 101 130 171 226 269 330 399
#
# _framework density 19.727616999999999
#
# number of rings (size 3 to 8) (size 9 to 14) (size 15 to 20)
#    0.000    1.000    5.000    1.500    5.250    2.000 
#    2.250    3.125    0.000    0.000    0.000    0.000 
#    0.000    0.000    0.000    0.000    0.000    0.000 
#
# Total GULP energy -198460.243603 kJ/mol
# GULP energy per Si atom -12403.765225 kJ/mol
# Density = 1.968272 g / cm^3
# Si number density = 19.727617 Si / 1000 Ang^3
#
#
#
# Elastic Constant Matrix: (Units=GPa)
#
#
# Indices 1 2 3 4 5 6 
#
# 1 119.0686 59.5131 68.5062 -4.5252 -10.5953 11.1464
# 2 59.5131 132.3296 47.3265 3.1480 -2.2277 2.8461
# 3 68.5062 47.3265 125.1884 7.0889 -3.9504 10.4763
# 4 -4.5252 3.1480 7.0889 34.5308 3.1314 6.4264
# 5 -10.5953 -2.2277 -3.9504 3.1314 41.3657 -2.6946
# 6 11.1464 2.8461 10.4763 6.4264 -2.6946 36.0148
#
#
#
# Elastic Compliance Matrix: (Units=1/GPa)
#
#
# Indices 1 2 3 4 5 6 
#
# 1 0.014942 -0.004418 -0.006408 0.003998 0.002483 -0.002939
# 2 -0.004418 0.010050 -0.001421 -0.001376 -0.000544 0.001191
# 3 -0.006408 -0.001421 0.012271 -0.003016 -0.000381 -0.000964
# 4 0.003998 -0.001376 -0.003016 0.031544 -0.002119 -0.006039
# 5 0.002483 -0.000544 -0.000381 -0.002119 0.025012 0.001635
# 6 -0.002939 0.001191 -0.000964 -0.006039 0.001635 0.030062
#
#
# Mechanical properties :
#
#
# Convention : Reuss Voigt Hill
#
# Bulk Modulus (GPa) = 78.31533 80.80868 79.56200
# Shear Modulus (GPa) = 32.75860 35.79832 34.27846
#
# Velocity S-wave (km/s) = 4.07940 4.26447 4.17296
# Velocity P-wave (km/s) = 7.87230 8.08076 7.97721
#
# Compressibility (1/GPa) = 0.01276889
#
# Stress axis : x y z
#
# Youngs Moduli (GPa) = 66.92585 99.50418 81.49081
#
# Poissons Ratio (x) = 0.43961 0.52223
# Poissons Ratio (y) = 0.29568 0.11576
# Poissons Ratio (z) = 0.42889 0.14135
#
# Static dielectric constant tensor:
#      x y z
#    x 3.730330 0.392390 0.651050 
#    y 0.392390 3.988780 0.422090 
#    z 0.651050 0.422090 3.822830 
# 
# 
# High freq. dielectric constant tensor:
#      x y z
#    x 1.765380 0.008640 0.007940 
#    y 0.008640 1.782320 -0.005000 
#    z 0.007940 -0.005000 1.780940 
# 
# From -- ./inp_files/297984.got.cif
#   From: 2010.06.25/outbox.cif.g09.slc.cpg/sg2_149_cif.got.tgz:297984.got - 2010.06.27 13:26:56.
