data_PCOD8020012
_publ_section_title
;
Structure prediction by ZEFSAII (Michael W. Deem and Ramdas Pophale) SiO2 
 PCOD8020012
Probable space group: P -1
;
_chemical_formula_sum "Si O2"
_cell_formula_units_Z 14
_cell_length_a 20.387217
_cell_length_b 7.752681
_cell_length_c 10.807262
_cell_angle_alpha 135.269203
_cell_angle_beta 135.429297
_cell_angle_gamma 34.011041
_cell_volume 638.483102
_symmetry_space_group_name_H-M "P -1"
_symmetry_group_IT_number 2
_symmetry_cell_setting 'triclinic'
loop_
_space_group_symop_operation_xyz
x,y,z
-x,-y,-z
loop_
_atom_site_type_symbol
_atom_site_label
_atom_site_fract_x
_atom_site_fract_y
_atom_site_fract_z
Si Si1 0.331941 0.765585 0.890261
Si Si2 0.808320 0.263480 0.628823
Si Si3 0.904653 0.585262 0.808080
Si Si4 0.541880 0.651015 0.377355
Si Si5 0.242695 0.417610 0.033320
Si Si6 0.905460 0.761140 0.321583
Si Si7 0.324651 0.692001 0.122424
O O1 0.445378 0.469311 0.808906
O O2 0.202297 0.901919 0.723823
O O3 0.339578 0.630596 0.965116
O O4 0.329366 0.070493 0.045528
O O5 0.828887 0.477337 0.690283
O O6 0.669975 0.396865 0.491867
O O7 0.823951 0.287748 0.807813
O O8 0.908512 0.885592 0.525271
O O9 0.969138 0.423946 0.680796
O O10 0.807983 0.966601 0.850553
O O11 0.000000 0.500000 0.000000
O O12 0.437102 0.666400 0.311201
O O13 0.500000 0.000000 0.500000
O O14 0.328191 0.421732 0.055532
O O15 0.134833 0.456111 0.833734
#
# Coordination Sequence:
#
# PCOD8020012 Si02
#       7
#     2   2   2   2   2   2   2
#     4   9  20  43  62  88 131 163 202 262 310 359
#     4  11  21  42  64  89 132 164 207 261 313 365
#     4  12  19  40  69  89 126 169 206 261 317 363
#     4  11  22  40  66  96 127 165 211 258 308 381
#     4  10  22  42  64  95 128 165 207 256 316 370
#     4   9  21  40  63  90 124 171 202 253 319 363
#     4  12  23  38  68  96 119 173 212 248 321 373
#
# _framework density 21.926970000000001
#
# number of rings (size 3 to 8) (size 9 to 14) (size 15 to 20)
#    0.857    0.571    5.714    0.857    0.000    1.714 
#    2.571    0.714    0.000    0.000    0.000    0.000 
#    0.000    0.000    0.000    0.000    0.000    0.000 
#
# Total GULP energy -173540.320341 kJ/mol
# GULP energy per Si atom -12395.737167 kJ/mol
# Density = 2.187706 g / cm^3
# Si number density = 21.926970 Si / 1000 Ang^3
#
#
#
# Elastic Constant Matrix: (Units=GPa)
#
#
# Indices 1 2 3 4 5 6 
#
# 1 144.8911 25.1633 53.1192 11.5666 7.0672 -4.9236
# 2 25.1633 57.5798 22.4047 12.5552 -7.3025 -27.0822
# 3 53.1192 22.4047 125.0807 22.1971 -13.8878 -1.9398
# 4 11.5666 12.5552 22.1971 27.6726 -19.3326 0.0310
# 5 7.0672 -7.3025 -13.8878 -19.3326 34.3323 5.2255
# 6 -4.9236 -27.0822 -1.9398 0.0310 5.2255 26.6395
#
#
#
# Elastic Compliance Matrix: (Units=1/GPa)
#
#
# Indices 1 2 3 4 5 6 
#
# 1 0.009245 -0.002442 -0.003398 -0.004464 -0.006346 0.000229
# 2 -0.002442 0.048011 -0.003375 -0.028017 -0.014178 0.050926
# 3 -0.003398 -0.003375 0.010986 -0.003891 0.002814 -0.003807
# 4 -0.004464 -0.028017 -0.003891 0.088092 0.048972 -0.039300
# 5 -0.006346 -0.014178 0.002814 0.048972 0.060282 -0.027263
# 6 0.000229 0.050926 -0.003807 -0.039300 -0.027263 0.094469
#
#
# Mechanical properties :
#
#
# Convention : Reuss Voigt Hill
#
# Bulk Modulus (GPa) = 20.07516 58.76954 39.42235
# Shear Modulus (GPa) = 14.44588 32.85316 23.64952
#
# Velocity S-wave (km/s) = 2.56953 3.87499 3.28770
# Velocity P-wave (km/s) = 4.24012 6.84699 5.69473
#
# Compressibility (1/GPa) = 0.04981281
#
# Stress axis : x y z
#
# Youngs Moduli (GPa) = 108.16550 20.82848 91.02383
#
# Poissons Ratio (x) = 0.05086 0.30926
# Poissons Ratio (y) = 0.26414 0.30723
# Poissons Ratio (z) = 0.36749 0.07030
#
# Static dielectric constant tensor:
#      x y z
#    x 3.782270 -0.357590 0.015400 
#    y -0.357590 3.736760 0.127070 
#    z 0.015400 0.127070 4.132080 
# 
# 
# High freq. dielectric constant tensor:
#      x y z
#    x 1.850410 -0.028770 0.000320 
#    y -0.028770 1.842260 0.010180 
#    z 0.000320 0.010180 1.868880 
# 
# From -- ./inp_files/460882.got.cif
#   From: 2010.06.25/outbox.cif.g09.slc.cpg/sg2_231_cif.got.tgz:460882.got - 2010.06.27 13:26:56.
