data_PCOD8020171
_publ_section_title
;
Structure prediction by ZEFSAII (Michael W. Deem and Ramdas Pophale) SiO2 
 PCOD8020171
Probable space group: P -1
;
_chemical_formula_sum "Si O2"
_cell_formula_units_Z 16
_cell_length_a 14.537044
_cell_length_b 9.491829
_cell_length_c 16.208002
_cell_angle_alpha 52.007705
_cell_angle_beta 40.165003
_cell_angle_gamma 84.720861
_cell_volume 759.072502
_symmetry_space_group_name_H-M "P -1"
_symmetry_group_IT_number 2
_symmetry_cell_setting 'triclinic'
loop_
_space_group_symop_operation_xyz
x,y,z
-x,-y,-z
loop_
_atom_site_type_symbol
_atom_site_label
_atom_site_fract_x
_atom_site_fract_y
_atom_site_fract_z
Si Si1 0.735278 0.139439 0.243329
Si Si2 0.587070 0.398609 0.443952
Si Si3 0.701302 0.061548 0.846793
Si Si4 0.604248 0.514590 0.700508
Si Si5 0.901190 0.450365 0.283687
Si Si6 0.703898 0.514104 0.155856
Si Si7 0.146324 0.927482 0.638554
Si Si8 0.042957 0.443643 0.608562
O O1 0.623447 0.231441 0.300187
O O2 0.794558 0.107198 0.301879
O O3 0.599088 0.885386 0.369981
O O4 0.948620 0.376062 0.959952
O O5 0.500000 0.500000 0.500000
O O6 0.697679 0.392966 0.443955
O O7 0.768240 0.601985 0.176053
O O8 0.874070 0.285411 0.579520
O O9 0.821815 0.183194 0.809099
O O10 0.500000 0.000000 0.000000
O O11 0.593041 0.765546 0.015081
O O12 0.497398 0.541459 0.695668
O O13 0.773096 0.533680 0.538578
O O14 0.730932 0.774781 0.576951
O O15 0.812396 0.166206 0.433074
O O16 0.014491 0.582633 0.246623
O O17 0.895528 0.744279 0.881036
#
# Coordination Sequence:
#
# PCOD8020171 Si02
#       8
#     2   2   2   2   2   2   2   2
#     4  11  22  39  57  79 126 179 207 235 286 351
#     4  12  23  34  54  86 123 163 205 250 286 340
#     4   9  21  43  69  88 116 154 195 246 319 378
#     4  11  21  36  65  93 118 155 204 248 296 362
#     4  11  23  39  58  88 125 159 206 250 293 347
#     4  11  20  37  58  81 123 169 209 232 288 356
#     4  11  21  38  60  84 122 175 207 240 287 352
#     4  10  22  42  66  92 118 152 196 257 313 357
#
# _framework density 21.078354999999998
#
# number of rings (size 3 to 8) (size 9 to 14) (size 15 to 20)
#    0.000    1.250    3.750    3.375    0.000    4.500 
#    0.000    0.625    0.000   15.750    0.000    0.000 
#    0.000    0.000    0.000    0.000    0.000    0.000 
#
# Total GULP energy -198211.222622 kJ/mol
# GULP energy per Si atom -12388.201414 kJ/mol
# Density = 2.103038 g / cm^3
# Si number density = 21.078355 Si / 1000 Ang^3
#
#
#
# Elastic Constant Matrix: (Units=GPa)
#
#
# Indices 1 2 3 4 5 6 
#
# 1 96.0967 54.7525 23.5278 1.7345 -17.5953 0.7401
# 2 54.7525 149.6923 52.8360 -10.2571 -0.0069 -10.4453
# 3 23.5278 52.8360 65.0409 -18.6322 -6.4613 -11.1937
# 4 1.7345 -10.2571 -18.6322 36.5597 -2.8106 2.9025
# 5 -17.5953 -0.0069 -6.4613 -2.8106 25.0630 -6.4850
# 6 0.7401 -10.4453 -11.1937 2.9025 -6.4850 29.3873
#
#
#
# Elastic Compliance Matrix: (Units=1/GPa)
#
#
# Indices 1 2 3 4 5 6 
#
# 1 0.015789 -0.005716 -0.000532 -0.001792 0.010722 -0.000089
# 2 -0.005716 0.011640 -0.008405 -0.001220 -0.006366 -0.000205
# 3 -0.000532 -0.008405 0.028544 0.012319 0.010705 0.009044
# 4 -0.001792 -0.001220 0.012319 0.033670 0.006306 0.002370
# 5 0.010722 -0.006366 0.010705 0.006306 0.054227 0.012888
# 6 -0.000089 -0.000205 0.009044 0.002370 0.012888 0.040013
#
#
# Mechanical properties :
#
#
# Convention : Reuss Voigt Hill
#
# Bulk Modulus (GPa) = 37.49867 63.67360 50.58613
# Shear Modulus (GPa) = 22.51471 30.18292 26.34881
#
# Velocity S-wave (km/s) = 3.27179 3.78820 3.53943
# Velocity P-wave (km/s) = 5.66583 7.02905 6.38393
#
# Compressibility (1/GPa) = 0.02666761
#
# Stress axis : x y z
#
# Youngs Moduli (GPa) = 63.33324 85.91405 35.03382
#
# Poissons Ratio (x) = 0.49109 0.01863
# Poissons Ratio (y) = 0.36202 0.29445
# Poissons Ratio (z) = 0.03368 0.72209
#
# Static dielectric constant tensor:
#      x y z
#    x 3.876140 -0.261270 -0.039910 
#    y -0.261270 4.026270 -0.398140 
#    z -0.039910 -0.398140 4.173460 
# 
# 
# High freq. dielectric constant tensor:
#      x y z
#    x 1.820060 -0.017620 -0.022180 
#    y -0.017620 1.820130 -0.019730 
#    z -0.022180 -0.019730 1.825770 
# 
# From -- ./inp_files/528269.got.cif
#   From: 2010.06.25/outbox.cif.g09.slc.cpg/sg2_265_cif.got.tgz:528269.got - 2010.06.27 13:26:56.
