data_PCOD8020224
_publ_section_title
;
Structure prediction by ZEFSAII (Michael W. Deem and Ramdas Pophale) SiO2 
 PCOD8020224
Probable space group: P -1
;
_chemical_formula_sum "Si O2"
_cell_formula_units_Z 16
_cell_length_a 9.089632
_cell_length_b 15.081372
_cell_length_c 8.453542
_cell_angle_alpha 105.308747
_cell_angle_beta 93.806217
_cell_angle_gamma 41.492783
_cell_volume 724.703166
_symmetry_space_group_name_H-M "P -1"
_symmetry_group_IT_number 2
_symmetry_cell_setting 'triclinic'
loop_
_space_group_symop_operation_xyz
x,y,z
-x,-y,-z
loop_
_atom_site_type_symbol
_atom_site_label
_atom_site_fract_x
_atom_site_fract_y
_atom_site_fract_z
Si Si1 0.127755 0.571032 0.166528
Si Si2 0.411829 0.400946 0.810585
Si Si3 0.983824 0.874303 0.835747
Si Si4 0.169450 0.377753 0.579694
Si Si5 0.176386 0.114377 0.668585
Si Si6 0.452827 0.562436 0.695113
Si Si7 0.676838 0.888762 0.654761
Si Si8 0.902846 0.105937 0.811786
O O1 0.338207 0.473794 0.256032
O O2 0.946699 0.591156 0.246924
O O3 0.014982 0.724400 0.208737
O O4 0.208493 0.492721 0.967454
O O5 0.362156 0.359205 0.636274
O O6 0.422469 0.500020 0.797961
O O7 0.645464 0.261339 0.844438
O O8 0.816593 0.865332 0.800300
O O9 0.235914 0.728657 0.735809
O O10 0.903494 0.995658 0.773586
O O11 0.980034 0.905108 0.031337
O O12 0.277503 0.239614 0.434889
O O13 0.000000 0.500000 0.500000
O O14 0.235912 0.092783 0.478399
O O15 0.068741 0.063916 0.664205
O O16 0.410121 0.024701 0.736740
O O17 0.500000 0.500000 0.500000
#
# Coordination Sequence:
#
# PCOD8020224 Si02
#       8
#     2   2   2   2   2   2   2   2
#     4  11  22  42  68  97 131 177 222 269 334 396
#     4  12  24  44  70  98 135 177 228 273 327 410
#     4  11  25  44  65  98 141 166 221 281 329 389
#     4  11  25  45  65 101 134 174 226 276 336 390
#     4  10  22  42  66  97 126 175 226 262 330 398
#     4  12  23  42  68 101 134 173 220 279 338 392
#     4  10  24  45  65  93 134 175 217 272 332 398
#     4  11  25  43  67 103 130 175 223 273 332 392
#
# _framework density 22.078005000000001
#
# number of rings (size 3 to 8) (size 9 to 14) (size 15 to 20)
#    0.000    1.000    2.500    4.500    5.250    3.000 
#    0.000    0.000    0.000    0.000    0.000    0.000 
#    0.000    0.000    0.000    0.000    0.000    0.000 
#
# Total GULP energy -198429.515743 kJ/mol
# GULP energy per Si atom -12401.844734 kJ/mol
# Density = 2.202775 g / cm^3
# Si number density = 22.078005 Si / 1000 Ang^3
#
#
#
# Elastic Constant Matrix: (Units=GPa)
#
#
# Indices 1 2 3 4 5 6 
#
# 1 64.5233 22.8322 7.1693 4.7181 14.0297 -8.5398
# 2 22.8322 124.8058 24.0956 5.7736 -4.2205 -9.0998
# 3 7.1693 24.0956 59.0664 4.3466 10.5712 3.0260
# 4 4.7181 5.7736 4.3466 29.8976 -3.5262 -2.8446
# 5 14.0297 -4.2205 10.5712 -3.5262 42.4681 -8.4924
# 6 -8.5398 -9.0998 3.0260 -2.8446 -8.4924 38.6821
#
#
#
# Elastic Compliance Matrix: (Units=1/GPa)
#
#
# Indices 1 2 3 4 5 6 
#
# 1 0.018503 -0.003439 0.000453 -0.002935 -0.006491 0.001599
# 2 -0.003439 0.009816 -0.004396 -0.000013 0.003748 0.002715
# 3 0.000453 -0.004396 0.020351 -0.003387 -0.006786 -0.004265
# 4 -0.002935 -0.000013 -0.003387 0.035370 0.005430 0.003407
# 5 -0.006491 0.003748 -0.006786 0.005430 0.029578 0.006873
# 6 0.001599 0.002715 -0.004265 0.003407 0.006873 0.028937
#
#
# Mechanical properties :
#
#
# Convention : Reuss Voigt Hill
#
# Bulk Modulus (GPa) = 29.49435 39.62108 34.55771
# Shear Modulus (GPa) = 29.65248 35.16276 32.40762
#
# Velocity S-wave (km/s) = 3.66878 3.99514 3.83543
# Velocity P-wave (km/s) = 5.59774 6.26630 5.94143
#
# Compressibility (1/GPa) = 0.03390480
#
# Stress axis : x y z
#
# Youngs Moduli (GPa) = 54.04618 101.87804 49.13857
#
# Poissons Ratio (x) = 0.35041 -0.02226
# Poissons Ratio (y) = 0.18589 0.21599
# Poissons Ratio (z) = -0.02449 0.44782
#
# Static dielectric constant tensor:
#      x y z
#    x 4.157140 0.029090 -0.007850 
#    y 0.029090 4.180770 -0.040580 
#    z -0.007850 -0.040580 3.792870 
# 
# 
# High freq. dielectric constant tensor:
#      x y z
#    x 1.874910 -0.005090 0.003230 
#    y -0.005090 1.878330 -0.002890 
#    z 0.003230 -0.002890 1.862510 
# 
# From -- ./inp_files/207763.got.cif
#   From: 2010.06.25/outbox.cif.g09.slc.cpg/sg2_104_cif.got.tgz:207763.got - 2010.06.27 13:26:56.
