data_PCOD8020366
_publ_section_title
;
Structure prediction by ZEFSAII (Michael W. Deem and Ramdas Pophale) SiO2 
 PCOD8020366
Probable space group: P -1
;
_chemical_formula_sum "Si O2"
_cell_formula_units_Z 16
_cell_length_a 5.306075
_cell_length_b 7.754738
_cell_length_c 20.731109
_cell_angle_alpha 58.366445
_cell_angle_beta 102.441290
_cell_angle_gamma 114.729995
_cell_volume 659.667841
_symmetry_space_group_name_H-M "P -1"
_symmetry_group_IT_number 2
_symmetry_cell_setting 'triclinic'
loop_
_space_group_symop_operation_xyz
x,y,z
-x,-y,-z
loop_
_atom_site_type_symbol
_atom_site_label
_atom_site_fract_x
_atom_site_fract_y
_atom_site_fract_z
Si Si1 0.323984 0.631811 0.493155
Si Si2 0.782315 0.027649 0.889343
Si Si3 0.089184 0.846371 0.751601
Si Si4 0.644467 0.434430 0.348805
Si Si5 0.838301 0.429648 0.728435
Si Si6 0.876488 0.201940 0.989906
Si Si7 0.399472 0.027014 0.328014
Si Si8 0.260614 0.657031 0.915249
O O1 0.500000 0.500000 0.500000
O O2 0.408546 0.684973 0.561894
O O3 0.000000 0.500000 0.500000
O O4 0.393367 0.853938 0.415433
O O5 0.842935 0.214870 0.804389
O O6 0.061511 0.995659 0.934013
O O7 0.583437 0.799188 0.891632
O O8 0.674816 0.105869 0.935483
O O9 0.403177 0.986163 0.717569
O O10 0.087335 0.768730 0.840734
O O11 0.964685 0.636851 0.740446
O O12 0.908427 0.000917 0.708439
O O13 0.474192 0.598172 0.304525
O O14 0.524613 0.262527 0.319802
O O15 0.974539 0.551747 0.329458
O O16 0.752237 0.316249 0.013430
O O17 0.162149 0.401163 0.942481
#
# Coordination Sequence:
#
# PCOD8020366 Si02
#       8
#     2   2   2   2   2   2   2   2
#     4  12  25  42  65 100 136 170 214 280 321 387
#     4  11  23  41  65  92 130 177 222 281 339 396
#     4  10  22  42  67  98 130 172 222 279 327 398
#     4  10  23  44  69  94 132 177 220 263 333 398
#     4  10  22  42  67  98 130 172 222 279 327 398
#     4  10  24  44  60  94 130 168 236 268 348 400
#     4  10  23  44  69  94 132 177 220 263 333 398
#     4  11  23  41  65  92 130 177 222 281 339 396
#
# _framework density 24.254629999999999
#
# number of rings (size 3 to 8) (size 9 to 14) (size 15 to 20)
#    0.000    1.500    1.250    2.625    3.500    3.000 
#    0.000    5.000    0.000    0.000    0.000    0.000 
#    0.000    0.000    0.000    0.000    0.000    0.000 
#
# Total GULP energy -198303.016962 kJ/mol
# GULP energy per Si atom -12393.938560 kJ/mol
# Density = 2.419942 g / cm^3
# Si number density = 24.254630 Si / 1000 Ang^3
#
#
#
# Elastic Constant Matrix: (Units=GPa)
#
#
# Indices 1 2 3 4 5 6 
#
# 1 155.5702 13.9069 43.0291 -10.0649 5.3903 7.4366
# 2 13.9069 40.0337 12.2964 6.8598 8.1442 -8.8162
# 3 43.0291 12.2964 142.1975 -13.2062 15.2204 -5.2005
# 4 -10.0649 6.8598 -13.2062 39.4568 -7.2809 5.0849
# 5 5.3903 8.1442 15.2204 -7.2809 38.6261 1.6349
# 6 7.4366 -8.8162 -5.2005 5.0849 1.6349 17.4203
#
#
#
# Elastic Compliance Matrix: (Units=1/GPa)
#
#
# Indices 1 2 3 4 5 6 
#
# 1 0.007967 -0.004710 -0.002144 0.003423 0.001692 -0.007583
# 2 -0.004710 0.036746 -0.000949 -0.013029 -0.010234 0.025088
# 3 -0.002144 -0.000949 0.008284 0.001567 -0.002583 0.002693
# 4 0.003423 -0.013029 0.001567 0.032918 0.008619 -0.018005
# 5 0.001692 -0.010234 -0.002583 0.008619 0.030966 -0.012095
# 6 -0.007583 0.025088 0.002693 -0.018005 -0.012095 0.080533
#
#
# Mechanical properties :
#
#
# Convention : Reuss Voigt Hill
#
# Bulk Modulus (GPa) = 26.74484 52.91844 39.83164
# Shear Modulus (GPa) = 22.17452 37.00524 29.58988
#
# Velocity S-wave (km/s) = 3.02692 3.91026 3.49659
# Velocity P-wave (km/s) = 4.82358 6.50016 5.72359
#
# Compressibility (1/GPa) = 0.03739039
#
# Stress axis : x y z
#
# Youngs Moduli (GPa) = 125.51204 27.21375 120.71527
#
# Poissons Ratio (x) = 0.12817 0.25884
# Poissons Ratio (y) = 0.59114 0.11462
# Poissons Ratio (z) = 0.26912 0.02584
#
# Static dielectric constant tensor:
#      x y z
#    x 4.492830 0.114200 -0.084700 
#    y 0.114200 4.596070 0.021890 
#    z -0.084700 0.021890 4.548250 
# 
# 
# High freq. dielectric constant tensor:
#      x y z
#    x 1.954350 0.001670 0.002280 
#    y 0.001670 1.971230 0.003700 
#    z 0.002280 0.003700 1.971790 
# 
# From -- ./inp_files/116342.got.cif
#   From: 2010.06.25/outbox.cif.g09.slc.cpg/sg2_59_cif.got.tgz:116342.got - 2010.06.27 13:26:56.
