data_PCOD8020135
_publ_section_title
;
Structure prediction by ZEFSAII (Michael W. Deem and Ramdas Pophale) SiO2 
 PCOD8020135
Probable space group: P -1
;
_chemical_formula_sum "Si O2"
_cell_formula_units_Z 16
_cell_length_a 9.282332
_cell_length_b 15.232251
_cell_length_c 12.167388
_cell_angle_alpha 112.550317
_cell_angle_beta 130.022768
_cell_angle_gamma 108.540550
_cell_volume 732.751252
_symmetry_space_group_name_H-M "P -1"
_symmetry_group_IT_number 2
_symmetry_cell_setting 'triclinic'
loop_
_space_group_symop_operation_xyz
x,y,z
-x,-y,-z
loop_
_atom_site_type_symbol
_atom_site_label
_atom_site_fract_x
_atom_site_fract_y
_atom_site_fract_z
Si Si1 0.398213 0.231821 0.214284
Si Si2 0.588906 0.644194 0.923557
Si Si3 0.928574 0.880883 0.786809
Si Si4 0.497326 0.012980 0.875655
Si Si5 0.348690 0.156894 0.783820
Si Si6 0.987945 0.631516 0.142718
Si Si7 0.533351 0.289638 0.701789
Si Si8 0.041513 0.671685 0.437869
O O1 0.426138 0.335766 0.202440
O O2 0.365284 0.244682 0.333369
O O3 0.707102 0.296537 0.368661
O O4 0.086437 0.048001 0.942715
O O5 0.280607 0.459137 0.714923
O O6 0.622481 0.750588 0.066080
O O7 0.897438 0.704810 0.116723
O O8 0.799361 0.815781 0.567406
O O9 0.176795 0.902878 0.961847
O O10 0.498725 0.122699 0.892696
O O11 0.192018 0.838139 0.589740
O O12 0.500000 0.000000 0.000000
O O13 0.529045 0.259986 0.812584
O O14 0.000000 0.000000 0.500000
O O15 0.329907 0.745481 0.316481
O O16 0.972294 0.604970 0.251245
O O17 0.746801 0.468357 0.879875
#
# Coordination Sequence:
#
# PCOD8020135 Si02
#       8
#     2   2   2   2   2   2   2   2
#     4  10  22  42  65  99 129 177 222 272 335 399
#     4  12  25  42  70  99 134 173 231 272 336 398
#     4  10  22  43  68  91 139 177 216 276 336 399
#     4  11  25  42  70 101 136 177 223 273 345 393
#     4  12  25  43  69 104 136 172 227 283 327 401
#     4  11  25  43  68  97 133 184 219 277 339 399
#     4  11  24  46  66  97 138 175 227 276 336 393
#     4  11  22  45  66  97 136 178 221 273 339 402
#
# _framework density 21.835512999999999
#
# number of rings (size 3 to 8) (size 9 to 14) (size 15 to 20)
#    0.000    1.000    2.500    4.500    5.250    0.000 
#    0.000    2.500    0.000    0.000    0.000    0.000 
#    0.000    0.000    0.000    0.000    0.000    0.000 
#
# Total GULP energy -198418.606412 kJ/mol
# GULP energy per Si atom -12401.162901 kJ/mol
# Density = 2.178581 g / cm^3
# Si number density = 21.835513 Si / 1000 Ang^3
#
#
#
# Elastic Constant Matrix: (Units=GPa)
#
#
# Indices 1 2 3 4 5 6 
#
# 1 91.0696 39.6720 15.3554 -1.8673 1.0530 -9.9238
# 2 39.6720 106.6406 19.9714 -19.8694 0.3357 -10.0312
# 3 15.3554 19.9714 82.0378 -5.4971 -6.2232 -13.5011
# 4 -1.8673 -19.8694 -5.4971 27.8353 2.5511 -4.2300
# 5 1.0530 0.3357 -6.2232 2.5511 32.3517 -4.6593
# 6 -9.9238 -10.0312 -13.5011 -4.2300 -4.6593 38.4066
#
#
#
# Elastic Compliance Matrix: (Units=1/GPa)
#
#
# Indices 1 2 3 4 5 6 
#
# 1 0.013552 -0.005205 -0.001250 -0.002826 -0.000208 0.001366
# 2 -0.005205 0.013598 -0.001288 0.009572 -0.000580 0.002738
# 3 -0.001250 -0.001288 0.013934 0.002190 0.003264 0.004876
# 4 -0.002826 0.009572 0.002190 0.044278 -0.002045 0.007168
# 5 -0.000208 -0.000580 0.003264 -0.002045 0.032381 0.004645
# 6 0.001366 0.002738 0.004876 0.007168 0.004645 0.030172
#
#
# Mechanical properties :
#
#
# Convention : Reuss Voigt Hill
#
# Bulk Modulus (GPa) = 39.06572 47.74951 43.40761
# Shear Modulus (GPa) = 29.08106 33.36868 31.22487
#
# Velocity S-wave (km/s) = 3.65338 3.91344 3.78564
# Velocity P-wave (km/s) = 5.97712 6.50656 6.24745
#
# Compressibility (1/GPa) = 0.02559789
#
# Stress axis : x y z
#
# Youngs Moduli (GPa) = 73.78936 73.54219 71.76791
#
# Poissons Ratio (x) = 0.38278 0.08969
# Poissons Ratio (y) = 0.38407 0.09244
# Poissons Ratio (z) = 0.09222 0.09473
#
# Static dielectric constant tensor:
#      x y z
#    x 4.165790 -0.046240 0.118430 
#    y -0.046240 4.007630 -0.109200 
#    z 0.118430 -0.109200 4.017670 
# 
# 
# High freq. dielectric constant tensor:
#      x y z
#    x 1.866300 0.002800 0.002490 
#    y 0.002800 1.848150 -0.010380 
#    z 0.002490 -0.010380 1.863200 
# 
# From -- ./inp_files/271273.got.cif
#   From: 2010.06.25/outbox.cif.g09.slc.cpg/sg2_136_cif.got.tgz:271273.got - 2010.06.27 13:26:56.
