data_PCOD8020397
_publ_section_title
;
Structure prediction by ZEFSAII (Michael W. Deem and Ramdas Pophale) SiO2 
 PCOD8020397
Probable space group: P -1
;
_chemical_formula_sum "Si O2"
_cell_formula_units_Z 16
_cell_length_a 9.889261
_cell_length_b 10.500385
_cell_length_c 12.924567
_cell_angle_alpha 147.957193
_cell_angle_beta 82.095792
_cell_angle_gamma 101.833344
_cell_volume 695.217094
_symmetry_space_group_name_H-M "P -1"
_symmetry_group_IT_number 2
_symmetry_cell_setting 'triclinic'
loop_
_space_group_symop_operation_xyz
x,y,z
-x,-y,-z
loop_
_atom_site_type_symbol
_atom_site_label
_atom_site_fract_x
_atom_site_fract_y
_atom_site_fract_z
Si Si1 0.636293 0.197162 0.145089
Si Si2 0.534240 0.646877 0.390037
Si Si3 0.599789 0.558655 0.935234
Si Si4 0.825129 0.170312 0.914919
Si Si5 0.271620 0.875981 0.316506
Si Si6 0.036923 0.910825 0.612512
Si Si7 0.296660 0.886180 0.688204
Si Si8 0.956915 0.705781 0.274023
O O1 0.605023 0.474011 0.339322
O O2 0.705597 0.172250 0.231059
O O3 0.755243 0.154338 0.022538
O O4 0.500000 0.000000 0.000000
O O5 0.480185 0.455554 0.174165
O O6 0.416875 0.767335 0.540640
O O7 0.646405 0.861520 0.474774
O O8 0.691894 0.345864 0.773395
O O9 0.500000 0.500000 0.000000
O O10 0.686227 0.823539 0.125020
O O11 0.700376 0.136295 0.819295
O O12 0.929418 0.977900 0.756912
O O13 0.920634 0.427957 0.056069
O O14 0.108301 0.854247 0.329251
O O15 0.123273 0.133964 0.685621
O O16 0.151067 0.786828 0.577576
O O17 0.946326 0.720539 0.410520
#
# Coordination Sequence:
#
# PCOD8020397 Si02
#       8
#     2   2   2   2   2   2   2   2
#     4  12  27  50  70  95 137 193 239 282 338 406
#     4  12  26  44  70 103 142 183 231 285 346 411
#     4  12  23  39  66 105 147 170 221 285 358 411
#     4  11  24  45  70  96 139 184 229 281 344 412
#     4  11  22  41  72 106 140 181 223 287 356 412
#     4  10  23  41  70 101 136 175 226 283 350 408
#     4  12  25  46  69 103 142 186 232 286 335 415
#     4  10  22  42  68 102 141 175 225 284 349 421
#
# _framework density 23.014392999999998
#
# number of rings (size 3 to 8) (size 9 to 14) (size 15 to 20)
#    0.000    0.750    2.500    6.000    7.000    0.500 
#    0.000    0.625    0.000    0.000    0.000    0.000 
#    0.000    0.000    0.000    0.000    0.000    0.000 
#
# Total GULP energy -198285.072312 kJ/mol
# GULP energy per Si atom -12392.817019 kJ/mol
# Density = 2.296201 g / cm^3
# Si number density = 23.014393 Si / 1000 Ang^3
#
#
#
# Elastic Constant Matrix: (Units=GPa)
#
#
# Indices 1 2 3 4 5 6 
#
# 1 86.2715 40.1677 23.7021 -6.9326 -5.8831 -11.5419
# 2 40.1677 107.1425 23.2227 -14.0433 -13.0044 -16.8992
# 3 23.7021 23.2227 91.2959 -0.5343 -8.1666 -4.4437
# 4 -6.9326 -14.0433 -0.5343 43.1178 -9.9650 -0.6798
# 5 -5.8831 -13.0044 -8.1666 -9.9650 21.6761 -2.4679
# 6 -11.5419 -16.8992 -4.4437 -0.6798 -2.4679 43.2857
#
#
#
# Elastic Compliance Matrix: (Units=1/GPa)
#
#
# Indices 1 2 3 4 5 6 
#
# 1 0.014769 -0.004348 -0.002507 0.001253 0.001268 0.002075
# 2 -0.004348 0.014081 -0.001261 0.006319 0.010255 0.004892
# 3 -0.002507 -0.001261 0.012229 0.000092 0.003245 0.000281
# 4 0.001253 0.006319 0.000092 0.029759 0.018339 0.004323
# 5 0.001268 0.010255 0.003245 0.018339 0.063259 0.008569
# 6 0.002075 0.004892 0.000281 0.004323 0.008569 0.026151
#
#
# Mechanical properties :
#
#
# Convention : Reuss Voigt Hill
#
# Bulk Modulus (GPa) = 40.24283 50.98833 45.61558
# Shear Modulus (GPa) = 27.06166 34.79042 30.92604
#
# Velocity S-wave (km/s) = 3.43280 3.89225 3.66972
# Velocity P-wave (km/s) = 5.76507 6.51173 6.14974
#
# Compressibility (1/GPa) = 0.02484915
#
# Stress axis : x y z
#
# Youngs Moduli (GPa) = 67.70807 71.01635 81.77062
#
# Poissons Ratio (x) = 0.30880 0.20496
# Poissons Ratio (y) = 0.29441 0.10307
# Poissons Ratio (z) = 0.16972 0.08952
#
# Static dielectric constant tensor:
#      x y z
#    x 3.460370 0.662800 0.802350 
#    y 0.662800 2.914080 -1.189850 
#    z 0.802350 -1.189850 3.492790 
# 
# 
# High freq. dielectric constant tensor:
#      x y z
#    x 1.906300 -0.011960 -0.003520 
#    y -0.011960 1.895160 -0.012700 
#    z -0.003520 -0.012700 1.927360 
# 
# From -- ./inp_files/418595.got.cif
#   From: 2010.06.25/outbox.cif.g09.slc.cpg/sg2_210_cif.got.tgz:418595.got - 2010.06.27 13:26:56.
