data_PCOD8020847
_publ_section_title
;
Structure prediction by ZEFSAII (Michael W. Deem and Ramdas Pophale) SiO2 
 PCOD8020847
Probable space group: P -1
;
_chemical_formula_sum "Si O2"
_cell_formula_units_Z 14
_cell_length_a 7.516135
_cell_length_b 7.072812
_cell_length_c 17.992517
_cell_angle_alpha 58.060526
_cell_angle_beta 51.967519
_cell_angle_gamma 56.983229
_cell_volume 604.057481
_symmetry_space_group_name_H-M "P -1"
_symmetry_group_IT_number 2
_symmetry_cell_setting 'triclinic'
loop_
_space_group_symop_operation_xyz
x,y,z
-x,-y,-z
loop_
_atom_site_type_symbol
_atom_site_label
_atom_site_fract_x
_atom_site_fract_y
_atom_site_fract_z
Si Si1 0.432918 0.085461 0.680853
Si Si2 0.340249 0.959552 0.886459
Si Si3 0.889570 0.393002 0.925652
Si Si4 0.235719 0.340071 0.391906
Si Si5 0.718181 0.909735 0.905563
Si Si6 0.917990 0.318574 0.765646
Si Si7 0.705066 0.408687 0.529961
O O1 0.551339 0.902057 0.624316
O O2 0.341318 0.960542 0.797489
O O3 0.625991 0.205870 0.633184
O O4 0.187652 0.277694 0.673382
O O5 0.139955 0.191662 0.923275
O O6 0.599201 0.960531 0.844583
O O7 0.314592 0.715716 0.974320
O O8 0.865740 0.628916 0.930351
O O9 0.873665 0.451229 0.829139
O O10 0.257253 0.526511 0.284506
O O11 0.289320 0.401652 0.448636
O O12 0.978858 0.301695 0.453642
O O13 0.892624 0.061630 0.838584
O O14 0.500000 0.000000 0.000000
O O15 0.500000 0.500000 0.500000
#
# Coordination Sequence:
#
# PCOD8020847 Si02
#       7
#     2   2   2   2   2   2   2
#     4  11  24  44  70 100 133 178 227 280 340 406
#     4  10  22  43  64  92 135 181 224 279 339 389
#     4  10  23  43  62  92 138 180 223 284 328 393
#     4  11  25  45  75  99 137 178 221 281 345 413
#     4  12  24  37  63  95 131 182 232 275 330 395
#     4  11  24  43  64 102 135 176 232 273 337 404
#     4  11  24  49  71 103 137 170 223 284 347 413
#
# _framework density 23.176601000000002
#
# number of rings (size 3 to 8) (size 9 to 14) (size 15 to 20)
#    0.000    1.143    2.857    2.571    2.000    4.571 
#    5.143    0.000    0.000    0.000    0.000    0.000 
#    0.000    0.000    0.000    0.000    0.000    0.000 
#
# Total GULP energy -173532.253725 kJ/mol
# GULP energy per Si atom -12395.160980 kJ/mol
# Density = 2.312385 g / cm^3
# Si number density = 23.176601 Si / 1000 Ang^3
#
#
#
# Elastic Constant Matrix: (Units=GPa)
#
#
# Indices 1 2 3 4 5 6 
#
# 1 87.5528 24.5831 23.9287 -0.3786 -6.0917 1.1213
# 2 24.5831 127.7084 38.9923 12.5706 -13.7610 7.9924
# 3 23.9287 38.9923 88.7548 4.9179 -15.5685 1.0565
# 4 -0.3786 12.5706 4.9179 33.1210 0.1037 -4.1717
# 5 -6.0917 -13.7610 -15.5685 0.1037 30.0789 -9.2013
# 6 1.1213 7.9924 1.0565 -4.1717 -9.2013 21.1688
#
#
#
# Elastic Compliance Matrix: (Units=1/GPa)
#
#
# Indices 1 2 3 4 5 6 
#
# 1 0.012666 -0.001736 -0.002625 0.001271 0.000600 0.000627
# 2 -0.001736 0.009950 -0.003419 -0.003753 0.001325 -0.003658
# 3 -0.002625 -0.003419 0.014606 -0.000489 0.006517 0.003438
# 4 0.001271 -0.003753 -0.000489 0.032723 0.000655 0.008107
# 5 0.000600 0.001325 0.006517 0.000655 0.042814 0.017882
# 6 0.000627 -0.003658 0.003438 0.008107 0.017882 0.057786
#
#
# Mechanical properties :
#
#
# Convention : Reuss Voigt Hill
#
# Bulk Modulus (GPa) = 46.16555 53.22491 49.69523
# Shear Modulus (GPa) = 25.86316 31.30787 28.58551
#
# Velocity S-wave (km/s) = 3.34416 3.67936 3.51576
# Velocity P-wave (km/s) = 5.90538 6.40820 6.16192
#
# Compressibility (1/GPa) = 0.02166118
#
# Stress axis : x y z
#
# Youngs Moduli (GPa) = 78.95325 100.50638 68.46464
#
# Poissons Ratio (x) = 0.17452 0.17969
# Poissons Ratio (y) = 0.13710 0.23409
# Poissons Ratio (z) = 0.20722 0.34365
#
# Static dielectric constant tensor:
#      x y z
#    x 4.353630 -0.073320 -0.216100 
#    y -0.073320 4.026640 -0.000180 
#    z -0.216100 -0.000180 4.291960 
# 
# 
# High freq. dielectric constant tensor:
#      x y z
#    x 1.916210 -0.007210 -0.002950 
#    y -0.007210 1.909670 0.003020 
#    z -0.002950 0.003020 1.922540 
# 
# From -- ./inp_files/585518.got.cif
#   From: 2010.06.25/outbox.cif.g09.slc.cpg/sg2_293_cif.got.tgz:585518.got - 2010.06.27 13:26:56.
