data_PCOD8020884
_publ_section_title
;
Structure prediction by ZEFSAII (Michael W. Deem and Ramdas Pophale) SiO2 
 PCOD8020884
Probable space group: P -1
;
_chemical_formula_sum "Si O2"
_cell_formula_units_Z 14
_cell_length_a 18.476729
_cell_length_b 9.229108
_cell_length_c 14.495554
_cell_angle_alpha 51.446232
_cell_angle_beta 159.657924
_cell_angle_gamma 127.406710
_cell_volume 669.541458
_symmetry_space_group_name_H-M "P -1"
_symmetry_group_IT_number 2
_symmetry_cell_setting 'triclinic'
loop_
_space_group_symop_operation_xyz
x,y,z
-x,-y,-z
loop_
_atom_site_type_symbol
_atom_site_label
_atom_site_fract_x
_atom_site_fract_y
_atom_site_fract_z
Si Si1 0.574349 0.954664 0.210291
Si Si2 0.084131 0.670359 0.094351
Si Si3 0.686373 0.487610 0.327190
Si Si4 0.372538 0.202131 0.005289
Si Si5 0.974637 0.946687 0.210130
Si Si6 0.473311 0.468497 0.694564
Si Si7 0.086197 0.338645 0.912199
O O1 0.575879 0.736912 0.324828
O O2 0.805199 0.049198 0.473393
O O3 0.500000 0.000000 0.000000
O O4 0.399645 0.031058 0.037634
O O5 0.311249 0.621131 0.418537
O O6 0.931553 0.715492 0.979310
O O7 0.000000 0.500000 0.000000
O O8 0.099008 0.850221 0.976382
O O9 0.698235 0.615118 0.201517
O O10 0.533628 0.567881 0.189227
O O11 0.923108 0.493241 0.642437
O O12 0.598754 0.272482 0.290148
O O13 0.201170 0.153724 0.896105
O O14 0.973417 0.836748 0.155560
O O15 0.690442 0.559851 0.881674
#
# Coordination Sequence:
#
# PCOD8020884 Si02
#       7
#     2   2   2   2   2   2   2
#     4  12  26  43  67 104 142 173 225 281 338 406
#     4  11  26  47  67 101 139 175 230 283 328 406
#     4  10  22  43  65 103 135 169 226 280 328 408
#     4  11  24  40  70  97 137 178 224 274 336 402
#     4  12  26  46  69 100 136 183 228 274 339 400
#     4  11  24  45  69  98 136 177 224 278 343 391
#     4  11  25  44  73  97 132 184 225 279 339 395
#
# _framework density 20.909832000000002
#
# number of rings (size 3 to 8) (size 9 to 14) (size 15 to 20)
#    0.000    0.857    5.714    0.429    4.000    3.429 
#    0.000    0.000    0.000    0.000    0.000    0.000 
#    0.000    0.000    0.000    0.000    0.000    0.000 
#
# Total GULP energy -173551.225531 kJ/mol
# GULP energy per Si atom -12396.516109 kJ/mol
# Density = 2.086224 g / cm^3
# Si number density = 20.909832 Si / 1000 Ang^3
#
#
#
# Elastic Constant Matrix: (Units=GPa)
#
#
# Indices 1 2 3 4 5 6 
#
# 1 129.0212 54.5038 52.8309 12.4203 4.6097 -4.8609
# 2 54.5038 119.5860 38.1190 6.5381 4.9318 0.6688
# 3 52.8309 38.1190 96.6483 11.7016 9.2278 15.4428
# 4 12.4203 6.5381 11.7016 26.0307 -1.9767 2.8778
# 5 4.6097 4.9318 9.2278 -1.9767 30.2834 2.0173
# 6 -4.8609 0.6688 15.4428 2.8778 2.0173 42.4610
#
#
#
# Elastic Compliance Matrix: (Units=1/GPa)
#
#
# Indices 1 2 3 4 5 6 
#
# 1 0.011820 -0.003573 -0.005278 -0.002761 -0.000024 0.003517
# 2 -0.003573 0.010737 -0.002270 -0.000043 -0.000534 0.000276
# 3 -0.005278 -0.002270 0.015848 -0.003648 -0.003500 -0.005919
# 4 -0.002761 -0.000043 -0.003648 0.041945 0.004412 -0.002041
# 5 -0.000024 -0.000534 -0.003500 0.004412 0.034511 -0.000660
# 6 0.003517 0.000276 -0.005919 -0.002041 -0.000660 0.026272
#
#
# Mechanical properties :
#
#
# Convention : Reuss Voigt Hill
#
# Bulk Modulus (GPa) = 61.86007 70.68478 66.27242
# Shear Modulus (GPa) = 29.62784 33.07514 31.35149
#
# Velocity S-wave (km/s) = 3.76830 3.98150 3.87637
# Velocity P-wave (km/s) = 6.97007 7.41717 7.19709
#
# Compressibility (1/GPa) = 0.01616552
#
# Stress axis : x y z
#
# Youngs Moduli (GPa) = 84.60188 93.13753 63.09809
#
# Poissons Ratio (x) = 0.33276 0.33300
# Poissons Ratio (y) = 0.30226 0.14321
# Poissons Ratio (z) = 0.44649 0.21138
#
# Static dielectric constant tensor:
#      x y z
#    x 3.964580 -0.210640 -0.105130 
#    y -0.210640 3.889470 -0.118750 
#    z -0.105130 -0.118750 3.973870 
# 
# 
# High freq. dielectric constant tensor:
#      x y z
#    x 1.830850 -0.010250 0.000380 
#    y -0.010250 1.822490 -0.000100 
#    z 0.000380 -0.000100 1.820870 
# 
# From -- ./inp_files/25358.got.cif
#   From: 2010.06.25/outbox.cif.g09.slc.cpg/sg2_13_cif.got.tgz:25358.got - 2010.06.27 13:26:56.
