data_PCOD8020145
_publ_section_title
;
Structure prediction by ZEFSAII (Michael W. Deem and Ramdas Pophale) SiO2 
 PCOD8020145
Probable space group: P -1
;
_chemical_formula_sum "Si O2"
_cell_formula_units_Z 16
_cell_length_a 11.655856
_cell_length_b 9.619953
_cell_length_c 8.223784
_cell_angle_alpha 129.569370
_cell_angle_beta 77.978423
_cell_angle_gamma 103.511832
_cell_volume 688.970555
_symmetry_space_group_name_H-M "P -1"
_symmetry_group_IT_number 2
_symmetry_cell_setting 'triclinic'
loop_
_space_group_symop_operation_xyz
x,y,z
-x,-y,-z
loop_
_atom_site_type_symbol
_atom_site_label
_atom_site_fract_x
_atom_site_fract_y
_atom_site_fract_z
Si Si1 0.708688 0.271074 0.089797
Si Si2 0.084739 0.418582 0.794146
Si Si3 0.933847 0.731243 0.638819
Si Si4 0.273168 0.094431 0.322695
Si Si5 0.799613 0.170047 0.335748
Si Si6 0.745102 0.519342 0.769753
Si Si7 0.542559 0.646617 0.728526
Si Si8 0.767508 0.796043 0.243632
O O1 0.787260 0.461431 0.173669
O O2 0.729580 0.206852 0.220726
O O3 0.572294 0.289770 0.108803
O O4 0.739160 0.123394 0.840331
O O5 0.030956 0.401595 0.615718
O O6 0.105590 0.224352 0.724221
O O7 0.000000 0.500000 0.000000
O O8 0.857836 0.626402 0.724365
O O9 0.060007 0.819758 0.738047
O O10 0.854350 0.865334 0.674787
O O11 0.377364 0.177172 0.234699
O O12 0.310922 0.169808 0.548781
O O13 0.764654 0.306332 0.590163
O O14 0.763383 0.961315 0.244306
O O15 0.618669 0.544791 0.754084
O O16 0.737317 0.600694 0.014494
O O17 0.500000 0.500000 0.500000
#
# Coordination Sequence:
#
# PCOD8020145 Si02
#       8
#     2   2   2   2   2   2   2   2
#     4  12  25  45  75 100 134 194 234 276 347 421
#     4  11  25  44  69 101 146 187 223 283 355 412
#     4  10  22  42  66 101 140 180 232 282 344 419
#     4  10  25  43  68 104 141 180 230 286 349 411
#     4  12  24  41  72 105 135 183 237 285 344 410
#     4  11  23  44  71 102 137 180 235 289 339 412
#     4  11  21  48  74  96 135 185 240 281 338 421
#     4  11  27  43  66 107 145 173 229 292 349 402
#
# _framework density 23.223054000000001
#
# number of rings (size 3 to 8) (size 9 to 14) (size 15 to 20)
#    0.000    1.000    2.500    4.500    7.000    2.000 
#    0.000    5.000    0.000    0.000    0.000    0.000 
#    0.000    0.000    0.000    0.000    0.000    0.000 
#
# Total GULP energy -198237.558030 kJ/mol
# GULP energy per Si atom -12389.847377 kJ/mol
# Density = 2.317020 g / cm^3
# Si number density = 23.223054 Si / 1000 Ang^3
#
#
#
# Elastic Constant Matrix: (Units=GPa)
#
#
# Indices 1 2 3 4 5 6 
#
# 1 116.2581 16.9299 0.3666 -5.8892 -14.7184 -4.3574
# 2 16.9299 64.7942 1.3537 2.4088 -9.8034 -16.3104
# 3 0.3666 1.3537 125.1527 -4.8821 -9.7053 -8.3534
# 4 -5.8892 2.4088 -4.8821 31.9001 -3.4762 -1.8606
# 5 -14.7184 -9.8034 -9.7053 -3.4762 35.3650 -0.9817
# 6 -4.3574 -16.3104 -8.3534 -1.8606 -0.9817 21.8900
#
#
#
# Elastic Compliance Matrix: (Units=1/GPa)
#
#
# Indices 1 2 3 4 5 6 
#
# 1 0.009508 -0.001698 0.000467 0.002448 0.003888 0.001188
# 2 -0.001698 0.020723 0.001285 -0.000123 0.005818 0.015844
# 3 0.000467 0.001285 0.008611 0.001930 0.003232 0.004645
# 4 0.002448 -0.000123 0.001930 0.032876 0.004861 0.004144
# 5 0.003888 0.005818 0.003232 0.004861 0.033101 0.008241
# 6 0.001188 0.015844 0.004645 0.004144 0.008241 0.060219
#
#
# Mechanical properties :
#
#
# Convention : Reuss Voigt Hill
#
# Bulk Modulus (GPa) = 25.67371 38.16726 31.92049
# Shear Modulus (GPa) = 28.10334 37.00136 32.55235
#
# Velocity S-wave (km/s) = 3.48249 3.99595 3.74802
# Velocity P-wave (km/s) = 5.22012 6.14499 5.70134
#
# Compressibility (1/GPa) = 0.03895035
#
# Stress axis : x y z
#
# Youngs Moduli (GPa) = 105.17348 48.25447 116.13091
#
# Poissons Ratio (x) = 0.08192 -0.05422
# Poissons Ratio (y) = 0.17855 -0.14920
# Poissons Ratio (z) = -0.04910 -0.06199
#
# Static dielectric constant tensor:
#      x y z
#    x 2.885950 0.825190 -0.210540 
#    y 0.825190 3.690560 -0.051300 
#    z -0.210540 -0.051300 4.587820 
# 
# 
# High freq. dielectric constant tensor:
#      x y z
#    x 1.912260 -0.021910 -0.007880 
#    y -0.021910 1.906250 0.000700 
#    z -0.007880 0.000700 1.933810 
# 
# From -- ./inp_files/245889.got.cif
#   From: 2010.06.25/outbox.cif.g09.slc.cpg/sg2_123_cif.got.tgz:245889.got - 2010.06.27 13:26:56.
