data_PCOD8020468
_publ_section_title
;
Structure prediction by ZEFSAII (Michael W. Deem and Ramdas Pophale) SiO2 
 PCOD8020468
Probable space group: P -1
;
_chemical_formula_sum "Si O2"
_cell_formula_units_Z 16
_cell_length_a 10.842852
_cell_length_b 23.079125
_cell_length_c 5.236015
_cell_angle_alpha 82.970802
_cell_angle_beta 106.276226
_cell_angle_gamma 149.672505
_cell_volume 615.481001
_symmetry_space_group_name_H-M "P -1"
_symmetry_group_IT_number 2
_symmetry_cell_setting 'triclinic'
loop_
_space_group_symop_operation_xyz
x,y,z
-x,-y,-z
loop_
_atom_site_type_symbol
_atom_site_label
_atom_site_fract_x
_atom_site_fract_y
_atom_site_fract_z
Si Si1 0.803931 0.796913 0.951386
Si Si2 0.329443 0.772288 0.727636
Si Si3 0.246690 0.891698 0.234963
Si Si4 0.013939 0.467370 0.277630
Si Si5 0.086762 0.101151 0.534184
Si Si6 0.524488 0.426824 0.348548
Si Si7 0.865573 0.666758 0.457351
Si Si8 0.533339 0.903075 0.248466
O O1 0.595891 0.660783 0.902733
O O2 0.742932 0.812137 0.657887
O O3 0.111296 0.897172 0.049427
O O4 0.760355 0.821385 0.159188
O O5 0.249077 0.674076 0.772816
O O6 0.410496 0.817656 0.459159
O O7 0.086381 0.716685 0.701263
O O8 0.550965 0.871680 0.016739
O O9 0.362848 0.893618 0.087275
O O10 0.997938 0.762165 0.284765
O O11 0.500000 0.000000 0.500000
O O12 0.000000 0.500000 0.500000
O O13 0.273802 0.530902 0.388291
O O14 0.000000 0.500000 0.000000
O O15 0.823285 0.035518 0.429895
O O16 0.000000 0.000000 0.500000
O O17 0.670616 0.543180 0.268351
O O18 0.282525 0.350322 0.422326
#
# Coordination Sequence:
#
# PCOD8020468 Si02
#       8
#     2   2   2   2   2   2   2   2
#     4  12  26  46  72 108 140 195 238 301 366 431
#     4  10  22  42  68  97 134 178 234 281 359 423
#     4  11  23  42  73 109 149 183 238 300 364 441
#     4  11  25  44  69 104 137 184 244 297 352 416
#     4  12  28  47  67 100 142 190 252 292 362 423
#     4  10  23  44  74 103 151 188 243 295 360 445
#     4   9  21  44  70 110 144 191 231 292 372 430
#     4  11  23  42  67  96 136 183 223 296 350 420
#
# _framework density 25.995929
#
# number of rings (size 3 to 8) (size 9 to 14) (size 15 to 20)
#    0.000    1.250    1.250    3.375    1.750    7.000 
#    0.000    5.000    0.000    0.000    0.000    0.000 
#    0.000    0.000    0.000    0.000    0.000    0.000 
#
# Total GULP energy -198284.018341 kJ/mol
# GULP energy per Si atom -12392.751146 kJ/mol
# Density = 2.593676 g / cm^3
# Si number density = 25.995929 Si / 1000 Ang^3
#
#
#
# Elastic Constant Matrix: (Units=GPa)
#
#
# Indices 1 2 3 4 5 6 
#
# 1 70.5435 29.4980 30.9960 -5.5474 -20.6033 -18.9241
# 2 29.4980 99.4342 30.0973 10.3156 -11.4990 -27.1318
# 3 30.9960 30.0973 128.7528 -4.5114 -28.4030 -20.1966
# 4 -5.5474 10.3156 -4.5114 40.2953 -8.0164 -2.8341
# 5 -20.6033 -11.4990 -28.4030 -8.0164 41.6485 16.4882
# 6 -18.9241 -27.1318 -20.1966 -2.8341 16.4882 45.1275
#
#
#
# Elastic Compliance Matrix: (Units=1/GPa)
#
#
# Indices 1 2 3 4 5 6 
#
# 1 0.020075 -0.004473 -0.001490 0.005457 0.007705 0.002590
# 2 -0.004473 0.013854 -0.002017 -0.004570 -0.003188 0.006429
# 3 -0.001490 -0.002017 0.010084 0.002646 0.005807 0.000720
# 4 0.005457 -0.004570 0.002646 0.028788 0.009096 -0.000791
# 5 0.007705 -0.003188 0.005807 0.009096 0.036099 -0.008705
# 6 0.002590 0.006429 0.000720 -0.000791 -0.008705 0.030564
#
#
# Mechanical properties :
#
#
# Convention : Reuss Voigt Hill
#
# Bulk Modulus (GPa) = 35.64625 53.32367 44.48496
# Shear Modulus (GPa) = 30.34470 39.29021 34.81746
#
# Velocity S-wave (km/s) = 3.42026 3.89189 3.66367
# Velocity P-wave (km/s) = 5.41661 6.38377 5.91997
#
# Compressibility (1/GPa) = 0.02805345
#
# Stress axis : x y z
#
# Youngs Moduli (GPa) = 49.81355 72.18220 99.17035
#
# Poissons Ratio (x) = 0.32285 0.14778
# Poissons Ratio (y) = 0.22280 0.19999
# Poissons Ratio (z) = 0.07423 0.14556
#
# Static dielectric constant tensor:
#      x y z
#    x 4.937610 -0.117450 0.282860 
#    y -0.117450 4.937730 0.258110 
#    z 0.282860 0.258110 4.611170 
# 
# 
# High freq. dielectric constant tensor:
#      x y z
#    x 2.047080 -0.009690 0.007560 
#    y -0.009690 2.052750 0.013230 
#    z 0.007560 0.013230 2.030980 
# 
# From -- ./inp_files/84329.got.cif
#   From: 2010.06.25/outbox.cif.g09.slc.cpg/sg2_43_cif.got.tgz:84329.got - 2010.06.27 13:26:56.
