data_PCOD8020650
_publ_section_title
;
Structure prediction by ZEFSAII (Michael W. Deem and Ramdas Pophale) SiO2 
 PCOD8020650
Probable space group: P -1
;
_chemical_formula_sum "Si O2"
_cell_formula_units_Z 14
_cell_length_a 19.089544
_cell_length_b 10.095672
_cell_length_c 8.866246
_cell_angle_alpha 55.065746
_cell_angle_beta 62.692463
_cell_angle_gamma 25.901281
_cell_volume 604.288424
_symmetry_space_group_name_H-M "P -1"
_symmetry_group_IT_number 2
_symmetry_cell_setting 'triclinic'
loop_
_space_group_symop_operation_xyz
x,y,z
-x,-y,-z
loop_
_atom_site_type_symbol
_atom_site_label
_atom_site_fract_x
_atom_site_fract_y
_atom_site_fract_z
Si Si1 0.543414 0.824291 0.224396
Si Si2 0.245272 0.216250 0.432722
Si Si3 0.750652 0.700297 0.279479
Si Si4 0.381311 0.750645 0.090011
Si Si5 0.328972 0.709331 0.700003
Si Si6 0.954994 0.765133 0.872840
Si Si7 0.966321 0.873139 0.111305
O O1 0.642425 0.743372 0.307468
O O2 0.653536 0.467133 0.321707
O O3 0.371377 0.088456 0.291928
O O4 0.500000 0.000000 0.000000
O O5 0.281397 0.188412 0.590454
O O6 0.067277 0.599362 0.318600
O O7 0.249851 0.017249 0.516697
O O8 0.944773 0.322757 0.302617
O O9 0.703298 0.928185 0.065132
O O10 0.488627 0.570886 0.250338
O O11 0.241808 0.864640 0.185446
O O12 0.500000 0.500000 0.000000
O O13 0.222270 0.832397 0.864775
O O14 0.019137 0.722342 0.993455
O O15 0.000000 0.500000 0.000000
O O16 0.000000 0.000000 0.000000
#
# Coordination Sequence:
#
# PCOD8020650 Si02
#       7
#     2   2   2   2   2   2   2
#     4  12  25  46  73 103 143 183 234 289 360 420
#     4  12  27  46  70 102 145 184 237 298 346 421
#     4  11  23  45  68 105 141 185 232 289 349 413
#     4  11  20  40  73 103 140 184 232 281 350 423
#     4  12  24  45  70 108 138 185 240 288 347 418
#     4  10  22  42  71 100 137 184 232 281 348 425
#     4  12  26  47  71 102 141 190 235 289 362 417
#
# _framework density 23.167743999999999
#
# number of rings (size 3 to 8) (size 9 to 14) (size 15 to 20)
#    0.000    0.571    4.286    4.714    2.000    0.000 
#    5.143    1.429    0.000    0.000    0.000    0.000 
#    0.000    0.000    0.000    0.000    0.000    0.000 
#
# Total GULP energy -173564.640219 kJ/mol
# GULP energy per Si atom -12397.474301 kJ/mol
# Density = 2.311501 g / cm^3
# Si number density = 23.167744 Si / 1000 Ang^3
#
#
#
# Elastic Constant Matrix: (Units=GPa)
#
#
# Indices 1 2 3 4 5 6 
#
# 1 138.6601 50.6600 35.2774 -7.4863 -13.3240 12.0964
# 2 50.6600 116.2320 24.6226 10.6755 -7.6070 -7.9556
# 3 35.2774 24.6226 76.5447 -10.0864 -9.1511 1.2080
# 4 -7.4863 10.6755 -10.0864 43.5576 -4.8565 -7.2429
# 5 -13.3240 -7.6070 -9.1511 -4.8565 25.3528 8.8317
# 6 12.0964 -7.9556 1.2080 -7.2429 8.8317 52.8298
#
#
#
# Elastic Compliance Matrix: (Units=1/GPa)
#
#
# Indices 1 2 3 4 5 6 
#
# 1 0.010194 -0.004028 -0.002488 0.002138 0.004845 -0.003401
# 2 -0.004028 0.011311 -0.002454 -0.003769 -0.001152 0.002358
# 3 -0.002488 -0.002454 0.016152 0.004383 0.004752 -0.000363
# 4 0.002138 -0.003769 0.004383 0.026179 0.006098 0.001412
# 5 0.004845 -0.001152 0.004752 0.006098 0.047486 -0.008494
# 6 -0.003401 0.002358 -0.000363 0.001412 -0.008494 0.021684
#
#
# Mechanical properties :
#
#
# Convention : Reuss Voigt Hill
#
# Bulk Modulus (GPa) = 50.71609 61.39520 56.05565
# Shear Modulus (GPa) = 31.74228 39.07315 35.40771
#
# Velocity S-wave (km/s) = 3.70551 4.11120 3.91361
# Velocity P-wave (km/s) = 6.34398 7.00669 6.68356
#
# Compressibility (1/GPa) = 0.01971761
#
# Stress axis : x y z
#
# Youngs Moduli (GPa) = 98.09485 88.40869 61.91340
#
# Poissons Ratio (x) = 0.35613 0.15403
# Poissons Ratio (y) = 0.39514 0.15191
# Poissons Ratio (z) = 0.24404 0.21692
#
# Static dielectric constant tensor:
#      x y z
#    x 4.642550 -0.423360 -0.026140 
#    y -0.423360 4.901160 -0.021240 
#    z -0.026140 -0.021240 3.860710 
# 
# 
# High freq. dielectric constant tensor:
#      x y z
#    x 1.931280 -0.007180 -0.003880 
#    y -0.007180 1.938880 0.010670 
#    z -0.003880 0.010670 1.887640 
# 
# From -- ./inp_files/223184.got.cif
#   From: 2010.06.25/outbox.cif.g09.slc.cpg/sg2_112_cif.got.tgz:223184.got - 2010.06.27 13:26:56.
