data_PCOD8020958
_publ_section_title
;
Structure prediction by ZEFSAII (Michael W. Deem and Ramdas Pophale) SiO2 
 PCOD8020958
Probable space group: P -1
;
_chemical_formula_sum "Si O2"
_cell_formula_units_Z 10
_cell_length_a 4.980562
_cell_length_b 16.826273
_cell_length_c 9.290875
_cell_angle_alpha 145.916085
_cell_angle_beta 120.035678
_cell_angle_gamma 58.691644
_cell_volume 368.778194
_symmetry_space_group_name_H-M "P -1"
_symmetry_group_IT_number 2
_symmetry_cell_setting 'triclinic'
loop_
_space_group_symop_operation_xyz
x,y,z
-x,-y,-z
loop_
_atom_site_type_symbol
_atom_site_label
_atom_site_fract_x
_atom_site_fract_y
_atom_site_fract_z
Si Si1 0.127539 0.051599 0.958903
Si Si2 0.744806 0.284271 0.396257
Si Si3 0.132466 0.302505 0.108488
Si Si4 0.848323 0.913570 0.443772
Si Si5 0.307444 0.435619 0.731585
O O1 0.060617 0.190515 0.042158
O O2 0.914267 0.115196 0.142421
O O3 0.014470 0.914916 0.646680
O O4 0.500000 0.000000 0.000000
O O5 0.476671 0.339945 0.285475
O O6 0.546271 0.300909 0.517522
O O7 0.010554 0.377656 0.627843
O O8 0.842655 0.443112 0.245708
O O9 0.137585 0.244941 0.857579
O O10 0.500000 0.000000 0.500000
O O11 0.000000 0.000000 0.500000
O O12 0.500000 0.500000 0.000000
#
# Coordination Sequence:
#
# PCOD8020958 Si02
#       5
#     2   2   2   2   2
#     4  11  26  47  74 110 145 190 239 292 356 430
#     4  12  25  49  75 105 144 191 238 297 358 425
#     4  11  25  47  76 102 149 186 235 299 353 427
#     4  10  22  43  66 102 138 183 228 282 349 415
#     4  12  29  48  74 108 141 188 244 298 359 421
#
# _framework density 27.116572000000001
#
# number of rings (size 3 to 8) (size 9 to 14) (size 15 to 20)
#    0.000    0.800    4.000    1.800    5.600    0.800 
#    7.200    0.000    0.000    0.000    0.000    0.000 
#    0.000    0.000    0.000    0.000    0.000    0.000 
#
# Total GULP energy -123952.373890 kJ/mol
# GULP energy per Si atom -12395.237389 kJ/mol
# Density = 2.705485 g / cm^3
# Si number density = 27.116572 Si / 1000 Ang^3
#
#
#
# Elastic Constant Matrix: (Units=GPa)
#
#
# Indices 1 2 3 4 5 6 
#
# 1 146.9794 44.9202 49.4118 -10.0592 -14.0674 -38.3198
# 2 44.9202 152.7227 55.2807 4.2499 -7.9386 -30.8561
# 3 49.4118 55.2807 195.6373 -38.6453 -4.2470 -24.9309
# 4 -10.0592 4.2499 -38.6453 60.3274 -6.6359 4.8431
# 5 -14.0674 -7.9386 -4.2470 -6.6359 53.9257 -1.1759
# 6 -38.3198 -30.8561 -24.9309 4.8431 -1.1759 47.6850
#
#
#
# Elastic Compliance Matrix: (Units=1/GPa)
#
#
# Indices 1 2 3 4 5 6 
#
# 1 0.009408 -0.000979 -0.001102 0.000692 0.002447 0.006341
# 2 -0.000979 0.008474 -0.002108 -0.002351 0.000621 0.003848
# 3 -0.001102 -0.002108 0.006994 0.004424 0.000519 0.000971
# 4 0.000692 -0.002351 0.004424 0.020031 0.002634 -0.000621
# 5 0.002447 0.000621 0.000519 0.002634 0.019701 0.002857
# 6 0.006341 0.003848 0.000971 -0.000621 0.002857 0.029198
#
#
# Mechanical properties :
#
#
# Convention : Reuss Voigt Hill
#
# Bulk Modulus (GPa) = 60.60973 88.28496 74.44735
# Shear Modulus (GPa) = 46.43246 55.43605 50.93425
#
# Velocity S-wave (km/s) = 4.14252 4.52637 4.33869
# Velocity P-wave (km/s) = 6.72909 7.74245 7.25349
#
# Compressibility (1/GPa) = 0.01649900
#
# Stress axis : x y z
#
# Youngs Moduli (GPa) = 106.29269 118.00762 142.97431
#
# Poissons Ratio (x) = 0.11558 0.15749
# Poissons Ratio (y) = 0.10411 0.30134
# Poissons Ratio (z) = 0.11709 0.24872
#
# Static dielectric constant tensor:
#      x y z
#    x 5.010650 0.054550 -0.361970 
#    y 0.054550 5.281430 -0.146610 
#    z -0.361970 -0.146610 6.452710 
# 
# 
# High freq. dielectric constant tensor:
#      x y z
#    x 2.097150 -0.013290 -0.010650 
#    y -0.013290 2.112400 -0.001410 
#    z -0.010650 -0.001410 2.125680 
# 
# From -- ./inp_files/371177.got.cif
#   From: 2010.06.25/outbox.cif.g09.slc.cpg/sg2_186_cif.got.tgz:371177.got - 2010.06.27 13:26:56.
