data_PCOD8020526
_publ_section_title
;
Structure prediction by ZEFSAII (Michael W. Deem and Ramdas Pophale) SiO2 
 PCOD8020526
Probable space group: P -1
;
_chemical_formula_sum "Si O2"
_cell_formula_units_Z 16
_cell_length_a 15.375054
_cell_length_b 14.645672
_cell_length_c 5.035888
_cell_angle_alpha 85.156360
_cell_angle_beta 96.747641
_cell_angle_gamma 38.973199
_cell_volume 679.650556
_symmetry_space_group_name_H-M "P -1"
_symmetry_group_IT_number 2
_symmetry_cell_setting 'triclinic'
loop_
_space_group_symop_operation_xyz
x,y,z
-x,-y,-z
loop_
_atom_site_type_symbol
_atom_site_label
_atom_site_fract_x
_atom_site_fract_y
_atom_site_fract_z
Si Si1 0.058119 0.850182 0.108542
Si Si2 0.244297 0.656402 0.722953
Si Si3 0.566295 0.075777 0.951738
Si Si4 0.649964 0.604708 0.948765
Si Si5 0.832067 0.618739 0.946338
Si Si6 0.312056 0.182263 0.647864
Si Si7 0.746284 0.082423 0.906696
Si Si8 0.386342 0.717970 0.671259
O O1 0.118283 0.783113 0.440073
O O2 0.180303 0.720066 0.978968
O O3 0.000000 0.000000 0.000000
O O4 0.912715 0.911919 0.010216
O O5 0.379910 0.613451 0.747289
O O6 0.297440 0.506118 0.764909
O O7 0.477754 0.080884 0.730309
O O8 0.659838 0.063081 0.799485
O O9 0.452340 0.229708 0.035295
O O10 0.675562 0.933543 0.228791
O O11 0.785487 0.549838 0.882836
O O12 0.552034 0.617930 0.721718
O O13 0.749737 0.756455 0.684347
O O14 0.789797 0.676814 0.219406
O O15 0.000000 0.500000 0.000000
O O16 0.707159 0.192385 0.651499
O O17 0.697762 0.158559 0.158295
#
# Coordination Sequence:
#
# PCOD8020526 Si02
#       8
#     2   2   2   2   2   2   2   2
#     4  12  23  41  61  88 125 165 211 251 304 370
#     4  12  24  40  64  89 126 170 206 253 312 363
#     4   9  22  42  65  94 124 160 211 263 301 367
#     4  10  25  42  63  96 125 161 211 259 307 367
#     4  11  24  43  67  94 131 161 201 255 313 377
#     4  10  22  42  69  92 123 166 205 251 319 364
#     4  11  22  37  64  89 122 161 206 256 304 356
#     4  11  21  40  62  87 123 163 206 253 305 360
#
# _framework density 23.541508
#
# number of rings (size 3 to 8) (size 9 to 14) (size 15 to 20)
#    0.000    1.250    2.500    2.625    0.000   12.500 
#    0.000    4.375    0.000    0.000    0.000    0.000 
#    0.000    0.000    0.000    0.000    0.000    0.000 
#
# Total GULP energy -198301.576302 kJ/mol
# GULP energy per Si atom -12393.848519 kJ/mol
# Density = 2.348793 g / cm^3
# Si number density = 23.541508 Si / 1000 Ang^3
#
#
#
# Elastic Constant Matrix: (Units=GPa)
#
#
# Indices 1 2 3 4 5 6 
#
# 1 160.5344 39.1325 28.8968 -21.3656 -6.2669 -21.0379
# 2 39.1325 42.2159 21.7777 -13.5695 -4.8784 -0.8187
# 3 28.8968 21.7777 110.0868 -23.5005 -2.2652 1.8055
# 4 -21.3656 -13.5695 -23.5005 41.0631 0.4671 -3.9618
# 5 -6.2669 -4.8784 -2.2652 0.4671 33.7977 -12.4848
# 6 -21.0379 -0.8187 1.8055 -3.9618 -12.4848 34.7297
#
#
#
# Elastic Compliance Matrix: (Units=1/GPa)
#
#
# Indices 1 2 3 4 5 6 
#
# 1 0.009506 -0.007073 -0.000512 0.002968 0.003306 0.007145
# 2 -0.007073 0.034116 -0.003680 0.005290 0.002653 -0.001732
# 3 -0.000512 -0.003680 0.010965 0.004749 -0.000131 -0.000472
# 4 0.002968 0.005290 0.004749 0.030949 0.003606 0.006502
# 5 0.003306 0.002653 -0.000131 0.003606 0.036257 0.015517
# 6 0.007145 -0.001732 -0.000472 0.006502 0.015517 0.039426
#
#
# Mechanical properties :
#
#
# Convention : Reuss Voigt Hill
#
# Bulk Modulus (GPa) = 31.19420 54.71677 42.95548
# Shear Modulus (GPa) = 25.71567 36.78678 31.25122
#
# Velocity S-wave (km/s) = 3.30866 3.95731 3.64743
# Velocity P-wave (km/s) = 5.27976 6.64631 6.00206
#
# Compressibility (1/GPa) = 0.03205725
#
# Stress axis : x y z
#
# Youngs Moduli (GPa) = 105.19871 29.31165 91.20073
#
# Poissons Ratio (x) = 0.20733 0.04666
# Poissons Ratio (y) = 0.74409 0.33562
# Poissons Ratio (z) = 0.05382 0.10787
#
# Static dielectric constant tensor:
#      x y z
#    x 5.565750 -0.832290 0.406450 
#    y -0.832290 5.368570 -1.198050 
#    z 0.406450 -1.198050 4.794240 
# 
# 
# High freq. dielectric constant tensor:
#      x y z
#    x 1.949370 -0.005280 -0.006790 
#    y -0.005280 1.908820 -0.014640 
#    z -0.006790 -0.014640 1.932190 
# 
# From -- ./inp_files/97727.got.cif
#   From: 2010.06.25/outbox.cif.g09.slc.cpg/sg2_49_cif.got.tgz:97727.got - 2010.06.27 13:26:56.
