data_PCOD8020941
_publ_section_title
;
Structure prediction by ZEFSAII (Michael W. Deem and Ramdas Pophale) SiO2 
 PCOD8020941
Probable space group: P -1
;
_chemical_formula_sum "Si O2"
_cell_formula_units_Z 14
_cell_length_a 16.605858
_cell_length_b 7.849361
_cell_length_c 14.799509
_cell_angle_alpha 105.506660
_cell_angle_beta 28.202033
_cell_angle_gamma 89.147376
_cell_volume 733.606507
_symmetry_space_group_name_H-M "P -1"
_symmetry_group_IT_number 2
_symmetry_cell_setting 'triclinic'
loop_
_space_group_symop_operation_xyz
x,y,z
-x,-y,-z
loop_
_atom_site_type_symbol
_atom_site_label
_atom_site_fract_x
_atom_site_fract_y
_atom_site_fract_z
Si Si1 0.968543 0.967708 0.129530
Si Si2 0.083898 0.694222 0.636431
Si Si3 0.486511 0.883689 0.410667
Si Si4 0.369636 0.566615 0.728436
Si Si5 0.354373 0.150833 0.942088
Si Si6 0.473891 0.304229 0.246438
Si Si7 0.465147 0.577120 0.146825
O O1 0.132035 0.727394 0.963325
O O2 0.998946 0.125344 0.180617
O O3 0.746266 0.015411 0.372200
O O4 0.000000 0.000000 0.000000
O O5 0.226443 0.462520 0.509634
O O6 0.221614 0.721477 0.430085
O O7 0.890103 0.714547 0.783068
O O8 0.603054 0.635268 0.278480
O O9 0.594646 0.911749 0.222456
O O10 0.500000 0.000000 0.500000
O O11 0.500000 0.500000 0.500000
O O12 0.445784 0.678507 0.733778
O O13 0.436405 0.289012 0.916205
O O14 0.458622 0.936725 0.868207
O O15 0.569777 0.373314 0.081922
O O16 0.500000 0.500000 0.000000
#
# Coordination Sequence:
#
# PCOD8020941 Si02
#       7
#     2   2   2   2   2   2   2
#     4  12  21  38  65  91 136 175 214 276 321 381
#     4  10  22  43  65  98 132 167 220 273 323 385
#     4  12  24  38  60  98 133 177 222 262 328 397
#     4  12  21  38  65  91 136 175 214 276 321 381
#     4  12  22  42  72  95 135 173 217 271 333 393
#     4  10  22  43  65  98 132 167 220 273 323 385
#     4  10  24  48  69  97 138 168 220 282 324 388
#
# _framework density 19.083798999999999
#
# number of rings (size 3 to 8) (size 9 to 14) (size 15 to 20)
#    0.857    0.000    7.143    1.714    0.000    2.857 
#    2.571    0.714    0.000    0.000    0.000    0.000 
#    0.000    0.000    0.000    0.000    0.000    0.000 
#
# Total GULP energy -173588.948584 kJ/mol
# GULP energy per Si atom -12399.210613 kJ/mol
# Density = 1.904036 g / cm^3
# Si number density = 19.083799 Si / 1000 Ang^3
#
#
#
# Elastic Constant Matrix: (Units=GPa)
#
#
# Indices 1 2 3 4 5 6 
#
# 1 104.6447 55.3671 60.3891 2.1557 7.4406 5.8527
# 2 55.3671 140.1498 57.8576 7.5904 -14.9000 1.3664
# 3 60.3891 57.8576 125.7591 3.3349 -27.4803 -1.6888
# 4 2.1557 7.5904 3.3349 33.3363 -7.0640 -10.4263
# 5 7.4406 -14.9000 -27.4803 -7.0640 48.5864 3.8930
# 6 5.8527 1.3664 -1.6888 -10.4263 3.8930 31.7604
#
#
#
# Elastic Compliance Matrix: (Units=1/GPa)
#
#
# Indices 1 2 3 4 5 6 
#
# 1 0.017438 -0.004237 -0.008319 -0.002155 -0.008739 -0.003110
# 2 -0.004237 0.009973 -0.001996 -0.001451 0.002410 -0.000526
# 3 -0.008319 -0.001996 0.014847 0.002070 0.009203 0.001960
# 4 -0.002155 -0.001451 0.002070 0.034931 0.005221 0.011397
# 5 -0.008739 0.002410 0.009203 0.005221 0.028607 0.000204
# 6 -0.003110 -0.000526 0.001960 0.011397 0.000204 0.035902
#
#
# Mechanical properties :
#
#
# Convention : Reuss Voigt Hill
#
# Bulk Modulus (GPa) = 76.01460 79.75347 77.88403
# Shear Modulus (GPa) = 28.54108 35.86594 32.20351
#
# Velocity S-wave (km/s) = 3.87145 4.33990 4.11235
# Velocity P-wave (km/s) = 7.73968 8.18504 7.96547
#
# Compressibility (1/GPa) = 0.01315537
#
# Stress axis : x y z
#
# Youngs Moduli (GPa) = 57.34523 100.27275 67.35392
#
# Poissons Ratio (x) = 0.42485 0.56030
# Poissons Ratio (y) = 0.24297 0.13441
# Poissons Ratio (z) = 0.47704 0.20011
#
# Static dielectric constant tensor:
#      x y z
#    x 3.700230 -0.221400 -0.378990 
#    y -0.221400 3.637470 0.300760 
#    z -0.378990 0.300760 4.107140 
# 
# 
# High freq. dielectric constant tensor:
#      x y z
#    x 1.736410 -0.000690 -0.006670 
#    y -0.000690 1.740630 0.003210 
#    z -0.006670 0.003210 1.742000 
# 
# From -- ./inp_files/227086.got.cif
#   From: 2010.06.25/outbox.cif.g09.slc.cpg/sg2_114_cif.got.tgz:227086.got - 2010.06.27 13:26:56.
