data_PCOD8020160
_publ_section_title
;
Structure prediction by ZEFSAII (Michael W. Deem and Ramdas Pophale) SiO2 
 PCOD8020160
Probable space group: P -1
;
_chemical_formula_sum "Si O2"
_cell_formula_units_Z 16
_cell_length_a 18.728437
_cell_length_b 17.538725
_cell_length_c 9.193321
_cell_angle_alpha 49.114503
_cell_angle_beta 52.048669
_cell_angle_gamma 21.191403
_cell_volume 825.145101
_symmetry_space_group_name_H-M "P -1"
_symmetry_group_IT_number 2
_symmetry_cell_setting 'triclinic'
loop_
_space_group_symop_operation_xyz
x,y,z
-x,-y,-z
loop_
_atom_site_type_symbol
_atom_site_label
_atom_site_fract_x
_atom_site_fract_y
_atom_site_fract_z
Si Si1 0.459489 0.467391 0.461858
Si Si2 0.453999 0.149462 0.792597
Si Si3 0.460335 0.613947 0.035740
Si Si4 0.167588 0.074086 0.723117
Si Si5 0.178949 0.567286 0.776362
Si Si6 0.767396 0.472700 0.901411
Si Si7 0.502509 0.894475 0.542485
Si Si8 0.215353 0.011694 0.413909
O O1 0.500000 0.500000 0.500000
O O2 0.371305 0.628592 0.249868
O O3 0.292289 0.553382 0.599510
O O4 0.663472 0.211576 0.479307
O O5 0.258914 0.390654 0.809496
O O6 0.416338 0.170026 0.642433
O O7 0.638321 0.039771 0.723551
O O8 0.500000 0.000000 0.000000
O O9 0.500000 0.500000 0.000000
O O10 0.303343 0.851068 0.889661
O O11 0.659691 0.471538 0.020418
O O12 0.281783 0.067406 0.601782
O O13 0.112914 0.110449 0.577409
O O14 0.977541 0.261268 0.826516
O O15 0.949017 0.812342 0.723924
O O16 0.207551 0.522524 0.967799
O O17 0.646148 0.678575 0.716688
O O18 0.500000 0.000000 0.500000
#
# Coordination Sequence:
#
# PCOD8020160 Si02
#       8
#     2   2   2   2   2   2   2   2
#     4  11  23  41  59  87 124 159 202 246 295 351
#     4  10  22  42  66  89 120 156 194 245 302 356
#     4  11  23  41  61  87 120 163 204 244 297 350
#     4  10  23  40  61  89 120 155 201 247 293 353
#     4  11  24  39  61  90 123 157 197 247 298 353
#     4  11  24  39  61  92 120 156 202 245 295 353
#     4  10  22  42  66  89 119 156 197 245 298 354
#     4  10  23  40  61  89 120 157 198 245 298 352
#
# _framework density 19.390529000000001
#
# number of rings (size 3 to 8) (size 9 to 14) (size 15 to 20)
#    0.000    1.500    2.500    1.500    5.250    5.000 
#    0.000    0.000    0.000    0.000    0.000    0.000 
#    0.000    0.000    0.000    0.000    0.000    0.000 
#
# Total GULP energy -198414.405087 kJ/mol
# GULP energy per Si atom -12400.900318 kJ/mol
# Density = 1.934640 g / cm^3
# Si number density = 19.390529 Si / 1000 Ang^3
#
#
#
# Elastic Constant Matrix: (Units=GPa)
#
#
# Indices 1 2 3 4 5 6 
#
# 1 132.7125 41.1001 49.7905 -4.7514 12.6536 16.8188
# 2 41.1001 83.8562 27.0312 7.7790 3.6245 -1.8151
# 3 49.7905 27.0312 134.1609 -4.2518 13.7505 5.0105
# 4 -4.7514 7.7790 -4.2518 30.2113 4.5602 9.0504
# 5 12.6536 3.6245 13.7505 4.5602 40.1679 -7.0824
# 6 16.8188 -1.8151 5.0105 9.0504 -7.0824 26.3959
#
#
#
# Elastic Compliance Matrix: (Units=1/GPa)
#
#
# Indices 1 2 3 4 5 6 
#
# 1 0.012678 -0.006273 -0.002139 0.007879 -0.005768 -0.012353
# 2 -0.006273 0.016538 -0.002052 -0.009021 0.003915 0.009667
# 3 -0.002139 -0.002052 0.009126 0.002574 -0.002942 -0.002183
# 4 0.007879 -0.009021 0.002574 0.046480 -0.012299 -0.025366
# 5 -0.005768 0.003915 -0.002942 -0.012299 0.031805 0.017253
# 6 -0.012353 0.009667 -0.002183 -0.025366 0.017253 0.060161
#
#
# Mechanical properties :
#
#
# Convention : Reuss Voigt Hill
#
# Bulk Modulus (GPa) = 57.42834 65.17482 61.30158
# Shear Modulus (GPa) = 24.56754 34.87553 29.72154
#
# Velocity S-wave (km/s) = 3.56334 4.24557 3.91933
# Velocity P-wave (km/s) = 6.82721 7.59723 7.22249
#
# Compressibility (1/GPa) = 0.01741300
#
# Stress axis : x y z
#
# Youngs Moduli (GPa) = 78.87774 60.46577 109.58113
#
# Poissons Ratio (x) = 0.37932 0.23438
# Poissons Ratio (y) = 0.49482 0.22489
# Poissons Ratio (z) = 0.16871 0.12409
#
# Static dielectric constant tensor:
#      x y z
#    x 3.789390 0.090270 0.022150 
#    y 0.090270 3.471610 0.013020 
#    z 0.022150 0.013020 3.714310 
# 
# 
# High freq. dielectric constant tensor:
#      x y z
#    x 1.767690 0.005870 0.005640 
#    y 0.005870 1.749490 -0.003330 
#    z 0.005640 -0.003330 1.773920 
# 
# From -- ./inp_files/46255.got.cif
#   From: 2010.06.25/outbox.cif.g09.slc.cpg/sg2_24_cif.got.tgz:46255.got - 2010.06.27 13:26:56.
