data_PCOD8020414
_publ_section_title
;
Structure prediction by ZEFSAII (Michael W. Deem and Ramdas Pophale) SiO2 
 PCOD8020414
Probable space group: P -1
;
_chemical_formula_sum "Si O2"
_cell_formula_units_Z 16
_cell_length_a 8.194195
_cell_length_b 15.947380
_cell_length_c 19.206962
_cell_angle_alpha 21.712055
_cell_angle_beta 48.181165
_cell_angle_gamma 57.341780
_cell_volume 662.325878
_symmetry_space_group_name_H-M "P -1"
_symmetry_group_IT_number 2
_symmetry_cell_setting 'triclinic'
loop_
_space_group_symop_operation_xyz
x,y,z
-x,-y,-z
loop_
_atom_site_type_symbol
_atom_site_label
_atom_site_fract_x
_atom_site_fract_y
_atom_site_fract_z
Si Si1 0.661458 0.587999 0.520275
Si Si2 0.483190 0.295726 0.023176
Si Si3 0.498208 0.800417 0.599708
Si Si4 0.554205 0.877906 0.986037
Si Si5 0.292166 0.810592 0.509695
Si Si6 0.986451 0.453446 0.776479
Si Si7 0.782310 0.815509 0.170571
Si Si8 0.951332 0.792545 0.404348
O O1 0.503126 0.754937 0.454317
O O2 0.703024 0.606954 0.411321
O O3 0.890629 0.681340 0.430168
O O4 0.542371 0.311004 0.780218
O O5 0.492051 0.268574 0.958974
O O6 0.293796 0.078314 0.281023
O O7 0.438962 0.550123 0.851036
O O8 0.727499 0.298131 0.984969
O O9 0.301302 0.787405 0.608219
O O10 0.742303 0.870665 0.437204
O O11 0.500000 0.000000 0.500000
O O12 0.421209 0.074132 0.874356
O O13 0.825262 0.985257 0.836678
O O14 0.063787 0.622089 0.691377
O O15 0.147646 0.285171 0.844444
O O16 0.002642 0.599692 0.588415
O O17 0.000000 0.000000 0.000000
#
# Coordination Sequence:
#
# PCOD8020414 Si02
#       8
#     2   2   2   2   2   2   2   2
#     4  11  23  42  62  92 134 179 226 275 324 378
#     4  11  21  45  67  93 138 171 214 272 338 393
#     4  10  24  48  74 102 131 162 219 282 333 416
#     4  12  22  42  65  95 134 182 220 275 324 392
#     4  11  22  41  71  93 128 178 212 263 350 394
#     4  11  22  41  66  93 133 182 222 277 319 382
#     4  12  24  42  64  98 137 182 242 276 311 378
#     4  10  22  42  68  91 131 178 212 270 348 385
#
# _framework density 24.157292999999999
#
# number of rings (size 3 to 8) (size 9 to 14) (size 15 to 20)
#    0.000    1.000    7.500    0.000    0.000    7.500 
#    0.000   10.000    0.000    0.000    0.000    0.000 
#    0.000    0.000    0.000    0.000    0.000    0.000 
#
# Total GULP energy -198442.844806 kJ/mol
# GULP energy per Si atom -12402.677800 kJ/mol
# Density = 2.410231 g / cm^3
# Si number density = 24.157293 Si / 1000 Ang^3
#
#
#
# Elastic Constant Matrix: (Units=GPa)
#
#
# Indices 1 2 3 4 5 6 
#
# 1 92.6230 31.2533 53.3384 -19.5189 -12.2895 9.4507
# 2 31.2533 90.3019 17.4164 -25.7083 -0.8160 13.9794
# 3 53.3384 17.4164 119.8177 -8.3103 -7.2800 0.7298
# 4 -19.5189 -25.7083 -8.3103 24.5326 0.8512 -5.9890
# 5 -12.2895 -0.8160 -7.2800 0.8512 47.6700 -6.6010
# 6 9.4507 13.9794 0.7298 -5.9890 -6.6010 23.2353
#
#
#
# Elastic Compliance Matrix: (Units=1/GPa)
#
#
# Indices 1 2 3 4 5 6 
#
# 1 0.018040 -0.001789 -0.006922 0.009351 0.003011 -0.002778
# 2 -0.001789 0.016920 -0.000694 0.014643 -0.001376 -0.006047
# 3 -0.006922 -0.000694 0.011410 -0.001768 0.000325 0.002511
# 4 0.009351 0.014643 -0.001768 0.063973 0.001867 0.004462
# 5 0.003011 -0.001376 0.000325 0.001867 0.022648 0.006508
# 6 -0.002778 -0.006047 0.002511 0.004462 0.006508 0.050726
#
#
# Mechanical properties :
#
#
# Convention : Reuss Voigt Hill
#
# Bulk Modulus (GPa) = 36.28601 56.30655 46.29628
# Shear Modulus (GPa) = 23.61683 32.46986 28.04334
#
# Velocity S-wave (km/s) = 3.13010 3.67018 3.41084
# Velocity P-wave (km/s) = 5.30251 6.42800 5.89219
#
# Compressibility (1/GPa) = 0.02755883
#
# Stress axis : x y z
#
# Youngs Moduli (GPa) = 55.43242 59.10319 87.64021
#
# Poissons Ratio (x) = 0.10575 0.60667
# Poissons Ratio (y) = 0.09918 0.06083
# Poissons Ratio (z) = 0.38372 0.04102
#
# Static dielectric constant tensor:
#      x y z
#    x 4.777620 0.048240 -0.083630 
#    y 0.048240 3.897680 -0.129790 
#    z -0.083630 -0.129790 4.384140 
# 
# 
# High freq. dielectric constant tensor:
#      x y z
#    x 1.980180 0.010670 -0.000010 
#    y 0.010670 1.918710 -0.020680 
#    z -0.000010 -0.020680 1.966190 
# 
# From -- ./inp_files/590873.got.cif
#   From: 2010.06.25/outbox.cif.g09.slc.cpg/sg2_296_cif.got.tgz:590873.got - 2010.06.27 13:26:56.
