data_PCOD8020098
_publ_section_title
;
Structure prediction by ZEFSAII (Michael W. Deem and Ramdas Pophale) SiO2 
 PCOD8020098
Probable space group: P -1
;
_chemical_formula_sum "Si O2"
_cell_formula_units_Z 16
_cell_length_a 21.481997
_cell_length_b 7.633764
_cell_length_c 11.863007
_cell_angle_alpha 99.675392
_cell_angle_beta 38.841414
_cell_angle_gamma 128.440926
_cell_volume 731.376456
_symmetry_space_group_name_H-M "P -1"
_symmetry_group_IT_number 2
_symmetry_cell_setting 'triclinic'
loop_
_space_group_symop_operation_xyz
x,y,z
-x,-y,-z
loop_
_atom_site_type_symbol
_atom_site_label
_atom_site_fract_x
_atom_site_fract_y
_atom_site_fract_z
Si Si1 0.444715 0.122555 0.111994
Si Si2 0.857268 0.705875 0.020325
Si Si3 0.764029 0.151475 0.403070
Si Si4 0.306397 0.935741 0.048382
Si Si5 0.470274 0.887546 0.652891
Si Si6 0.754643 0.769115 0.838871
Si Si7 0.056974 0.282477 0.321506
Si Si8 0.002431 0.756731 0.030626
O O1 0.298345 0.927164 0.389207
O O2 0.384738 0.108244 0.075049
O O3 0.592867 0.454110 0.980439
O O4 0.500000 0.000000 0.000000
O O5 0.963629 0.737981 0.786989
O O6 0.861273 0.624934 0.130362
O O7 0.677713 0.460539 0.192316
O O8 0.936854 0.011070 0.942943
O O9 0.838098 0.068230 0.250413
O O10 0.619797 0.992513 0.503595
O O11 0.922676 0.500722 0.198427
O O12 0.143889 0.589969 0.270071
O O13 0.279430 0.086797 0.037610
O O14 0.426990 0.987635 0.808922
O O15 0.500000 0.000000 0.500000
O O16 0.833024 0.735143 0.806553
O O17 0.878944 0.005107 0.591587
#
# Coordination Sequence:
#
# PCOD8020098 Si02
#       8
#     2   2   2   2   2   2   2   2
#     4  12  23  43  67  96 137 172 221 279 326 398
#     4  10  22  42  65  94 130 172 222 272 336 395
#     4  11  24  43  67  96 133 172 226 273 338 394
#     4  11  24  43  66  98 134 175 223 273 334 396
#     4  11  22  41  65  93 133 172 217 276 330 396
#     4  11  24  42  65 102 130 178 219 269 343 391
#     4  10  23  42  66  96 137 169 223 276 327 404
#     4  10  24  43  65  96 128 176 223 277 330 399
#
# _framework density 21.876559
#
# number of rings (size 3 to 8) (size 9 to 14) (size 15 to 20)
#    0.000    1.250    3.750    1.500    3.500    2.500 
#    2.250    0.000    0.000    0.000    0.000    0.000 
#    0.000    0.000    0.000    0.000    0.000    0.000 
#
# Total GULP energy -198280.332172 kJ/mol
# GULP energy per Si atom -12392.520761 kJ/mol
# Density = 2.182677 g / cm^3
# Si number density = 21.876559 Si / 1000 Ang^3
#
#
#
# Elastic Constant Matrix: (Units=GPa)
#
#
# Indices 1 2 3 4 5 6 
#
# 1 49.9719 28.4464 8.8855 1.0861 -3.9553 0.1557
# 2 28.4464 112.9639 35.6433 -11.2125 -7.4086 -1.5461
# 3 8.8855 35.6433 115.7910 -4.9272 4.6405 11.1847
# 4 1.0861 -11.2125 -4.9272 17.5081 -3.5270 9.8865
# 5 -3.9553 -7.4086 4.6405 -3.5270 38.5520 7.3053
# 6 0.1557 -1.5461 11.1847 9.8865 7.3053 37.7882
#
#
#
# Elastic Compliance Matrix: (Units=1/GPa)
#
#
# Indices 1 2 3 4 5 6 
#
# 1 0.023947 -0.006547 -0.000236 -0.006400 0.000395 0.001302
# 2 -0.006547 0.012528 -0.002938 0.009165 0.003234 -0.001614
# 3 -0.000236 -0.002938 0.010072 0.002884 -0.000837 -0.003693
# 4 -0.006400 0.009165 0.002884 0.080223 0.012622 -0.023881
# 5 0.000395 0.003234 -0.000837 0.012622 0.029491 -0.008625
# 6 0.001302 -0.001614 -0.003693 -0.023881 -0.008625 0.035400
#
#
# Mechanical properties :
#
#
# Convention : Reuss Voigt Hill
#
# Bulk Modulus (GPa) = 36.89491 47.18636 42.04063
# Shear Modulus (GPa) = 22.71320 32.48643 27.59982
#
# Velocity S-wave (km/s) = 3.22567 3.85774 3.55578
# Velocity P-wave (km/s) = 5.54752 6.43887 6.00974
#
# Compressibility (1/GPa) = 0.02710401
#
# Stress axis : x y z
#
# Youngs Moduli (GPa) = 41.75964 79.82309 99.28848
#
# Poissons Ratio (x) = 0.52262 0.02344
# Poissons Ratio (y) = 0.27341 0.29167
# Poissons Ratio (z) = 0.00986 0.23449
#
# Static dielectric constant tensor:
#      x y z
#    x 4.067060 0.002850 -0.045190 
#    y 0.002850 4.042800 -0.069700 
#    z -0.045190 -0.069700 4.313170 
# 
# 
# High freq. dielectric constant tensor:
#      x y z
#    x 1.858080 -0.000370 0.002920 
#    y -0.000370 1.866090 -0.002900 
#    z 0.002920 -0.002900 1.866520 
# 
# From -- ./inp_files/474245.got.cif
#   From: 2010.06.25/outbox.cif.g09.slc.cpg/sg2_238_cif.got.tgz:474245.got - 2010.06.27 13:26:56.
