data_PCOD8020895
_publ_section_title
;
Structure prediction by ZEFSAII (Michael W. Deem and Ramdas Pophale) SiO2 
 PCOD8020895
Probable space group: P -1
;
_chemical_formula_sum "Si O2"
_cell_formula_units_Z 14
_cell_length_a 9.566156
_cell_length_b 9.104150
_cell_length_c 11.906865
_cell_angle_alpha 110.581651
_cell_angle_beta 55.575940
_cell_angle_gamma 134.384259
_cell_volume 609.620053
_symmetry_space_group_name_H-M "P -1"
_symmetry_group_IT_number 2
_symmetry_cell_setting 'triclinic'
loop_
_space_group_symop_operation_xyz
x,y,z
-x,-y,-z
loop_
_atom_site_type_symbol
_atom_site_label
_atom_site_fract_x
_atom_site_fract_y
_atom_site_fract_z
Si Si1 0.118615 0.721303 0.557541
Si Si2 0.894094 0.103602 0.599728
Si Si3 0.559000 0.215797 0.176441
Si Si4 0.285235 0.574466 0.070532
Si Si5 0.949850 0.839233 0.844293
Si Si6 0.168430 0.543318 0.681126
Si Si7 0.295764 0.036161 0.925563
O O1 0.228352 0.886753 0.450755
O O2 0.262640 0.725488 0.593123
O O3 0.000000 0.500000 0.500000
O O4 0.959285 0.757289 0.698112
O O5 0.104154 0.336008 0.604107
O O6 0.704611 0.975127 0.745746
O O7 0.000000 0.000000 0.500000
O O8 0.639760 0.362575 0.287977
O O9 0.696272 0.136985 0.081539
O O10 0.604914 0.341707 0.078503
O O11 0.239054 0.362167 0.049554
O O12 0.454793 0.743751 0.132632
O O13 0.050913 0.520103 0.176845
O O14 0.860639 0.964174 0.913499
O O15 0.191148 0.981207 0.833661
#
# Coordination Sequence:
#
# PCOD8020895 Si02
#       7
#     2   2   2   2   2   2   2
#     4   9  20  43  66  85 125 174 207 257 307 370
#     4  11  26  43  63  90 124 169 219 265 304 375
#     4  12  24  40  64  95 127 171 206 255 331 376
#     4  11  22  39  65  96 129 163 199 263 323 380
#     4  10  23  41  64 100 128 159 213 267 308 382
#     4  10  22  43  65  90 126 164 214 259 318 375
#     4  11  22  39  66  99 125 163 211 258 329 371
#
# _framework density 22.965123999999999
#
# number of rings (size 3 to 8) (size 9 to 14) (size 15 to 20)
#    0.000    1.429    4.286    1.286    2.000    1.143 
#    2.571    0.000    0.000    0.000    0.000    0.000 
#    0.000    0.000    0.000    0.000    0.000    0.000 
#
# Total GULP energy -173462.490467 kJ/mol
# GULP energy per Si atom -12390.177891 kJ/mol
# Density = 2.291285 g / cm^3
# Si number density = 22.965124 Si / 1000 Ang^3
#
#
#
# Elastic Constant Matrix: (Units=GPa)
#
#
# Indices 1 2 3 4 5 6 
#
# 1 54.2017 38.5195 20.9986 -3.7391 13.4844 6.5888
# 2 38.5195 106.8432 26.2955 14.9479 12.3882 0.9012
# 3 20.9986 26.2955 78.5258 12.9459 16.3056 -16.5543
# 4 -3.7391 14.9479 12.9459 46.1227 -13.6537 -1.2343
# 5 13.4844 12.3882 16.3056 -13.6537 33.6204 1.7872
# 6 6.5888 0.9012 -16.5543 -1.2343 1.7872 34.9834
#
#
#
# Elastic Compliance Matrix: (Units=1/GPa)
#
#
# Indices 1 2 3 4 5 6 
#
# 1 0.030219 -0.009784 -0.007448 0.007007 -0.001598 -0.008635
# 2 -0.009784 0.014256 0.000120 -0.006639 -0.004164 0.001511
# 3 -0.007448 0.000120 0.021276 -0.009853 -0.012001 0.011733
# 4 0.007007 -0.006639 -0.009853 0.032295 0.017827 -0.005583
# 5 -0.001598 -0.004164 -0.012001 0.017827 0.045349 -0.006958
# 6 -0.008635 0.001511 0.011733 -0.005583 -0.006958 0.035883
#
#
# Mechanical properties :
#
#
# Convention : Reuss Voigt Hill
#
# Bulk Modulus (GPa) = 31.71893 45.68864 38.70378
# Shear Modulus (GPa) = 22.32038 33.19579 27.75809
#
# Velocity S-wave (km/s) = 3.12095 3.80608 3.48042
# Velocity P-wave (km/s) = 5.17966 6.26522 5.74813
#
# Compressibility (1/GPa) = 0.03152691
#
# Stress axis : x y z
#
# Youngs Moduli (GPa) = 33.09201 70.14542 47.00109
#
# Poissons Ratio (x) = 0.68628 0.35008
# Poissons Ratio (y) = 0.32376 -0.00564
# Poissons Ratio (z) = 0.24648 -0.00842
#
# Static dielectric constant tensor:
#      x y z
#    x 4.157020 -0.044700 0.256450 
#    y -0.044700 4.456550 0.189630 
#    z 0.256450 0.189630 4.051910 
# 
# 
# High freq. dielectric constant tensor:
#      x y z
#    x 1.892990 -0.006270 0.009080 
#    y -0.006270 1.917070 0.021710 
#    z 0.009080 0.021710 1.890250 
# 
# From -- ./inp_files/382552.got.cif
#   From: 2010.06.25/outbox.cif.g09.slc.cpg/sg2_192_cif.got.tgz:382552.got - 2010.06.27 13:26:56.
