data_PCOD8020150
_publ_section_title
;
Structure prediction by ZEFSAII (Michael W. Deem and Ramdas Pophale) SiO2 
 PCOD8020150
Probable space group: P -1
;
_chemical_formula_sum "Si O2"
_cell_formula_units_Z 16
_cell_length_a 8.287282
_cell_length_b 21.719122
_cell_length_c 17.621528
_cell_angle_alpha 32.648732
_cell_angle_beta 136.447939
_cell_angle_gamma 149.216692
_cell_volume 875.724656
_symmetry_space_group_name_H-M "P -1"
_symmetry_group_IT_number 2
_symmetry_cell_setting 'triclinic'
loop_
_space_group_symop_operation_xyz
x,y,z
-x,-y,-z
loop_
_atom_site_type_symbol
_atom_site_label
_atom_site_fract_x
_atom_site_fract_y
_atom_site_fract_z
Si Si1 0.644754 0.467224 0.856208
Si Si2 0.998818 0.361876 0.468085
Si Si3 0.589338 0.668823 0.705863
Si Si4 0.636271 0.261024 0.171479
Si Si5 0.607083 0.064607 0.562624
Si Si6 0.852310 0.824377 0.475656
Si Si7 0.209829 0.138890 0.289978
Si Si8 0.522347 0.487576 0.400135
O O1 0.536766 0.515986 0.837353
O O2 0.444543 0.426897 0.753915
O O3 0.007891 0.613027 0.807624
O O4 0.594612 0.321580 0.017665
O O5 0.279138 0.472902 0.387949
O O6 0.136610 0.409345 0.551115
O O7 0.750694 0.382911 0.351456
O O8 0.843592 0.187343 0.581341
O O9 0.793947 0.776600 0.592521
O O10 0.800090 0.759245 0.760074
O O11 0.413499 0.241524 0.180611
O O12 0.542684 0.101240 0.285295
O O13 0.355631 0.082149 0.447453
O O14 0.801398 0.110959 0.501107
O O15 0.586406 0.678306 0.484588
O O16 0.873310 0.971326 0.322601
#
# Coordination Sequence:
#
# PCOD8020150 Si02
#       8
#     2   2   2   2   2   2   2   2
#     4  10  20  31  46  67  96 126 154 183 221 276
#     4   9  18  30  52  72  90 114 151 196 234 264
#     4  10  18  28  45  72  95 115 146 194 235 264
#     4  10  19  32  47  65  93 131 157 177 220 278
#     4   9  16  30  48  67  89 120 156 189 224 269
#     4   9  16  25  43  67  92 115 143 183 227 265
#     4  10  17  28  47  68  93 119 150 192 230 267
#     4   9  17  33  48  69  92 120 153 185 228 277
#
# _framework density 18.270582999999998
#
# number of rings (size 3 to 8) (size 9 to 14) (size 15 to 20)
#    0.000    2.500    0.000    6.375    0.000    3.500 
#    0.000    0.625    0.000    0.000    0.000   17.500 
#    0.000    0.000    0.000    0.000    0.000    0.000 
#
# Total GULP energy -198254.251858 kJ/mol
# GULP energy per Si atom -12390.890741 kJ/mol
# Density = 1.822900 g / cm^3
# Si number density = 18.270583 Si / 1000 Ang^3
#
#
#
# Elastic Constant Matrix: (Units=GPa)
#
#
# Indices 1 2 3 4 5 6 
#
# 1 56.3345 15.9793 10.7268 -2.6535 -5.7697 -10.3696
# 2 15.9793 71.3790 26.1049 -1.8999 -7.6634 -14.5526
# 3 10.7268 26.1049 67.3814 -10.9428 -3.7772 -5.0375
# 4 -2.6535 -1.8999 -10.9428 20.8405 0.0189 -6.5207
# 5 -5.7697 -7.6634 -3.7772 0.0189 16.8904 2.5578
# 6 -10.3696 -14.5526 -5.0375 -6.5207 2.5578 24.4577
#
#
#
# Elastic Compliance Matrix: (Units=1/GPa)
#
#
# Indices 1 2 3 4 5 6 
#
# 1 0.020681 -0.002023 -0.000910 0.004496 0.004714 0.008082
# 2 -0.002023 0.019059 -0.005894 0.001209 0.005268 0.009040
# 3 -0.000910 -0.005894 0.019189 0.010268 0.000885 0.002704
# 4 0.004496 0.001209 0.010268 0.060552 0.001168 0.020762
# 5 0.004714 0.005268 0.000885 0.001168 0.063556 -0.001020
# 6 0.008082 0.009040 0.002704 0.020762 -0.001020 0.055891
#
#
# Mechanical properties :
#
#
# Convention : Reuss Voigt Hill
#
# Bulk Modulus (GPa) = 24.22879 33.41299 28.82089
# Shear Modulus (GPa) = 18.49514 21.92331 20.20923
#
# Velocity S-wave (km/s) = 3.18510 3.46775 3.32943
# Velocity P-wave (km/s) = 5.17845 5.86185 5.53072
#
# Compressibility (1/GPa) = 0.04127321
#
# Stress axis : x y z
#
# Youngs Moduli (GPa) = 48.35458 52.46837 52.11440
#
# Poissons Ratio (x) = 0.10616 0.04741
# Poissons Ratio (y) = 0.09784 0.30718
# Poissons Ratio (z) = 0.04399 0.30927
#
# Static dielectric constant tensor:
#      x y z
#    x 3.575910 -0.278160 0.079440 
#    y -0.278160 3.618680 -0.243220 
#    z 0.079440 -0.243220 3.055480 
# 
# 
# High freq. dielectric constant tensor:
#      x y z
#    x 1.715970 -0.015310 -0.007740 
#    y -0.015310 1.699980 -0.020600 
#    z -0.007740 -0.020600 1.664290 
# 
# From -- ./inp_files/217887.got.cif
#   From: 2010.06.25/outbox.cif.g09.slc.cpg/sg2_109_cif.got.tgz:217887.got - 2010.06.27 13:26:56.
