data_PCOD8020390
_publ_section_title
;
Structure prediction by ZEFSAII (Michael W. Deem and Ramdas Pophale) SiO2 
 PCOD8020390
Probable space group: P -1
;
_chemical_formula_sum "Si O2"
_cell_formula_units_Z 16
_cell_length_a 19.690594
_cell_length_b 8.580708
_cell_length_c 16.444429
_cell_angle_alpha 44.062706
_cell_angle_beta 20.851070
_cell_angle_gamma 45.815670
_cell_volume 684.120928
_symmetry_space_group_name_H-M "P -1"
_symmetry_group_IT_number 2
_symmetry_cell_setting 'triclinic'
loop_
_space_group_symop_operation_xyz
x,y,z
-x,-y,-z
loop_
_atom_site_type_symbol
_atom_site_label
_atom_site_fract_x
_atom_site_fract_y
_atom_site_fract_z
Si Si1 0.062974 0.471599 0.071370
Si Si2 0.967977 0.332951 0.405307
Si Si3 0.327981 0.012705 0.124911
Si Si4 0.162594 0.009966 0.053819
Si Si5 0.516482 0.940204 0.777569
Si Si6 0.888480 0.671500 0.497800
Si Si7 0.659134 0.140860 0.381552
Si Si8 0.270563 0.190143 0.711186
O O1 0.193767 0.674001 0.858925
O O2 0.162647 0.273159 0.978271
O O3 0.009144 0.352313 0.258163
O O4 0.861600 0.575396 0.220682
O O5 0.771763 0.219301 0.684965
O O6 0.942988 0.576486 0.383399
O O7 0.158856 0.192431 0.280904
O O8 0.417444 0.079797 0.912603
O O9 0.500000 0.000000 0.000000
O O10 0.192439 0.997678 0.928020
O O11 0.965903 0.913530 0.333483
O O12 0.338255 0.855303 0.958613
O O13 0.657155 0.731136 0.736535
O O14 0.622889 0.091466 0.536554
O O15 0.000000 0.500000 0.500000
O O16 0.474947 0.242790 0.498019
O O17 0.731491 0.905322 0.343098
#
# Coordination Sequence:
#
# PCOD8020390 Si02
#       8
#     2   2   2   2   2   2   2   2
#     4  12  23  41  69 102 143 180 225 280 340 408
#     4  11  26  45  67 101 134 178 231 281 337 412
#     4  11  25  46  70  95 137 178 228 286 345 397
#     4  11  25  43  66 102 143 182 226 282 344 413
#     4  11  24  45  70 100 140 178 229 288 338 407
#     4  12  26  43  72  98 134 183 237 286 346 404
#     4  10  23  42  69 104 139 180 225 281 340 410
#     4  10  22  42  68 100 142 182 227 269 345 417
#
# _framework density 23.387678000000001
#
# number of rings (size 3 to 8) (size 9 to 14) (size 15 to 20)
#    0.000    1.000    1.250    4.500    3.500    7.000 
#    0.000    0.000    0.000    0.000    0.000    0.000 
#    0.000    0.000    0.000    0.000    0.000    0.000 
#
# Total GULP energy -198283.390087 kJ/mol
# GULP energy per Si atom -12392.711880 kJ/mol
# Density = 2.333445 g / cm^3
# Si number density = 23.387678 Si / 1000 Ang^3
#
#
#
# Elastic Constant Matrix: (Units=GPa)
#
#
# Indices 1 2 3 4 5 6 
#
# 1 100.6263 32.6769 50.2709 4.9232 -0.6730 -11.7430
# 2 32.6769 87.9606 45.2981 16.3256 -23.3172 -6.1690
# 3 50.2709 45.2981 108.6473 15.8486 -2.3768 -6.5554
# 4 4.9232 16.3256 15.8486 30.4255 -7.1528 -3.0782
# 5 -0.6730 -23.3172 -2.3768 -7.1528 40.1771 11.3129
# 6 -11.7430 -6.1690 -6.5554 -3.0782 11.3129 31.0265
#
#
#
# Elastic Compliance Matrix: (Units=1/GPa)
#
#
# Indices 1 2 3 4 5 6 
#
# 1 0.014072 -0.003420 -0.005152 0.002014 -0.003068 0.004876
# 2 -0.003420 0.018994 -0.005631 -0.004501 0.010691 -0.003052
# 3 -0.005152 -0.005631 0.014562 -0.004474 -0.003529 0.000850
# 4 0.002014 -0.004501 -0.004474 0.038270 0.003571 0.001417
# 5 -0.003068 0.010691 -0.003529 0.003571 0.034891 -0.012149
# 6 0.004876 -0.003052 0.000850 0.001417 -0.012149 0.038219
#
#
# Mechanical properties :
#
#
# Convention : Reuss Voigt Hill
#
# Bulk Modulus (GPa) = 52.01855 61.52512 56.77183
# Shear Modulus (GPa) = 25.79699 31.59170 28.69435
#
# Velocity S-wave (km/s) = 3.32477 3.67929 3.50651
# Velocity P-wave (km/s) = 6.08514 6.66433 6.38131
#
# Compressibility (1/GPa) = 0.01922391
#
# Stress axis : x y z
#
# Youngs Moduli (GPa) = 71.06271 52.64759 68.67059
#
# Poissons Ratio (x) = 0.18003 0.35379
# Poissons Ratio (y) = 0.24300 0.38666
# Poissons Ratio (z) = 0.36612 0.29644
#
# Static dielectric constant tensor:
#      x y z
#    x 4.385950 -0.155750 0.019050 
#    y -0.155750 4.195630 0.311170 
#    z 0.019050 0.311170 4.275210 
# 
# 
# High freq. dielectric constant tensor:
#      x y z
#    x 1.941530 -0.010470 0.000940 
#    y -0.010470 1.908770 0.022960 
#    z 0.000940 0.022960 1.932320 
# 
# From -- ./inp_files/577544.got.cif
#   From: 2010.06.25/outbox.cif.g09.slc.cpg/sg2_289_cif.got.tgz:577544.got - 2010.06.27 13:26:56.
