data_PCOD8020874
_publ_section_title
;
Structure prediction by ZEFSAII (Michael W. Deem and Ramdas Pophale) SiO2 
 PCOD8020874
Probable space group: P -1
;
_chemical_formula_sum "Si O2"
_cell_formula_units_Z 16
_cell_length_a 9.037547
_cell_length_b 15.120492
_cell_length_c 8.435110
_cell_angle_alpha 82.454693
_cell_angle_beta 58.044326
_cell_angle_gamma 118.935022
_cell_volume 730.209721
_symmetry_space_group_name_H-M "P -1"
_symmetry_group_IT_number 2
_symmetry_cell_setting 'triclinic'
loop_
_space_group_symop_operation_xyz
x,y,z
-x,-y,-z
loop_
_atom_site_type_symbol
_atom_site_label
_atom_site_fract_x
_atom_site_fract_y
_atom_site_fract_z
Si Si1 0.236616 0.089311 0.252523
Si Si2 0.575674 0.662738 0.872704
Si Si3 0.508627 0.642649 0.551940
Si Si4 0.838318 0.571779 0.695845
Si Si5 0.686943 0.171839 0.153660
Si Si6 0.390707 0.024265 0.921961
Si Si7 0.323675 0.757746 0.513458
Si Si8 0.140006 0.388226 0.690691
O O1 0.288245 0.209725 0.154823
O O2 0.439885 0.117153 0.238072
O O3 0.210516 0.028708 0.113500
O O4 0.000000 0.000000 0.500000
O O5 0.513916 0.667951 0.727596
O O6 0.741791 0.633726 0.795206
O O7 0.340649 0.566629 0.126105
O O8 0.494522 0.731287 0.446369
O O9 0.284978 0.505508 0.686504
O O10 0.738570 0.668213 0.359434
O O11 0.876033 0.580899 0.485173
O O12 0.075834 0.633763 0.637480
O O13 0.695618 0.188188 0.332231
O O14 0.730869 0.081166 0.113302
O O15 0.884592 0.296954 0.928430
O O16 0.588659 0.150523 0.699378
O O17 0.500000 0.000000 0.000000
#
# Coordination Sequence:
#
# PCOD8020874 Si02
#       8
#     2   2   2   2   2   2   2   2
#     4  11  25  43  73  95 130 181 231 281 331 400
#     4  10  22  43  64  99 136 180 225 270 347 397
#     4  10  23  42  69  99 142 172 224 274 347 397
#     4  10  23  38  70 100 140 177 218 280 337 411
#     4  11  24  44  71  96 135 183 225 278 339 395
#     4  10  25  45  65  94 133 174 226 276 337 391
#     4  12  24  43  72 104 133 176 230 280 335 410
#     4  10  23  44  70 101 143 180 214 280 346 404
#
# _framework density 21.911511999999998
#
# number of rings (size 3 to 8) (size 9 to 14) (size 15 to 20)
#    0.000    1.500    1.250    2.625   10.500    2.500 
#    0.000    1.250    0.000    0.000    0.000    0.000 
#    0.000    0.000    0.000    0.000    0.000    0.000 
#
# Total GULP energy -198459.663754 kJ/mol
# GULP energy per Si atom -12403.728985 kJ/mol
# Density = 2.186164 g / cm^3
# Si number density = 21.911512 Si / 1000 Ang^3
#
#
#
# Elastic Constant Matrix: (Units=GPa)
#
#
# Indices 1 2 3 4 5 6 
#
# 1 87.1907 22.4189 38.7101 -3.6796 6.3583 -1.2379
# 2 22.4189 117.1323 45.6878 4.5217 -2.5745 -14.7437
# 3 38.7101 45.6878 157.2959 -7.7400 -3.0135 -8.3658
# 4 -3.6796 4.5217 -7.7400 36.5583 -1.5329 2.9120
# 5 6.3583 -2.5745 -3.0135 -1.5329 30.0069 -11.9206
# 6 -1.2379 -14.7437 -8.3658 2.9120 -11.9206 26.8348
#
#
#
# Elastic Compliance Matrix: (Units=1/GPa)
#
#
# Indices 1 2 3 4 5 6 
#
# 1 0.013672 -0.002056 -0.003001 0.001087 -0.004780 -0.003676
# 2 -0.002056 0.010922 -0.002333 -0.002460 0.003857 0.007159
# 3 -0.003001 -0.002333 0.007988 0.001620 0.002035 0.001798
# 4 0.001087 -0.002460 0.001620 0.028416 -0.000448 -0.004079
# 5 -0.004780 0.003857 0.002035 -0.000448 0.043564 0.021934
# 6 -0.003676 0.007159 0.001798 -0.004079 0.021934 0.051775
#
#
# Mechanical properties :
#
#
# Convention : Reuss Voigt Hill
#
# Bulk Modulus (GPa) = 56.17264 63.91693 60.04479
# Shear Modulus (GPa) = 28.24038 35.66680 31.95359
#
# Velocity S-wave (km/s) = 3.59393 4.03893 3.82291
# Velocity P-wave (km/s) = 6.55085 7.14034 6.85194
#
# Compressibility (1/GPa) = 0.01780226
#
# Stress axis : x y z
#
# Youngs Moduli (GPa) = 73.13997 91.56206 125.18916
#
# Poissons Ratio (x) = 0.18825 0.37571
# Poissons Ratio (y) = 0.15037 0.29203
# Poissons Ratio (z) = 0.21950 0.21359
#
# Static dielectric constant tensor:
#      x y z
#    x 3.803900 -0.112230 -0.021270 
#    y -0.112230 4.492620 0.180260 
#    z -0.021270 0.180260 3.888940 
# 
# 
# High freq. dielectric constant tensor:
#      x y z
#    x 1.849010 -0.007280 0.001190 
#    y -0.007280 1.879500 0.006130 
#    z 0.001190 0.006130 1.863360 
# 
# From -- ./inp_files/186979.got.cif
#   From: 2010.06.25/outbox.cif.g09.slc.cpg/sg2_94_cif.got.tgz:186979.got - 2010.06.27 13:26:56.
