data_PCOD8020266
_publ_section_title
;
Structure prediction by ZEFSAII (Michael W. Deem and Ramdas Pophale) SiO2 
 PCOD8020266
Probable space group: P -1
;
_chemical_formula_sum "Si O2"
_cell_formula_units_Z 14
_cell_length_a 14.669382
_cell_length_b 15.523537
_cell_length_c 9.379274
_cell_angle_alpha 38.786581
_cell_angle_beta 151.847127
_cell_angle_gamma 139.390531
_cell_volume 612.313878
_symmetry_space_group_name_H-M "P -1"
_symmetry_group_IT_number 2
_symmetry_cell_setting 'triclinic'
loop_
_space_group_symop_operation_xyz
x,y,z
-x,-y,-z
loop_
_atom_site_type_symbol
_atom_site_label
_atom_site_fract_x
_atom_site_fract_y
_atom_site_fract_z
Si Si1 0.405019 0.729981 0.529387
Si Si2 0.782262 0.815524 0.122913
Si Si3 0.284711 0.902108 0.360870
Si Si4 0.865297 0.840053 0.520853
Si Si5 0.970022 0.432802 0.889021
Si Si6 0.826495 0.284493 0.279321
Si Si7 0.486690 0.157918 0.766303
O O1 0.244858 0.805105 0.289717
O O2 0.521078 0.814447 0.447448
O O3 0.259900 0.583389 0.461266
O O4 0.580858 0.720135 0.894911
O O5 0.739400 0.810873 0.238819
O O6 0.967182 0.753722 0.421215
O O7 0.847599 0.983387 0.949838
O O8 0.276149 0.800862 0.615741
O O9 0.500000 0.000000 0.500000
O O10 0.713572 0.818063 0.471560
O O11 0.992257 0.723221 0.859497
O O12 0.000000 0.000000 0.500000
O O13 0.116789 0.544237 0.841608
O O14 0.000000 0.500000 0.000000
O O15 0.682333 0.255614 0.981745
O O16 0.500000 0.000000 0.000000
#
# Coordination Sequence:
#
# PCOD8020266 Si02
#       7
#     2   2   2   2   2   2   2
#     4  11  24  43  67  99 145 182 234 292 350 414
#     4  11  22  42  71 105 139 183 237 297 352 414
#     4  10  22  42  67 103 140 181 234 294 346 416
#     4  12  26  47  78 103 138 193 243 290 354 426
#     4  12  25  50  70 104 147 188 234 299 353 426
#     4  12  25  44  71 100 146 189 234 292 360 419
#     4  12  23  42  71 104 137 187 241 288 347 422
#
# _framework density 22.864090999999998
#
# number of rings (size 3 to 8) (size 9 to 14) (size 15 to 20)
#    0.000    0.571    2.857    7.286    0.000    4.000 
#    0.000    0.000    0.000    0.000    0.000    0.000 
#    0.000    0.000    0.000    0.000    0.000    0.000 
#
# Total GULP energy -173482.391677 kJ/mol
# GULP energy per Si atom -12391.599406 kJ/mol
# Density = 2.281205 g / cm^3
# Si number density = 22.864091 Si / 1000 Ang^3
#
#
#
# Elastic Constant Matrix: (Units=GPa)
#
#
# Indices 1 2 3 4 5 6 
#
# 1 94.9726 36.1598 26.7274 4.1442 -10.4659 -10.5843
# 2 36.1598 128.3232 51.2668 8.4243 0.2991 7.5149
# 3 26.7274 51.2668 89.0164 12.6561 -4.2125 -6.7134
# 4 4.1442 8.4243 12.6561 52.1616 -2.5506 -7.5722
# 5 -10.4659 0.2991 -4.2125 -2.5506 45.4646 -3.4220
# 6 -10.5843 7.5149 -6.7134 -7.5722 -3.4220 33.0134
#
#
#
# Elastic Compliance Matrix: (Units=1/GPa)
#
#
# Indices 1 2 3 4 5 6 
#
# 1 0.013203 -0.003482 -0.001519 0.000809 0.003362 0.005251
# 2 -0.003482 0.011537 -0.005950 -0.001017 -0.001891 -0.005382
# 3 -0.001519 -0.005950 0.015763 -0.002139 0.001310 0.003718
# 4 0.000809 -0.001017 -0.002139 0.020581 0.001521 0.004934
# 5 0.003362 -0.001891 0.001310 0.001521 0.023330 0.004542
# 6 0.005251 -0.005382 0.003718 0.004934 0.004542 0.035558
#
#
# Mechanical properties :
#
#
# Convention : Reuss Voigt Hill
#
# Bulk Modulus (GPa) = 53.75753 60.06892 56.91322
# Shear Modulus (GPa) = 33.76682 39.33845 36.55264
#
# Velocity S-wave (km/s) = 3.84715 4.15243 4.00270
# Velocity P-wave (km/s) = 6.58004 7.02278 6.80501
#
# Compressibility (1/GPa) = 0.01860205
#
# Stress axis : x y z
#
# Youngs Moduli (GPa) = 75.74101 86.67403 63.43897
#
# Poissons Ratio (x) = 0.30181 0.09634
# Poissons Ratio (y) = 0.26374 0.37746
# Poissons Ratio (z) = 0.11502 0.51571
#
# Static dielectric constant tensor:
#      x y z
#    x -1.107630 5.416160 1.018100 
#    y 5.416160 -0.854700 -1.553570 
#    z 1.018100 -1.553570 4.332240 
# 
# 
# High freq. dielectric constant tensor:
#      x y z
#    x 1.903260 -0.003770 -0.009170 
#    y -0.003770 1.911390 0.012030 
#    z -0.009170 0.012030 1.903860 
# 
# From -- ./inp_files/314544.got.cif
#   From: 2010.06.25/outbox.cif.g09.slc.cpg/sg2_158_cif.got.tgz:314544.got - 2010.06.27 13:26:56.
