data_PCOD8020375
_publ_section_title
;
Structure prediction by ZEFSAII (Michael W. Deem and Ramdas Pophale) SiO2 
 PCOD8020375
Probable space group: P -1
;
_chemical_formula_sum "Si O2"
_cell_formula_units_Z 12
_cell_length_a 10.163715
_cell_length_b 11.261212
_cell_length_c 13.441828
_cell_angle_alpha 158.351140
_cell_angle_beta 102.665539
_cell_angle_gamma 78.274109
_cell_volume 553.765474
_symmetry_space_group_name_H-M "P -1"
_symmetry_group_IT_number 2
_symmetry_cell_setting 'triclinic'
loop_
_space_group_symop_operation_xyz
x,y,z
-x,-y,-z
loop_
_atom_site_type_symbol
_atom_site_label
_atom_site_fract_x
_atom_site_fract_y
_atom_site_fract_z
Si Si1 0.029334 0.197517 0.946011
Si Si2 0.414539 0.803707 0.753128
Si Si3 0.295641 0.233367 0.902848
Si Si4 0.649710 0.022234 0.504675
Si Si5 0.128338 0.707633 0.718455
Si Si6 0.868756 0.682355 0.401243
O O1 0.141117 0.178708 0.864641
O O2 0.086893 0.073294 0.966407
O O3 0.913489 0.969528 0.704616
O O4 0.975350 0.560391 0.239505
O O5 0.500000 0.500000 0.500000
O O6 0.271368 0.650315 0.643217
O O7 0.395467 0.054881 0.855797
O O8 0.500000 0.000000 0.000000
O O9 0.329919 0.096467 0.695208
O O10 0.308811 0.612067 0.199006
O O11 0.500000 0.000000 0.500000
O O12 0.733818 0.793668 0.413187
O O13 0.156736 0.639591 0.786585
O O14 0.000000 0.500000 0.500000
#
# Coordination Sequence:
#
# PCOD8020375 Si02
#       6
#     2   2   2   2   2   2
#     4  10  22  42  67  99 124 166 218 280 336 376
#     4  11  25  43  71 102 131 181 224 279 344 398
#     4  11  25  45  67  92 139 166 223 280 321 397
#     4  12  27  44  63  94 134 183 220 268 320 395
#     4   9  22  43  67 101 136 170 221 286 336 398
#     4  11  23  39  68  95 131 172 218 263 332 399
#
# _framework density 21.669823000000001
#
# number of rings (size 3 to 8) (size 9 to 14) (size 15 to 20)
#    0.000    1.333    0.000    4.000    4.667   13.333 
#    0.000    0.000    0.000    0.000    0.000    0.000 
#    0.000    0.000    0.000    0.000    0.000    0.000 
#
# Total GULP energy -148710.350007 kJ/mol
# GULP energy per Si atom -12392.529167 kJ/mol
# Density = 2.162050 g / cm^3
# Si number density = 21.669823 Si / 1000 Ang^3
#
#
#
# Elastic Constant Matrix: (Units=GPa)
#
#
# Indices 1 2 3 4 5 6 
#
# 1 138.6981 85.5443 53.3755 12.9540 -8.6501 -18.3812
# 2 85.5443 173.9384 50.7635 -6.9979 -18.2387 -7.0518
# 3 53.3755 50.7635 120.1424 -10.8095 -26.4380 -4.3313
# 4 12.9540 -6.9979 -10.8095 31.0495 -4.4108 -2.9650
# 5 -8.6501 -18.2387 -26.4380 -4.4108 40.3747 6.8547
# 6 -18.3812 -7.0518 -4.3313 -2.9650 6.8547 35.0651
#
#
#
# Elastic Compliance Matrix: (Units=1/GPa)
#
#
# Indices 1 2 3 4 5 6 
#
# 1 0.014619 -0.006246 -0.005729 -0.009716 -0.005513 0.005956
# 2 -0.006246 0.009335 0.000056 0.005102 0.003760 -0.001693
# 3 -0.005729 0.000056 0.013447 0.008120 0.008895 -0.002383
# 4 -0.009716 0.005102 0.008120 0.041556 0.010347 -0.001573
# 5 -0.005513 0.003760 0.008895 0.010347 0.033375 -0.006684
# 6 0.005956 -0.001693 -0.002383 -0.001573 -0.006684 0.032179
#
#
# Mechanical properties :
#
#
# Convention : Reuss Voigt Hill
#
# Bulk Modulus (GPa) = 73.72009 90.23839 81.97924
# Shear Modulus (GPa) = 28.92322 37.50422 33.21372
#
# Velocity S-wave (km/s) = 3.65735 4.16470 3.91924
# Velocity P-wave (km/s) = 7.20614 8.05351 7.64158
#
# Compressibility (1/GPa) = 0.01356482
#
# Stress axis : x y z
#
# Youngs Moduli (GPa) = 68.40209 107.11876 74.36613
#
# Poissons Ratio (x) = 0.66902 0.42601
# Poissons Ratio (y) = 0.42721 -0.00414
# Poissons Ratio (z) = 0.39185 -0.00596
#
# Static dielectric constant tensor:
#      x y z
#    x 4.000070 -0.088560 -0.146430 
#    y -0.088560 4.263300 0.147800 
#    z -0.146430 0.147800 3.658170 
# 
# 
# High freq. dielectric constant tensor:
#      x y z
#    x 1.861960 -0.001870 -0.011710 
#    y -0.001870 1.867420 0.010800 
#    z -0.011710 0.010800 1.850380 
# 
# From -- ./inp_files/26926.got.cif
#   From: 2010.06.25/outbox.cif.g09.slc.cpg/sg2_14_cif.got.tgz:26926.got - 2010.06.27 13:26:56.
