data_PCOD8020573
_publ_section_title
;
Structure prediction by ZEFSAII (Michael W. Deem and Ramdas Pophale) SiO2 
 PCOD8020573
Probable space group: P -1
;
_chemical_formula_sum "Si O2"
_cell_formula_units_Z 16
_cell_length_a 11.556487
_cell_length_b 9.251201
_cell_length_c 9.044653
_cell_angle_alpha 132.805282
_cell_angle_beta 101.014793
_cell_angle_gamma 81.516960
_cell_volume 696.159427
_symmetry_space_group_name_H-M "P -1"
_symmetry_group_IT_number 2
_symmetry_cell_setting 'triclinic'
loop_
_space_group_symop_operation_xyz
x,y,z
-x,-y,-z
loop_
_atom_site_type_symbol
_atom_site_label
_atom_site_fract_x
_atom_site_fract_y
_atom_site_fract_z
Si Si1 0.743634 0.815182 0.256750
Si Si2 0.627632 0.433660 0.429664
Si Si3 0.224937 0.935421 0.286948
Si Si4 0.029994 0.040160 0.704546
Si Si5 0.962720 0.292172 0.286948
Si Si6 0.269482 0.594550 0.868803
Si Si7 0.375825 0.003227 0.891521
Si Si8 0.785086 0.784188 0.775968
O O1 0.749563 0.608930 0.195386
O O2 0.629654 0.842628 0.140172
O O3 0.738855 0.003180 0.496525
O O4 0.856226 0.821807 0.176763
O O5 0.500000 0.500000 0.500000
O O6 0.629760 0.437927 0.253273
O O7 0.727578 0.568741 0.621066
O O8 0.652246 0.210041 0.331368
O O9 0.237410 0.139397 0.342491
O O10 0.306098 0.757715 0.114052
O O11 0.090046 0.858917 0.190249
O O12 0.060906 0.845193 0.672811
O O13 0.000000 0.000000 0.500000
O O14 0.846961 0.317669 0.178431
O O15 0.000000 0.500000 0.500000
O O16 0.073581 0.214891 0.157659
O O17 0.274719 0.057432 0.021329
O O18 0.500000 0.000000 0.000000
#
# Coordination Sequence:
#
# PCOD8020573 Si02
#       8
#     2   2   2   2   2   2   2   2
#     4  11  25  46  67 102 151 185 233 299 353 424
#     4  12  24  46  76  99 137 182 240 300 352 423
#     4  10  22  42  69  99 150 185 228 288 350 428
#     4   9  20  38  61 103 147 187 227 279 351 415
#     4  11  21  38  71 105 148 194 236 290 350 432
#     4  12  24  43  70 108 144 192 240 284 361 431
#     4  12  27  48  73 103 134 184 248 301 359 426
#     4  11  23  43  72 105 140 187 241 289 355 424
#
# _framework density 22.983242000000001
#
# number of rings (size 3 to 8) (size 9 to 14) (size 15 to 20)
#    0.000    1.000    5.000    2.250    1.750    2.500 
#    2.250    3.125    0.000    0.000    0.000    0.000 
#    0.000    0.000    0.000    0.000    0.000    0.000 
#
# Total GULP energy -198303.186200 kJ/mol
# GULP energy per Si atom -12393.949137 kJ/mol
# Density = 2.293093 g / cm^3
# Si number density = 22.983242 Si / 1000 Ang^3
#
#
#
# Elastic Constant Matrix: (Units=GPa)
#
#
# Indices 1 2 3 4 5 6 
#
# 1 122.1157 61.7409 46.9878 -8.8018 -19.0944 -1.9599
# 2 61.7409 157.7661 32.8561 -8.7328 -3.3165 -0.9983
# 3 46.9878 32.8561 78.2764 7.6027 -15.0878 -12.4128
# 4 -8.8018 -8.7328 7.6027 35.5762 -1.8093 7.0344
# 5 -19.0944 -3.3165 -15.0878 -1.8093 42.6185 -2.0248
# 6 -1.9599 -0.9983 -12.4128 7.0344 -2.0248 29.9306
#
#
#
# Elastic Compliance Matrix: (Units=1/GPa)
#
#
# Indices 1 2 3 4 5 6 
#
# 1 0.013419 -0.003513 -0.006853 0.004677 0.003371 -0.002952
# 2 -0.003513 0.008189 -0.002024 0.001751 -0.001642 -0.001319
# 3 -0.006853 -0.002024 0.021083 -0.008559 0.004373 0.010535
# 4 0.004677 0.001751 -0.008559 0.033726 0.000106 -0.011104
# 5 0.003371 -0.001642 0.004373 0.000106 0.026577 0.003753
# 6 -0.002952 -0.001319 0.010535 -0.011104 0.003753 0.040406
#
#
# Mechanical properties :
#
#
# Convention : Reuss Voigt Hill
#
# Bulk Modulus (GPa) = 55.83262 71.25865 63.54563
# Shear Modulus (GPa) = 28.71075 36.06330 32.38703
#
# Velocity S-wave (km/s) = 3.53824 3.96550 3.75795
# Velocity P-wave (km/s) = 6.40607 7.21380 6.82190
#
# Compressibility (1/GPa) = 0.01791068
#
# Stress axis : x y z
#
# Youngs Moduli (GPa) = 74.52142 122.11652 47.43074
#
# Poissons Ratio (x) = 0.42901 0.32505
# Poissons Ratio (y) = 0.26180 0.09600
# Poissons Ratio (z) = 0.51071 0.24716
#
# Static dielectric constant tensor:
#      x y z
#    x 5.088570 -0.533630 0.179450 
#    y -0.533630 4.908690 -0.534440 
#    z 0.179450 -0.534440 4.617800 
# 
# 
# High freq. dielectric constant tensor:
#      x y z
#    x 1.902390 0.012350 -0.014000 
#    y 0.012350 1.905070 -0.001970 
#    z -0.014000 -0.001970 1.914170 
# 
# From -- ./inp_files/246061.got.cif
#   From: 2010.06.25/outbox.cif.g09.slc.cpg/sg2_124_cif.got.tgz:246061.got - 2010.06.27 13:26:56.
