data_PCOD8020383
_publ_section_title
;
Structure prediction by ZEFSAII (Michael W. Deem and Ramdas Pophale) SiO2 
 PCOD8020383
Probable space group: P -1
;
_chemical_formula_sum "Si O2"
_cell_formula_units_Z 16
_cell_length_a 18.789092
_cell_length_b 11.018659
_cell_length_c 14.579633
_cell_angle_alpha 30.881635
_cell_angle_beta 29.831044
_cell_angle_gamma 48.317742
_cell_volume 732.346277
_symmetry_space_group_name_H-M "P -1"
_symmetry_group_IT_number 2
_symmetry_cell_setting 'triclinic'
loop_
_space_group_symop_operation_xyz
x,y,z
-x,-y,-z
loop_
_atom_site_type_symbol
_atom_site_label
_atom_site_fract_x
_atom_site_fract_y
_atom_site_fract_z
Si Si1 0.277173 0.112236 0.347308
Si Si2 0.429230 0.777787 0.154871
Si Si3 0.702879 0.269389 0.288528
Si Si4 0.212022 0.832198 0.211843
Si Si5 0.914340 0.799701 0.652002
Si Si6 0.675469 0.067653 0.266593
Si Si7 0.171283 0.503783 0.305142
Si Si8 0.637174 0.739227 0.360295
O O1 0.183257 0.073367 0.383585
O O2 0.205358 0.243913 0.421359
O O3 0.274472 0.844844 0.564665
O O4 0.449193 0.263214 0.027649
O O5 0.296847 0.835578 0.209824
O O6 0.358945 0.539854 0.453114
O O7 0.500000 0.000000 0.000000
O O8 0.532369 0.265490 0.466701
O O9 0.732908 0.082441 0.297866
O O10 0.813205 0.550187 0.976946
O O11 0.249817 0.641628 0.220927
O O12 0.034243 0.736370 0.492047
O O13 0.260915 0.112391 0.933590
O O14 0.000000 0.000000 0.500000
O O15 0.716470 0.872714 0.279881
O O16 0.500000 0.000000 0.500000
O O17 0.748858 0.348459 0.968755
O O18 0.000000 0.500000 0.500000
#
# Coordination Sequence:
#
# PCOD8020383 Si02
#       8
#     2   2   2   2   2   2   2   2
#     4  12  24  43  73 100 132 185 223 276 350 399
#     4  12  26  44  69 101 136 182 234 274 336 409
#     4  11  22  42  69  99 133 181 222 274 343 402
#     4  11  25  43  68 106 130 177 232 280 340 398
#     4  12  26  47  68  94 143 182 223 280 334 408
#     4   9  18  37  63  96 131 169 214 271 338 392
#     4  11  21  43  69  96 143 171 219 285 345 402
#     4  10  22  42  67  99 138 171 221 287 333 398
#
# _framework density 21.847588999999999
#
# number of rings (size 3 to 8) (size 9 to 14) (size 15 to 20)
#    0.000    1.000    5.000    1.500    1.750    3.500 
#    0.000    1.250    0.000    0.000    0.000    0.000 
#    0.000    0.000    0.000    0.000    0.000    0.000 
#
# Total GULP energy -198322.834423 kJ/mol
# GULP energy per Si atom -12395.177151 kJ/mol
# Density = 2.179786 g / cm^3
# Si number density = 21.847589 Si / 1000 Ang^3
#
#
#
# Elastic Constant Matrix: (Units=GPa)
#
#
# Indices 1 2 3 4 5 6 
#
# 1 113.3984 13.9817 41.9001 -24.6300 11.7139 -14.4106
# 2 13.9817 45.6474 16.6149 -9.8088 8.1499 1.9602
# 3 41.9001 16.6149 120.3233 -6.1318 8.3022 -11.1218
# 4 -24.6300 -9.8088 -6.1318 43.2840 -2.1950 -2.0279
# 5 11.7139 8.1499 8.3022 -2.1950 32.4687 -5.8931
# 6 -14.4106 1.9602 -11.1218 -2.0279 -5.8931 27.9774
#
#
#
# Elastic Compliance Matrix: (Units=1/GPa)
#
#
# Indices 1 2 3 4 5 6 
#
# 1 0.012433 -0.001106 -0.003222 0.006513 -0.001990 0.005254
# 2 -0.001106 0.025434 -0.002923 0.004221 -0.005754 -0.004420
# 3 -0.003222 -0.002923 0.010029 -0.000978 -0.000299 0.002398
# 4 0.006513 0.004221 -0.000978 0.027820 -0.000445 0.004593
# 5 -0.001990 -0.005754 -0.000299 -0.000445 0.034174 0.006425
# 6 0.005254 -0.004420 0.002398 0.004593 0.006425 0.041398
#
#
# Mechanical properties :
#
#
# Convention : Reuss Voigt Hill
#
# Bulk Modulus (GPa) = 29.94600 47.15140 38.54870
# Shear Modulus (GPa) = 28.26090 34.53753 31.39922
#
# Velocity S-wave (km/s) = 3.60049 3.98029 3.79515
# Velocity P-wave (km/s) = 5.56968 6.53853 6.07346
#
# Compressibility (1/GPa) = 0.03339344
#
# Stress axis : x y z
#
# Youngs Moduli (GPa) = 80.42977 39.31720 99.71022
#
# Poissons Ratio (x) = 0.04349 0.32127
# Poissons Ratio (y) = 0.08898 0.29148
# Poissons Ratio (z) = 0.25915 0.11493
#
# Static dielectric constant tensor:
#      x y z
#    x 4.080730 0.205050 0.073390 
#    y 0.205050 3.851840 0.075230 
#    z 0.073390 0.075230 4.140130 
# 
# 
# High freq. dielectric constant tensor:
#      x y z
#    x 1.863940 0.013380 0.001320 
#    y 0.013380 1.838440 0.001850 
#    z 0.001320 0.001850 1.869090 
# 
# From -- ./inp_files/207178.got.cif
#   From: 2010.06.25/outbox.cif.g09.slc.cpg/sg2_104_cif.got.tgz:207178.got - 2010.06.27 13:26:56.
