data_PCOD8020055
_publ_section_title
;
Structure prediction by ZEFSAII (Michael W. Deem and Ramdas Pophale) SiO2 
 PCOD8020055
Probable space group: P -1
;
_chemical_formula_sum "Si O2"
_cell_formula_units_Z 14
_cell_length_a 13.589672
_cell_length_b 8.609376
_cell_length_c 10.708389
_cell_angle_alpha 115.169890
_cell_angle_beta 31.795860
_cell_angle_gamma 113.865328
_cell_volume 595.003248
_symmetry_space_group_name_H-M "P -1"
_symmetry_group_IT_number 2
_symmetry_cell_setting 'triclinic'
loop_
_space_group_symop_operation_xyz
x,y,z
-x,-y,-z
loop_
_atom_site_type_symbol
_atom_site_label
_atom_site_fract_x
_atom_site_fract_y
_atom_site_fract_z
Si Si1 0.796945 0.698471 0.395110
Si Si2 0.579486 0.529419 0.058624
Si Si3 0.949046 0.190534 0.626622
Si Si4 0.460777 0.831137 0.899944
Si Si5 0.273862 0.672671 0.578577
Si Si6 0.917304 0.073615 0.992218
Si Si7 0.973223 0.726629 0.704540
O O1 0.620474 0.820330 0.617037
O O2 0.748665 0.494029 0.361817
O O3 0.886577 0.704975 0.439526
O O4 0.940022 0.771393 0.160636
O O5 0.511824 0.344486 0.120498
O O6 0.475428 0.676147 0.294944
O O7 0.500000 0.500000 0.000000
O O8 0.801564 0.578707 0.841715
O O9 0.927385 0.271268 0.538607
O O10 0.755937 0.184088 0.914101
O O11 0.000000 0.000000 0.500000
O O12 0.500000 0.000000 0.000000
O O13 0.114828 0.681900 0.645296
O O14 0.269066 0.836628 0.733495
O O15 0.887614 0.913479 0.873973
O O16 0.000000 0.000000 0.000000
#
# Coordination Sequence:
#
# PCOD8020055 Si02
#       7
#     2   2   2   2   2   2   2
#     4  11  22  41  63  91 124 163 206 261 313 366
#     4  11  24  38  62  96 127 163 203 255 319 368
#     4  12  22  37  63  94 123 163 205 251 317 369
#     4  11  22  37  58  89 125 157 201 249 303 374
#     4  10  23  41  65  90 126 168 210 255 309 368
#     4  10  22  42  65  89 122 170 213 255 307 368
#     4  11  22  42  62  93 131 160 208 261 306 370
#
# _framework density 23.529283
#
# number of rings (size 3 to 8) (size 9 to 14) (size 15 to 20)
#    0.000    1.143    2.857    3.857    0.000    3.429 
#    0.000    2.857    0.000   10.286    0.000    0.000 
#    0.000    0.000    0.000    0.000    0.000    0.000 
#
# Total GULP energy -173434.589229 kJ/mol
# GULP energy per Si atom -12388.184945 kJ/mol
# Density = 2.347573 g / cm^3
# Si number density = 23.529283 Si / 1000 Ang^3
#
#
#
# Elastic Constant Matrix: (Units=GPa)
#
#
# Indices 1 2 3 4 5 6 
#
# 1 43.2433 -1.6159 16.3620 -5.1805 -1.9565 -6.7466
# 2 -1.6159 76.1600 25.3760 17.4668 1.0092 -4.8078
# 3 16.3620 25.3760 127.7963 16.6449 -10.6221 -5.6581
# 4 -5.1805 17.4668 16.6449 46.3326 -0.8762 -1.9008
# 5 -1.9565 1.0092 -10.6221 -0.8762 38.3086 -5.4286
# 6 -6.7466 -4.8078 -5.6581 -1.9008 -5.4286 30.6051
#
#
#
# Elastic Compliance Matrix: (Units=1/GPa)
#
#
# Indices 1 2 3 4 5 6 
#
# 1 0.026016 0.001216 -0.003752 0.004054 0.001155 0.005689
# 2 0.001216 0.015192 -0.002570 -0.004614 -0.000911 0.001731
# 3 -0.003752 -0.002570 0.009420 -0.002754 0.002537 0.000790
# 4 0.004054 -0.004614 -0.002754 0.024823 0.000311 0.001256
# 5 0.001155 -0.000911 0.002537 0.000311 0.027678 0.005509
# 6 0.005689 0.001731 0.000790 0.001256 0.005509 0.035401
#
#
# Mechanical properties :
#
#
# Convention : Reuss Voigt Hill
#
# Bulk Modulus (GPa) = 24.74322 36.38264 30.56293
# Shear Modulus (GPa) = 30.82328 36.85444 33.83886
#
# Velocity S-wave (km/s) = 3.62331 3.96197 3.79642
# Velocity P-wave (km/s) = 5.29559 6.03539 5.67755
#
# Compressibility (1/GPa) = 0.04041512
#
# Stress axis : x y z
#
# Youngs Moduli (GPa) = 38.43832 65.82381 106.15289
#
# Poissons Ratio (x) = -0.08007 0.39834
# Poissons Ratio (y) = -0.04676 0.27287
# Poissons Ratio (z) = 0.14424 0.16920
#
# Static dielectric constant tensor:
#      x y z
#    x 3.921270 -0.092420 0.227540 
#    y -0.092420 4.502620 0.540950 
#    z 0.227540 0.540950 5.343650 
# 
# 
# High freq. dielectric constant tensor:
#      x y z
#    x 1.897010 -0.017400 -0.000190 
#    y -0.017400 1.944660 0.014600 
#    z -0.000190 0.014600 1.951510 
# 
# From -- ./inp_files/255731.got.cif
#   From: 2010.06.25/outbox.cif.g09.slc.cpg/sg2_128_cif.got.tgz:255731.got - 2010.06.27 13:26:56.
