data_PCOD8020703
_publ_section_title
;
Structure prediction by ZEFSAII (Michael W. Deem and Ramdas Pophale) SiO2 
 PCOD8020703
Probable space group: P -1
;
_chemical_formula_sum "Si O2"
_cell_formula_units_Z 10
_cell_length_a 5.947955
_cell_length_b 12.541730
_cell_length_c 7.188375
_cell_angle_alpha 130.682040
_cell_angle_beta 87.021030
_cell_angle_gamma 95.553917
_cell_volume 404.695495
_symmetry_space_group_name_H-M "P -1"
_symmetry_group_IT_number 2
_symmetry_cell_setting 'triclinic'
loop_
_space_group_symop_operation_xyz
x,y,z
-x,-y,-z
loop_
_atom_site_type_symbol
_atom_site_label
_atom_site_fract_x
_atom_site_fract_y
_atom_site_fract_z
Si Si1 0.293525 0.914143 0.504841
Si Si2 0.926304 0.546266 0.257175
Si Si3 0.761216 0.332807 0.309064
Si Si4 0.616613 0.786519 0.588383
Si Si5 0.916585 0.068234 0.841004
O O1 0.394193 0.784040 0.458869
O O2 0.123409 0.868271 0.291785
O O3 0.500000 0.000000 0.500000
O O4 0.162466 0.008074 0.764630
O O5 0.761169 0.424810 0.225088
O O6 0.798848 0.687006 0.390442
O O7 0.141565 0.574469 0.415738
O O8 0.000000 0.500000 0.000000
O O9 0.497597 0.274873 0.284684
O O10 0.915756 0.199913 0.130707
O O11 0.727862 0.946391 0.778709
#
# Coordination Sequence:
#
# PCOD8020703 Si02
#       5
#     2   2   2   2   2
#     4   9  21  38  68 107 138 180 219 283 348 407
#     4  11  28  48  69  97 143 189 232 284 341 411
#     4  11  26  46  71 103 137 185 232 285 345 412
#     4  11  23  44  71 105 136 185 229 284 351 407
#     4  10  22  42  72 105 142 172 233 288 346 410
#
# _framework density 24.709938999999999
#
# number of rings (size 3 to 8) (size 9 to 14) (size 15 to 20)
#    0.000    1.600    0.000    2.400   11.200    7.200 
#    3.600    0.000    0.000    0.000    0.000    0.000 
#    0.000    0.000    0.000    0.000    0.000    0.000 
#
# Total GULP energy -123972.197987 kJ/mol
# GULP energy per Si atom -12397.219799 kJ/mol
# Density = 2.465370 g / cm^3
# Si number density = 24.709939 Si / 1000 Ang^3
#
#
#
# Elastic Constant Matrix: (Units=GPa)
#
#
# Indices 1 2 3 4 5 6 
#
# 1 74.9020 16.3655 16.0453 -3.1502 -14.0539 6.7785
# 2 16.3655 122.3785 35.9779 -4.1187 2.0513 12.4334
# 3 16.0453 35.9779 124.7842 1.2713 -14.6852 5.3815
# 4 -3.1502 -4.1187 1.2713 35.6847 -2.9719 -4.2691
# 5 -14.0539 2.0513 -14.6852 -2.9719 24.6712 -4.5886
# 6 6.7785 12.4334 5.3815 -4.2691 -4.5886 56.5448
#
#
#
# Elastic Compliance Matrix: (Units=1/GPa)
#
#
# Indices 1 2 3 4 5 6 
#
# 1 0.015689 -0.002024 -0.000369 0.001851 0.009010 -0.000529
# 2 -0.002024 0.009563 -0.002887 0.000475 -0.003957 -0.001871
# 3 -0.000369 -0.002887 0.009561 -0.000202 0.005737 0.000219
# 4 0.001851 0.000475 -0.000202 0.028919 0.004800 0.002266
# 5 0.009010 -0.003957 0.005737 0.004800 0.050680 0.003719
# 6 -0.000529 -0.001871 0.000219 0.002266 0.003719 0.018612
#
#
# Mechanical properties :
#
#
# Convention : Reuss Voigt Hill
#
# Bulk Modulus (GPa) = 41.23353 50.98244 46.10798
# Shear Modulus (GPa) = 32.96649 40.29189 36.62919
#
# Velocity S-wave (km/s) = 3.65655 4.04244 3.85433
# Velocity P-wave (km/s) = 5.87796 6.51656 6.20548
#
# Compressibility (1/GPa) = 0.02425211
#
# Stress axis : x y z
#
# Youngs Moduli (GPa) = 63.74091 104.56813 104.58643
#
# Poissons Ratio (x) = 0.21168 0.03863
# Poissons Ratio (y) = 0.12903 0.30192
# Poissons Ratio (z) = 0.02354 0.30187
#
# Static dielectric constant tensor:
#      x y z
#    x 4.472150 -0.144740 -0.047360 
#    y -0.144740 5.418080 -0.539280 
#    z -0.047360 -0.539280 4.422540 
# 
# 
# High freq. dielectric constant tensor:
#      x y z
#    x 1.984120 0.009560 -0.018100 
#    y 0.009560 2.001630 -0.013670 
#    z -0.018100 -0.013670 1.961310 
# 
# From -- ./inp_files/1580.got.cif
#   From: 2010.06.25/outbox.cif.g09.slc.cpg/sg2_1_cif.got.tgz:1580.got - 2010.06.27 13:26:56.
