data_PCOD8020857
_publ_section_title
;
Structure prediction by ZEFSAII (Michael W. Deem and Ramdas Pophale) SiO2 
 PCOD8020857
Probable space group: P -1
;
_chemical_formula_sum "Si O2"
_cell_formula_units_Z 16
_cell_length_a 12.054669
_cell_length_b 17.128182
_cell_length_c 8.367820
_cell_angle_alpha 136.779679
_cell_angle_beta 79.470050
_cell_angle_gamma 132.905861
_cell_volume 676.709081
_symmetry_space_group_name_H-M "P -1"
_symmetry_group_IT_number 2
_symmetry_cell_setting 'triclinic'
loop_
_space_group_symop_operation_xyz
x,y,z
-x,-y,-z
loop_
_atom_site_type_symbol
_atom_site_label
_atom_site_fract_x
_atom_site_fract_y
_atom_site_fract_z
Si Si1 0.542491 0.181730 0.397013
Si Si2 0.750273 0.437509 0.226946
Si Si3 0.019937 0.472434 0.137849
Si Si4 0.999842 0.009582 0.205190
Si Si5 0.336679 0.430092 0.337974
Si Si6 0.428669 0.039515 0.860801
Si Si7 0.966271 0.239785 0.606175
Si Si8 0.567303 0.668576 0.325952
O O1 0.772584 0.360913 0.586681
O O2 0.478668 0.243365 0.606030
O O3 0.479428 0.012798 0.251791
O O4 0.452287 0.111570 0.138508
O O5 0.772257 0.558496 0.524748
O O6 0.886791 0.441268 0.240526
O O7 0.819331 0.548383 0.205084
O O8 0.531709 0.206589 0.950489
O O9 0.000000 0.500000 0.000000
O O10 0.948035 0.281237 0.849841
O O11 0.205993 0.146270 0.425094
O O12 0.945653 0.089200 0.400264
O O13 0.000000 0.000000 0.000000
O O14 0.832844 0.794985 0.005809
O O15 0.500000 0.500000 0.500000
O O16 0.440706 0.570036 0.370342
O O17 0.199303 0.846687 0.597572
O O18 0.500000 0.500000 0.000000
#
# Coordination Sequence:
#
# PCOD8020857 Si02
#       8
#     2   2   2   2   2   2   2   2
#     4  11  23  44  65  95 139 168 220 279 331 402
#     4  11  22  40  68  95 131 173 223 270 336 401
#     4  10  22  43  64  94 135 174 211 277 344 392
#     4  12  23  42  77  99 133 186 235 282 340 407
#     4  12  24  44  72 106 131 182 244 277 334 421
#     4  11  23  40  67  96 129 172 225 267 332 402
#     4  11  22  45  66  98 138 167 224 283 335 394
#     4  12  27  48  68 101 146 180 223 295 351 395
#
# _framework density 23.643837999999999
#
# number of rings (size 3 to 8) (size 9 to 14) (size 15 to 20)
#    0.000    0.750    6.250    2.250    0.000    2.500 
#    4.500    0.000    0.000    0.000    0.000    0.000 
#    0.000    0.000    0.000    0.000    0.000    0.000 
#
# Total GULP energy -198249.404134 kJ/mol
# GULP energy per Si atom -12390.587758 kJ/mol
# Density = 2.359002 g / cm^3
# Si number density = 23.643838 Si / 1000 Ang^3
#
#
#
# Elastic Constant Matrix: (Units=GPa)
#
#
# Indices 1 2 3 4 5 6 
#
# 1 140.5619 25.7431 61.3969 -0.4864 -37.8724 22.7319
# 2 25.7431 48.4822 26.1739 19.8351 -5.0960 6.3095
# 3 61.3969 26.1739 130.5175 19.3042 -20.9740 12.1560
# 4 -0.4864 19.8351 19.3042 35.9048 4.8232 -9.2196
# 5 -37.8724 -5.0960 -20.9740 4.8232 68.3986 -0.6958
# 6 22.7319 6.3095 12.1560 -9.2196 -0.6958 29.3761
#
#
#
# Elastic Compliance Matrix: (Units=1/GPa)
#
#
# Indices 1 2 3 4 5 6 
#
# 1 0.011707 -0.003765 -0.003723 0.002061 0.004854 -0.005948
# 2 -0.003765 0.032985 -0.000524 -0.020893 0.001579 -0.010474
# 3 -0.003723 -0.000524 0.011192 -0.006991 0.001786 -0.003790
# 4 0.002061 -0.020893 -0.006991 0.049394 -0.005827 0.021150
# 5 0.004854 0.001579 0.001786 -0.005827 0.018321 -0.006230
# 6 -0.005948 -0.010474 -0.003790 0.021150 -0.006230 0.048952
#
#
# Mechanical properties :
#
#
# Convention : Reuss Voigt Hill
#
# Bulk Modulus (GPa) = 25.08773 60.68772 42.88772
# Shear Modulus (GPa) = 24.76932 40.48573 32.62752
#
# Velocity S-wave (km/s) = 3.24018 4.14250 3.71881
# Velocity P-wave (km/s) = 4.96307 6.97163 6.05127
#
# Compressibility (1/GPa) = 0.03986012
#
# Stress axis : x y z
#
# Youngs Moduli (GPa) = 85.41945 30.31663 89.34758
#
# Poissons Ratio (x) = 0.11414 0.33262
# Poissons Ratio (y) = 0.32161 0.04685
# Poissons Ratio (z) = 0.31799 0.01590
#
# Static dielectric constant tensor:
#      x y z
#    x 4.590980 0.233160 -0.533790 
#    y 0.233160 4.016680 0.071950 
#    z -0.533790 0.071950 4.758360 
# 
# 
# High freq. dielectric constant tensor:
#      x y z
#    x 1.952940 0.013930 -0.026760 
#    y 0.013930 1.896980 0.018340 
#    z -0.026760 0.018340 1.956640 
# 
# From -- ./inp_files/280112.got.cif
#   From: 2010.06.25/outbox.cif.g09.slc.cpg/sg2_141_cif.got.tgz:280112.got - 2010.06.27 13:26:56.
