data_PCOD8020594
_publ_section_title
;
Structure prediction by ZEFSAII (Michael W. Deem and Ramdas Pophale) SiO2 
 PCOD8020594
Probable space group: P -1
;
_chemical_formula_sum "Si O2"
_cell_formula_units_Z 16
_cell_length_a 22.146922
_cell_length_b 9.354369
_cell_length_c 12.686746
_cell_angle_alpha 45.871901
_cell_angle_beta 144.013219
_cell_angle_gamma 152.717999
_cell_volume 705.347139
_symmetry_space_group_name_H-M "P -1"
_symmetry_group_IT_number 2
_symmetry_cell_setting 'triclinic'
loop_
_space_group_symop_operation_xyz
x,y,z
-x,-y,-z
loop_
_atom_site_type_symbol
_atom_site_label
_atom_site_fract_x
_atom_site_fract_y
_atom_site_fract_z
Si Si1 0.964426 0.502259 0.700091
Si Si2 0.216756 0.262774 0.911726
Si Si3 0.748812 0.798804 0.242189
Si Si4 0.308933 0.713853 0.483690
Si Si5 0.374909 0.618338 0.413616
Si Si6 0.949314 0.778127 0.951303
Si Si7 0.426865 0.287729 0.775533
Si Si8 0.835126 0.351020 0.381290
O O1 0.852709 0.395611 0.695110
O O2 0.829866 0.272724 0.535526
O O3 0.085450 0.860965 0.652554
O O4 0.067974 0.464182 0.895600
O O5 0.240449 0.167680 0.886792
O O6 0.162147 0.406435 0.742030
O O7 0.390339 0.511676 0.086062
O O8 0.077854 0.959848 0.944188
O O9 0.729572 0.539246 0.373700
O O10 0.606849 0.709749 0.148918
O O11 0.341763 0.726144 0.402609
O O12 0.458919 0.058181 0.572028
O O13 0.226842 0.407329 0.233276
O O14 0.392332 0.424711 0.583296
O O15 0.000000 0.000000 0.000000
O O16 0.312298 0.941470 0.748959
O O17 0.000000 0.500000 0.500000
#
# Coordination Sequence:
#
# PCOD8020594 Si02
#       8
#     2   2   2   2   2   2   2   2
#     4  12  24  42  72 100 137 184 232 282 350 409
#     4  12  26  45  72 103 140 185 237 285 348 417
#     4  11  24  43  74 104 143 176 237 288 349 408
#     4  10  22  42  70 103 134 181 229 289 344 411
#     4  10  23  44  69  96 146 177 228 285 351 404
#     4  12  28  46  67  99 143 185 234 286 349 415
#     4  11  24  44  72 105 140 184 232 289 344 414
#     4  12  24  45  70 101 141 183 228 286 347 412
#
# _framework density 22.683864
#
# number of rings (size 3 to 8) (size 9 to 14) (size 15 to 20)
#    0.000    0.750    2.500    4.875    1.750    7.000 
#    0.000    2.500    0.000    0.000    0.000    0.000 
#    0.000    0.000    0.000    0.000    0.000    0.000 
#
# Total GULP energy -198338.693329 kJ/mol
# GULP energy per Si atom -12396.168333 kJ/mol
# Density = 2.263223 g / cm^3
# Si number density = 22.683864 Si / 1000 Ang^3
#
#
#
# Elastic Constant Matrix: (Units=GPa)
#
#
# Indices 1 2 3 4 5 6 
#
# 1 63.6209 28.3856 16.7623 -1.6298 3.4994 6.2159
# 2 28.3856 117.8242 23.7853 8.7499 -2.8643 10.9625
# 3 16.7623 23.7853 92.8509 13.1066 5.7352 6.9204
# 4 -1.6298 8.7499 13.1066 35.1996 5.9280 -0.1183
# 5 3.4994 -2.8643 5.7352 5.9280 39.1349 8.4084
# 6 6.2159 10.9625 6.9204 -0.1183 8.4084 29.8460
#
#
#
# Elastic Compliance Matrix: (Units=1/GPa)
#
#
# Indices 1 2 3 4 5 6 
#
# 1 0.018518 -0.004110 -0.002527 0.003117 -0.001791 -0.001244
# 2 -0.004110 0.010331 -0.001435 -0.002647 0.002445 -0.003305
# 3 -0.002527 -0.001435 0.012358 -0.004250 -0.000696 -0.001633
# 4 0.003117 -0.002647 -0.004250 0.031693 -0.005278 0.002921
# 5 -0.001791 0.002445 -0.000696 -0.005278 0.028607 -0.008444
# 6 -0.001244 -0.003305 -0.001633 0.002921 -0.008444 0.037748
#
#
# Mechanical properties :
#
#
# Convention : Reuss Voigt Hill
#
# Bulk Modulus (GPa) = 39.90153 45.79580 42.84867
# Shear Modulus (GPa) = 30.53364 34.52696 32.53030
#
# Velocity S-wave (km/s) = 3.67284 3.90563 3.79102
# Velocity P-wave (km/s) = 5.96781 6.36955 6.17195
#
# Compressibility (1/GPa) = 0.02506169
#
# Stress axis : x y z
#
# Youngs Moduli (GPa) = 54.00242 96.79850 80.91650
#
# Poissons Ratio (x) = 0.39788 0.20445
# Poissons Ratio (y) = 0.22197 0.11615
# Poissons Ratio (z) = 0.13645 0.13895
#
# Static dielectric constant tensor:
#      x y z
#    x 4.524840 0.281470 0.339890 
#    y 0.281470 4.097640 0.000860 
#    z 0.339890 0.000860 3.723800 
# 
# 
# High freq. dielectric constant tensor:
#      x y z
#    x 1.906720 0.001320 0.007700 
#    y 0.001320 1.902720 0.006760 
#    z 0.007700 0.006760 1.887160 
# 
# From -- ./inp_files/209552.got.cif
#   From: 2010.06.25/outbox.cif.g09.slc.cpg/sg2_105_cif.got.tgz:209552.got - 2010.06.27 13:26:56.
