data_PCOD8020616
_publ_section_title
;
Structure prediction by ZEFSAII (Michael W. Deem and Ramdas Pophale) SiO2 
 PCOD8020616
Probable space group: P -1
;
_chemical_formula_sum "Si O2"
_cell_formula_units_Z 16
_cell_length_a 18.125380
_cell_length_b 10.702377
_cell_length_c 7.966821
_cell_angle_alpha 40.888740
_cell_angle_beta 83.350146
_cell_angle_gamma 55.318056
_cell_volume 675.280391
_symmetry_space_group_name_H-M "P -1"
_symmetry_group_IT_number 2
_symmetry_cell_setting 'triclinic'
loop_
_space_group_symop_operation_xyz
x,y,z
-x,-y,-z
loop_
_atom_site_type_symbol
_atom_site_label
_atom_site_fract_x
_atom_site_fract_y
_atom_site_fract_z
Si Si1 0.131522 0.839346 0.765995
Si Si2 0.376839 0.817060 0.230018
Si Si3 0.622878 0.253799 0.068015
Si Si4 0.315696 0.346753 0.804910
Si Si5 0.509535 0.841137 0.810026
Si Si6 0.764776 0.019050 0.588671
Si Si7 0.899065 0.406846 0.236184
Si Si8 0.668839 0.564745 0.638388
O O1 0.190952 0.854560 0.592016
O O2 0.098842 0.698930 0.838303
O O3 0.211355 0.644370 0.097995
O O4 0.020920 0.156267 0.540728
O O5 0.500000 0.500000 0.500000
O O6 0.311381 0.825593 0.382895
O O7 0.321864 0.901003 0.972454
O O8 0.385406 0.021787 0.077439
O O9 0.507422 0.354077 0.024072
O O10 0.703302 0.050142 0.408150
O O11 0.600596 0.525209 0.791391
O O12 0.190621 0.525119 0.692122
O O13 0.314362 0.502784 0.495298
O O14 0.372730 0.348480 0.942955
O O15 0.500000 0.000000 0.500000
O O16 0.400913 0.105559 0.676929
O O17 0.869244 0.684674 0.938130
#
# Coordination Sequence:
#
# PCOD8020616 Si02
#       8
#     2   2   2   2   2   2   2   2
#     4  10  22  42  70  96 125 173 218 277 330 389
#     4  11  24  40  65  94 133 179 222 265 327 396
#     4  11  25  40  64  92 132 176 215 265 324 394
#     4  11  24  42  63  95 136 173 215 274 328 394
#     4  12  24  41  63  92 128 178 216 267 323 392
#     4  10  23  44  66  97 132 172 221 277 328 391
#     4  10  22  42  70  95 125 171 223 271 335 384
#     4  11  24  41  61  96 133 167 217 266 331 399
#
# _framework density 23.693861999999999
#
# number of rings (size 3 to 8) (size 9 to 14) (size 15 to 20)
#    0.000    1.250    1.250    4.500    3.500    3.500 
#    0.000    0.000    0.000    3.750    0.000    0.000 
#    0.000    0.000    0.000    0.000    0.000    0.000 
#
# Total GULP energy -198335.148195 kJ/mol
# GULP energy per Si atom -12395.946762 kJ/mol
# Density = 2.363993 g / cm^3
# Si number density = 23.693862 Si / 1000 Ang^3
#
#
#
# Elastic Constant Matrix: (Units=GPa)
#
#
# Indices 1 2 3 4 5 6 
#
# 1 81.8798 3.4026 16.4072 -3.7177 7.3329 -7.7190
# 2 3.4026 82.4669 38.9911 5.1373 15.2984 -17.0310
# 3 16.4072 38.9911 79.3097 -9.7207 11.0103 -19.9239
# 4 -3.7177 5.1373 -9.7207 49.2511 2.9070 -6.1730
# 5 7.3329 15.2984 11.0103 2.9070 32.2301 -0.3858
# 6 -7.7190 -17.0310 -19.9239 -6.1730 -0.3858 37.2415
#
#
#
# Elastic Compliance Matrix: (Units=1/GPa)
#
#
# Indices 1 2 3 4 5 6 
#
# 1 0.013145 0.001560 -0.002411 0.000810 -0.002954 0.002252
# 2 0.001560 0.017658 -0.007480 -0.002356 -0.005922 0.003945
# 3 -0.002411 -0.007480 0.019809 0.005640 -0.003086 0.007580
# 4 0.000810 -0.002356 0.005640 0.022630 -0.002964 0.005828
# 5 -0.002954 -0.005922 -0.003086 -0.002964 0.035770 -0.005092
# 6 0.002252 0.003945 0.007580 0.005828 -0.005092 0.034091
#
#
# Mechanical properties :
#
#
# Convention : Reuss Voigt Hill
#
# Bulk Modulus (GPa) = 29.45482 40.13978 34.79730
# Shear Modulus (GPa) = 29.22574 36.06823 32.64698
#
# Velocity S-wave (km/s) = 3.51589 3.90585 3.71599
# Velocity P-wave (km/s) = 5.37963 6.10890 5.75583
#
# Compressibility (1/GPa) = 0.03395030
#
# Stress axis : x y z
#
# Youngs Moduli (GPa) = 76.07480 56.63064 50.48235
#
# Poissons Ratio (x) = -0.08836 0.12174
# Poissons Ratio (y) = -0.11870 0.37759
# Poissons Ratio (z) = 0.18345 0.42358
#
# Static dielectric constant tensor:
#      x y z
#    x 4.262070 0.028150 -0.121040 
#    y 0.028150 3.510790 0.652860 
#    z -0.121040 0.652860 3.966810 
# 
# 
# High freq. dielectric constant tensor:
#      x y z
#    x 1.938200 0.004040 -0.022650 
#    y 0.004040 1.944050 0.006270 
#    z -0.022650 0.006270 1.940230 
# 
# From -- ./inp_files/332729.got.cif
#   From: 2010.06.25/outbox.cif.g09.slc.cpg/sg2_167_cif.got.tgz:332729.got - 2010.06.27 13:26:56.
