data_PCOD8020606
_publ_section_title
;
Structure prediction by ZEFSAII (Michael W. Deem and Ramdas Pophale) SiO2 
 PCOD8020606
Probable space group: P -1
;
_chemical_formula_sum "Si O2"
_cell_formula_units_Z 14
_cell_length_a 11.696128
_cell_length_b 14.908073
_cell_length_c 9.644563
_cell_angle_alpha 130.566637
_cell_angle_beta 76.338396
_cell_angle_gamma 63.229183
_cell_volume 713.547164
_symmetry_space_group_name_H-M "P -1"
_symmetry_group_IT_number 2
_symmetry_cell_setting 'triclinic'
loop_
_space_group_symop_operation_xyz
x,y,z
-x,-y,-z
loop_
_atom_site_type_symbol
_atom_site_label
_atom_site_fract_x
_atom_site_fract_y
_atom_site_fract_z
Si Si1 0.780052 0.496868 0.710487
Si Si2 0.163930 0.828343 0.668108
Si Si3 0.922134 0.631965 0.292516
Si Si4 0.895942 0.079703 0.753918
Si Si5 0.625713 0.078737 0.837888
Si Si6 0.572571 0.519890 0.372663
Si Si7 0.722138 0.629140 0.574307
O O1 0.803494 0.338293 0.525120
O O2 0.857868 0.493699 0.539637
O O3 0.895207 0.446131 0.764362
O O4 0.539281 0.731599 0.033587
O O5 0.378636 0.713919 0.529159
O O6 0.081215 0.954377 0.678913
O O7 0.000000 0.000000 0.000000
O O8 0.833525 0.622982 0.429969
O O9 0.742604 0.868316 0.532449
O O10 0.000000 0.500000 0.000000
O O11 0.794460 0.038690 0.784398
O O12 0.729159 0.318444 0.033519
O O13 0.000000 0.000000 0.500000
O O14 0.504544 0.142007 0.078566
O O15 0.500000 0.500000 0.500000
O O16 0.693708 0.532303 0.402773
#
# Coordination Sequence:
#
# PCOD8020606 Si02
#       7
#     2   2   2   2   2   2   2
#     4  10  22  42  70  89 129 174 219 260 323 388
#     4  12  21  39  71  99 129 176 214 268 331 397
#     4  12  26  43  66  96 129 169 224 272 320 379
#     4  12  25  40  66  99 137 170 213 273 336 389
#     4  10  22  45  65  88 130 169 218 261 319 388
#     4  12  20  42  65 102 132 163 221 273 320 398
#     4  10  22  43  68  91 131 173 213 266 317 391
#
# _framework density 19.620287999999999
#
# number of rings (size 3 to 8) (size 9 to 14) (size 15 to 20)
#    0.857    0.000    7.143    0.857    2.000    1.143 
#    2.571    0.000    0.000    0.000    0.000    0.000 
#    0.000    0.000    0.000    0.000    0.000    0.000 
#
# Total GULP energy -173467.216511 kJ/mol
# GULP energy per Si atom -12390.515465 kJ/mol
# Density = 1.957563 g / cm^3
# Si number density = 19.620288 Si / 1000 Ang^3
#
#
#
# Elastic Constant Matrix: (Units=GPa)
#
#
# Indices 1 2 3 4 5 6 
#
# 1 55.7698 14.1941 21.7469 0.6813 12.2218 -14.5124
# 2 14.1941 82.2239 45.2733 1.5168 -4.4761 -27.6126
# 3 21.7469 45.2733 154.2715 5.0370 15.9060 -10.4088
# 4 0.6813 1.5168 5.0370 36.3340 -0.3004 4.0137
# 5 12.2218 -4.4761 15.9060 -0.3004 32.2175 2.8770
# 6 -14.5124 -27.6126 -10.4088 4.0137 2.8770 25.7589
#
#
#
# Elastic Compliance Matrix: (Units=1/GPa)
#
#
# Indices 1 2 3 4 5 6 
#
# 1 0.024621 0.001801 -0.001817 -0.002187 -0.009686 0.016490
# 2 0.001801 0.023132 -0.005690 -0.002790 0.003208 0.023588
# 3 -0.001817 -0.005690 0.008643 -0.000621 -0.004100 -0.003076
# 4 -0.002187 -0.002790 -0.000621 0.028794 0.001835 -0.009165
# 5 -0.009686 0.003208 -0.004100 0.001835 0.037932 -0.008198
# 6 0.016490 0.023588 -0.003076 -0.009165 -0.008198 0.074498
#
#
# Mechanical properties :
#
#
# Convention : Reuss Voigt Hill
#
# Bulk Modulus (GPa) = 22.22995 50.52155 36.37575
# Shear Modulus (GPa) = 22.31869 32.93214 27.62541
#
# Velocity S-wave (km/s) = 3.37639 4.10136 3.75641
# Velocity P-wave (km/s) = 5.15312 6.94505 6.11508
#
# Compressibility (1/GPa) = 0.04498436
#
# Stress axis : x y z
#
# Youngs Moduli (GPa) = 40.61501 43.23104 115.69393
#
# Poissons Ratio (x) = -0.07785 0.21016
# Poissons Ratio (y) = -0.07314 0.65833
# Poissons Ratio (z) = 0.07378 0.24600
#
# Static dielectric constant tensor:
#      x y z
#    x 3.497080 -0.237020 -0.084700 
#    y -0.237020 3.470110 0.152170 
#    z -0.084700 0.152170 3.652140 
# 
# 
# High freq. dielectric constant tensor:
#      x y z
#    x 1.758910 -0.011960 0.006240 
#    y -0.011960 1.755190 0.014460 
#    z 0.006240 0.014460 1.771090 
# 
# From -- ./inp_files/177262.got.cif
#   From: 2010.06.25/outbox.cif.g09.slc.cpg/sg2_89_cif.got.tgz:177262.got - 2010.06.27 13:26:56.
