data_PCOD8020163
_publ_section_title
;
Structure prediction by ZEFSAII (Michael W. Deem and Ramdas Pophale) SiO2 
 PCOD8020163
Probable space group: P -1
;
_chemical_formula_sum "Si O2"
_cell_formula_units_Z 12
_cell_length_a 10.505505
_cell_length_b 8.824251
_cell_length_c 13.940216
_cell_angle_alpha 127.396044
_cell_angle_beta 36.608618
_cell_angle_gamma 138.107738
_cell_volume 514.438897
_symmetry_space_group_name_H-M "P -1"
_symmetry_group_IT_number 2
_symmetry_cell_setting 'triclinic'
loop_
_space_group_symop_operation_xyz
x,y,z
-x,-y,-z
loop_
_atom_site_type_symbol
_atom_site_label
_atom_site_fract_x
_atom_site_fract_y
_atom_site_fract_z
Si Si1 0.367276 0.915107 0.695860
Si Si2 0.588337 0.526102 0.679570
Si Si3 0.958985 0.572790 0.310735
Si Si4 0.803739 0.948056 0.327622
Si Si5 0.585847 0.373983 0.830812
Si Si6 0.262518 0.012970 0.178319
O O1 0.646621 0.963161 0.518767
O O2 0.187009 0.662176 0.753481
O O3 0.215272 0.904122 0.687604
O O4 0.384884 0.103055 0.829895
O O5 0.311838 0.309170 0.738389
O O6 0.675331 0.496587 0.720982
O O7 0.773995 0.539573 0.493582
O O8 0.596538 0.758727 0.755651
O O9 0.204012 0.619978 0.231751
O O10 0.039589 0.788427 0.279058
O O11 0.101096 0.049532 0.208910
O O12 0.500000 0.500000 0.000000
O O13 0.500000 0.000000 0.000000
#
# Coordination Sequence:
#
# PCOD8020163 Si02
#       6
#     2   2   2   2   2   2
#     4   9  20  40  68  94 120 164 217 266 308 366
#     4  10  22  42  66  90 123 170 217 259 305 372
#     4  11  23  39  65  95 125 169 214 258 312 375
#     4   9  20  41  67  93 124 166 215 261 311 374
#     4  11  22  39  64  96 131 163 205 263 322 376
#     4  12  25  40  60  94 137 170 202 257 324 382
#
# _framework density 23.326384000000001
#
# number of rings (size 3 to 8) (size 9 to 14) (size 15 to 20)
#    0.000    1.667    0.000    5.000    0.000    5.333 
#    0.000    3.333    0.000    0.000    0.000    0.000 
#    0.000    0.000    0.000    0.000    0.000    0.000 
#
# Total GULP energy -148672.437513 kJ/mol
# GULP energy per Si atom -12389.369793 kJ/mol
# Density = 2.327329 g / cm^3
# Si number density = 23.326384 Si / 1000 Ang^3
#
#
#
# Elastic Constant Matrix: (Units=GPa)
#
#
# Indices 1 2 3 4 5 6 
#
# 1 60.9289 18.7518 58.9501 8.5224 -26.2143 19.8671
# 2 18.7518 211.5039 12.7475 9.9770 33.7235 3.4832
# 3 58.9501 12.7475 -8.7926 7.9952 12.2844 -14.0959
# 4 8.5224 9.9770 7.9952 46.1909 -5.1925 1.9948
# 5 -26.2143 33.7235 12.2844 -5.1925 39.3302 11.9261
# 6 19.8671 3.4832 -14.0959 1.9948 11.9261 21.3373
#
#
#
# Elastic Compliance Matrix: (Units=1/GPa)
#
#
# Indices 1 2 3 4 5 6 
#
# 1 0.003856 -0.000578 0.010820 -0.002940 -0.002279 0.005201
# 2 -0.000578 0.005739 -0.003134 -0.001106 -0.004522 0.000161
# 3 0.010820 -0.003134 0.001735 0.000724 0.014480 -0.016578
# 4 -0.002940 -0.001106 0.000724 0.022469 0.001608 0.000397
# 5 -0.002279 -0.004522 0.014480 0.001608 0.023781 -0.001016
# 6 0.005201 0.000161 -0.016578 0.000397 -0.001016 0.031577
#
#
# Mechanical properties :
#
#
# Convention : Reuss Voigt Hill
#
# Bulk Modulus (GPa) = 39.14280 49.39321 44.26800
# Shear Modulus (GPa) = 59.91302 32.91772 46.41537
#
# Velocity S-wave (km/s) = 5.07350 3.76064 4.46558
# Velocity P-wave (km/s) = 7.15105 6.33067 6.75333
#
# Compressibility (1/GPa) = 0.02554748
#
# Stress axis : x y z
#
# Youngs Moduli (GPa) = 259.32368 174.25928 576.47469
#
# Poissons Ratio (x) = 0.10064 -6.23761
# Poissons Ratio (y) = 0.14977 1.80651
# Poissons Ratio (z) = -2.80595 0.54608
#
# Static dielectric constant tensor:
#      x y z
#    x 4.040440 0.027930 0.114620 
#    y 0.027930 5.632630 0.197190 
#    z 0.114620 0.197190 3.794840 
# 
# 
# High freq. dielectric constant tensor:
#      x y z
#    x 1.908040 0.004340 -0.009470 
#    y 0.004340 1.958520 0.013110 
#    z -0.009470 0.013110 1.898630 
# 
# From -- ./inp_files/164826.got.cif
#   From: 2010.06.25/outbox.cif.g09.slc.cpg/sg2_83_cif.got.tgz:164826.got - 2010.06.27 13:26:56.
