data_PCOD8020988
_publ_section_title
;
Structure prediction by ZEFSAII (Michael W. Deem and Ramdas Pophale) SiO2 
 PCOD8020988
Probable space group: P -1
;
_chemical_formula_sum "Si O2"
_cell_formula_units_Z 14
_cell_length_a 19.114647
_cell_length_b 6.128706
_cell_length_c 6.653342
_cell_angle_alpha 109.169790
_cell_angle_beta 118.741454
_cell_angle_gamma 96.669451
_cell_volume 609.142156
_symmetry_space_group_name_H-M "P -1"
_symmetry_group_IT_number 2
_symmetry_cell_setting 'triclinic'
loop_
_space_group_symop_operation_xyz
x,y,z
-x,-y,-z
loop_
_atom_site_type_symbol
_atom_site_label
_atom_site_fract_x
_atom_site_fract_y
_atom_site_fract_z
Si Si1 0.012298 0.000392 0.250538
Si Si2 0.695095 0.202052 0.808266
Si Si3 0.392250 0.070904 0.002103
Si Si4 0.938228 0.287080 0.479783
Si Si5 0.420497 0.676411 0.629114
Si Si6 0.309245 0.237367 0.578030
Si Si7 0.179818 0.440099 0.648511
O O1 0.099071 0.204477 0.506179
O O2 0.932241 0.044315 0.265492
O O3 0.021075 0.742848 0.256951
O O4 0.000000 0.000000 0.000000
O O5 0.622225 0.282894 0.625416
O O6 0.663516 0.049833 0.921161
O O7 0.728613 0.033094 0.653918
O O8 0.770476 0.452448 0.043951
O O9 0.480199 0.268005 0.258540
O O10 0.345767 0.215999 0.842934
O O11 0.408947 0.854835 0.838444
O O12 0.850567 0.337880 0.413323
O O13 0.000000 0.500000 0.500000
O O14 0.381263 0.400519 0.575621
O O15 0.238255 0.367342 0.543343
#
# Coordination Sequence:
#
# PCOD8020988 Si02
#       7
#     2   2   2   2   2   2   2
#     4  10  23  45  72  99 126 173 218 257 329 397
#     4  11  25  41  64  97 132 175 224 270 336 377
#     4  10  22  43  66  93 135 172 232 277 315 394
#     4   9  22  45  67  98 130 165 211 264 319 391
#     4  10  22  43  66  94 130 180 226 275 325 385
#     4  11  25  41  64  99 129 179 223 267 338 379
#     4  11  25  43  66  99 141 165 213 279 320 397
#
# _framework density 22.983139999999999
#
# number of rings (size 3 to 8) (size 9 to 14) (size 15 to 20)
#    0.000    1.714    1.429    0.857    6.000    2.857 
#    5.143    0.000    0.000    0.000    0.000    0.000 
#    0.000    0.000    0.000    0.000    0.000    0.000 
#
# Total GULP energy -173515.436608 kJ/mol
# GULP energy per Si atom -12393.959758 kJ/mol
# Density = 2.293083 g / cm^3
# Si number density = 22.983140 Si / 1000 Ang^3
#
#
#
# Elastic Constant Matrix: (Units=GPa)
#
#
# Indices 1 2 3 4 5 6 
#
# 1 96.1222 33.1237 49.6336 -10.4266 7.7185 -14.6589
# 2 33.1237 109.2259 63.5349 -28.7432 4.7537 4.2499
# 3 49.6336 63.5349 146.9341 -15.5288 0.6582 1.4766
# 4 -10.4266 -28.7432 -15.5288 55.2875 6.1621 0.6471
# 5 7.7185 4.7537 0.6582 6.1621 22.7850 -2.9182
# 6 -14.6589 4.2499 1.4766 0.6471 -2.9182 34.4879
#
#
#
# Elastic Compliance Matrix: (Units=1/GPa)
#
#
# Indices 1 2 3 4 5 6 
#
# 1 0.014493 -0.001863 -0.004031 0.000992 -0.003877 0.006216
# 2 -0.001863 0.014574 -0.004953 0.006353 -0.004351 -0.002863
# 3 -0.004031 -0.004953 0.010241 -0.000678 0.002113 -0.001350
# 4 0.000992 0.006353 -0.000678 0.022278 -0.007848 -0.001414
# 5 -0.003877 -0.004351 0.002113 -0.007848 0.048562 0.003054
# 6 0.006216 -0.002863 -0.001350 -0.001414 0.003054 0.032333
#
#
# Mechanical properties :
#
#
# Convention : Reuss Voigt Hill
#
# Bulk Modulus (GPa) = 56.76641 71.65186 64.20913
# Shear Modulus (GPa) = 29.40381 36.24475 32.82428
#
# Velocity S-wave (km/s) = 3.58070 3.97547 3.78324
# Velocity P-wave (km/s) = 6.46900 7.23298 6.86163
#
# Compressibility (1/GPa) = 0.01761605
#
# Stress axis : x y z
#
# Youngs Moduli (GPa) = 68.99689 68.61646 97.64358
#
# Poissons Ratio (x) = 0.12782 0.39356
# Poissons Ratio (y) = 0.12853 0.48362
# Poissons Ratio (z) = 0.27810 0.33985
#
# Static dielectric constant tensor:
#      x y z
#    x 4.392810 -0.429570 0.179460 
#    y -0.429570 4.534330 -0.032620 
#    z 0.179460 -0.032620 4.195470 
# 
# 
# High freq. dielectric constant tensor:
#      x y z
#    x 1.902020 -0.012850 -0.003910 
#    y -0.012850 1.918820 -0.006190 
#    z -0.003910 -0.006190 1.901230 
# 
# From -- ./inp_files/7931.got.cif
#   From: 2010.06.25/outbox.cif.g09.slc.cpg/sg2_4_cif.got.tgz:7931.got - 2010.06.27 13:26:56.
