data_PCOD8020395
_publ_section_title
;
Structure prediction by ZEFSAII (Michael W. Deem and Ramdas Pophale) SiO2 
 PCOD8020395
Probable space group: P -1
;
_chemical_formula_sum "Si O2"
_cell_formula_units_Z 12
_cell_length_a 5.312266
_cell_length_b 11.894437
_cell_length_c 13.755390
_cell_angle_alpha 30.707067
_cell_angle_beta 95.442513
_cell_angle_gamma 91.397000
_cell_volume 439.028755
_symmetry_space_group_name_H-M "P -1"
_symmetry_group_IT_number 2
_symmetry_cell_setting 'triclinic'
loop_
_space_group_symop_operation_xyz
x,y,z
-x,-y,-z
loop_
_atom_site_type_symbol
_atom_site_label
_atom_site_fract_x
_atom_site_fract_y
_atom_site_fract_z
Si Si1 0.226381 0.139010 0.386313
Si Si2 0.591548 0.708438 0.901271
Si Si3 0.369811 0.194782 0.545712
Si Si4 0.218049 0.813129 0.176284
Si Si5 0.627089 0.754402 0.086219
Si Si6 0.118603 0.614469 0.514441
O O1 0.177658 0.247184 0.196845
O O2 0.251007 0.300603 0.360344
O O3 0.500000 0.000000 0.500000
O O4 0.000000 0.000000 0.500000
O O5 0.388069 0.926546 0.738435
O O6 0.500000 0.500000 0.000000
O O7 0.672265 0.647549 0.060496
O O8 0.649751 0.269899 0.516505
O O9 0.158278 0.257233 0.573255
O O10 0.370971 0.694740 0.177951
O O11 0.156039 0.618091 0.394563
O O12 0.394643 0.976188 0.120351
O O13 0.000000 0.000000 0.000000
O O14 0.861956 0.635191 0.250827
#
# Coordination Sequence:
#
# PCOD8020395 Si02
#       6
#     2   2   2   2   2   2
#     4  10  22  42  68 101 146 200 245 300 371 444
#     4  11  23  47  77 111 157 201 259 319 380 459
#     4  11  24  47  73 108 156 197 250 311 378 453
#     4  11  26  48  80 106 155 192 254 321 376 459
#     4  11  26  48  73 116 144 201 254 308 386 451
#     4  12  26  48  79 110 154 198 249 317 384 457
#
# _framework density 27.333062999999999
#
# number of rings (size 3 to 8) (size 9 to 14) (size 15 to 20)
#    0.000    1.000    1.667    4.500    4.667    2.000 
#    3.000    8.333    0.000    0.000    0.000    0.000 
#    0.000    0.000    0.000    0.000    0.000    0.000 
#
# Total GULP energy -148665.494220 kJ/mol
# GULP energy per Si atom -12388.791185 kJ/mol
# Density = 2.727085 g / cm^3
# Si number density = 27.333063 Si / 1000 Ang^3
#
#
#
# Elastic Constant Matrix: (Units=GPa)
#
#
# Indices 1 2 3 4 5 6 
#
# 1 128.8674 43.7504 43.1806 4.0597 -17.3089 -7.6532
# 2 43.7504 205.8821 77.4486 34.9227 -11.3939 9.3985
# 3 43.1806 77.4486 178.5176 18.5017 -20.5866 -8.4392
# 4 4.0597 34.9227 18.5017 67.7953 -8.0977 0.9955
# 5 -17.3089 -11.3939 -20.5866 -8.0977 49.2299 5.5701
# 6 -7.6532 9.3985 -8.4392 0.9955 5.5701 38.7869
#
#
#
# Elastic Compliance Matrix: (Units=1/GPa)
#
#
# Indices 1 2 3 4 5 6 
#
# 1 0.009080 -0.001535 -0.001284 0.000845 0.002265 0.001537
# 2 -0.001535 0.006616 -0.002353 -0.002660 -0.000166 -0.002326
# 3 -0.001284 -0.002353 0.007268 -0.000507 0.001772 0.001657
# 4 0.000845 -0.002660 -0.000507 0.016470 0.002182 -0.000035
# 5 0.002265 -0.000166 0.001772 0.002182 0.022443 -0.002406
# 6 0.001537 -0.002326 0.001657 -0.000035 -0.002406 0.027356
#
#
# Mechanical properties :
#
#
# Convention : Reuss Voigt Hill
#
# Bulk Modulus (GPa) = 79.22854 93.55850 86.39352
# Shear Modulus (GPa) = 48.17700 54.42160 51.29930
#
# Velocity S-wave (km/s) = 4.20288 4.46696 4.33693
# Velocity P-wave (km/s) = 7.25269 7.80438 7.53359
#
# Compressibility (1/GPa) = 0.01262171
#
# Stress axis : x y z
#
# Youngs Moduli (GPa) = 110.12995 151.13743 137.58258
#
# Poissons Ratio (x) = 0.23194 0.17669
# Poissons Ratio (y) = 0.16901 0.32370
# Poissons Ratio (z) = 0.14144 0.35559
#
# Static dielectric constant tensor:
#      x y z
#    x 5.095240 0.548530 -0.711020 
#    y 0.548530 6.866880 -0.168590 
#    z -0.711020 -0.168590 6.888340 
# 
# 
# High freq. dielectric constant tensor:
#      x y z
#    x 2.103180 0.011010 -0.019950 
#    y 0.011010 2.130560 0.007920 
#    z -0.019950 0.007920 2.114560 
# 
# From -- ./inp_files/287418.got.cif
#   From: 2010.06.25/outbox.cif.g09.slc.cpg/sg2_144_cif.got.tgz:287418.got - 2010.06.27 13:26:56.
