data_PCOD8020109
_publ_section_title
;
Structure prediction by ZEFSAII (Michael W. Deem and Ramdas Pophale) SiO2 
 PCOD8020109
Probable space group: P -1
;
_chemical_formula_sum "Si O2"
_cell_formula_units_Z 16
_cell_length_a 11.062996
_cell_length_b 10.309720
_cell_length_c 9.373227
_cell_angle_alpha 133.423038
_cell_angle_beta 123.323392
_cell_angle_gamma 61.325195
_cell_volume 639.535090
_symmetry_space_group_name_H-M "P -1"
_symmetry_group_IT_number 2
_symmetry_cell_setting 'triclinic'
loop_
_space_group_symop_operation_xyz
x,y,z
-x,-y,-z
loop_
_atom_site_type_symbol
_atom_site_label
_atom_site_fract_x
_atom_site_fract_y
_atom_site_fract_z
Si Si1 0.039257 0.291781 0.276171
Si Si2 0.970548 0.662524 0.395592
Si Si3 0.244106 0.162239 0.061777
Si Si4 0.551964 0.049881 0.314096
Si Si5 0.472298 0.674457 0.250597
Si Si6 0.299176 0.352248 0.975102
Si Si7 0.297652 0.646685 0.853991
Si Si8 0.764331 0.178581 0.350464
O O1 0.094305 0.220196 0.417185
O O2 0.130099 0.172467 0.124465
O O3 0.071116 0.494160 0.417123
O O4 0.865506 0.293148 0.146030
O O5 0.855269 0.594051 0.165861
O O6 0.087040 0.753991 0.450596
O O7 0.400512 0.066201 0.146002
O O8 0.264044 0.337615 0.111735
O O9 0.183667 0.031356 0.812124
O O10 0.531735 0.138564 0.525233
O O11 0.649303 0.187200 0.409721
O O12 0.625814 0.839078 0.193225
O O13 0.643087 0.572972 0.268750
O O14 0.388786 0.517002 0.142365
O O15 0.404460 0.736267 0.098363
O O16 0.314865 0.714723 0.756331
#
# Coordination Sequence:
#
# PCOD8020109 Si02
#       8
#     2   2   2   2   2   2   2   2
#     4  10  23  41  65  94 134 168 218 261 327 392
#     4  10  23  41  66  93 131 174 210 271 322 385
#     4  11  25  42  66  97 130 174 215 270 329 385
#     4  11  26  43  67  99 131 174 219 268 329 384
#     4  11  24  41  70  97 128 176 217 268 330 379
#     4  11  24  46  66  99 137 163 222 276 316 392
#     4  10  22  42  65  95 133 169 220 270 316 393
#     4  10  23  44  65  93 134 169 215 272 324 388
#
# _framework density 25.018173999999998
#
# number of rings (size 3 to 8) (size 9 to 14) (size 15 to 20)
#    0.000    1.500    1.250    3.000    7.000    8.500 
#    0.000    3.750    0.000    0.000    0.000    0.000 
#    0.000    0.000    0.000    0.000    0.000    0.000 
#
# Total GULP energy -198226.559279 kJ/mol
# GULP energy per Si atom -12389.159955 kJ/mol
# Density = 2.496123 g / cm^3
# Si number density = 25.018174 Si / 1000 Ang^3
#
#
#
# Elastic Constant Matrix: (Units=GPa)
#
#
# Indices 1 2 3 4 5 6 
#
# 1 97.8646 -2.8383 1.6926 2.9505 8.1805 -9.6531
# 2 -2.8383 53.6559 -5.8249 -9.0047 11.2309 7.4820
# 3 1.6926 -5.8249 58.1470 2.3062 -1.1712 -4.4263
# 4 2.9505 -9.0047 2.3062 31.4797 2.6381 -2.1715
# 5 8.1805 11.2309 -1.1712 2.6381 40.5941 7.2242
# 6 -9.6531 7.4820 -4.4263 -2.1715 7.2242 22.1069
#
#
#
# Elastic Compliance Matrix: (Units=1/GPa)
#
#
# Indices 1 2 3 4 5 6 
#
# 1 0.011090 0.000458 0.000105 -0.000234 -0.003373 0.005788
# 2 0.000458 0.021661 0.001463 0.006219 -0.005668 -0.004375
# 3 0.000105 0.001463 0.017597 -0.000626 -0.000439 0.003156
# 4 -0.000234 0.006219 -0.000626 0.034146 -0.004345 0.002441
# 5 -0.003373 -0.005668 -0.000439 -0.004345 0.028841 -0.009494
# 6 0.005788 -0.004375 0.003156 0.002441 -0.009494 0.053217
#
#
# Mechanical properties :
#
#
# Convention : Reuss Voigt Hill
#
# Bulk Modulus (GPa) = 18.38298 21.74738 20.06518
# Shear Modulus (GPa) = 27.68029 33.27867 30.47948
#
# Velocity S-wave (km/s) = 3.32988 3.65112 3.49419
# Velocity P-wave (km/s) = 4.70616 5.14643 4.93121
#
# Compressibility (1/GPa) = 0.05439814
#
# Stress axis : x y z
#
# Youngs Moduli (GPa) = 90.17483 46.16695 56.82627
#
# Poissons Ratio (x) = -0.02113 -0.00596
# Poissons Ratio (y) = -0.04127 -0.08312
# Poissons Ratio (z) = -0.00946 -0.06753
#
# Static dielectric constant tensor:
#      x y z
#    x 4.797190 0.336810 -0.142570 
#    y 0.336810 4.525770 -0.158040 
#    z -0.142570 -0.158040 4.416930 
# 
# 
# High freq. dielectric constant tensor:
#      x y z
#    x 2.010970 0.018110 0.007030 
#    y 0.018110 1.985710 -0.009660 
#    z 0.007030 -0.009660 1.988850 
# 
# From -- ./inp_files/260747.got.cif
#   From: 2010.06.25/outbox.cif.g09.slc.cpg/sg2_131_cif.got.tgz:260747.got - 2010.06.27 13:26:56.
