data_PCOD8020701
_publ_section_title
;
Structure prediction by ZEFSAII (Michael W. Deem and Ramdas Pophale) SiO2 
 PCOD8020701
Probable space group: P -1
;
_chemical_formula_sum "Si O2"
_cell_formula_units_Z 16
_cell_length_a 9.735985
_cell_length_b 14.370278
_cell_length_c 8.479426
_cell_angle_alpha 140.156960
_cell_angle_beta 76.397484
_cell_angle_gamma 113.631716
_cell_volume 690.990902
_symmetry_space_group_name_H-M "P -1"
_symmetry_group_IT_number 2
_symmetry_cell_setting 'triclinic'
loop_
_space_group_symop_operation_xyz
x,y,z
-x,-y,-z
loop_
_atom_site_type_symbol
_atom_site_label
_atom_site_fract_x
_atom_site_fract_y
_atom_site_fract_z
Si Si1 0.145253 0.129120 0.204440
Si Si2 0.392096 0.888549 0.100021
Si Si3 0.968730 0.321010 0.594595
Si Si4 0.564417 0.667004 0.787162
Si Si5 0.347178 0.810651 0.651447
Si Si6 0.373255 0.493688 0.147210
Si Si7 0.107630 0.945078 0.285507
Si Si8 0.956033 0.635007 0.015479
O O1 0.305485 0.190395 0.151428
O O2 0.105747 0.282476 0.433740
O O3 0.168753 0.063084 0.280595
O O4 0.000000 0.000000 0.000000
O O5 0.258092 0.916518 0.276225
O O6 0.533165 0.046993 0.286798
O O7 0.433438 0.739249 0.951404
O O8 0.332384 0.856642 0.894905
O O9 0.810212 0.214562 0.425261
O O10 0.013486 0.499987 0.767352
O O11 0.964231 0.294554 0.749499
O O12 0.500000 0.500000 0.500000
O O13 0.634766 0.635676 0.889417
O O14 0.398257 0.660614 0.436482
O O15 0.223126 0.437526 0.009732
O O16 0.500000 0.500000 0.000000
O O17 0.000000 0.000000 0.500000
O O18 0.999854 0.768285 0.042345
#
# Coordination Sequence:
#
# PCOD8020701 Si02
#       8
#     2   2   2   2   2   2   2   2
#     4  12  25  46  72 103 149 189 244 304 358 450
#     4  11  24  44  72 103 153 186 242 303 365 439
#     4  10  22  42  72 102 146 187 245 296 360 432
#     4  12  27  46  75 110 143 196 250 299 375 440
#     4  10  22  45  71 110 142 196 238 300 371 434
#     4  11  26  45  74 108 149 188 243 306 369 442
#     4  12  26  44  72 105 144 194 241 300 372 431
#     4  10  24  43  68 104 146 189 242 299 366 426
#
# _framework density 23.155155000000001
#
# number of rings (size 3 to 8) (size 9 to 14) (size 15 to 20)
#    0.000    1.000    2.500    3.750    5.250    2.000 
#    0.000    4.375    0.000    0.000    0.000    0.000 
#    0.000    0.000    0.000    0.000    0.000    0.000 
#
# Total GULP energy -198269.131821 kJ/mol
# GULP energy per Si atom -12391.820739 kJ/mol
# Density = 2.310245 g / cm^3
# Si number density = 23.155155 Si / 1000 Ang^3
#
#
#
# Elastic Constant Matrix: (Units=GPa)
#
#
# Indices 1 2 3 4 5 6 
#
# 1 129.8770 36.8297 62.3889 11.6610 -33.2904 -7.4896
# 2 36.8297 118.9993 40.7938 18.3060 -16.0501 -0.4393
# 3 62.3889 40.7938 83.3625 19.8992 -10.9990 -1.6518
# 4 11.6610 18.3060 19.8992 32.8292 -4.7997 -0.6139
# 5 -33.2904 -16.0501 -10.9990 -4.7997 56.4185 1.0058
# 6 -7.4896 -0.4393 -1.6518 -0.6139 1.0058 36.4389
#
#
#
# Elastic Compliance Matrix: (Units=1/GPa)
#
#
# Indices 1 2 3 4 5 6 
#
# 1 0.014269 -0.000416 -0.010121 0.002289 0.006482 0.002329
# 2 -0.000416 0.010584 -0.003892 -0.003145 0.001743 -0.000235
# 3 -0.010121 -0.003892 0.023104 -0.008743 -0.003298 -0.001136
# 4 0.002289 -0.003145 -0.008743 0.036988 0.001888 0.000607
# 5 0.006482 0.001743 -0.003298 0.001888 0.021551 0.000641
# 6 0.002329 -0.000235 -0.001136 0.000607 0.000641 0.027860
#
#
# Mechanical properties :
#
#
# Convention : Reuss Voigt Hill
#
# Bulk Modulus (GPa) = 52.35643 68.02928 60.19286
# Shear Modulus (GPa) = 29.48430 37.95243 33.71837
#
# Velocity S-wave (km/s) = 3.57226 4.05291 3.82015
# Velocity P-wave (km/s) = 6.29880 7.16554 6.74610
#
# Compressibility (1/GPa) = 0.01909985
#
# Stress axis : x y z
#
# Youngs Moduli (GPa) = 70.07973 94.47810 43.28239
#
# Poissons Ratio (x) = 0.03932 0.43805
# Poissons Ratio (y) = 0.02917 0.16846
# Poissons Ratio (z) = 0.70926 0.36771
#
# Static dielectric constant tensor:
#      x y z
#    x 4.358360 -0.098970 -0.280100 
#    y -0.098970 4.052080 0.371590 
#    z -0.280100 0.371590 4.359400 
# 
# 
# High freq. dielectric constant tensor:
#      x y z
#    x 1.937090 -0.005130 -0.015840 
#    y -0.005130 1.907570 0.027530 
#    z -0.015840 0.027530 1.915810 
# 
# From -- ./inp_files/209290.got.cif
#   From: 2010.06.25/outbox.cif.g09.slc.cpg/sg2_105_cif.got.tgz:209290.got - 2010.06.27 13:26:56.
