data_PCOD8020566
_publ_section_title
;
Structure prediction by ZEFSAII (Michael W. Deem and Ramdas Pophale) SiO2 
 PCOD8020566
Probable space group: P -1
;
_chemical_formula_sum "Si O2"
_cell_formula_units_Z 10
_cell_length_a 5.221793
_cell_length_b 8.919127
_cell_length_c 8.218374
_cell_angle_alpha 90.669395
_cell_angle_beta 99.853029
_cell_angle_gamma 91.359093
_cell_volume 376.961203
_symmetry_space_group_name_H-M "P -1"
_symmetry_group_IT_number 2
_symmetry_cell_setting 'triclinic'
loop_
_space_group_symop_operation_xyz
x,y,z
-x,-y,-z
loop_
_atom_site_type_symbol
_atom_site_label
_atom_site_fract_x
_atom_site_fract_y
_atom_site_fract_z
Si Si1 0.926980 0.971654 0.723155
Si Si2 0.216671 0.785194 0.503812
Si Si3 0.079550 0.558581 0.221768
Si Si4 0.789243 0.810875 0.037224
Si Si5 0.564269 0.366794 0.195193
O O1 0.827438 0.899380 0.875419
O O2 0.992099 0.846795 0.597561
O O3 0.716330 0.084319 0.620769
O O4 0.184223 0.076961 0.804330
O O5 0.110353 0.635629 0.401639
O O6 0.455785 0.740556 0.646283
O O7 0.352603 0.494360 0.192732
O O8 0.855903 0.430457 0.213812
O O9 0.995411 0.677809 0.077303
O O10 0.504625 0.730795 0.977399
#
# Coordination Sequence:
#
# PCOD8020566 Si02
#       5
#     2   2   2   2   2
#     4   9  21  44  68  98 133 179 224 274 330 391
#     4  10  22  42  69  98 135 175 224 275 330 395
#     4  11  25  44  70 100 135 175 220 274 334 395
#     4  10  22  42  69  98 135 175 224 275 330 395
#     4  12  24  42  70 102 134 174 220 276 332 394
#
# _framework density 26.527932
#
# number of rings (size 3 to 8) (size 9 to 14) (size 15 to 20)
#    0.000    1.600    0.000    3.600    0.000    4.800 
#    0.000   14.000    0.000    0.000    0.000    0.000 
#    0.000    0.000    0.000    0.000    0.000    0.000 
#
# Total GULP energy -123881.671425 kJ/mol
# GULP energy per Si atom -12388.167143 kJ/mol
# Density = 2.646755 g / cm^3
# Si number density = 26.527932 Si / 1000 Ang^3
#
#
#
# Elastic Constant Matrix: (Units=GPa)
#
#
# Indices 1 2 3 4 5 6 
#
# 1 45.7691 2.9723 -12.5063 7.4425 11.4104 4.9947
# 2 2.9723 75.1208 15.1155 -4.6143 9.7219 -0.6313
# 3 -12.5063 15.1155 108.3570 2.9072 20.3117 9.2285
# 4 7.4425 -4.6143 2.9072 70.2635 2.8952 2.5503
# 5 11.4104 9.7219 20.3117 2.8952 38.0026 0.7545
# 6 4.9947 -0.6313 9.2285 2.5503 0.7545 5.7260
#
#
#
# Elastic Compliance Matrix: (Units=1/GPa)
#
#
# Indices 1 2 3 4 5 6 
#
# 1 0.033517 -0.002114 0.010605 -0.001953 -0.014172 -0.043824
# 2 -0.002114 0.014277 -0.002528 0.001081 -0.001893 0.007261
# 3 0.010605 -0.002528 0.015537 -0.000312 -0.010161 -0.033092
# 4 -0.001953 0.001081 -0.000312 0.014696 -0.000560 -0.004146
# 5 -0.014172 -0.001893 -0.010161 -0.000560 0.036050 0.024029
# 6 -0.043824 0.007261 -0.033092 -0.004146 0.024029 0.265686
#
#
# Mechanical properties :
#
#
# Convention : Reuss Voigt Hill
#
# Bulk Modulus (GPa) = 13.28813 26.71223 20.00018
# Shear Modulus (GPa) = 12.72514 37.70944 25.21729
#
# Velocity S-wave (km/s) = 2.19255 3.77437 3.08652
# Velocity P-wave (km/s) = 3.38079 5.39313 4.50086
#
# Compressibility (1/GPa) = 0.07525513
#
# Stress axis : x y z
#
# Youngs Moduli (GPa) = 29.83558 70.04475 64.36338
#
# Poissons Ratio (x) = 0.14809 -0.68256
# Poissons Ratio (y) = 0.06308 0.16272
# Poissons Ratio (z) = -0.31640 0.17709
#
# Static dielectric constant tensor:
#      x y z
#    x 3.943010 0.125380 0.601000 
#    y 0.125380 5.587460 0.041540 
#    z 0.601000 0.041540 5.755370 
# 
# 
# High freq. dielectric constant tensor:
#      x y z
#    x 2.002990 0.003130 0.024680 
#    y 0.003130 2.094060 -0.006150 
#    z 0.024680 -0.006150 2.104030 
# 
# From -- ./inp_files/15999.got.cif
#   From: 2010.06.25/outbox.cif.g09.slc.cpg/sg2_8_cif.got.tgz:15999.got - 2010.06.27 13:26:56.
