data_PCOD8020476
_publ_section_title
;
Structure prediction by ZEFSAII (Michael W. Deem and Ramdas Pophale) SiO2 
 PCOD8020476
Probable space group: P -1
;
_chemical_formula_sum "Si O2"
_cell_formula_units_Z 16
_cell_length_a 16.085038
_cell_length_b 13.792597
_cell_length_c 8.124899
_cell_angle_alpha 34.121639
_cell_angle_beta 47.935433
_cell_angle_gamma 48.017239
_cell_volume 721.845975
_symmetry_space_group_name_H-M "P -1"
_symmetry_group_IT_number 2
_symmetry_cell_setting 'triclinic'
loop_
_space_group_symop_operation_xyz
x,y,z
-x,-y,-z
loop_
_atom_site_type_symbol
_atom_site_label
_atom_site_fract_x
_atom_site_fract_y
_atom_site_fract_z
Si Si1 0.492865 0.769170 0.986495
Si Si2 0.923320 0.693732 0.255033
Si Si3 0.672448 0.917490 0.386900
Si Si4 0.089425 0.319351 0.090948
Si Si5 0.683809 0.104543 0.454776
Si Si6 0.655585 0.762570 0.084452
Si Si7 0.052717 0.972752 0.786442
Si Si8 0.514120 0.568167 0.708215
O O1 0.561024 0.739688 0.108964
O O2 0.456364 0.589498 0.244152
O O3 0.583177 0.795554 0.689126
O O4 0.374481 0.938228 0.901713
O O5 0.802944 0.785791 0.382531
O O6 0.000000 0.500000 0.500000
O O7 0.887114 0.678847 0.136700
O O8 0.997048 0.837783 0.952884
O O9 0.657109 0.036894 0.406014
O O10 0.036134 0.160256 0.448057
O O11 0.208520 0.325178 0.018702
O O12 0.000000 0.500000 0.000000
O O13 0.812014 0.125495 0.250053
O O14 0.609647 0.293231 0.356046
O O15 0.653584 0.970172 0.820093
O O16 0.617284 0.670304 0.426025
O O17 0.000000 0.000000 0.000000
O O18 0.500000 0.500000 0.000000
#
# Coordination Sequence:
#
# PCOD8020476 Si02
#       8
#     2   2   2   2   2   2   2   2
#     4  10  23  42  69  96 140 176 226 276 343 404
#     4  12  27  43  74 100 140 184 237 285 355 411
#     4  10  22  43  67 100 136 180 218 280 343 403
#     4  11  27  46  70 104 138 184 233 292 347 417
#     4  10  22  42  68  97 140 177 220 281 339 407
#     4  10  25  45  66  96 141 181 221 282 345 407
#     4  11  23  45  70 101 139 181 234 285 349 413
#     4  12  24  38  67 106 131 175 233 278 337 404
#
# _framework density 22.165393999999999
#
# number of rings (size 3 to 8) (size 9 to 14) (size 15 to 20)
#    0.000    1.250    2.500    1.875    7.000    4.000 
#    0.000    0.000    0.000    0.000    0.000    0.000 
#    0.000    0.000    0.000    0.000    0.000    0.000 
#
# Total GULP energy -198237.926806 kJ/mol
# GULP energy per Si atom -12389.870425 kJ/mol
# Density = 2.211494 g / cm^3
# Si number density = 22.165394 Si / 1000 Ang^3
#
#
#
# Elastic Constant Matrix: (Units=GPa)
#
#
# Indices 1 2 3 4 5 6 
#
# 1 77.4157 26.9858 36.4087 -5.7088 -5.5741 -20.4763
# 2 26.9858 116.2578 52.9750 -20.6700 -2.0571 -29.0586
# 3 36.4087 52.9750 147.3252 -0.8262 -3.0690 -23.8249
# 4 -5.7088 -20.6700 -0.8262 31.3396 -4.0338 10.6676
# 5 -5.5741 -2.0571 -3.0690 -4.0338 36.5591 3.7441
# 6 -20.4763 -29.0586 -23.8249 10.6676 3.7441 36.6665
#
#
#
# Elastic Compliance Matrix: (Units=1/GPa)
#
#
# Indices 1 2 3 4 5 6 
#
# 1 0.016307 -0.000890 -0.002635 0.000330 0.001593 0.006430
# 2 -0.000890 0.012944 -0.003487 0.006442 0.000440 0.005576
# 3 -0.002635 -0.003487 0.009110 -0.003548 -0.000508 0.002768
# 4 0.000330 0.006442 -0.003548 0.039959 0.005466 -0.009199
# 5 0.001593 0.000440 -0.000508 0.005466 0.028549 -0.003598
# 6 0.006430 0.005576 0.002768 -0.009199 -0.003598 0.040125
#
#
# Mechanical properties :
#
#
# Convention : Reuss Voigt Hill
#
# Bulk Modulus (GPa) = 41.09223 63.74864 52.42044
# Shear Modulus (GPa) = 29.56285 35.88832 32.72558
#
# Velocity S-wave (km/s) = 3.65600 4.02819 3.84660
# Velocity P-wave (km/s) = 6.03332 7.10338 6.59010
#
# Compressibility (1/GPa) = 0.02433550
#
# Stress axis : x y z
#
# Youngs Moduli (GPa) = 61.32491 77.25484 109.76921
#
# Poissons Ratio (x) = 0.06879 0.28922
# Poissons Ratio (y) = 0.05461 0.38280
# Poissons Ratio (z) = 0.16158 0.26942
#
# Static dielectric constant tensor:
#      x y z
#    x 3.695400 -0.497510 0.198650 
#    y -0.497510 3.369750 0.166870 
#    z 0.198650 0.166870 4.219600 
# 
# 
# High freq. dielectric constant tensor:
#      x y z
#    x 1.871440 -0.012320 0.000860 
#    y -0.012320 1.868980 -0.003720 
#    z 0.000860 -0.003720 1.890610 
# 
# From -- ./inp_files/335581.got.cif
#   From: 2010.06.25/outbox.cif.g09.slc.cpg/sg2_168_cif.got.tgz:335581.got - 2010.06.27 13:26:56.
