data_PCOD8020007
_publ_section_title
;
Structure prediction by ZEFSAII (Michael W. Deem and Ramdas Pophale) SiO2 
 PCOD8020007
Probable space group: P -1
;
_chemical_formula_sum "Si O2"
_cell_formula_units_Z 16
_cell_length_a 14.930544
_cell_length_b 5.197964
_cell_length_c 11.751799
_cell_angle_alpha 60.883444
_cell_angle_beta 71.263303
_cell_angle_gamma 84.354180
_cell_volume 752.708432
_symmetry_space_group_name_H-M "P -1"
_symmetry_group_IT_number 2
_symmetry_cell_setting 'triclinic'
loop_
_space_group_symop_operation_xyz
x,y,z
-x,-y,-z
loop_
_atom_site_type_symbol
_atom_site_label
_atom_site_fract_x
_atom_site_fract_y
_atom_site_fract_z
Si Si1 0.709861 0.176496 0.846852
Si Si2 0.308369 0.767949 0.799039
Si Si3 0.032609 0.429893 0.877064
Si Si4 0.151293 0.915259 0.005610
Si Si5 0.193362 0.755193 0.628958
Si Si6 0.564384 0.766499 0.466312
Si Si7 0.393381 0.423278 0.023842
Si Si8 0.744426 0.585053 0.540170
O O1 0.790657 0.011253 0.917735
O O2 0.757759 0.353036 0.684430
O O3 0.669733 0.413769 0.896156
O O4 0.630993 0.929550 0.887028
O O5 0.271507 0.674195 0.708786
O O6 0.374928 0.531965 0.878850
O O7 0.371913 0.076830 0.694142
O O8 0.217131 0.786052 0.911162
O O9 0.085043 0.704213 0.730015
O O10 0.938132 0.309767 0.874771
O O11 0.000000 0.500000 0.000000
O O12 0.113137 0.199903 0.901816
O O13 0.208688 0.542911 0.563079
O O14 0.203675 0.099030 0.516995
O O15 0.500000 0.500000 0.500000
O O16 0.632836 0.629850 0.560654
O O17 0.500000 0.000000 0.500000
O O18 0.500000 0.500000 0.000000
#
# Coordination Sequence:
#
# PCOD8020007 Si02
#       8
#     2   2   2   2   2   2   2   2
#     4  11  25  45  65  92 136 176 215 256 339 390
#     4  10  22  42  64  94 132 161 220 269 330 374
#     4  11  21  38  72 100 129 155 225 275 324 394
#     4  10  23  41  66 102 128 172 205 279 335 384
#     4  11  22  42  65  98 125 172 210 269 327 378
#     4  11  24  37  61  89 121 167 217 267 306 367
#     4  11  25  41  68  95 126 174 220 279 317 381
#     4  11  25  43  65  88 135 178 212 258 326 394
#
# _framework density 21.25657
#
# number of rings (size 3 to 8) (size 9 to 14) (size 15 to 20)
#    0.000    1.250    1.250    4.875    7.000    4.000 
#    0.000    1.250    0.000    0.000    0.000    0.000 
#    0.000    0.000    0.000    0.000    0.000    0.000 
#
# Total GULP energy -198402.653677 kJ/mol
# GULP energy per Si atom -12400.165855 kJ/mol
# Density = 2.120819 g / cm^3
# Si number density = 21.256570 Si / 1000 Ang^3
#
#
#
# Elastic Constant Matrix: (Units=GPa)
#
#
# Indices 1 2 3 4 5 6 
#
# 1 93.7823 17.8494 44.8442 -7.5836 -12.5335 8.1225
# 2 17.8494 99.4030 22.2972 -5.5290 -10.7918 9.7820
# 3 44.8442 22.2972 106.0869 -11.0156 -5.1829 6.4122
# 4 -7.5836 -5.5290 -11.0156 36.3984 7.9676 -10.4825
# 5 -12.5335 -10.7918 -5.1829 7.9676 33.5160 -7.4417
# 6 8.1225 9.7820 6.4122 -10.4825 -7.4417 30.0839
#
#
#
# Elastic Compliance Matrix: (Units=1/GPa)
#
#
# Indices 1 2 3 4 5 6 
#
# 1 0.014084 -0.000729 -0.005535 -0.000124 0.003879 -0.001469
# 2 -0.000729 0.011096 -0.001778 -0.000280 0.002536 -0.002502
# 3 -0.005535 -0.001778 0.012344 0.002613 -0.001351 0.000018
# 4 -0.000124 -0.000280 0.002613 0.032066 -0.005259 0.009440
# 5 0.003879 0.002536 -0.001351 -0.005259 0.034269 0.005060
# 6 -0.001469 -0.002502 0.000018 0.009440 0.005060 0.038988
#
#
# Mechanical properties :
#
#
# Convention : Reuss Voigt Hill
#
# Bulk Modulus (GPa) = 46.64034 52.13931 49.38983
# Shear Modulus (GPa) = 30.10663 34.28508 32.19586
#
# Velocity S-wave (km/s) = 3.76752 4.02047 3.89605
# Velocity P-wave (km/s) = 6.39647 6.79221 6.59731
#
# Compressibility (1/GPa) = 0.02144067
#
# Stress axis : x y z
#
# Youngs Moduli (GPa) = 71.00250 90.12458 81.01183
#
# Poissons Ratio (x) = 0.06566 0.44839
# Poissons Ratio (y) = 0.05173 0.14404
# Poissons Ratio (z) = 0.39299 0.16025
#
# Static dielectric constant tensor:
#      x y z
#    x 4.176870 0.169570 -0.065830 
#    y 0.169570 3.671550 -0.172980 
#    z -0.065830 -0.172980 3.977590 
# 
# 
# High freq. dielectric constant tensor:
#      x y z
#    x 1.830190 0.008360 -0.014240 
#    y 0.008360 1.839140 -0.007180 
#    z -0.014240 -0.007180 1.832590 
# 
# From -- ./inp_files/440907.got.cif
#   From: 2010.06.25/outbox.cif.g09.slc.cpg/sg2_221_cif.got.tgz:440907.got - 2010.06.27 13:26:56.
