data_PCOD8020655
_publ_section_title
;
Structure prediction by ZEFSAII (Michael W. Deem and Ramdas Pophale) SiO2 
 PCOD8020655
Probable space group: P -1
;
_chemical_formula_sum "Si O2"
_cell_formula_units_Z 16
_cell_length_a 19.224106
_cell_length_b 10.463357
_cell_length_c 8.816398
_cell_angle_alpha 42.422561
_cell_angle_beta 38.010760
_cell_angle_gamma 41.859198
_cell_volume 677.501152
_symmetry_space_group_name_H-M "P -1"
_symmetry_group_IT_number 2
_symmetry_cell_setting 'triclinic'
loop_
_space_group_symop_operation_xyz
x,y,z
-x,-y,-z
loop_
_atom_site_type_symbol
_atom_site_label
_atom_site_fract_x
_atom_site_fract_y
_atom_site_fract_z
Si Si1 0.272329 0.067235 0.054027
Si Si2 0.527566 0.759972 0.349996
Si Si3 0.815406 0.545816 0.559056
Si Si4 0.611409 0.302487 0.609855
Si Si5 0.993089 0.709897 0.756482
Si Si6 0.951791 0.849492 0.025132
Si Si7 0.181015 0.744003 0.938398
Si Si8 0.626514 0.934389 0.426364
O O1 0.128484 0.194212 0.225723
O O2 0.318217 0.844545 0.246200
O O3 0.353522 0.186587 0.875204
O O4 0.279218 0.040863 0.881290
O O5 0.557489 0.533090 0.566785
O O6 0.496044 0.760557 0.223252
O O7 0.403122 0.915676 0.509660
O O8 0.885013 0.345725 0.507071
O O9 0.800319 0.465342 0.820735
O O10 0.680963 0.694908 0.595905
O O11 0.897240 0.680806 0.307321
O O12 0.695473 0.294372 0.328702
O O13 0.987789 0.858991 0.776949
O O14 0.000000 0.500000 0.000000
O O15 0.074591 0.794457 0.955426
O O16 0.848654 0.068811 0.056688
O O17 0.500000 0.000000 0.500000
#
# Coordination Sequence:
#
# PCOD8020655 Si02
#       8
#     2   2   2   2   2   2   2   2
#     4  11  23  45  71 102 134 177 223 284 335 402
#     4  10  25  47  69  98 136 177 230 279 335 397
#     4  11  23  45  69 100 136 181 221 278 337 400
#     4  11  26  43  69 103 134 182 224 275 339 401
#     4  10  22  42  71 101 136 175 227 272 341 404
#     4  10  23  44  63 101 136 178 223 270 330 405
#     4  11  26  42  67 100 142 177 223 273 335 401
#     4  10  22  43  70  99 129 175 227 278 336 390
#
# _framework density 23.616195999999999
#
# number of rings (size 3 to 8) (size 9 to 14) (size 15 to 20)
#    0.000    1.500    2.500    1.500    7.000    7.000 
#    4.500    0.000    0.000    0.000    0.000    0.000 
#    0.000    0.000    0.000    0.000    0.000    0.000 
#
# Total GULP energy -198353.468562 kJ/mol
# GULP energy per Si atom -12397.091785 kJ/mol
# Density = 2.356244 g / cm^3
# Si number density = 23.616196 Si / 1000 Ang^3
#
#
#
# Elastic Constant Matrix: (Units=GPa)
#
#
# Indices 1 2 3 4 5 6 
#
# 1 72.9869 52.4854 22.1800 3.9663 7.5248 -4.6695
# 2 52.4854 160.7770 33.0560 3.6825 7.7074 -17.7239
# 3 22.1800 33.0560 73.1688 -5.2025 17.3480 0.1897
# 4 3.9663 3.6825 -5.2025 28.4639 -7.3228 5.6833
# 5 7.5248 7.7074 17.3480 -7.3228 29.1905 -6.6514
# 6 -4.6695 -17.7239 0.1897 5.6833 -6.6514 43.5894
#
#
#
# Elastic Compliance Matrix: (Units=1/GPa)
#
#
# Indices 1 2 3 4 5 6 
#
# 1 0.018879 -0.005388 -0.002910 -0.003086 -0.002520 -0.000138
# 2 -0.005388 0.008894 -0.002752 -0.001290 0.001125 0.003391
# 3 -0.002910 -0.002752 0.018221 0.002294 -0.009520 -0.003262
# 4 -0.003086 -0.001290 0.002294 0.039286 0.008562 -0.004681
# 5 -0.002520 0.001125 -0.009520 0.008562 0.043734 0.005786
# 6 -0.000138 0.003391 -0.003262 -0.004681 0.005786 0.025813
#
#
# Mechanical properties :
#
#
# Convention : Reuss Voigt Hill
#
# Bulk Modulus (GPa) = 41.85299 58.04172 49.94736
# Shear Modulus (GPa) = 27.04271 33.52951 30.28611
#
# Velocity S-wave (km/s) = 3.38759 3.77207 3.58499
# Velocity P-wave (km/s) = 5.74993 6.60316 6.19126
#
# Compressibility (1/GPa) = 0.02389315
#
# Stress axis : x y z
#
# Youngs Moduli (GPa) = 52.96894 112.43386 54.88126
#
# Poissons Ratio (x) = 0.60584 0.15971
# Poissons Ratio (y) = 0.28542 0.15104
# Poissons Ratio (z) = 0.15414 0.30943
#
# Static dielectric constant tensor:
#      x y z
#    x 4.362570 0.227800 0.220140 
#    y 0.227800 5.212800 0.413210 
#    z 0.220140 0.413210 4.168580 
# 
# 
# High freq. dielectric constant tensor:
#      x y z
#    x 1.939990 -0.011780 0.006440 
#    y -0.011780 1.955540 0.004920 
#    z 0.006440 0.004920 1.917350 
# 
# From -- ./inp_files/345819.got.cif
#   From: 2010.06.25/outbox.cif.g09.slc.cpg/sg2_173_cif.got.tgz:345819.got - 2010.06.27 13:26:56.
