data_PCOD8020898
_publ_section_title
;
Structure prediction by ZEFSAII (Michael W. Deem and Ramdas Pophale) SiO2 
 PCOD8020898
Probable space group: P -1
;
_chemical_formula_sum "Si O2"
_cell_formula_units_Z 16
_cell_length_a 16.348172
_cell_length_b 9.837837
_cell_length_c 8.548070
_cell_angle_alpha 83.580743
_cell_angle_beta 74.780529
_cell_angle_gamma 35.175014
_cell_volume 751.031192
_symmetry_space_group_name_H-M "P -1"
_symmetry_group_IT_number 2
_symmetry_cell_setting 'triclinic'
loop_
_space_group_symop_operation_xyz
x,y,z
-x,-y,-z
loop_
_atom_site_type_symbol
_atom_site_label
_atom_site_fract_x
_atom_site_fract_y
_atom_site_fract_z
Si Si1 0.190308 0.825406 0.731799
Si Si2 0.530627 0.653190 0.195453
Si Si3 0.432736 0.121510 0.686086
Si Si4 0.121084 0.198311 0.863481
Si Si5 0.908033 0.462731 0.217227
Si Si6 0.956375 0.972043 0.676170
Si Si7 0.347849 0.637833 0.349216
Si Si8 0.438780 0.833738 0.870148
O O1 0.298954 0.625535 0.838266
O O2 0.279660 0.689547 0.543226
O O3 0.038100 0.936439 0.787587
O O4 0.145741 0.041970 0.751552
O O5 0.495874 0.837258 0.283362
O O6 0.413516 0.702090 0.318323
O O7 0.503996 0.705103 0.019257
O O8 0.257336 0.376823 0.727658
O O9 0.500000 0.000000 0.500000
O O10 0.470699 0.950287 0.809460
O O11 0.089559 0.379490 0.756556
O O12 0.263618 0.034296 0.923902
O O13 0.982141 0.347387 0.024186
O O14 0.992682 0.255180 0.328165
O O15 0.777175 0.208508 0.744901
O O16 0.000000 0.000000 0.500000
O O17 0.480807 0.357958 0.281989
#
# Coordination Sequence:
#
# PCOD8020898 Si02
#       8
#     2   2   2   2   2   2   2   2
#     4  11  23  41  66 100 130 179 230 267 339 395
#     4  12  23  40  68 102 131 175 226 273 332 399
#     4  11  25  43  70  98 135 174 224 277 336 400
#     4  10  23  41  68  95 132 180 221 277 332 401
#     4  10  22  43  65  90 134 173 220 269 336 396
#     4  10  23  42  63  93 136 173 214 280 329 396
#     4  11  24  41  67  99 139 170 225 280 327 398
#     4  11  24  41  66 102 138 172 220 280 336 389
#
# _framework density 21.304041999999999
#
# number of rings (size 3 to 8) (size 9 to 14) (size 15 to 20)
#    0.000    1.250    2.500    2.625    7.000    1.500 
#    0.000    5.000    0.000    0.000    0.000    0.000 
#    0.000    0.000    0.000    0.000    0.000    0.000 
#
# Total GULP energy -198410.405344 kJ/mol
# GULP energy per Si atom -12400.650334 kJ/mol
# Density = 2.125555 g / cm^3
# Si number density = 21.304042 Si / 1000 Ang^3
#
#
#
# Elastic Constant Matrix: (Units=GPa)
#
#
# Indices 1 2 3 4 5 6 
#
# 1 122.9420 42.3393 7.3198 8.0733 0.0797 2.0484
# 2 42.3393 116.3663 25.9930 -5.8850 -3.5160 9.8813
# 3 7.3198 25.9930 48.5152 10.8126 6.1295 -1.0527
# 4 8.0733 -5.8850 10.8126 39.7736 3.1470 0.1052
# 5 0.0797 -3.5160 6.1295 3.1470 26.9620 6.1084
# 6 2.0484 9.8813 -1.0527 0.1052 6.1084 46.5006
#
#
#
# Elastic Compliance Matrix: (Units=1/GPa)
#
#
# Indices 1 2 3 4 5 6 
#
# 1 0.009620 -0.004040 0.001456 -0.002894 -0.000676 0.000563
# 2 -0.004040 0.012326 -0.007487 0.004410 0.003505 -0.003081
# 3 0.001456 -0.007487 0.027181 -0.008255 -0.006891 0.003066
# 4 -0.002894 0.004410 -0.008255 0.028682 -0.000667 -0.000974
# 5 -0.000676 0.003505 -0.006891 -0.000667 0.040598 -0.006203
# 6 0.000563 -0.003081 0.003066 -0.000974 -0.006203 0.023021
#
#
# Mechanical properties :
#
#
# Convention : Reuss Voigt Hill
#
# Bulk Modulus (GPa) = 34.50146 48.79198 41.64672
# Shear Modulus (GPa) = 29.20014 36.79201 32.99607
#
# Velocity S-wave (km/s) = 3.70623 4.16022 3.93977
# Velocity P-wave (km/s) = 5.87748 6.78447 6.34720
#
# Compressibility (1/GPa) = 0.02898428
#
# Stress axis : x y z
#
# Youngs Moduli (GPa) = 103.95446 81.12665 36.79059
#
# Poissons Ratio (x) = 0.32773 -0.05355
# Poissons Ratio (y) = 0.41995 0.27546
# Poissons Ratio (z) = -0.15132 0.60741
#
# Static dielectric constant tensor:
#      x y z
#    x 4.291970 -0.079210 -0.109850 
#    y -0.079210 4.241630 -0.104450 
#    z -0.109850 -0.104450 3.515540 
# 
# 
# High freq. dielectric constant tensor:
#      x y z
#    x 1.847920 0.006410 -0.016850 
#    y 0.006410 1.852590 -0.002340 
#    z -0.016850 -0.002340 1.814460 
# 
# From -- ./inp_files/298495.got.cif
#   From: 2010.06.25/outbox.cif.g09.slc.cpg/sg2_150_cif.got.tgz:298495.got - 2010.06.27 13:26:56.
