data_PCOD8020763
_publ_section_title
;
Structure prediction by ZEFSAII (Michael W. Deem and Ramdas Pophale) SiO2 
 PCOD8020763
Probable space group: P -1
;
_chemical_formula_sum "Si O2"
_cell_formula_units_Z 16
_cell_length_a 9.153749
_cell_length_b 15.409681
_cell_length_c 9.212824
_cell_angle_alpha 93.690426
_cell_angle_beta 132.881161
_cell_angle_gamma 61.319226
_cell_volume 762.760998
_symmetry_space_group_name_H-M "P -1"
_symmetry_group_IT_number 2
_symmetry_cell_setting 'triclinic'
loop_
_space_group_symop_operation_xyz
x,y,z
-x,-y,-z
loop_
_atom_site_type_symbol
_atom_site_label
_atom_site_fract_x
_atom_site_fract_y
_atom_site_fract_z
Si Si1 0.597850 0.201570 0.470557
Si Si2 0.343860 0.321102 0.581973
Si Si3 0.413697 0.905782 0.803321
Si Si4 0.832247 0.606564 0.991158
Si Si5 0.929084 0.313124 0.416432
Si Si6 0.879698 0.861723 0.248917
Si Si7 0.274956 0.532493 0.451572
Si Si8 0.449849 0.712372 0.966111
O O1 0.517834 0.214757 0.585741
O O2 0.646388 0.097446 0.408793
O O3 0.358503 0.300127 0.235868
O O4 0.838438 0.202181 0.626363
O O5 0.289420 0.426165 0.478876
O O6 0.079317 0.344754 0.429760
O O7 0.490121 0.296028 0.826319
O O8 0.398377 0.819948 0.873133
O O9 0.202437 0.023489 0.733749
O O10 0.685945 0.879585 0.997731
O O11 0.673545 0.606644 0.017272
O O12 0.000000 0.500000 0.000000
O O13 0.023234 0.622759 0.202730
O O14 0.727524 0.413588 0.394285
O O15 0.791473 0.285201 0.209341
O O16 0.125115 0.206892 0.632111
O O17 0.500000 0.500000 0.500000
#
# Coordination Sequence:
#
# PCOD8020763 Si02
#       8
#     2   2   2   2   2   2   2   2
#     4  11  23  41  68  98 132 172 219 274 319 397
#     4  12  26  43  61  97 141 171 213 274 333 391
#     4  10  22  42  76 100 126 168 231 270 322 405
#     4  11  20  40  65  94 127 170 226 265 312 391
#     4  12  23  41  65  94 133 176 214 273 335 380
#     4  11  21  43  76  99 124 175 224 273 330 385
#     4  12  25  42  67  94 132 177 226 272 322 392
#     4  11  24  41  66  97 133 174 217 272 331 391
#
# _framework density 20.976426
#
# number of rings (size 3 to 8) (size 9 to 14) (size 15 to 20)
#    0.000    0.750    6.250    3.000    0.000    2.500 
#    0.000    1.250    0.000    0.000    0.000    0.000 
#    0.000    0.000    0.000    0.000    0.000    0.000 
#
# Total GULP energy -198329.343370 kJ/mol
# GULP energy per Si atom -12395.583961 kJ/mol
# Density = 2.092868 g / cm^3
# Si number density = 20.976426 Si / 1000 Ang^3
#
#
#
# Elastic Constant Matrix: (Units=GPa)
#
#
# Indices 1 2 3 4 5 6 
#
# 1 144.5605 60.1119 48.9000 11.3248 6.5729 -9.2159
# 2 60.1119 97.4282 30.2994 13.2672 -1.8283 -0.6185
# 3 48.9000 30.2994 87.9575 21.8007 9.0214 -11.4215
# 4 11.3248 13.2672 21.8007 41.5015 -3.9609 -2.0081
# 5 6.5729 -1.8283 9.0214 -3.9609 32.7219 9.8344
# 6 -9.2159 -0.6185 -11.4215 -2.0081 9.8344 29.6975
#
#
#
# Elastic Compliance Matrix: (Units=1/GPa)
#
#
# Indices 1 2 3 4 5 6 
#
# 1 0.010669 -0.005571 -0.003635 0.000699 -0.002134 0.002551
# 2 -0.005571 0.014718 -0.002348 -0.001796 0.003450 -0.003589
# 3 -0.003635 -0.002348 0.017987 -0.008063 -0.007660 0.007732
# 4 0.000699 -0.001796 -0.008063 0.029180 0.006440 -0.003081
# 5 -0.002134 0.003450 -0.007660 0.006440 0.038874 -0.015974
# 6 0.002551 -0.003589 0.007732 -0.003081 -0.015974 0.042445
#
#
# Mechanical properties :
#
#
# Convention : Reuss Voigt Hill
#
# Bulk Modulus (GPa) = 49.34432 67.61877 58.48155
# Shear Modulus (GPa) = 27.21306 33.49317 30.35311
#
# Velocity S-wave (km/s) = 3.60574 4.00021 3.80809
# Velocity P-wave (km/s) = 6.39608 7.32402 6.87572
#
# Compressibility (1/GPa) = 0.02026576
#
# Stress axis : x y z
#
# Youngs Moduli (GPa) = 93.73290 67.94533 55.59575
#
# Poissons Ratio (x) = 0.37851 0.20211
# Poissons Ratio (y) = 0.52217 0.13051
# Poissons Ratio (z) = 0.34076 0.15950
#
# Static dielectric constant tensor:
#      x y z
#    x 3.848770 -0.381510 0.123370 
#    y -0.381510 4.470390 0.250040 
#    z 0.123370 0.250040 4.093590 
# 
# 
# High freq. dielectric constant tensor:
#      x y z
#    x 1.804050 -0.012490 0.019450 
#    y -0.012490 1.828370 0.017430 
#    z 0.019450 0.017430 1.832900 
# 
# From -- ./inp_files/215204.got.cif
#   From: 2010.06.25/outbox.cif.g09.slc.cpg/sg2_108_cif.got.tgz:215204.got - 2010.06.27 13:26:56.
