data_PCOD8020667
_publ_section_title
;
Structure prediction by ZEFSAII (Michael W. Deem and Ramdas Pophale) SiO2 
 PCOD8020667
Probable space group: P -1
;
_chemical_formula_sum "Si O2"
_cell_formula_units_Z 14
_cell_length_a 14.815513
_cell_length_b 15.324528
_cell_length_c 8.194081
_cell_angle_alpha 72.693372
_cell_angle_beta 55.165714
_cell_angle_gamma 27.616548
_cell_volume 591.939908
_symmetry_space_group_name_H-M "P -1"
_symmetry_group_IT_number 2
_symmetry_cell_setting 'triclinic'
loop_
_space_group_symop_operation_xyz
x,y,z
-x,-y,-z
loop_
_atom_site_type_symbol
_atom_site_label
_atom_site_fract_x
_atom_site_fract_y
_atom_site_fract_z
Si Si1 0.627271 0.439674 0.607033
Si Si2 0.294284 0.477794 0.258318
Si Si3 0.921761 0.624738 0.722131
Si Si4 0.521374 0.631013 0.315109
Si Si5 0.226390 0.965015 0.191494
Si Si6 0.986889 0.655617 0.176024
Si Si7 0.618724 0.957437 0.111225
O O1 0.682141 0.440858 0.726937
O O2 0.470183 0.633976 0.549829
O O3 0.460082 0.472134 0.769512
O O4 0.907489 0.200517 0.355774
O O5 0.190024 0.481530 0.494577
O O6 0.070144 0.653198 0.248082
O O7 0.591291 0.224340 0.027532
O O8 0.999685 0.460068 0.724604
O O9 0.704089 0.812801 0.696791
O O10 0.784884 0.749279 0.969158
O O11 0.280123 0.879495 0.361827
O O12 0.795251 0.482369 0.111341
O O13 0.313652 0.003815 0.083986
O O14 0.698930 0.899911 0.253000
#
# Coordination Sequence:
#
# PCOD8020667 Si02
#       7
#     2   2   2   2   2   2   2
#     4  11  23  46  66  93 127 166 210 263 315 371
#     4  11  24  42  65  94 131 163 210 261 312 375
#     4  11  22  42  62  92 129 167 210 257 307 377
#     4  10  22  42  71  91 124 168 211 259 317 372
#     4  11  22  43  63  93 130 160 211 261 306 377
#     4  11  22  39  63  94 127 165 209 260 308 376
#     4  11  22  39  66  88 130 169 206 254 317 365
#
# _framework density 23.651050000000001
#
# number of rings (size 3 to 8) (size 9 to 14) (size 15 to 20)
#    0.000    1.143    5.714    1.286    0.000    2.857 
#    2.571    2.857    0.000    0.000    0.000    0.000 
#    0.000    0.000    0.000    0.000    0.000    0.000 
#
# Total GULP energy -173533.473578 kJ/mol
# GULP energy per Si atom -12395.248113 kJ/mol
# Density = 2.359722 g / cm^3
# Si number density = 23.651050 Si / 1000 Ang^3
#
#
#
# Elastic Constant Matrix: (Units=GPa)
#
#
# Indices 1 2 3 4 5 6 
#
# 1 118.4687 37.0278 0.9798 0.4944 13.4001 -8.2150
# 2 37.0278 111.6645 16.6156 -6.6184 10.6968 -11.7065
# 3 0.9798 16.6156 58.0403 16.3987 -1.4645 4.1888
# 4 0.4944 -6.6184 16.3987 23.5227 -2.0681 1.4910
# 5 13.4001 10.6968 -1.4645 -2.0681 30.3274 -4.7546
# 6 -8.2150 -11.7065 4.1888 1.4910 -4.7546 27.1372
#
#
#
# Elastic Compliance Matrix: (Units=1/GPa)
#
#
# Indices 1 2 3 4 5 6 
#
# 1 0.009864 -0.003186 0.001248 -0.002316 -0.003177 0.000990
# 2 -0.003186 0.011904 -0.005672 0.006928 -0.001914 0.004330
# 3 0.001248 -0.005672 0.024341 -0.018236 0.000642 -0.004712
# 4 -0.002316 0.006928 -0.018236 0.057250 0.001964 0.002301
# 5 -0.003177 -0.001914 0.000642 0.001964 0.035890 0.004294
# 6 0.000990 0.004330 -0.004712 0.002301 0.004294 0.040370
#
#
# Mechanical properties :
#
#
# Convention : Reuss Voigt Hill
#
# Bulk Modulus (GPa) = 32.37368 44.15776 38.26572
# Shear Modulus (GPa) = 24.37411 31.76749 28.07080
#
# Velocity S-wave (km/s) = 3.21373 3.66891 3.44884
# Velocity P-wave (km/s) = 5.24295 6.05466 5.66337
#
# Compressibility (1/GPa) = 0.03088929
#
# Stress axis : x y z
#
# Youngs Moduli (GPa) = 101.37724 84.00726 41.08320
#
# Poissons Ratio (x) = 0.26763 -0.05128
# Poissons Ratio (y) = 0.32297 0.23303
# Poissons Ratio (z) = -0.12655 0.47650
#
# Static dielectric constant tensor:
#      x y z
#    x 4.248130 -0.093980 -0.227150 
#    y -0.093980 4.253950 -0.096420 
#    z -0.227150 -0.096420 4.177780 
# 
# 
# High freq. dielectric constant tensor:
#      x y z
#    x 1.935280 -0.007300 -0.021560 
#    y -0.007300 1.929360 -0.015270 
#    z -0.021560 -0.015270 1.923710 
# 
# From -- ./inp_files/180850.got.cif
#   From: 2010.06.25/outbox.cif.g09.slc.cpg/sg2_91_cif.got.tgz:180850.got - 2010.06.27 13:26:56.
