data_PCOD8020626
_publ_section_title
;
Structure prediction by ZEFSAII (Michael W. Deem and Ramdas Pophale) SiO2 
 PCOD8020626
Probable space group: P -1
;
_chemical_formula_sum "Si O2"
_cell_formula_units_Z 16
_cell_length_a 20.554394
_cell_length_b 11.028452
_cell_length_c 12.156961
_cell_angle_alpha 120.457668
_cell_angle_beta 29.314266
_cell_angle_gamma 139.924941
_cell_volume 747.878819
_symmetry_space_group_name_H-M "P -1"
_symmetry_group_IT_number 2
_symmetry_cell_setting 'triclinic'
loop_
_space_group_symop_operation_xyz
x,y,z
-x,-y,-z
loop_
_atom_site_type_symbol
_atom_site_label
_atom_site_fract_x
_atom_site_fract_y
_atom_site_fract_z
Si Si1 0.033733 0.416615 0.816163
Si Si2 0.045534 0.135521 0.171406
Si Si3 0.369870 0.071768 0.383158
Si Si4 0.668667 0.270747 0.648595
Si Si5 0.613746 0.429170 0.001402
Si Si6 0.271185 0.349265 0.519985
Si Si7 0.582076 0.720054 0.379002
Si Si8 0.601524 0.952725 0.264415
O O1 0.104217 0.551552 0.661745
O O2 0.212383 0.452425 0.605375
O O3 0.000000 0.500000 0.000000
O O4 0.824234 0.168052 0.986921
O O5 0.168380 0.331059 0.168033
O O6 0.872851 0.089370 0.344753
O O7 0.930564 0.911391 0.295686
O O8 0.214627 0.212213 0.870685
O O9 0.460932 0.215598 0.425239
O O10 0.389855 0.921134 0.293724
O O11 0.510438 0.237029 0.151680
O O12 0.662802 0.390834 0.799170
O O13 0.518312 0.185570 0.731484
O O14 0.447225 0.417347 0.216987
O O15 0.379858 0.458681 0.531754
O O16 0.621700 0.839063 0.264216
O O17 0.500000 0.000000 0.500000
#
# Coordination Sequence:
#
# PCOD8020626 Si02
#       8
#     2   2   2   2   2   2   2   2
#     4  12  23  40  69 103 132 170 216 277 342 398
#     4  10  23  42  66  96 136 178 229 276 325 397
#     4  11  24  42  69  98 136 178 228 276 329 400
#     4  12  26  44  69 102 138 179 220 277 337 404
#     4  10  26  47  65  96 137 188 228 265 329 397
#     4  10  22  42  70  97 138 171 222 277 335 401
#     4  11  20  40  68 102 132 169 218 284 341 387
#     4  12  22  42  67 102 136 164 214 281 346 395
#
# _framework density 21.393841999999999
#
# number of rings (size 3 to 8) (size 9 to 14) (size 15 to 20)
#    0.000    1.000    5.000    0.750    0.000    9.500 
#    0.000    1.250    0.000    0.000    0.000    0.000 
#    0.000    0.000    0.000    0.000    0.000    0.000 
#
# Total GULP energy -198368.337636 kJ/mol
# GULP energy per Si atom -12398.021102 kJ/mol
# Density = 2.134515 g / cm^3
# Si number density = 21.393842 Si / 1000 Ang^3
#
#
#
# Elastic Constant Matrix: (Units=GPa)
#
#
# Indices 1 2 3 4 5 6 
#
# 1 76.9367 45.1031 43.3587 -0.5685 4.8786 0.0139
# 2 45.1031 131.2906 64.1655 6.0937 7.7980 13.0626
# 3 43.3587 64.1655 107.2452 -3.4394 6.2442 9.9958
# 4 -0.5685 6.0937 -3.4394 51.2067 4.0058 0.3804
# 5 4.8786 7.7980 6.2442 4.0058 30.9813 2.6654
# 6 0.0139 13.0626 9.9958 0.3804 2.6654 38.4547
#
#
#
# Elastic Compliance Matrix: (Units=1/GPa)
#
#
# Indices 1 2 3 4 5 6 
#
# 1 0.018344 -0.003981 -0.005215 0.000394 -0.001125 0.002775
# 2 -0.003981 0.011975 -0.005317 -0.001739 -0.000866 -0.002607
# 3 -0.005215 -0.005317 0.014908 0.001661 -0.000886 -0.002022
# 4 0.000394 -0.001739 0.001661 0.020051 -0.002563 0.000138
# 5 -0.001125 -0.000866 -0.000886 -0.002563 0.033334 -0.001760
# 6 0.002775 -0.002607 -0.002022 0.000138 -0.001760 0.027535
#
#
# Mechanical properties :
#
#
# Convention : Reuss Voigt Hill
#
# Bulk Modulus (GPa) = 61.72993 68.96967 65.34980
# Shear Modulus (GPa) = 31.13835 34.98489 33.06162
#
# Velocity S-wave (km/s) = 3.81922 4.04824 3.93540
# Velocity P-wave (km/s) = 6.95451 7.35929 7.15976
#
# Compressibility (1/GPa) = 0.01619960
#
# Stress axis : x y z
#
# Youngs Moduli (GPa) = 54.51307 83.51079 67.07944
#
# Poissons Ratio (x) = 0.33242 0.34984
# Poissons Ratio (y) = 0.21700 0.35669
# Poissons Ratio (z) = 0.28430 0.44406
#
# Static dielectric constant tensor:
#      x y z
#    x 3.061570 -0.079280 -0.181760 
#    y -0.079280 4.185030 -0.302340 
#    z -0.181760 -0.302340 4.047400 
# 
# 
# High freq. dielectric constant tensor:
#      x y z
#    x 1.826970 -0.007180 -0.011190 
#    y -0.007180 1.859970 -0.013630 
#    z -0.011190 -0.013630 1.839480 
# 
# From -- ./inp_files/427536.got.cif
#   From: 2010.06.25/outbox.cif.g09.slc.cpg/sg2_214_cif.got.tgz:427536.got - 2010.06.27 13:26:56.
