data_PCOD8020104
_publ_section_title
;
Structure prediction by ZEFSAII (Michael W. Deem and Ramdas Pophale) SiO2 
 PCOD8020104
Probable space group: P -1
;
_chemical_formula_sum "Si O2"
_cell_formula_units_Z 14
_cell_length_a 8.981645
_cell_length_b 7.113131
_cell_length_c 19.444608
_cell_angle_alpha 56.183717
_cell_angle_beta 37.348916
_cell_angle_gamma 48.536235
_cell_volume 563.518266
_symmetry_space_group_name_H-M "P -1"
_symmetry_group_IT_number 2
_symmetry_cell_setting 'triclinic'
loop_
_space_group_symop_operation_xyz
x,y,z
-x,-y,-z
loop_
_atom_site_type_symbol
_atom_site_label
_atom_site_fract_x
_atom_site_fract_y
_atom_site_fract_z
Si Si1 0.268715 0.153161 0.501303
Si Si2 0.529892 0.737165 0.124694
Si Si3 0.294058 0.248851 0.799399
Si Si4 0.889544 0.752029 0.869909
Si Si5 0.741657 0.029852 0.255632
Si Si6 0.096598 0.547351 0.315814
Si Si7 0.892194 0.965012 0.618049
O O1 0.062717 0.420076 0.558318
O O2 0.500000 0.000000 0.500000
O O3 0.421650 0.171800 0.370404
O O4 0.103126 0.983934 0.591292
O O5 0.737560 0.739120 0.107900
O O6 0.397939 0.538375 0.218747
O O7 0.274246 0.013538 0.166890
O O8 0.679419 0.695444 0.005338
O O9 0.254547 0.035044 0.813795
O O10 0.062008 0.517358 0.804344
O O11 0.602768 0.208133 0.683799
O O12 0.110318 0.789295 0.829979
O O13 0.908710 0.778063 0.288998
O O14 0.131580 0.295927 0.315199
O O15 0.000000 0.000000 0.500000
#
# Coordination Sequence:
#
# PCOD8020104 Si02
#       7
#     2   2   2   2   2   2   2
#     4  10  22  42  65  95 129 179 220 271 336 395
#     4  10  23  50  72  97 132 188 222 282 344 395
#     4  12  25  41  69 102 138 173 229 283 334 398
#     4  10  25  48  70  97 140 174 234 278 338 405
#     4  10  24  41  67 105 129 180 227 281 337 398
#     4  10  24  44  68  94 141 178 227 277 337 404
#     4  12  26  42  63 105 136 179 226 273 343 404
#
# _framework density 24.843914999999999
#
# number of rings (size 3 to 8) (size 9 to 14) (size 15 to 20)
#    0.000    1.429    2.857    0.429    6.000    3.429 
#    2.571    2.143    0.000    0.000    0.000    0.000 
#    0.000    0.000    0.000    0.000    0.000    0.000 
#
# Total GULP energy -173530.417486 kJ/mol
# GULP energy per Si atom -12395.029820 kJ/mol
# Density = 2.478737 g / cm^3
# Si number density = 24.843915 Si / 1000 Ang^3
#
#
#
# Elastic Constant Matrix: (Units=GPa)
#
#
# Indices 1 2 3 4 5 6 
#
# 1 71.3142 13.4496 2.6610 6.7919 -14.1910 25.8089
# 2 13.4496 104.7042 48.4339 23.1037 -18.2444 23.3546
# 3 2.6610 48.4339 89.8164 -2.1163 -19.1910 4.0970
# 4 6.7919 23.1037 -2.1163 32.9026 -2.8560 -7.9420
# 5 -14.1910 -18.2444 -19.1910 -2.8560 38.4312 4.1501
# 6 25.8089 23.3546 4.0970 -7.9420 4.1501 30.6320
#
#
#
# Elastic Compliance Matrix: (Units=1/GPa)
#
#
# Indices 1 2 3 4 5 6 
#
# 1 0.055730 0.040331 -0.011893 -0.060602 0.039781 -0.097216
# 2 0.040331 0.059837 -0.022587 -0.072809 0.037466 -0.100534
# 3 -0.011893 -0.022587 0.021597 0.026956 -0.005795 0.032127
# 4 -0.060602 -0.072809 0.026956 0.125811 -0.049498 0.142291
# 5 0.039781 0.037466 -0.005795 -0.049498 0.060820 -0.082380
# 6 -0.097216 -0.100534 0.032127 0.142291 -0.082380 0.234960
#
#
# Mechanical properties :
#
#
# Convention : Reuss Voigt Hill
#
# Bulk Modulus (GPa) = 6.71740 43.88042 25.29891
# Shear Modulus (GPa) = 8.37976 33.81253 21.09614
#
# Velocity S-wave (km/s) = 1.83855 3.69317 2.91717
# Velocity P-wave (km/s) = 2.68640 5.99056 4.64239
#
# Compressibility (1/GPa) = 0.14886707
#
# Stress axis : x y z
#
# Youngs Moduli (GPa) = 17.94351 16.71213 46.30166
#
# Poissons Ratio (x) = -0.67402 0.55068
# Poissons Ratio (y) = -0.72368 1.04580
# Poissons Ratio (z) = 0.21341 0.37747
#
# Static dielectric constant tensor:
#      x y z
#    x 5.300420 1.165970 -0.518030 
#    y 1.165970 6.542490 -0.360570 
#    z -0.518030 -0.360570 4.826380 
# 
# 
# High freq. dielectric constant tensor:
#      x y z
#    x 2.004640 -0.006200 -0.009880 
#    y -0.006200 1.987510 0.024470 
#    z -0.009880 0.024470 1.983740 
# 
# From -- ./inp_files/139473.got.cif
#   From: 2010.06.25/outbox.cif.g09.slc.cpg/sg2_70_cif.got.tgz:139473.got - 2010.06.27 13:26:56.
