data_PCOD8020110
_publ_section_title
;
Structure prediction by ZEFSAII (Michael W. Deem and Ramdas Pophale) SiO2 
 PCOD8020110
Probable space group: P -1
;
_chemical_formula_sum "Si O2"
_cell_formula_units_Z 14
_cell_length_a 8.578720
_cell_length_b 9.000763
_cell_length_c 15.020323
_cell_angle_alpha 35.909237
_cell_angle_beta 76.237219
_cell_angle_gamma 83.581954
_cell_volume 653.995686
_symmetry_space_group_name_H-M "P -1"
_symmetry_group_IT_number 2
_symmetry_cell_setting 'triclinic'
loop_
_space_group_symop_operation_xyz
x,y,z
-x,-y,-z
loop_
_atom_site_type_symbol
_atom_site_label
_atom_site_fract_x
_atom_site_fract_y
_atom_site_fract_z
Si Si1 0.950819 0.278184 0.361875
Si Si2 0.674568 0.473175 0.413391
Si Si3 0.718519 0.547630 0.697511
Si Si4 0.326665 0.183396 0.596076
Si Si5 0.157330 0.631019 0.863974
Si Si6 0.463089 0.391904 0.961380
Si Si7 0.482790 0.864673 0.161845
O O1 0.810096 0.324994 0.425505
O O2 0.900344 0.319717 0.249694
O O3 0.110229 0.474302 0.270356
O O4 0.000000 0.000000 0.500000
O O5 0.520800 0.249879 0.557612
O O6 0.743915 0.611102 0.428944
O O7 0.626195 0.699307 0.246230
O O8 0.713007 0.796928 0.514393
O O9 0.584464 0.528171 0.803365
O O10 0.683753 0.327594 0.733290
O O11 0.247815 0.892271 0.771868
O O12 0.282795 0.428016 0.939611
O O13 0.000000 0.500000 0.000000
O O14 0.500000 0.500000 0.000000
O O15 0.472456 0.091073 0.122682
O O16 0.500000 0.000000 0.000000
#
# Coordination Sequence:
#
# PCOD8020110 Si02
#       7
#     2   2   2   2   2   2   2
#     4  12  25  43  66 102 137 175 224 281 340 399
#     4  10  23  42  72  97 129 176 230 282 333 398
#     4  10  22  42  65  95 133 179 222 271 339 397
#     4  10  22  45  66  97 131 175 231 275 335 404
#     4  12  26  44  65 101 140 179 222 281 343 398
#     4  11  23  42  71 100 136 179 223 280 337 407
#     4   9  19  41  63  93 126 172 226 264 332 397
#
# _framework density 21.406869
#
# number of rings (size 3 to 8) (size 9 to 14) (size 15 to 20)
#    0.000    1.429    1.429    4.286    2.000    4.000 
#    7.714    4.286    0.000    0.000    0.000    0.000 
#    0.000    0.000    0.000    0.000    0.000    0.000 
#
# Total GULP energy -173442.514624 kJ/mol
# GULP energy per Si atom -12388.751045 kJ/mol
# Density = 2.135815 g / cm^3
# Si number density = 21.406869 Si / 1000 Ang^3
#
#
#
# Elastic Constant Matrix: (Units=GPa)
#
#
# Indices 1 2 3 4 5 6 
#
# 1 131.2882 63.4574 43.2990 -6.7758 -4.1839 -9.9849
# 2 63.4574 147.0366 49.8526 0.5481 -6.3290 -10.6259
# 3 43.2990 49.8526 102.8629 0.7837 -8.6083 -15.1089
# 4 -6.7758 0.5481 0.7837 37.1653 1.8713 3.2535
# 5 -4.1839 -6.3290 -8.6083 1.8713 40.7746 1.8467
# 6 -9.9849 -10.6259 -15.1089 3.2535 1.8467 43.1553
#
#
#
# Elastic Compliance Matrix: (Units=1/GPa)
#
#
# Indices 1 2 3 4 5 6 
#
# 1 0.010319 -0.003560 -0.002577 0.001955 -0.000149 0.000468
# 2 -0.003560 0.009392 -0.002933 -0.000794 0.000487 0.000501
# 3 -0.002577 -0.002933 0.012863 -0.001072 0.001901 0.003184
# 4 0.001955 -0.000794 -0.001072 0.027551 -0.001317 -0.002139
# 5 -0.000149 0.000487 0.001901 -0.001317 0.025057 -0.000222
# 6 0.000468 0.000501 0.003184 -0.002139 -0.000222 0.024689
#
#
# Mechanical properties :
#
#
# Convention : Reuss Voigt Hill
#
# Bulk Modulus (GPa) = 69.27884 77.15618 73.21751
# Shear Modulus (GPa) = 37.64430 39.19096 38.41763
#
# Velocity S-wave (km/s) = 4.19801 4.28339 4.24092
# Velocity P-wave (km/s) = 7.47870 7.78358 7.63266
#
# Compressibility (1/GPa) = 0.01443442
#
# Stress axis : x y z
#
# Youngs Moduli (GPa) = 96.90888 106.47600 77.74253
#
# Poissons Ratio (x) = 0.37900 0.20035
# Poissons Ratio (y) = 0.34495 0.22802
# Poissons Ratio (z) = 0.24975 0.31229
#
# Static dielectric constant tensor:
#      x y z
#    x 4.001500 0.082310 0.656210 
#    y 0.082310 5.082820 -1.958290 
#    z 0.656210 -1.958290 7.995430 
# 
# 
# High freq. dielectric constant tensor:
#      x y z
#    x 1.832850 0.023520 0.008790 
#    y 0.023520 1.849490 0.000750 
#    z 0.008790 0.000750 1.850360 
# 
# From -- ./inp_files/491827.got.cif
#   From: 2010.06.25/outbox.cif.g09.slc.cpg/sg2_246_cif.got.tgz:491827.got - 2010.06.27 13:26:56.
