data_PCOD8020578
_publ_section_title
;
Structure prediction by ZEFSAII (Michael W. Deem and Ramdas Pophale) SiO2 
 PCOD8020578
Probable space group: P -1
;
_chemical_formula_sum "Si O2"
_cell_formula_units_Z 16
_cell_length_a 13.884929
_cell_length_b 11.827648
_cell_length_c 14.224553
_cell_angle_alpha 69.124409
_cell_angle_beta 133.319386
_cell_angle_gamma 147.740593
_cell_volume 741.306055
_symmetry_space_group_name_H-M "P -1"
_symmetry_group_IT_number 2
_symmetry_cell_setting 'triclinic'
loop_
_space_group_symop_operation_xyz
x,y,z
-x,-y,-z
loop_
_atom_site_type_symbol
_atom_site_label
_atom_site_fract_x
_atom_site_fract_y
_atom_site_fract_z
Si Si1 0.182409 0.318563 0.657255
Si Si2 0.412097 0.308680 0.337787
Si Si3 0.279352 0.572801 0.798555
Si Si4 0.423561 0.124825 0.652166
Si Si5 0.326277 0.973242 0.421445
Si Si6 0.841602 0.921541 0.150410
Si Si7 0.153458 0.382823 0.316794
Si Si8 0.322477 0.869236 0.824110
O O1 0.440177 0.503776 0.704648
O O2 0.217885 0.483870 0.675163
O O3 0.202749 0.237196 0.776510
O O4 0.880489 0.055197 0.480138
O O5 0.592437 0.482970 0.500900
O O6 0.425432 0.174387 0.375482
O O7 0.097054 0.107476 0.192962
O O8 0.320126 0.747010 0.794990
O O9 0.999355 0.305555 0.746408
O O10 0.551554 0.715002 0.965948
O O11 0.372442 0.014985 0.552146
O O12 0.477438 0.088349 0.792127
O O13 0.700485 0.434163 0.730720
O O14 0.500000 0.000000 0.500000
O O15 0.913327 0.094362 0.211857
O O16 0.996473 0.349725 0.293440
O O17 0.500000 0.000000 0.000000
#
# Coordination Sequence:
#
# PCOD8020578 Si02
#       8
#     2   2   2   2   2   2   2   2
#     4  11  24  41  69  99 129 180 223 274 335 399
#     4  11  23  41  66 101 130 173 231 271 330 397
#     4  11  24  44  67  95 143 172 215 286 334 399
#     4  10  23  42  70 100 128 172 229 277 332 394
#     4  10  22  42  70 101 132 179 223 278 329 398
#     4  12  24  45  64  98 141 178 219 275 333 397
#     4  11  23  45  69  96 137 173 226 279 325 403
#     4  12  25  46  67 100 134 176 223 280 344 394
#
# _framework density 21.583528000000001
#
# number of rings (size 3 to 8) (size 9 to 14) (size 15 to 20)
#    0.000    1.000    6.250    2.250    1.750    3.500 
#    0.000    0.000    0.000    0.000    0.000    0.000 
#    0.000    0.000    0.000    0.000    0.000    0.000 
#
# Total GULP energy -198255.425036 kJ/mol
# GULP energy per Si atom -12390.964065 kJ/mol
# Density = 2.153440 g / cm^3
# Si number density = 21.583528 Si / 1000 Ang^3
#
#
#
# Elastic Constant Matrix: (Units=GPa)
#
#
# Indices 1 2 3 4 5 6 
#
# 1 84.3214 47.7066 19.6630 -1.5333 21.6647 9.6383
# 2 47.7066 96.5752 17.6618 9.5257 -4.5437 22.3091
# 3 19.6630 17.6618 73.2881 21.1469 16.2947 5.4650
# 4 -1.5333 9.5257 21.1469 23.5494 4.3191 0.2471
# 5 21.6647 -4.5437 16.2947 4.3191 32.2797 7.6258
# 6 9.6383 22.3091 5.4650 0.2471 7.6258 43.0900
#
#
#
# Elastic Compliance Matrix: (Units=1/GPa)
#
#
# Indices 1 2 3 4 5 6 
#
# 1 0.028208 -0.017765 -0.003243 0.016206 -0.023713 0.007403
# 2 -0.017765 0.024403 -0.000718 -0.014008 0.020456 -0.012109
# 3 -0.003243 -0.000718 0.021242 -0.017861 -0.006162 -0.000404
# 4 0.016206 -0.014008 -0.017861 0.067859 -0.014832 0.008129
# 5 -0.023713 0.020456 -0.006162 -0.014832 0.058353 -0.014747
# 6 0.007403 -0.012109 -0.000404 0.008129 -0.014747 0.030435
#
#
# Mechanical properties :
#
#
# Convention : Reuss Voigt Hill
#
# Bulk Modulus (GPa) = 32.89387 47.13863 40.01625
# Shear Modulus (GPa) = 17.60039 31.06071 24.33055
#
# Velocity S-wave (km/s) = 2.85871 3.79765 3.36113
# Velocity P-wave (km/s) = 5.11563 6.41226 5.80029
#
# Compressibility (1/GPa) = 0.03040080
#
# Stress axis : x y z
#
# Youngs Moduli (GPa) = 35.45130 40.97845 47.07736
#
# Poissons Ratio (x) = 0.72800 0.15266
# Poissons Ratio (y) = 0.62981 0.03379
# Poissons Ratio (z) = 0.11496 0.02941
#
# Static dielectric constant tensor:
#      x y z
#    x 3.956900 0.089780 0.215320 
#    y 0.089780 4.110710 0.268570 
#    z 0.215320 0.268570 3.888370 
# 
# 
# High freq. dielectric constant tensor:
#      x y z
#    x 1.848230 0.002760 0.014850 
#    y 0.002760 1.851690 0.018910 
#    z 0.014850 0.018910 1.836890 
# 
# From -- ./inp_files/471944.got.cif
#   From: 2010.06.25/outbox.cif.g09.slc.cpg/sg2_236_cif.got.tgz:471944.got - 2010.06.27 13:26:56.
