data_PCOD8020335
_publ_section_title
;
Structure prediction by ZEFSAII (Michael W. Deem and Ramdas Pophale) SiO2 
 PCOD8020335
Probable space group: P -1
;
_chemical_formula_sum "Si O2"
_cell_formula_units_Z 12
_cell_length_a 12.726631
_cell_length_b 6.739083
_cell_length_c 13.490156
_cell_angle_alpha 130.108479
_cell_angle_beta 41.083350
_cell_angle_gamma 136.355161
_cell_volume 512.165828
_symmetry_space_group_name_H-M "P -1"
_symmetry_group_IT_number 2
_symmetry_cell_setting 'triclinic'
loop_
_space_group_symop_operation_xyz
x,y,z
-x,-y,-z
loop_
_atom_site_type_symbol
_atom_site_label
_atom_site_fract_x
_atom_site_fract_y
_atom_site_fract_z
Si Si1 0.952975 0.694005 0.670597
Si Si2 0.524903 0.641879 0.659998
Si Si3 0.192206 0.361679 0.678547
Si Si4 0.582298 0.413859 0.067816
Si Si5 0.550867 0.230408 0.824834
Si Si6 0.985354 0.695885 0.874486
O O1 0.033441 0.705665 0.726935
O O2 0.000000 0.500000 0.500000
O O3 0.735620 0.539751 0.782928
O O4 0.031602 0.026661 0.680923
O O5 0.319145 0.408375 0.699863
O O6 0.675837 0.560753 0.486159
O O7 0.545345 0.673665 0.773517
O O8 0.568798 0.956249 0.680827
O O9 0.111527 0.590494 0.810991
O O10 0.599743 0.725215 0.114986
O O11 0.495478 0.172780 0.963177
O O12 0.779435 0.451865 0.964397
O O13 0.000000 0.000000 0.000000
#
# Coordination Sequence:
#
# PCOD8020335 Si02
#       6
#     2   2   2   2   2   2
#     4  11  24  44  67 100 135 174 221 276 334 392
#     4  11  23  42  66  99 130 173 224 273 331 389
#     4  11  26  42  69  99 134 175 224 275 329 399
#     4  10  23  40  66  96 131 177 216 271 332 395
#     4  10  22  42  67  95 134 173 221 272 329 398
#     4  11  25  45  68  99 136 179 224 274 336 397
#
# _framework density 23.429912000000002
#
# number of rings (size 3 to 8) (size 9 to 14) (size 15 to 20)
#    0.000    1.333    1.667    2.500    2.333   10.000 
#    0.000    4.167    0.000    0.000    0.000    0.000 
#    0.000    0.000    0.000    0.000    0.000    0.000 
#
# Total GULP energy -148758.713847 kJ/mol
# GULP energy per Si atom -12396.559487 kJ/mol
# Density = 2.337658 g / cm^3
# Si number density = 23.429912 Si / 1000 Ang^3
#
#
#
# Elastic Constant Matrix: (Units=GPa)
#
#
# Indices 1 2 3 4 5 6 
#
# 1 70.6917 18.7317 42.6242 -2.4869 -5.6408 -1.3619
# 2 18.7317 98.7729 34.6376 21.2513 -0.8436 12.7515
# 3 42.6242 34.6376 130.5378 9.9155 11.2650 -10.6006
# 4 -2.4869 21.2513 9.9155 41.6121 -6.7537 -5.1151
# 5 -5.6408 -0.8436 11.2650 -6.7537 41.8013 0.2233
# 6 -1.3619 12.7515 -10.6006 -5.1151 0.2233 19.6136
#
#
#
# Elastic Compliance Matrix: (Units=1/GPa)
#
#
# Indices 1 2 3 4 5 6 
#
# 1 0.019232 -0.002518 -0.006355 0.004859 0.005038 0.000747
# 2 -0.002518 0.015883 -0.003875 -0.009246 -0.000389 -0.015002
# 3 -0.006355 -0.003875 0.011882 -0.000913 -0.004330 0.008311
# 4 0.004859 -0.009246 -0.000913 0.031938 0.005800 0.014118
# 5 0.005038 -0.000389 -0.004330 0.005800 0.026701 -0.000529
# 6 0.000747 -0.015002 0.008311 0.014118 -0.000529 0.068970
#
#
# Mechanical properties :
#
#
# Convention : Reuss Voigt Hill
#
# Bulk Modulus (GPa) = 46.50673 54.66549 50.58611
# Shear Modulus (GPa) = 24.12321 34.20599 29.16460
#
# Velocity S-wave (km/s) = 3.21220 3.82505 3.53194
# Velocity P-wave (km/s) = 5.80087 6.54905 6.18628
#
# Compressibility (1/GPa) = 0.02150226
#
# Stress axis : x y z
#
# Youngs Moduli (GPa) = 51.99627 62.95917 84.16240
#
# Poissons Ratio (x) = 0.15851 0.53485
# Poissons Ratio (y) = 0.13091 0.32612
# Poissons Ratio (z) = 0.33043 0.24396
#
# Static dielectric constant tensor:
#      x y z
#    x 4.137090 0.052470 0.059980 
#    y 0.052470 4.014650 0.058330 
#    z 0.059980 0.058330 4.375780 
# 
# 
# High freq. dielectric constant tensor:
#      x y z
#    x 1.917850 0.002680 0.000070 
#    y 0.002680 1.917970 0.008470 
#    z 0.000070 0.008470 1.943050 
# 
# From -- ./inp_files/32498.got.cif
#   From: 2010.06.25/outbox.cif.g09.slc.cpg/sg2_17_cif.got.tgz:32498.got - 2010.06.27 13:26:56.
