data_PCOD8020080
_publ_section_title
;
Structure prediction by ZEFSAII (Michael W. Deem and Ramdas Pophale) SiO2 
 PCOD8020080
Probable space group: P -1
;
_chemical_formula_sum "Si O2"
_cell_formula_units_Z 16
_cell_length_a 11.974654
_cell_length_b 24.607389
_cell_length_c 5.411154
_cell_angle_alpha 63.493695
_cell_angle_beta 116.122407
_cell_angle_gamma 147.904192
_cell_volume 751.634611
_symmetry_space_group_name_H-M "P -1"
_symmetry_group_IT_number 2
_symmetry_cell_setting 'triclinic'
loop_
_space_group_symop_operation_xyz
x,y,z
-x,-y,-z
loop_
_atom_site_type_symbol
_atom_site_label
_atom_site_fract_x
_atom_site_fract_y
_atom_site_fract_z
Si Si1 0.007060 0.260516 0.467158
Si Si2 0.441725 0.864975 0.701267
Si Si3 0.624720 0.986222 0.136910
Si Si4 0.522343 0.352478 0.178071
Si Si5 0.274033 0.666829 0.847982
Si Si6 0.664156 0.512391 0.687756
Si Si7 0.151311 0.518359 0.374955
Si Si8 0.921527 0.783243 0.877083
O O1 0.755503 0.166787 0.439406
O O2 0.105832 0.366123 0.300511
O O3 0.062460 0.244844 0.309185
O O4 0.097799 0.267162 0.795418
O O5 0.581103 0.931475 0.456788
O O6 0.370941 0.767559 0.832764
O O7 0.562338 0.924544 0.955086
O O8 0.875917 0.094006 0.142972
O O9 0.500000 0.000000 0.000000
O O10 0.528355 0.299877 0.092443
O O11 0.738035 0.419304 0.391709
O O12 0.290367 0.259273 0.265449
O O13 0.567649 0.440317 0.974978
O O14 0.086817 0.604012 0.587160
O O15 0.141865 0.580056 0.106506
O O16 0.500000 0.500000 0.500000
O O17 0.684992 0.467487 0.598629
#
# Coordination Sequence:
#
# PCOD8020080 Si02
#       8
#     2   2   2   2   2   2   2   2
#     4  12  23  40  68 101 136 173 215 275 339 412
#     4  12  24  44  73  99 134 171 225 285 330 399
#     4  12  24  44  70 102 132 171 223 285 345 394
#     4  11  25  41  66  92 141 185 214 280 319 409
#     4  10  24  43  64  98 129 181 227 266 328 397
#     4  11  22  37  61 102 137 170 217 264 341 400
#     4  10  22  42  65  92 136 176 225 266 326 402
#     4  12  26  43  67  98 138 174 221 275 347 393
#
# _framework density 21.286939
#
# number of rings (size 3 to 8) (size 9 to 14) (size 15 to 20)
#    0.000    0.750    5.000    2.250    5.250    2.000 
#    0.000    1.250    0.000    0.000    0.000    0.000 
#    0.000    0.000    0.000    0.000    0.000    0.000 
#
# Total GULP energy -198212.217779 kJ/mol
# GULP energy per Si atom -12388.263611 kJ/mol
# Density = 2.123849 g / cm^3
# Si number density = 21.286939 Si / 1000 Ang^3
#
#
#
# Elastic Constant Matrix: (Units=GPa)
#
#
# Indices 1 2 3 4 5 6 
#
# 1 102.9559 53.7253 48.3212 -3.9464 -4.3674 -5.1810
# 2 53.7253 130.4587 38.6630 -4.9058 -9.8278 -6.1120
# 3 48.3212 38.6630 92.4746 1.3330 -14.3402 -11.1523
# 4 -3.9464 -4.9058 1.3330 27.2239 -2.4572 1.2350
# 5 -4.3674 -9.8278 -14.3402 -2.4572 32.0864 -0.9820
# 6 -5.1810 -6.1120 -11.1523 1.2350 -0.9820 34.8627
#
#
#
# Elastic Compliance Matrix: (Units=1/GPa)
#
#
# Indices 1 2 3 4 5 6 
#
# 1 0.014943 -0.004388 -0.006403 0.001534 -0.002076 -0.000710
# 2 -0.004388 0.010177 -0.001608 0.001422 0.001929 0.000621
# 3 -0.006403 -0.001608 0.016280 -0.001672 0.005912 0.004200
# 4 0.001534 0.001422 -0.001672 0.037599 0.002736 -0.001312
# 5 -0.002076 0.001929 0.005912 0.002736 0.034411 0.002793
# 6 -0.000710 0.000621 0.004200 -0.001312 0.002793 0.030156
#
#
# Mechanical properties :
#
#
# Convention : Reuss Voigt Hill
#
# Bulk Modulus (GPa) = 60.24103 67.47869 63.85986
# Shear Modulus (GPa) = 28.75226 31.17992 29.96609
#
# Velocity S-wave (km/s) = 3.67917 3.83135 3.75603
# Velocity P-wave (km/s) = 6.81244 7.16524 6.99107
#
# Compressibility (1/GPa) = 0.01659998
#
# Stress axis : x y z
#
# Youngs Moduli (GPa) = 66.92083 98.26126 61.42671
#
# Poissons Ratio (x) = 0.43118 0.39333
# Poissons Ratio (y) = 0.29366 0.09880
# Poissons Ratio (z) = 0.42851 0.15804
#
# Static dielectric constant tensor:
#      x y z
#    x 3.781830 0.108650 -0.082590 
#    y 0.108650 4.158560 0.081150 
#    z -0.082590 0.081150 4.095230 
# 
# 
# High freq. dielectric constant tensor:
#      x y z
#    x 1.843820 0.003810 -0.006740 
#    y 0.003810 1.838800 0.003740 
#    z -0.006740 0.003740 1.824170 
# 
# From -- ./inp_files/75478.got.cif
#   From: 2010.06.25/outbox.cif.g09.slc.cpg/sg2_38_cif.got.tgz:75478.got - 2010.06.27 13:26:56.
