data_PCOD8020288
_publ_section_title
;
Structure prediction by ZEFSAII (Michael W. Deem and Ramdas Pophale) SiO2 
 PCOD8020288
Probable space group: P -1
;
_chemical_formula_sum "Si O2"
_cell_formula_units_Z 16
_cell_length_a 7.986706
_cell_length_b 13.519367
_cell_length_c 9.651552
_cell_angle_alpha 83.506247
_cell_angle_beta 134.567408
_cell_angle_gamma 84.703792
_cell_volume 715.653070
_symmetry_space_group_name_H-M "P -1"
_symmetry_group_IT_number 2
_symmetry_cell_setting 'triclinic'
loop_
_space_group_symop_operation_xyz
x,y,z
-x,-y,-z
loop_
_atom_site_type_symbol
_atom_site_label
_atom_site_fract_x
_atom_site_fract_y
_atom_site_fract_z
Si Si1 0.083693 0.726050 0.506742
Si Si2 0.456075 0.536398 0.813365
Si Si3 0.422750 0.777792 0.463325
Si Si4 0.681482 0.333021 0.847016
Si Si5 0.816208 0.165837 0.181425
Si Si6 0.787653 0.684878 0.899297
Si Si7 0.703670 0.832389 0.083063
Si Si8 0.048738 0.974389 0.191517
O O1 0.182334 0.608433 0.632769
O O2 0.248882 0.735023 0.470110
O O3 0.099883 0.806777 0.623588
O O4 0.809391 0.753262 0.284504
O O5 0.482184 0.438334 0.744145
O O6 0.656296 0.596579 0.876594
O O7 0.500000 0.500000 0.000000
O O8 0.424027 0.729927 0.319426
O O9 0.693012 0.741776 0.688799
O O10 0.319762 0.901295 0.375051
O O11 0.745620 0.268222 0.033977
O O12 0.926162 0.362629 0.933356
O O13 0.030522 0.078970 0.250463
O O14 0.579337 0.119622 0.062418
O O15 0.727961 0.773555 0.962862
O O16 0.848744 0.920186 0.145803
O O17 0.000000 0.000000 0.000000
#
# Coordination Sequence:
#
# PCOD8020288 Si02
#       8
#     2   2   2   2   2   2   2   2
#     4  10  22  42  67  91 131 164 214 260 318 372
#     4  11  22  43  66  95 130 167 210 264 317 375
#     4  10  22  42  67  91 131 164 214 260 318 372
#     4  12  23  43  67  94 131 167 212 265 313 376
#     4  12  23  43  67  94 131 167 212 265 313 376
#     4  11  22  43  67  92 131 169 208 263 318 375
#     4  11  22  43  67  92 131 169 208 263 318 375
#     4  11  22  43  66  95 130 167 210 264 317 375
#
# _framework density 22.357201
#
# number of rings (size 3 to 8) (size 9 to 14) (size 15 to 20)
#    0.000    1.000    7.500    0.750    0.000    5.000 
#    4.500    2.500    0.000    0.000    0.000    0.000 
#    0.000    0.000    0.000    0.000    0.000    0.000 
#
# Total GULP energy -198382.023212 kJ/mol
# GULP energy per Si atom -12398.876451 kJ/mol
# Density = 2.230631 g / cm^3
# Si number density = 22.357201 Si / 1000 Ang^3
#
#
#
# Elastic Constant Matrix: (Units=GPa)
#
#
# Indices 1 2 3 4 5 6 
#
# 1 43.0870 17.6724 16.6051 -0.3805 -6.5927 -15.0545
# 2 17.6724 111.8754 27.0005 -11.8849 7.4370 -30.7843
# 3 16.6051 27.0005 128.1225 -11.7025 -0.0822 -16.4420
# 4 -0.3805 -11.8849 -11.7025 36.4192 1.0415 -4.4273
# 5 -6.5927 7.4370 -0.0822 1.0415 26.9035 -4.5905
# 6 -15.0545 -30.7843 -16.4420 -4.4273 -4.5905 40.8598
#
#
#
# Elastic Compliance Matrix: (Units=1/GPa)
#
#
# Indices 1 2 3 4 5 6 
#
# 1 0.029714 -0.002229 -0.002187 -0.000246 0.009509 0.009430
# 2 -0.002229 0.012537 -0.000812 0.004922 -0.002751 0.008522
# 3 -0.002187 -0.000812 0.008834 0.002848 0.000023 0.002448
# 4 -0.000246 0.004922 0.002848 0.030983 -0.001250 0.007980
# 5 0.009509 -0.002751 0.000023 -0.001250 0.041324 0.005948
# 6 0.009430 0.008522 0.002448 0.007980 0.005948 0.036887
#
#
# Mechanical properties :
#
#
# Convention : Reuss Voigt Hill
#
# Bulk Modulus (GPa) = 24.61346 45.07120 34.84233
# Shear Modulus (GPa) = 27.13288 35.62362 31.37825
#
# Velocity S-wave (km/s) = 3.48747 3.99605 3.75039
# Velocity P-wave (km/s) = 5.22012 6.44163 5.86277
#
# Compressibility (1/GPa) = 0.04062818
#
# Stress axis : x y z
#
# Youngs Moduli (GPa) = 33.65432 79.76216 113.19993
#
# Poissons Ratio (x) = 0.17781 0.24761
# Poissons Ratio (y) = 0.07503 0.09189
# Poissons Ratio (z) = 0.07362 0.06475
#
# Static dielectric constant tensor:
#      x y z
#    x 4.717160 -0.027870 0.250060 
#    y -0.027870 4.199490 -0.330590 
#    z 0.250060 -0.330590 4.626920 
# 
# 
# High freq. dielectric constant tensor:
#      x y z
#    x 1.874030 -0.014430 -0.012270 
#    y -0.014430 1.877730 -0.007860 
#    z -0.012270 -0.007860 1.888200 
# 
# From -- ./inp_files/187977.got.cif
#   From: 2010.06.25/outbox.cif.g09.slc.cpg/sg2_94_cif.got.tgz:187977.got - 2010.06.27 13:26:56.
