data_PCOD8020924
_publ_section_title
;
Structure prediction by ZEFSAII (Michael W. Deem and Ramdas Pophale) SiO2 
 PCOD8020924
Probable space group: P -1
;
_chemical_formula_sum "Si O2"
_cell_formula_units_Z 16
_cell_length_a 16.567992
_cell_length_b 8.865514
_cell_length_c 9.438466
_cell_angle_alpha 109.712825
_cell_angle_beta 145.405823
_cell_angle_gamma 79.107621
_cell_volume 730.713689
_symmetry_space_group_name_H-M "P -1"
_symmetry_group_IT_number 2
_symmetry_cell_setting 'triclinic'
loop_
_space_group_symop_operation_xyz
x,y,z
-x,-y,-z
loop_
_atom_site_type_symbol
_atom_site_label
_atom_site_fract_x
_atom_site_fract_y
_atom_site_fract_z
Si Si1 0.666666 0.772923 0.994909
Si Si2 0.929907 0.976215 0.543982
Si Si3 0.054488 0.319518 0.330130
Si Si4 0.915639 0.742057 0.968231
Si Si5 0.577002 0.208489 0.567535
Si Si6 0.380166 0.357299 0.829798
Si Si7 0.365373 0.134718 0.477725
Si Si8 0.179384 0.488576 0.007377
O O1 0.562389 0.823283 0.743526
O O2 0.758771 0.931224 0.253268
O O3 0.572214 0.677654 0.953519
O O4 0.781770 0.667908 0.065617
O O5 0.984048 0.834084 0.669887
O O6 0.000000 0.000000 0.500000
O O7 0.960918 0.142463 0.729398
O O8 0.026351 0.266658 0.109167
O O9 0.220270 0.407045 0.616557
O O10 0.943713 0.444066 0.240812
O O11 0.767752 0.814475 0.782470
O O12 0.881354 0.566161 0.940884
O O13 0.515402 0.205996 0.637649
O O14 0.663925 0.060893 0.622549
O O15 0.677085 0.377251 0.729652
O O16 0.375267 0.201352 0.672594
O O17 0.500000 0.500000 0.000000
#
# Coordination Sequence:
#
# PCOD8020924 Si02
#       8
#     2   2   2   2   2   2   2   2
#     4  11  24  40  64  96 130 172 209 268 328 376
#     4  11  21  42  63  89 131 165 209 268 324 383
#     4  10  25  41  66  97 124 173 222 257 325 388
#     4  11  22  43  67  90 130 170 216 274 320 377
#     4  11  23  40  68  93 127 170 226 265 313 384
#     4  10  23  43  66  93 135 166 204 268 331 382
#     4  10  22  43  65  95 122 176 223 259 320 384
#     4  12  23  40  67  97 130 169 225 266 318 383
#
# _framework density 21.896401000000001
#
# number of rings (size 3 to 8) (size 9 to 14) (size 15 to 20)
#    0.000    1.250    2.500    2.625    3.500    5.500 
#    2.250    1.250    0.000    0.000    0.000    0.000 
#    0.000    0.000    0.000    0.000    0.000    0.000 
#
# Total GULP energy -198415.137172 kJ/mol
# GULP energy per Si atom -12400.946073 kJ/mol
# Density = 2.184656 g / cm^3
# Si number density = 21.896401 Si / 1000 Ang^3
#
#
#
# Elastic Constant Matrix: (Units=GPa)
#
#
# Indices 1 2 3 4 5 6 
#
# 1 87.9710 21.9675 18.5864 -6.8339 -4.9933 29.6136
# 2 21.9675 86.8299 31.1211 -7.6916 9.9342 17.8083
# 3 18.5864 31.1211 79.7552 2.9619 2.2685 5.5309
# 4 -6.8339 -7.6916 2.9619 36.3707 5.4574 5.5892
# 5 -4.9933 9.9342 2.2685 5.4574 33.8041 -5.0905
# 6 29.6136 17.8083 5.5309 5.5892 -5.0905 41.4787
#
#
#
# Elastic Compliance Matrix: (Units=1/GPa)
#
#
# Indices 1 2 3 4 5 6 
#
# 1 0.016512 -0.000132 -0.003158 0.005169 0.000048 -0.012001
# 2 -0.000132 0.016616 -0.005944 0.006192 -0.006693 -0.007903
# 3 -0.003158 -0.005944 0.015459 -0.003844 0.001381 0.003432
# 4 0.005169 0.006192 -0.003844 0.032989 -0.007817 -0.011241
# 5 0.000048 -0.006693 0.001381 -0.007817 0.033911 0.007870
# 6 -0.012001 -0.007903 0.003432 -0.011241 0.007870 0.038093
#
#
# Mechanical properties :
#
#
# Convention : Reuss Voigt Hill
#
# Bulk Modulus (GPa) = 33.20149 44.21178 38.70664
# Shear Modulus (GPa) = 27.45949 34.52277 30.99113
#
# Velocity S-wave (km/s) = 3.54512 3.97500 3.76620
# Velocity P-wave (km/s) = 5.65270 6.42672 6.05210
#
# Compressibility (1/GPa) = 0.03011913
#
# Stress axis : x y z
#
# Youngs Moduli (GPa) = 60.56306 60.18380 64.68632
#
# Poissons Ratio (x) = 0.00794 0.20425
# Poissons Ratio (y) = 0.00799 0.38452
# Poissons Ratio (z) = 0.19123 0.35776
#
# Static dielectric constant tensor:
#      x y z
#    x 4.216390 0.215890 -0.097770 
#    y 0.215890 4.000930 -0.041370 
#    z -0.097770 -0.041370 4.011590 
# 
# 
# High freq. dielectric constant tensor:
#      x y z
#    x 1.874590 0.017160 -0.005400 
#    y 0.017160 1.850950 -0.000470 
#    z -0.005400 -0.000470 1.860130 
# 
# From -- ./inp_files/298791.got.cif
#   From: 2010.06.25/outbox.cif.g09.slc.cpg/sg2_150_cif.got.tgz:298791.got - 2010.06.27 13:26:56.
