data_PCOD8020755
_publ_section_title
;
Structure prediction by ZEFSAII (Michael W. Deem and Ramdas Pophale) SiO2 
 PCOD8020755
Probable space group: P -1
;
_chemical_formula_sum "Si O2"
_cell_formula_units_Z 16
_cell_length_a 26.688782
_cell_length_b 14.226623
_cell_length_c 9.262930
_cell_angle_alpha 134.289437
_cell_angle_beta 35.504281
_cell_angle_gamma 159.806919
_cell_volume 666.064291
_symmetry_space_group_name_H-M "P -1"
_symmetry_group_IT_number 2
_symmetry_cell_setting 'triclinic'
loop_
_space_group_symop_operation_xyz
x,y,z
-x,-y,-z
loop_
_atom_site_type_symbol
_atom_site_label
_atom_site_fract_x
_atom_site_fract_y
_atom_site_fract_z
Si Si1 0.186944 0.775119 0.266172
Si Si2 0.113697 0.286656 0.514756
Si Si3 0.308150 0.924147 0.679299
Si Si4 0.503686 0.461201 0.782538
Si Si5 0.417313 0.586139 0.920983
Si Si6 0.972009 0.333885 0.737267
Si Si7 0.782870 0.688288 0.206183
Si Si8 0.296051 0.644959 0.758806
O O1 0.132369 0.823234 0.340188
O O2 0.000000 0.500000 0.500000
O O3 0.374226 0.071770 0.231416
O O4 0.232869 0.707326 0.995220
O O5 0.185458 0.433857 0.657574
O O6 0.968731 0.194359 0.685010
O O7 0.286980 0.509042 0.234700
O O8 0.000000 0.000000 0.500000
O O9 0.185867 0.681530 0.583231
O O10 0.377736 0.161794 0.723926
O O11 0.478161 0.061170 0.482297
O O12 0.158696 0.732576 0.953208
O O13 0.421762 0.461397 0.872362
O O14 0.715858 0.705784 0.500414
O O15 0.500000 0.500000 0.000000
O O16 0.331908 0.441981 0.811037
O O17 0.749841 0.497462 0.139657
O O18 0.000000 0.000000 0.000000
#
# Coordination Sequence:
#
# PCOD8020755 Si02
#       8
#     2   2   2   2   2   2   2   2
#     4  12  30  46  72 103 152 203 254 306 373 441
#     4  12  26  47  79 114 147 190 251 311 380 451
#     4  10  22  42  74 105 142 189 238 313 373 433
#     4  11  24  46  75 107 152 193 256 307 375 448
#     4  12  27  46  74 108 150 202 247 310 381 446
#     4  11  24  43  72 107 148 185 250 302 370 445
#     4  11  27  46  74 106 151 195 247 310 381 449
#     4  11  25  48  72 103 150 191 247 310 371 445
#
# _framework density 24.021704
#
# number of rings (size 3 to 8) (size 9 to 14) (size 15 to 20)
#    0.000    0.750    0.000    7.125    7.000    6.000 
#    0.000    0.000    0.000    0.000    0.000    0.000 
#    0.000    0.000    0.000    0.000    0.000    0.000 
#
# Total GULP energy -198363.004374 kJ/mol
# GULP energy per Si atom -12397.687773 kJ/mol
# Density = 2.396703 g / cm^3
# Si number density = 24.021704 Si / 1000 Ang^3
#
#
#
# Elastic Constant Matrix: (Units=GPa)
#
#
# Indices 1 2 3 4 5 6 
#
# 1 164.8691 48.0795 59.5546 -1.2762 -5.6254 11.8236
# 2 48.0795 138.6734 66.4984 -11.9565 -4.2381 16.4868
# 3 59.5546 66.4984 144.4552 -16.8476 -7.4001 10.6714
# 4 -1.2762 -11.9565 -16.8476 42.0768 0.4725 -7.5681
# 5 -5.6254 -4.2381 -7.4001 0.4725 34.1541 2.9033
# 6 11.8236 16.4868 10.6714 -7.5681 2.9033 37.2509
#
#
#
# Elastic Compliance Matrix: (Units=1/GPa)
#
#
# Indices 1 2 3 4 5 6 
#
# 1 0.007466 -0.001327 -0.002494 -0.001409 0.000664 -0.001406
# 2 -0.001327 0.009837 -0.003664 0.000787 0.000432 -0.002757
# 3 -0.002494 -0.003664 0.010038 0.002893 0.001267 0.000027
# 4 -0.001409 0.000787 0.002893 0.025928 -0.000254 0.004558
# 5 0.000664 0.000432 0.001267 -0.000254 0.029988 -0.003154
# 6 -0.001406 -0.002757 0.000027 0.004558 -0.003154 0.029675
#
#
# Mechanical properties :
#
#
# Convention : Reuss Voigt Hill
#
# Bulk Modulus (GPa) = 80.82835 88.47362 84.65099
# Shear Modulus (GPa) = 37.87199 40.95406 39.41302
#
# Velocity S-wave (km/s) = 3.97492 4.13350 4.05498
# Velocity P-wave (km/s) = 7.40187 7.72604 7.56569
#
# Compressibility (1/GPa) = 0.01237190
#
# Stress axis : x y z
#
# Youngs Moduli (GPa) = 133.94679 101.65831 99.62618
#
# Poissons Ratio (x) = 0.13487 0.24843
# Poissons Ratio (y) = 0.17771 0.36501
# Poissons Ratio (z) = 0.33401 0.37245
#
# Static dielectric constant tensor:
#      x y z
#    x 4.627470 0.138640 -0.135550 
#    y 0.138640 4.550350 -0.218060 
#    z -0.135550 -0.218060 4.715030 
# 
# 
# High freq. dielectric constant tensor:
#      x y z
#    x 1.965180 -0.000950 -0.012250 
#    y -0.000950 1.959450 -0.012610 
#    z -0.012250 -0.012610 1.960240 
# 
# From -- ./inp_files/357424.got.cif
#   From: 2010.06.25/outbox.cif.g09.slc.cpg/sg2_179_cif.got.tgz:357424.got - 2010.06.27 13:26:56.
