data_PCOD8020255
_publ_section_title
;
Structure prediction by ZEFSAII (Michael W. Deem and Ramdas Pophale) SiO2 
 PCOD8020255
Probable space group: P -1
;
_chemical_formula_sum "Si O2"
_cell_formula_units_Z 14
_cell_length_a 15.490455
_cell_length_b 24.686737
_cell_length_c 5.304469
_cell_angle_alpha 117.022690
_cell_angle_beta 106.958313
_cell_angle_gamma 21.107223
_cell_volume 592.924247
_symmetry_space_group_name_H-M "P -1"
_symmetry_group_IT_number 2
_symmetry_cell_setting 'triclinic'
loop_
_space_group_symop_operation_xyz
x,y,z
-x,-y,-z
loop_
_atom_site_type_symbol
_atom_site_label
_atom_site_fract_x
_atom_site_fract_y
_atom_site_fract_z
Si Si1 0.880873 0.029456 0.766059
Si Si2 0.749526 0.383955 0.925702
Si Si3 0.594168 0.285961 0.667859
Si Si4 0.962688 0.776845 0.661785
Si Si5 0.063103 0.346413 0.654288
Si Si6 0.632435 0.812737 0.919331
Si Si7 0.573968 0.718775 0.824832
O O1 0.664914 0.205029 0.804970
O O2 0.697624 0.091556 0.853626
O O3 0.139269 0.842669 0.442486
O O4 0.000000 0.000000 0.000000
O O5 0.649359 0.516002 0.081490
O O6 0.930592 0.263073 0.070666
O O7 0.500000 0.500000 0.000000
O O8 0.910980 0.266246 0.559041
O O9 0.499845 0.295994 0.410506
O O10 0.038727 0.658053 0.451455
O O11 0.650747 0.980642 0.826001
O O12 0.185050 0.281675 0.894742
O O13 0.824302 0.545454 0.845685
O O14 0.268754 0.225207 0.344503
O O15 0.633700 0.738525 0.741757
#
# Coordination Sequence:
#
# PCOD8020255 Si02
#       7
#     2   2   2   2   2   2   2
#     4   9  21  38  65  98 133 181 222 281 349 425
#     4  12  27  45  76 105 141 183 237 281 347 433
#     4  10  22  42  67 100 140 185 229 280 359 422
#     4  12  26  50  73 101 144 191 226 293 353 411
#     4  12  25  48  71 103 141 187 241 286 351 411
#     4  12  28  44  73 106 139 183 246 293 340 408
#     4  11  24  41  72  99 143 177 231 293 357 401
#
# _framework density 23.611784
#
# number of rings (size 3 to 8) (size 9 to 14) (size 15 to 20)
#    0.000    0.857    1.429    4.714    8.000    3.429 
#    0.000    0.000    0.000    0.000    0.000    0.000 
#    0.000    0.000    0.000    0.000    0.000    0.000 
#
# Total GULP energy -173517.697952 kJ/mol
# GULP energy per Si atom -12394.121282 kJ/mol
# Density = 2.355804 g / cm^3
# Si number density = 23.611784 Si / 1000 Ang^3
#
#
#
# Elastic Constant Matrix: (Units=GPa)
#
#
# Indices 1 2 3 4 5 6 
#
# 1 62.3271 3.7754 10.8119 9.5638 -18.5592 -20.7303
# 2 3.7754 108.7760 19.1726 -11.2496 -2.4605 -4.6564
# 3 10.8119 19.1726 88.1504 3.9186 -29.4194 -7.5067
# 4 9.5638 -11.2496 3.9186 30.6945 2.3607 0.7008
# 5 -18.5592 -2.4605 -29.4194 2.3607 41.1407 7.3417
# 6 -20.7303 -4.6564 -7.5067 0.7008 7.3417 26.0025
#
#
#
# Elastic Compliance Matrix: (Units=1/GPa)
#
#
# Indices 1 2 3 4 5 6 
#
# 1 0.027038 -0.001473 0.002909 -0.010649 0.011373 0.019208
# 2 -0.001473 0.010244 -0.003101 0.004802 -0.002611 0.000373
# 3 0.002909 -0.003101 0.016346 -0.005166 0.012564 0.003075
# 4 -0.010649 0.004802 -0.005166 0.039190 -0.009102 -0.007608
# 5 0.011373 -0.002611 0.012564 -0.009102 0.038502 0.001601
# 6 0.019208 0.000373 0.003075 -0.007608 0.001601 0.054479
#
#
# Mechanical properties :
#
#
# Convention : Reuss Voigt Hill
#
# Bulk Modulus (GPa) = 19.88113 36.30816 28.09465
# Shear Modulus (GPa) = 24.28414 34.60043 29.44228
#
# Velocity S-wave (km/s) = 3.21046 3.83219 3.53502
# Velocity P-wave (km/s) = 4.70968 5.91536 5.34661
#
# Compressibility (1/GPa) = 0.05029894
#
# Stress axis : x y z
#
# Youngs Moduli (GPa) = 36.98474 97.61503 61.17592
#
# Poissons Ratio (x) = 0.14378 -0.17794
# Poissons Ratio (y) = 0.05448 0.18968
# Poissons Ratio (z) = -0.10757 0.30266
#
# Static dielectric constant tensor:
#      x y z
#    x 4.339270 -0.125010 -0.477370 
#    y -0.125010 4.489810 0.374250 
#    z -0.477370 0.374250 4.714940 
# 
# 
# High freq. dielectric constant tensor:
#      x y z
#    x 1.936140 -0.005780 -0.020530 
#    y -0.005780 1.954410 0.006650 
#    z -0.020530 0.006650 1.936050 
# 
# From -- ./inp_files/70161.got.cif
#   From: 2010.06.25/outbox.cif.g09.slc.cpg/sg2_36_cif.got.tgz:70161.got - 2010.06.27 13:26:56.
