data_PCOD8020451
_publ_section_title
;
Structure prediction by ZEFSAII (Michael W. Deem and Ramdas Pophale) SiO2 
 PCOD8020451
Probable space group: P -1
;
_chemical_formula_sum "Si O2"
_cell_formula_units_Z 16
_cell_length_a 16.614337
_cell_length_b 23.508225
_cell_length_c 5.133281
_cell_angle_alpha 105.216137
_cell_angle_beta 103.429719
_cell_angle_gamma 20.662622
_cell_volume 682.141576
_symmetry_space_group_name_H-M "P -1"
_symmetry_group_IT_number 2
_symmetry_cell_setting 'triclinic'
loop_
_space_group_symop_operation_xyz
x,y,z
-x,-y,-z
loop_
_atom_site_type_symbol
_atom_site_label
_atom_site_fract_x
_atom_site_fract_y
_atom_site_fract_z
Si Si1 0.222800 0.811299 0.936680
Si Si2 0.302521 0.242982 0.411579
Si Si3 0.301156 0.456934 0.091114
Si Si4 0.693979 0.320021 0.671706
Si Si5 0.816484 0.787446 0.979596
Si Si6 0.740867 0.909764 0.584776
Si Si7 0.786509 0.366625 0.481565
Si Si8 0.880009 0.533841 0.760553
O O1 0.447597 0.702204 0.039457
O O2 0.246299 0.764683 0.619393
O O3 0.201903 0.774516 0.097246
O O4 0.000000 0.000000 0.000000
O O5 0.303255 0.197184 0.112890
O O6 0.277096 0.326807 0.395952
O O7 0.086417 0.364187 0.564628
O O8 0.530231 0.091406 0.573229
O O9 0.268601 0.530041 0.361790
O O10 0.283359 0.404687 0.149428
O O11 0.090327 0.602038 0.902723
O O12 0.797869 0.315241 0.678170
O O13 0.419299 0.514155 0.726134
O O14 0.690452 0.910993 0.819098
O O15 0.775169 0.838768 0.298865
O O16 0.964707 0.801750 0.665085
O O17 0.000000 0.500000 0.000000
#
# Coordination Sequence:
#
# PCOD8020451 Si02
#       8
#     2   2   2   2   2   2   2   2
#     4  11  24  43  67 100 132 170 210 264 319 385
#     4  11  24  40  63  91 128 170 220 271 319 376
#     4  10  22  43  69  90 129 173 220 261 324 389
#     4  10  22  42  68  95 135 166 212 264 324 387
#     4  11  22  40  64  92 127 168 216 267 326 384
#     4  11  24  38  65  98 127 164 215 272 328 378
#     4   9  21  41  67  98 127 170 213 269 325 384
#     4  11  24  44  62  88 129 178 222 262 315 388
#
# _framework density 23.455539000000002
#
# number of rings (size 3 to 8) (size 9 to 14) (size 15 to 20)
#    0.000    1.500    1.250    3.375    1.750    8.500 
#    2.250    0.000    0.000    0.000    0.000    0.000 
#    0.000    0.000    0.000    0.000    0.000    0.000 
#
# Total GULP energy -198343.176072 kJ/mol
# GULP energy per Si atom -12396.448504 kJ/mol
# Density = 2.340215 g / cm^3
# Si number density = 23.455539 Si / 1000 Ang^3
#
#
#
# Elastic Constant Matrix: (Units=GPa)
#
#
# Indices 1 2 3 4 5 6 
#
# 1 97.8443 18.8863 -5.6263 -0.3059 -2.5453 15.3254
# 2 18.8863 146.7176 -4.4827 -20.1066 -10.4979 8.8920
# 3 -5.6263 -4.4827 46.7620 -10.4945 -10.7798 9.2877
# 4 -0.3059 -20.1066 -10.4945 25.7954 2.2469 -7.0981
# 5 -2.5453 -10.4979 -10.7798 2.2469 22.8923 -12.5831
# 6 15.3254 8.8920 9.2877 -7.0981 -12.5831 28.7993
#
#
#
# Elastic Compliance Matrix: (Units=1/GPa)
#
#
# Indices 1 2 3 4 5 6 
#
# 1 0.011810 -0.001492 0.001730 -0.002327 -0.002831 -0.008192
# 2 -0.001492 0.008484 0.003347 0.007865 0.005261 0.001333
# 3 0.001730 0.003347 0.028009 0.012238 0.012284 -0.002603
# 4 -0.002327 0.007865 0.012238 0.052344 0.010846 0.012503
# 5 -0.002831 0.005261 0.012284 0.010846 0.065445 0.027188
# 6 -0.008192 0.001333 -0.002603 0.012503 0.027188 0.054472
#
#
# Mechanical properties :
#
#
# Convention : Reuss Voigt Hill
#
# Bulk Modulus (GPa) = 18.02686 34.31982 26.17334
# Shear Modulus (GPa) = 21.56236 34.33383 27.94809
#
# Velocity S-wave (km/s) = 3.03526 3.83009 3.45561
# Velocity P-wave (km/s) = 4.47057 5.85005 5.20620
#
# Compressibility (1/GPa) = 0.05547279
#
# Stress axis : x y z
#
# Youngs Moduli (GPa) = 84.67297 117.87285 35.70234
#
# Poissons Ratio (x) = 0.17591 -0.06177
# Poissons Ratio (y) = 0.12636 -0.11949
# Poissons Ratio (z) = -0.14650 -0.39452
#
# Static dielectric constant tensor:
#      x y z
#    x 4.443390 -0.207120 0.016140 
#    y -0.207120 4.631000 -0.109900 
#    z 0.016140 -0.109900 4.024380 
# 
# 
# High freq. dielectric constant tensor:
#      x y z
#    x 1.929140 0.001410 -0.004470 
#    y 0.001410 1.933640 -0.008880 
#    z -0.004470 -0.008880 1.914500 
# 
# From -- ./inp_files/112918.got.cif
#   From: 2010.06.25/outbox.cif.g09.slc.cpg/sg2_57_cif.got.tgz:112918.got - 2010.06.27 13:26:56.
