data_PCOD8020796
_publ_section_title
;
Structure prediction by ZEFSAII (Michael W. Deem and Ramdas Pophale) SiO2 
 PCOD8020796
Probable space group: P -1
;
_chemical_formula_sum "Si O2"
_cell_formula_units_Z 16
_cell_length_a 14.370521
_cell_length_b 12.366164
_cell_length_c 5.615340
_cell_angle_alpha 110.873103
_cell_angle_beta 96.455775
_cell_angle_gamma 48.842511
_cell_volume 691.362157
_symmetry_space_group_name_H-M "P -1"
_symmetry_group_IT_number 2
_symmetry_cell_setting 'triclinic'
loop_
_space_group_symop_operation_xyz
x,y,z
-x,-y,-z
loop_
_atom_site_type_symbol
_atom_site_label
_atom_site_fract_x
_atom_site_fract_y
_atom_site_fract_z
Si Si1 0.239746 0.605743 0.393465
Si Si2 0.453086 0.363575 0.561560
Si Si3 0.541015 0.094669 0.037123
Si Si4 0.903701 0.597243 0.256107
Si Si5 0.679754 0.653330 0.114157
Si Si6 0.211434 0.991575 0.995491
Si Si7 0.015560 0.690534 0.660164
Si Si8 0.276164 0.811812 0.371391
O O1 0.377299 0.514570 0.485835
O O2 0.117559 0.697789 0.598508
O O3 0.221558 0.726487 0.299514
O O4 0.244251 0.476990 0.169494
O O5 0.334506 0.423450 0.734079
O O6 0.571375 0.322733 0.699716
O O7 0.504807 0.205692 0.331375
O O8 0.463550 0.197515 0.865563
O O9 0.688230 0.986375 0.940616
O O10 0.500000 0.000000 0.000000
O O11 0.758072 0.707132 0.221697
O O12 0.918178 0.475662 0.339503
O O13 0.922950 0.710337 0.451122
O O14 0.000000 0.500000 0.000000
O O15 0.225511 0.906112 0.180581
O O16 0.231969 0.906122 0.685238
O O17 0.073571 0.161874 0.074275
#
# Coordination Sequence:
#
# PCOD8020796 Si02
#       8
#     2   2   2   2   2   2   2   2
#     4  11  24  42  69  96 127 175 227 280 329 392
#     4  10  22  43  63 101 130 166 225 278 330 393
#     4  10  24  40  63  97 135 177 218 270 337 405
#     4  11  24  41  66  95 134 171 219 281 333 393
#     4  11  22  40  69  96 130 169 228 275 333 398
#     4  11  27  46  66 100 140 176 225 272 334 405
#     4  11  26  42  64  99 132 174 224 274 335 404
#     4  11  26  47  69  98 136 179 224 281 333 388
#
# _framework density 23.142717000000001
#
# number of rings (size 3 to 8) (size 9 to 14) (size 15 to 20)
#    0.000    1.250    3.750    0.375    7.000    3.000 
#    0.000    0.000    0.000    0.000    0.000    0.000 
#    0.000    0.000    0.000    0.000    0.000    0.000 
#
# Total GULP energy -198235.581930 kJ/mol
# GULP energy per Si atom -12389.723871 kJ/mol
# Density = 2.309004 g / cm^3
# Si number density = 23.142717 Si / 1000 Ang^3
#
#
#
# Elastic Constant Matrix: (Units=GPa)
#
#
# Indices 1 2 3 4 5 6 
#
# 1 109.1441 17.4086 7.4627 7.5310 -17.2325 3.2155
# 2 17.4086 57.1731 10.8238 4.6907 -5.3075 9.1602
# 3 7.4627 10.8238 67.3440 -8.6172 -16.0942 -8.4511
# 4 7.5310 4.6907 -8.6172 30.2349 -3.9977 -10.2023
# 5 -17.2325 -5.3075 -16.0942 -3.9977 36.7665 -1.5719
# 6 3.2155 9.1602 -8.4511 -10.2023 -1.5719 39.8855
#
#
#
# Elastic Compliance Matrix: (Units=1/GPa)
#
#
# Indices 1 2 3 4 5 6 
#
# 1 0.010383 -0.002519 -0.000032 -0.001831 0.004266 -0.000566
# 2 -0.002519 0.020879 -0.005265 -0.006854 -0.001538 -0.007521
# 3 -0.000032 -0.005265 0.020527 0.010916 0.009771 0.008738
# 4 -0.001831 -0.006854 0.010916 0.044094 0.008394 0.015644
# 5 0.004266 -0.001538 0.009771 0.008394 0.034405 0.005583
# 6 -0.000566 -0.007521 0.008738 0.015644 0.005583 0.032918
#
#
# Mechanical properties :
#
#
# Convention : Reuss Voigt Hill
#
# Bulk Modulus (GPa) = 27.65608 33.89461 30.77534
# Shear Modulus (GPa) = 26.19329 34.57512 30.38420
#
# Velocity S-wave (km/s) = 3.36790 3.86942 3.62733
# Velocity P-wave (km/s) = 5.20575 5.88565 5.55611
#
# Compressibility (1/GPa) = 0.03615841
#
# Stress axis : x y z
#
# Youngs Moduli (GPa) = 96.31516 47.89504 48.71530
#
# Poissons Ratio (x) = 0.12063 0.00154
# Poissons Ratio (y) = 0.24257 0.25649
# Poissons Ratio (z) = 0.00305 0.25217
#
# Static dielectric constant tensor:
#      x y z
#    x 4.303580 -0.132030 0.048240 
#    y -0.132030 4.282050 -0.242340 
#    z 0.048240 -0.242340 4.214470 
# 
# 
# High freq. dielectric constant tensor:
#      x y z
#    x 1.928140 -0.005220 -0.011640 
#    y -0.005220 1.903560 -0.006880 
#    z -0.011640 -0.006880 1.908840 
# 
# From -- ./inp_files/68999.got.cif
#   From: 2010.06.25/outbox.cif.g09.slc.cpg/sg2_35_cif.got.tgz:68999.got - 2010.06.27 13:26:56.
