data_PCOD8020800
_publ_section_title
;
Structure prediction by ZEFSAII (Michael W. Deem and Ramdas Pophale) SiO2 
 PCOD8020800
Probable space group: P -1
;
_chemical_formula_sum "Si O2"
_cell_formula_units_Z 16
_cell_length_a 19.566382
_cell_length_b 16.512072
_cell_length_c 6.360317
_cell_angle_alpha 102.349520
_cell_angle_beta 76.374934
_cell_angle_gamma 159.411226
_cell_volume 702.153955
_symmetry_space_group_name_H-M "P -1"
_symmetry_group_IT_number 2
_symmetry_cell_setting 'triclinic'
loop_
_space_group_symop_operation_xyz
x,y,z
-x,-y,-z
loop_
_atom_site_type_symbol
_atom_site_label
_atom_site_fract_x
_atom_site_fract_y
_atom_site_fract_z
Si Si1 0.731966 0.319104 0.582610
Si Si2 0.749470 0.907771 0.485550
Si Si3 0.516320 0.953860 0.774226
Si Si4 0.103116 0.800594 0.765470
Si Si5 0.991345 0.162941 0.843108
Si Si6 0.404291 0.543737 0.840803
Si Si7 0.199257 0.170189 0.930000
Si Si8 0.448501 0.125206 0.939616
O O1 0.683484 0.171869 0.615294
O O2 0.601103 0.240912 0.759936
O O3 0.957528 0.585730 0.610294
O O4 0.684218 0.274205 0.342892
O O5 0.539735 0.672328 0.616358
O O6 0.791316 0.866979 0.319151
O O7 0.752220 0.987984 0.369636
O O8 0.927954 0.121069 0.635129
O O9 0.500000 0.000000 0.000000
O O10 0.565871 0.920741 0.830742
O O11 0.235729 0.884052 0.853020
O O12 0.979264 0.725165 0.965545
O O13 0.194135 0.337114 0.782827
O O14 0.807409 0.904134 0.916735
O O15 0.377175 0.432735 0.950558
O O16 0.493836 0.714710 0.013434
O O17 0.000000 0.000000 0.000000
#
# Coordination Sequence:
#
# PCOD8020800 Si02
#       8
#     2   2   2   2   2   2   2   2
#     4  10  22  44  70  93 132 171 207 268 327 382
#     4  11  24  40  61  98 131 171 225 266 324 388
#     4   9  22  44  68  99 127 167 216 260 323 393
#     4  11  24  40  64  99 133 169 215 267 320 391
#     4  10  22  43  63  91 129 172 217 270 327 383
#     4  11  22  41  65  92 128 172 218 276 321 377
#     4   9  22  43  61  92 129 172 227 269 324 384
#     4  11  23  40  66  98 130 168 221 264 325 389
#
# _framework density 22.787023000000001
#
# number of rings (size 3 to 8) (size 9 to 14) (size 15 to 20)
#    0.000    1.750    2.500    0.375    3.500    3.000 
#    2.250    5.625    0.000    0.000    0.000    0.000 
#    0.000    0.000    0.000    0.000    0.000    0.000 
#
# Total GULP energy -198371.939009 kJ/mol
# GULP energy per Si atom -12398.246188 kJ/mol
# Density = 2.273516 g / cm^3
# Si number density = 22.787023 Si / 1000 Ang^3
#
#
#
# Elastic Constant Matrix: (Units=GPa)
#
#
# Indices 1 2 3 4 5 6 
#
# 1 51.6603 35.9731 34.0254 10.9059 19.3802 -4.7932
# 2 35.9731 128.0338 42.9512 16.9886 7.8789 -2.0037
# 3 34.0254 42.9512 114.2285 13.4997 11.7738 3.4259
# 4 10.9059 16.9886 13.4997 36.8019 12.2887 -8.0933
# 5 19.3802 7.8789 11.7738 12.2887 40.6909 1.1268
# 6 -4.7932 -2.0037 3.4259 -8.0933 1.1268 35.3174
#
#
#
# Elastic Compliance Matrix: (Units=1/GPa)
#
#
# Indices 1 2 3 4 5 6 
#
# 1 0.033328 -0.006451 -0.006428 0.001080 -0.013241 0.005451
# 2 -0.006451 0.010521 -0.001881 -0.003335 0.002613 -0.000944
# 3 -0.006428 -0.001881 0.011650 -0.002372 0.000845 -0.002680
# 4 0.001080 -0.003335 -0.002372 0.034375 -0.009796 0.008377
# 5 -0.013241 0.002613 0.000845 -0.009796 0.033229 -0.005036
# 6 0.005451 -0.000944 -0.002680 0.008377 -0.005036 0.031341
#
#
# Mechanical properties :
#
#
# Convention : Reuss Voigt Hill
#
# Bulk Modulus (GPa) = 38.49310 57.75800 48.12555
# Shear Modulus (GPa) = 25.95711 34.62689 30.29200
#
# Velocity S-wave (km/s) = 3.37874 3.90242 3.64998
# Velocity P-wave (km/s) = 5.67014 6.76070 6.23929
#
# Compressibility (1/GPa) = 0.02597868
#
# Stress axis : x y z
#
# Youngs Moduli (GPa) = 30.00454 95.04821 85.83614
#
# Poissons Ratio (x) = 0.61313 0.55177
# Poissons Ratio (y) = 0.19355 0.16149
# Poissons Ratio (z) = 0.19288 0.17882
#
# Static dielectric constant tensor:
#      x y z
#    x 4.462850 -0.347670 0.248560 
#    y -0.347670 4.082040 -0.077760 
#    z 0.248560 -0.077760 4.189420 
# 
# 
# High freq. dielectric constant tensor:
#      x y z
#    x 1.904010 -0.008220 0.002610 
#    y -0.008220 1.893680 0.003180 
#    z 0.002610 0.003180 1.897010 
# 
# From -- ./inp_files/120077.got.cif
#   From: 2010.06.25/outbox.cif.g09.slc.cpg/sg2_61_cif.got.tgz:120077.got - 2010.06.27 13:26:56.
