data_PCOD8020830
_publ_section_title
;
Structure prediction by ZEFSAII (Michael W. Deem and Ramdas Pophale) SiO2 
 PCOD8020830
Probable space group: P -1
;
_chemical_formula_sum "Si O2"
_cell_formula_units_Z 16
_cell_length_a 15.538013
_cell_length_b 6.112843
_cell_length_c 11.702306
_cell_angle_alpha 89.056273
_cell_angle_beta 43.687627
_cell_angle_gamma 68.963686
_cell_volume 663.679165
_symmetry_space_group_name_H-M "P -1"
_symmetry_group_IT_number 2
_symmetry_cell_setting 'triclinic'
loop_
_space_group_symop_operation_xyz
x,y,z
-x,-y,-z
loop_
_atom_site_type_symbol
_atom_site_label
_atom_site_fract_x
_atom_site_fract_y
_atom_site_fract_z
Si Si1 0.766819 0.131651 0.898364
Si Si2 0.533775 0.793072 0.873077
Si Si3 0.391274 0.791787 0.614032
Si Si4 0.832868 0.381876 0.649450
Si Si5 0.039555 0.412592 0.293080
Si Si6 0.053361 0.774174 0.111655
Si Si7 0.604561 0.827277 0.557677
Si Si8 0.157982 0.700016 0.777130
O O1 0.854823 0.131443 0.697529
O O2 0.797777 0.289676 0.964174
O O3 0.832437 0.845380 0.881263
O O4 0.597924 0.249154 0.034482
O O5 0.660636 0.529960 0.800117
O O6 0.598408 0.857275 0.698919
O O7 0.500000 0.000000 0.000000
O O8 0.500000 0.500000 0.500000
O O9 0.445893 0.883288 0.668661
O O10 0.234843 0.824874 0.776876
O O11 0.378605 0.946539 0.510160
O O12 0.886930 0.535344 0.671609
O O13 0.912725 0.353367 0.452290
O O14 0.980318 0.636151 0.253051
O O15 0.949651 0.081056 0.208668
O O16 0.077184 0.654955 0.961876
O O17 0.734413 0.554197 0.391917
#
# Coordination Sequence:
#
# PCOD8020830 Si02
#       8
#     2   2   2   2   2   2   2   2
#     4  11  23  44  66  98 134 181 220 280 339 398
#     4  12  25  45  67 101 135 176 227 281 331 399
#     4   9  20  42  65  98 130 174 218 274 332 403
#     4  10  23  44  64  97 133 175 228 267 340 396
#     4  10  22  43  68  96 134 179 219 280 330 405
#     4  10  24  40  69 100 135 172 226 281 338 390
#     4  10  23  42  68  96 134 180 220 270 347 396
#     4  10  22  43  64 101 130 173 226 279 329 407
#
# _framework density 24.108034
#
# number of rings (size 3 to 8) (size 9 to 14) (size 15 to 20)
#    0.000    1.750    1.250    1.500    3.500    4.000 
#    9.000    2.500    0.000    0.000    0.000    0.000 
#    0.000    0.000    0.000    0.000    0.000    0.000 
#
# Total GULP energy -198229.618568 kJ/mol
# GULP energy per Si atom -12389.351161 kJ/mol
# Density = 2.405316 g / cm^3
# Si number density = 24.108034 Si / 1000 Ang^3
#
#
#
# Elastic Constant Matrix: (Units=GPa)
#
#
# Indices 1 2 3 4 5 6 
#
# 1 76.8034 32.0016 44.2924 -3.5205 -3.4410 -18.4754
# 2 32.0016 135.0972 51.2491 -15.3941 7.0556 -23.6013
# 3 44.2924 51.2491 111.0919 -6.9396 15.2080 -13.9905
# 4 -3.5205 -15.3941 -6.9396 29.7912 -8.4738 5.2356
# 5 -3.4410 7.0556 15.2080 -8.4738 44.6099 -2.4344
# 6 -18.4754 -23.6013 -13.9905 5.2356 -2.4344 29.3712
#
#
#
# Elastic Compliance Matrix: (Units=1/GPa)
#
#
# Indices 1 2 3 4 5 6 
#
# 1 0.019699 -0.000676 -0.007042 0.000068 0.004523 0.008857
# 2 -0.000676 0.010281 -0.003629 0.003571 0.000538 0.005515
# 3 -0.007042 -0.003629 0.013993 -0.000678 -0.004921 -0.000968
# 4 0.000068 0.003571 -0.000678 0.037787 0.006653 -0.003595
# 5 0.004523 0.000538 -0.004921 0.006653 0.025724 0.001880
# 6 0.008857 0.005515 -0.000968 -0.003595 0.001880 0.044386
#
#
# Mechanical properties :
#
#
# Convention : Reuss Voigt Hill
#
# Bulk Modulus (GPa) = 46.99528 64.23096 55.61312
# Shear Modulus (GPa) = 27.52423 33.78440 30.65432
#
# Velocity S-wave (km/s) = 3.38258 3.74756 3.56973
# Velocity P-wave (km/s) = 5.89845 6.73991 6.33317
#
# Compressibility (1/GPa) = 0.02127873
#
# Stress axis : x y z
#
# Youngs Moduli (GPa) = 50.76329 97.26232 71.46477
#
# Poissons Ratio (x) = 0.06578 0.50324
# Poissons Ratio (y) = 0.03433 0.25938
# Poissons Ratio (z) = 0.35746 0.35301
#
# Static dielectric constant tensor:
#      x y z
#    x 4.858210 -0.106170 -0.265420 
#    y -0.106170 4.336090 -0.331280 
#    z -0.265420 -0.331280 4.228050 
# 
# 
# High freq. dielectric constant tensor:
#      x y z
#    x 1.966790 -0.014910 -0.007720 
#    y -0.014910 1.956140 -0.018290 
#    z -0.007720 -0.018290 1.944390 
# 
# From -- ./inp_files/441884.got.cif
#   From: 2010.06.25/outbox.cif.g09.slc.cpg/sg2_221_cif.got.tgz:441884.got - 2010.06.27 13:26:56.
