data_PCOD8020230
_publ_section_title
;
Structure prediction by ZEFSAII (Michael W. Deem and Ramdas Pophale) SiO2 
 PCOD8020230
Probable space group: P -1
;
_chemical_formula_sum "Si O2"
_cell_formula_units_Z 14
_cell_length_a 9.594448
_cell_length_b 7.986048
_cell_length_c 15.027608
_cell_angle_alpha 81.185309
_cell_angle_beta 141.278897
_cell_angle_gamma 113.772361
_cell_volume 632.455579
_symmetry_space_group_name_H-M "P -1"
_symmetry_group_IT_number 2
_symmetry_cell_setting 'triclinic'
loop_
_space_group_symop_operation_xyz
x,y,z
-x,-y,-z
loop_
_atom_site_type_symbol
_atom_site_label
_atom_site_fract_x
_atom_site_fract_y
_atom_site_fract_z
Si Si1 0.112871 0.383647 0.827103
Si Si2 0.511497 0.449173 0.152664
Si Si3 0.158238 0.054490 0.313152
Si Si4 0.676839 0.993992 0.419864
Si Si5 0.272932 0.085801 0.171528
Si Si6 0.790962 0.579602 0.614276
Si Si7 0.154623 0.290693 0.557837
O O1 0.300110 0.523781 0.835796
O O2 0.048488 0.163625 0.791775
O O3 0.881999 0.434639 0.715450
O O4 0.251556 0.436118 0.987322
O O5 0.462167 0.256497 0.192569
O O6 0.629038 0.614787 0.269419
O O7 0.344780 0.038083 0.481173
O O8 0.283928 0.151100 0.274334
O O9 0.057655 0.200414 0.291019
O O10 0.398637 0.942150 0.248915
O O11 0.884670 0.210004 0.479517
O O12 0.786853 0.868279 0.441272
O O13 0.000000 0.000000 0.000000
O O14 0.500000 0.500000 0.500000
O O15 0.832361 0.572774 0.528954
#
# Coordination Sequence:
#
# PCOD8020230 Si02
#       7
#     2   2   2   2   2   2   2
#     4  11  25  45  67  97 134 178 220 272 334 390
#     4  11  24  44  67  96 134 173 223 272 329 399
#     4  11  24  44  67  96 135 175 220 273 330 389
#     4  10  23  41  68  95 128 171 220 269 328 392
#     4  12  25  41  64  99 134 171 216 269 335 393
#     4  11  26  41  67 102 134 173 225 273 333 394
#     4  10  22  42  66  98 125 169 224 271 323 389
#
# _framework density 22.135942
#
# number of rings (size 3 to 8) (size 9 to 14) (size 15 to 20)
#    0.000    1.143    2.857    2.143    8.000    2.286 
#    0.000    3.571    0.000    0.000    0.000    0.000 
#    0.000    0.000    0.000    0.000    0.000    0.000 
#
# Total GULP energy -173466.785502 kJ/mol
# GULP energy per Si atom -12390.484679 kJ/mol
# Density = 2.208556 g / cm^3
# Si number density = 22.135942 Si / 1000 Ang^3
#
#
#
# Elastic Constant Matrix: (Units=GPa)
#
#
# Indices 1 2 3 4 5 6 
#
# 1 71.2695 28.1185 34.8363 -14.5193 -12.0709 4.9440
# 2 28.1185 91.3224 39.9567 -3.7957 -8.4388 7.3150
# 3 34.8363 39.9567 151.2659 -15.9040 -6.8256 -13.9727
# 4 -14.5193 -3.7957 -15.9040 35.7395 0.8269 -5.7692
# 5 -12.0709 -8.4388 -6.8256 0.8269 33.9996 -7.6532
# 6 4.9440 7.3150 -13.9727 -5.7692 -7.6532 28.4896
#
#
#
# Elastic Compliance Matrix: (Units=1/GPa)
#
#
# Indices 1 2 3 4 5 6 
#
# 1 0.018927 -0.003919 -0.002590 0.005836 0.004845 -0.001065
# 2 -0.003919 0.014027 -0.003520 -0.002494 0.000303 -0.005072
# 3 -0.002590 -0.003520 0.009263 0.003804 0.001569 0.007088
# 4 0.005836 -0.002494 0.003804 0.033175 0.003468 0.009143
# 5 0.004845 0.000303 0.001569 0.003468 0.033594 0.009578
# 6 -0.001065 -0.005072 0.007088 0.009143 0.009578 0.044488
#
#
# Mechanical properties :
#
#
# Convention : Reuss Voigt Hill
#
# Bulk Modulus (GPa) = 45.12689 57.74232 51.43461
# Shear Modulus (GPa) = 27.63696 33.70883 30.67289
#
# Velocity S-wave (km/s) = 3.53726 3.90655 3.72648
# Velocity P-wave (km/s) = 6.09208 6.81837 6.46543
#
# Compressibility (1/GPa) = 0.02215974
#
# Stress axis : x y z
#
# Youngs Moduli (GPa) = 52.83509 71.28858 107.96213
#
# Poissons Ratio (x) = 0.27937 0.27959
# Poissons Ratio (y) = 0.20706 0.38002
# Poissons Ratio (z) = 0.13683 0.25093
#
# Static dielectric constant tensor:
#      x y z
#    x 4.108480 0.421510 -0.271840 
#    y 0.421510 4.444880 -0.054500 
#    z -0.271840 -0.054500 4.101290 
# 
# 
# High freq. dielectric constant tensor:
#      x y z
#    x 1.866020 0.021260 -0.011910 
#    y 0.021260 1.880940 -0.009260 
#    z -0.011910 -0.009260 1.867340 
# 
# From -- ./inp_files/184887.got.cif
#   From: 2010.06.25/outbox.cif.g09.slc.cpg/sg2_93_cif.got.tgz:184887.got - 2010.06.27 13:26:56.
