data_PCOD8020159
_publ_section_title
;
Structure prediction by ZEFSAII (Michael W. Deem and Ramdas Pophale) SiO2 
 PCOD8020159
Probable space group: P -1
;
_chemical_formula_sum "Si O2"
_cell_formula_units_Z 16
_cell_length_a 13.743038
_cell_length_b 17.197221
_cell_length_c 11.699904
_cell_angle_alpha 54.084036
_cell_angle_beta 148.802100
_cell_angle_gamma 145.339551
_cell_volume 747.609946
_symmetry_space_group_name_H-M "P -1"
_symmetry_group_IT_number 2
_symmetry_cell_setting 'triclinic'
loop_
_space_group_symop_operation_xyz
x,y,z
-x,-y,-z
loop_
_atom_site_type_symbol
_atom_site_label
_atom_site_fract_x
_atom_site_fract_y
_atom_site_fract_z
Si Si1 0.841765 0.127804 0.859375
Si Si2 0.552799 0.229966 0.926136
Si Si3 0.681840 0.210550 0.444932
Si Si4 0.447863 0.269018 0.320795
Si Si5 0.139708 0.906394 0.847120
Si Si6 0.054202 0.187734 0.507488
Si Si7 0.358472 0.135923 0.570686
Si Si8 0.938504 0.611126 0.545196
O O1 0.848123 0.225057 0.705049
O O2 0.553053 0.952688 0.702883
O O3 0.847093 0.159299 0.972974
O O4 0.112241 0.167074 0.062769
O O5 0.336452 0.230364 0.746094
O O6 0.589438 0.239182 0.817345
O O7 0.441540 0.081816 0.983874
O O8 0.861870 0.365865 0.180876
O O9 0.531645 0.249310 0.304588
O O10 0.913729 0.331783 0.479126
O O11 0.503462 0.215085 0.526464
O O12 0.635018 0.437310 0.383228
O O13 0.048187 0.814610 0.719084
O O14 0.901056 0.893256 0.641082
O O15 0.138014 0.310629 0.562711
O O16 0.780021 0.024911 0.429292
#
# Coordination Sequence:
#
# PCOD8020159 Si02
#       8
#     2   2   2   2   2   2   2   2
#     4  10  22  42  66  89 112 154 213 248 286 350
#     4   9  18  37  59  89 126 153 191 245 294 356
#     4  11  25  41  62  87 116 159 211 246 288 351
#     4  11  25  42  61  87 126 157 193 253 303 342
#     4   8  15  37  62  91 117 153 197 248 291 346
#     4   9  20  36  64  90 122 157 195 238 296 360
#     4   8  18  36  63  89 116 159 200 236 295 354
#     4  12  25  38  59  95 122 158 197 238 308 359
#
# _framework density 21.401534999999999
#
# number of rings (size 3 to 8) (size 9 to 14) (size 15 to 20)
#    0.000    2.250    1.250    2.250    3.500    6.000 
#    0.000    5.625    0.000    0.000    0.000    0.000 
#    0.000    0.000    0.000    0.000    0.000    0.000 
#
# Total GULP energy -198398.746312 kJ/mol
# GULP energy per Si atom -12399.921644 kJ/mol
# Density = 2.135282 g / cm^3
# Si number density = 21.401535 Si / 1000 Ang^3
#
#
#
# Elastic Constant Matrix: (Units=GPa)
#
#
# Indices 1 2 3 4 5 6 
#
# 1 72.7256 15.6376 -1.9536 -9.6761 -7.3274 3.6239
# 2 15.6376 66.4123 12.1178 -7.4273 -9.6458 3.1678
# 3 -1.9536 12.1178 67.9848 -18.3507 -8.4690 17.4562
# 4 -9.6761 -7.4273 -18.3507 19.0532 3.1511 -2.7547
# 5 -7.3274 -9.6458 -8.4690 3.1511 22.8150 -4.8086
# 6 3.6239 3.1678 17.4562 -2.7547 -4.8086 22.8812
#
#
#
# Elastic Compliance Matrix: (Units=1/GPa)
#
#
# Indices 1 2 3 4 5 6 
#
# 1 0.016669 -0.002924 0.005728 0.011588 0.003709 -0.004430
# 2 -0.002924 0.017136 -0.002089 0.002447 0.005428 0.001120
# 3 0.005728 -0.002089 0.026879 0.024841 0.003852 -0.017324
# 4 0.011588 0.002447 0.024841 0.081567 0.000344 -0.011233
# 5 0.003709 0.005428 0.003852 0.000344 0.050022 0.006276
# 6 -0.004430 0.001120 -0.017324 -0.011233 0.006276 0.057434
#
#
# Mechanical properties :
#
#
# Convention : Reuss Voigt Hill
#
# Bulk Modulus (GPa) = 16.09965 28.74736 22.42351
# Shear Modulus (GPa) = 18.58851 25.03794 21.81323
#
# Velocity S-wave (km/s) = 2.95033 3.42411 3.19601
# Velocity P-wave (km/s) = 4.37549 5.39391 4.91117
#
# Compressibility (1/GPa) = 0.06211315
#
# Stress axis : x y z
#
# Youngs Moduli (GPa) = 59.99105 58.35740 37.20319
#
# Poissons Ratio (x) = 0.17064 -0.21309
# Poissons Ratio (y) = 0.17542 0.07773
# Poissons Ratio (z) = -0.34361 0.12192
#
# Static dielectric constant tensor:
#      x y z
#    x 4.001500 0.257510 -0.282340 
#    y 0.257510 3.651390 -0.291370 
#    z -0.282340 -0.291370 3.993530 
# 
# 
# High freq. dielectric constant tensor:
#      x y z
#    x 1.850510 0.003300 -0.002150 
#    y 0.003300 1.808740 -0.016010 
#    z -0.002150 -0.016010 1.843290 
# 
# From -- ./inp_files/307029.got.cif
#   From: 2010.06.25/outbox.cif.g09.slc.cpg/sg2_154_cif.got.tgz:307029.got - 2010.06.27 13:26:56.
