data_PCOD8020047
_publ_section_title
;
Structure prediction by ZEFSAII (Michael W. Deem and Ramdas Pophale) SiO2 
 PCOD8020047
Probable space group: P -1
;
_chemical_formula_sum "Si O2"
_cell_formula_units_Z 16
_cell_length_a 11.405378
_cell_length_b 8.849937
_cell_length_c 8.966436
_cell_angle_alpha 83.233987
_cell_angle_beta 128.088264
_cell_angle_gamma 95.061262
_cell_volume 707.224386
_symmetry_space_group_name_H-M "P -1"
_symmetry_group_IT_number 2
_symmetry_cell_setting 'triclinic'
loop_
_space_group_symop_operation_xyz
x,y,z
-x,-y,-z
loop_
_atom_site_type_symbol
_atom_site_label
_atom_site_fract_x
_atom_site_fract_y
_atom_site_fract_z
Si Si1 0.595561 0.514228 0.222211
Si Si2 0.406839 0.808415 0.579293
Si Si3 0.119761 0.860807 0.789956
Si Si4 0.096060 0.876576 0.426336
Si Si5 0.815286 0.672315 0.192026
Si Si6 0.438658 0.639982 0.347490
Si Si7 0.868474 0.443781 0.008107
Si Si8 0.606649 0.953958 0.955510
O O1 0.596013 0.352854 0.320346
O O2 0.764651 0.563077 0.302867
O O3 0.525183 0.646865 0.256259
O O4 0.500000 0.500000 0.000000
O O5 0.237261 0.863720 0.431360
O O6 0.464945 0.788598 0.456572
O O7 0.513044 0.929645 0.733235
O O8 0.156508 0.879468 0.642007
O O9 0.074815 0.690191 0.822849
O O10 0.981829 0.968794 0.704931
O O11 0.270694 0.911156 0.991142
O O12 0.981918 0.734013 0.340130
O O13 0.807313 0.582858 0.040576
O O14 0.694350 0.803113 0.081857
O O15 0.500000 0.500000 0.500000
O O16 0.262453 0.617249 0.192436
O O17 0.000000 0.500000 0.000000
O O18 0.500000 0.000000 0.000000
#
# Coordination Sequence:
#
# PCOD8020047 Si02
#       8
#     2   2   2   2   2   2   2   2
#     4  11  20  38  70 102 130 175 234 287 338 405
#     4  11  21  40  67  98 140 178 228 285 348 409
#     4  10  24  43  66 100 138 180 237 281 339 415
#     4  10  22  42  65 103 139 175 229 291 339 409
#     4  11  23  39  69 101 129 178 236 281 339 410
#     4  10  23  40  63 100 140 170 221 292 341 402
#     4  12  25  45  71  97 140 188 225 281 356 414
#     4  11  22  40  69  98 134 184 227 279 342 413
#
# _framework density 22.623656
#
# number of rings (size 3 to 8) (size 9 to 14) (size 15 to 20)
#    0.000    1.250    3.750    2.250    1.750    4.000 
#    0.000    7.500    0.000    0.000    0.000    0.000 
#    0.000    0.000    0.000    0.000    0.000    0.000 
#
# Total GULP energy -198405.443319 kJ/mol
# GULP energy per Si atom -12400.340207 kJ/mol
# Density = 2.257216 g / cm^3
# Si number density = 22.623656 Si / 1000 Ang^3
#
#
#
# Elastic Constant Matrix: (Units=GPa)
#
#
# Indices 1 2 3 4 5 6 
#
# 1 136.1139 45.9883 50.1441 10.5183 -8.1060 -23.7854
# 2 45.9883 94.5818 35.1476 8.5973 -4.7970 -11.8158
# 3 50.1441 35.1476 107.1603 28.2577 7.3171 -15.8324
# 4 10.5183 8.5973 28.2577 44.2401 -7.1028 -8.3021
# 5 -8.1060 -4.7970 7.3171 -7.1028 35.3597 9.6044
# 6 -23.7854 -11.8158 -15.8324 -8.3021 9.6044 41.1555
#
#
#
# Elastic Compliance Matrix: (Units=1/GPa)
#
#
# Indices 1 2 3 4 5 6 
#
# 1 0.010493 -0.003257 -0.003910 0.001630 0.002163 0.003449
# 2 -0.003257 0.013386 -0.003028 0.000467 0.001653 0.000505
# 3 -0.003910 -0.003028 0.015374 -0.008934 -0.006994 0.002615
# 4 0.001630 0.000467 -0.008934 0.029402 0.007711 0.001771
# 5 0.002163 0.001653 -0.006994 0.007711 0.033991 -0.007343
# 6 0.003449 0.000505 0.002615 0.001771 -0.007343 0.029513
#
#
# Mechanical properties :
#
#
# Convention : Reuss Voigt Hill
#
# Bulk Modulus (GPa) = 53.01022 66.71288 59.86155
# Shear Modulus (GPa) = 31.47861 37.92279 34.70070
#
# Velocity S-wave (km/s) = 3.73420 4.09864 3.92065
# Velocity P-wave (km/s) = 6.48649 7.20767 6.85657
#
# Compressibility (1/GPa) = 0.01886429
#
# Stress axis : x y z
#
# Youngs Moduli (GPa) = 95.30071 74.70501 65.04327
#
# Poissons Ratio (x) = 0.24329 0.25431
# Poissons Ratio (y) = 0.31036 0.19696
# Poissons Ratio (z) = 0.37262 0.22621
#
# Static dielectric constant tensor:
#      x y z
#    x 4.372210 -0.211600 -0.096110 
#    y -0.211600 4.431000 0.244280 
#    z -0.096110 0.244280 4.215270 
# 
# 
# High freq. dielectric constant tensor:
#      x y z
#    x 1.891030 -0.017120 0.006360 
#    y -0.017120 1.897660 0.008160 
#    z 0.006360 0.008160 1.892980 
# 
# From -- ./inp_files/244238.got.cif
#   From: 2010.06.25/outbox.cif.g09.slc.cpg/sg2_123_cif.got.tgz:244238.got - 2010.06.27 13:26:56.
