data_PCOD8020168
_publ_section_title
;
Structure prediction by ZEFSAII (Michael W. Deem and Ramdas Pophale) SiO2 
 PCOD8020168
Probable space group: P -1
;
_chemical_formula_sum "Si O2"
_cell_formula_units_Z 12
_cell_length_a 8.824218
_cell_length_b 12.628253
_cell_length_c 5.426385
_cell_angle_alpha 68.195705
_cell_angle_beta 72.320735
_cell_angle_gamma 65.359440
_cell_volume 502.305019
_symmetry_space_group_name_H-M "P -1"
_symmetry_group_IT_number 2
_symmetry_cell_setting 'triclinic'
loop_
_space_group_symop_operation_xyz
x,y,z
-x,-y,-z
loop_
_atom_site_type_symbol
_atom_site_label
_atom_site_fract_x
_atom_site_fract_y
_atom_site_fract_z
Si Si1 0.754163 0.613328 0.156536
Si Si2 0.806887 0.784183 0.355525
Si Si3 0.484630 0.194266 0.203372
Si Si4 0.067145 0.653061 0.708556
Si Si5 0.189109 0.857590 0.651583
Si Si6 0.799670 0.026097 0.961888
O O1 0.730730 0.687301 0.359298
O O2 0.776917 0.472410 0.312887
O O3 0.595064 0.673982 0.002273
O O4 0.924877 0.622493 0.953253
O O5 0.669894 0.847783 0.585059
O O6 0.993749 0.715723 0.431108
O O7 0.822424 0.884037 0.070150
O O8 0.607814 0.198729 0.364853
O O9 0.597724 0.099407 0.027556
O O10 0.127981 0.743576 0.762899
O O11 0.138432 0.941959 0.360327
O O12 0.106231 0.937497 0.872887
#
# Coordination Sequence:
#
# PCOD8020168 Si02
#       6
#     2   2   2   2   2   2
#     4  10  22  42  66  91 125 171 217 259 316 372
#     4  11  22  39  67  93 127 169 212 264 311 384
#     4   9  22  40  63  99 123 168 210 263 318 373
#     4  10  24  42  62  92 129 170 215 262 311 383
#     4  10  24  43  63  98 128 170 205 264 322 373
#     4  10  24  41  67  96 131 163 212 259 325 375
#
# _framework density 23.889866000000001
#
# number of rings (size 3 to 8) (size 9 to 14) (size 15 to 20)
#    1.000    1.000    0.000    2.000    7.000    3.333 
#    0.000    1.667    0.000    0.000    0.000    0.000 
#    0.000    0.000    0.000    0.000    0.000    0.000 
#
# Total GULP energy -148767.826376 kJ/mol
# GULP energy per Si atom -12397.318865 kJ/mol
# Density = 2.383549 g / cm^3
# Si number density = 23.889866 Si / 1000 Ang^3
#
#
#
# Elastic Constant Matrix: (Units=GPa)
#
#
# Indices 1 2 3 4 5 6 
#
# 1 83.3860 42.6271 50.2496 -8.9415 35.7247 -2.3434
# 2 42.6271 154.1422 77.0297 -12.6717 4.5043 2.5761
# 3 50.2496 77.0297 108.8025 -7.0928 26.1560 -15.8123
# 4 -8.9415 -12.6717 -7.0928 35.8729 -3.8389 7.2268
# 5 35.7247 4.5043 26.1560 -3.8389 31.4106 0.5561
# 6 -2.3434 2.5761 -15.8123 7.2268 0.5561 27.4625
#
#
#
# Elastic Compliance Matrix: (Units=1/GPa)
#
#
# Indices 1 2 3 4 5 6 
#
# 1 0.030207 -0.007225 -0.000338 0.000660 -0.033021 0.003556
# 2 -0.007225 0.014915 -0.012690 0.005043 0.017456 -0.011003
# 3 -0.000338 -0.012690 0.025296 -0.005210 -0.019807 0.017498
# 4 0.000660 0.005043 -0.005210 0.031950 0.006981 -0.011965
# 5 -0.033021 0.017456 -0.019807 0.006981 0.084580 -0.019409
# 6 0.003556 -0.011003 0.017498 -0.011965 -0.019409 0.051366
#
#
# Mechanical properties :
#
#
# Convention : Reuss Voigt Hill
#
# Bulk Modulus (GPa) = 33.42978 76.23817 54.83397
# Shear Modulus (GPa) = 17.31363 30.71082 24.01223
#
# Velocity S-wave (km/s) = 2.69500 3.58930 3.17381
# Velocity P-wave (km/s) = 4.86905 7.01135 6.03601
#
# Compressibility (1/GPa) = 0.02991345
#
# Stress axis : x y z
#
# Youngs Moduli (GPa) = 33.10471 67.04499 39.53198
#
# Poissons Ratio (x) = 0.48440 0.01336
# Poissons Ratio (y) = 0.23918 0.50165
# Poissons Ratio (z) = 0.01118 0.85078
#
# Static dielectric constant tensor:
#      x y z
#    x 4.314770 -0.345900 0.169910 
#    y -0.345900 4.392130 0.036250 
#    z 0.169910 0.036250 4.093400 
# 
# 
# High freq. dielectric constant tensor:
#      x y z
#    x 1.953510 -0.024640 0.012710 
#    y -0.024640 1.940340 0.004060 
#    z 0.012710 0.004060 1.943900 
# 
# From -- ./inp_files/21397.got.cif
#   From: 2010.06.25/outbox.cif.g09.slc.cpg/sg2_11_cif.got.tgz:21397.got - 2010.06.27 13:26:56.
