data_PCOD8020707
_publ_section_title
;
Structure prediction by ZEFSAII (Michael W. Deem and Ramdas Pophale) SiO2 
 PCOD8020707
Probable space group: P -1
;
_chemical_formula_sum "Si O2"
_cell_formula_units_Z 14
_cell_length_a 5.546106
_cell_length_b 5.129431
_cell_length_c 19.205482
_cell_angle_alpha 103.106308
_cell_angle_beta 94.406290
_cell_angle_gamma 92.778950
_cell_volume 529.336271
_symmetry_space_group_name_H-M "P -1"
_symmetry_group_IT_number 2
_symmetry_cell_setting 'triclinic'
loop_
_space_group_symop_operation_xyz
x,y,z
-x,-y,-z
loop_
_atom_site_type_symbol
_atom_site_label
_atom_site_fract_x
_atom_site_fract_y
_atom_site_fract_z
Si Si1 0.188883 0.469411 0.218186
Si Si2 0.781715 0.056967 0.178674
Si Si3 0.172305 0.319247 0.951081
Si Si4 0.981086 0.705347 0.450504
Si Si5 0.428973 0.025138 0.281987
Si Si6 0.521599 0.159686 0.581872
Si Si7 0.435279 0.275637 0.082674
O O1 0.215454 0.786338 0.254971
O O2 0.251781 0.427224 0.136751
O O3 0.353533 0.306376 0.265852
O O4 0.912434 0.349068 0.214594
O O5 0.954376 0.864675 0.125967
O O6 0.671189 0.939752 0.241684
O O7 0.556376 0.059430 0.120064
O O8 0.372815 0.500087 0.926839
O O9 0.289804 0.140513 0.004808
O O10 0.000000 0.500000 0.000000
O O11 0.713820 0.659427 0.405152
O O12 0.000000 0.500000 0.500000
O O13 0.213286 0.670948 0.402044
O O14 0.000000 0.000000 0.500000
O O15 0.488240 0.050476 0.366795
O O16 0.500000 0.000000 0.500000
#
# Coordination Sequence:
#
# PCOD8020707 Si02
#       7
#     2   2   2   2   2   2   2
#     4  11  26  45  74 100 147 189 246 291 375 436
#     4  11  25  45  71  94 149 185 242 294 374 432
#     4  11  23  39  71  99 137 180 242 299 369 419
#     4  10  22  42  72 107 147 187 234 300 370 438
#     4  11  27  47  71 108 142 195 242 304 361 455
#     4  10  24  48  77 111 153 192 253 310 378 441
#     4  10  23  42  63 101 136 182 239 300 355 437
#
# _framework density 26.448215000000001
#
# number of rings (size 3 to 8) (size 9 to 14) (size 15 to 20)
#    0.000    1.429    1.429    1.714    6.000    8.000 
#    2.571    0.000    0.000    0.000    0.000    0.000 
#    0.000    0.000    0.000    0.000    0.000    0.000 
#
# Total GULP energy -173458.646000 kJ/mol
# GULP energy per Si atom -12389.903286 kJ/mol
# Density = 2.638802 g / cm^3
# Si number density = 26.448215 Si / 1000 Ang^3
#
#
#
# Elastic Constant Matrix: (Units=GPa)
#
#
# Indices 1 2 3 4 5 6 
#
# 1 153.4135 9.5041 27.2441 -16.7408 -4.9496 17.6670
# 2 9.5041 74.0915 3.6050 -12.1086 -8.0873 14.4198
# 3 27.2441 3.6050 149.5492 -26.9217 -21.1297 15.7131
# 4 -16.7408 -12.1086 -26.9217 44.6585 6.4475 -0.9409
# 5 -4.9496 -8.0873 -21.1297 6.4475 29.1397 -1.6405
# 6 17.6670 14.4198 15.7131 -0.9409 -1.6405 27.6954
#
#
#
# Elastic Compliance Matrix: (Units=1/GPa)
#
#
# Indices 1 2 3 4 5 6 
#
# 1 0.007373 0.000408 -0.000379 0.002509 0.000277 -0.004599
# 2 0.000408 0.016528 0.002080 0.005035 0.004510 -0.009608
# 3 -0.000379 0.002080 0.008949 0.004892 0.005615 -0.005420
# 4 0.002509 0.005035 0.004892 0.027676 -0.001098 -0.006122
# 5 0.000277 0.004510 0.005615 -0.001098 0.039739 -0.003394
# 6 -0.004599 -0.009608 -0.005420 -0.006122 -0.003394 0.046709
#
#
# Mechanical properties :
#
#
# Convention : Reuss Voigt Hill
#
# Bulk Modulus (GPa) = 26.97691 50.86229 38.91960
# Shear Modulus (GPa) = 32.23473 42.74546 37.49009
#
# Velocity S-wave (km/s) = 3.49490 4.02455 3.76904
# Velocity P-wave (km/s) = 5.14857 6.39286 5.80416
#
# Compressibility (1/GPa) = 0.03706874
#
# Stress axis : x y z
#
# Youngs Moduli (GPa) = 135.63590 60.50230 111.74356
#
# Poissons Ratio (x) = -0.02468 0.04235
# Poissons Ratio (y) = -0.05534 -0.23247
# Poissons Ratio (z) = 0.05140 -0.12587
#
# Static dielectric constant tensor:
#      x y z
#    x 6.356640 0.776560 0.133140 
#    y 0.776560 5.523720 -0.106740 
#    z 0.133140 -0.106740 5.092180 
# 
# 
# High freq. dielectric constant tensor:
#      x y z
#    x 2.069110 0.004830 -0.005380 
#    y 0.004830 2.039670 -0.019530 
#    z -0.005380 -0.019530 2.070750 
# 
# From -- ./inp_files/9904.got.cif
#   From: 2010.06.25/outbox.cif.g09.slc.cpg/sg2_5_cif.got.tgz:9904.got - 2010.06.27 13:26:56.
