data_PCOD8020760
_publ_section_title
;
Structure prediction by ZEFSAII (Michael W. Deem and Ramdas Pophale) SiO2 
 PCOD8020760
Probable space group: P -1
;
_chemical_formula_sum "Si O2"
_cell_formula_units_Z 16
_cell_length_a 9.271082
_cell_length_b 8.553174
_cell_length_c 14.313361
_cell_angle_alpha 48.907307
_cell_angle_beta 72.525735
_cell_angle_gamma 99.924618
_cell_volume 699.739594
_symmetry_space_group_name_H-M "P -1"
_symmetry_group_IT_number 2
_symmetry_cell_setting 'triclinic'
loop_
_space_group_symop_operation_xyz
x,y,z
-x,-y,-z
loop_
_atom_site_type_symbol
_atom_site_label
_atom_site_fract_x
_atom_site_fract_y
_atom_site_fract_z
Si Si1 0.698329 0.210971 0.894016
Si Si2 0.701331 0.663801 0.796605
Si Si3 0.733457 0.085774 0.512035
Si Si4 0.297350 0.435661 0.961645
Si Si5 0.797354 0.884869 0.070838
Si Si6 0.691374 0.708342 0.351789
Si Si7 0.671554 0.106337 0.302916
Si Si8 0.974280 0.574173 0.375970
O O1 0.713139 0.461865 0.814886
O O2 0.827932 0.242325 0.770799
O O3 0.500000 0.000000 0.000000
O O4 0.760724 0.104130 0.007247
O O5 0.503518 0.597781 0.877684
O O6 0.789270 0.906830 0.620834
O O7 0.791656 0.688553 0.871805
O O8 0.744653 0.084728 0.397959
O O9 0.876426 0.352999 0.410692
O O10 0.539595 0.022441 0.604349
O O11 0.259559 0.230058 0.975240
O O12 0.236819 0.615387 0.860087
O O13 0.690018 0.684688 0.248851
O O14 0.000000 0.000000 0.000000
O O15 0.500000 0.500000 0.500000
O O16 0.854526 0.693246 0.366242
O O17 0.725603 0.967764 0.273877
O O18 0.000000 0.500000 0.500000
#
# Coordination Sequence:
#
# PCOD8020760 Si02
#       8
#     2   2   2   2   2   2   2   2
#     4  12  27  48  74 103 144 200 243 293 363 433
#     4  10  23  42  72 104 139 194 240 291 362 437
#     4  10  23  45  70 106 149 185 240 302 360 432
#     4  10  22  43  71 103 143 186 242 296 357 436
#     4  12  26  47  72 104 148 186 242 305 358 427
#     4  12  26  46  77 107 141 193 244 295 366 434
#     4  10  22  42  75 103 140 193 239 294 365 434
#     4  12  29  46  70 112 153 185 245 306 359 435
#
# _framework density 22.865648
#
# number of rings (size 3 to 8) (size 9 to 14) (size 15 to 20)
#    0.000    1.000    3.750    1.500    8.750    1.500 
#    2.250    1.250    0.000    0.000    0.000    0.000 
#    0.000    0.000    0.000    0.000    0.000    0.000 
#
# Total GULP energy -198327.208070 kJ/mol
# GULP energy per Si atom -12395.450504 kJ/mol
# Density = 2.281360 g / cm^3
# Si number density = 22.865648 Si / 1000 Ang^3
#
#
#
# Elastic Constant Matrix: (Units=GPa)
#
#
# Indices 1 2 3 4 5 6 
#
# 1 112.9834 45.2508 72.7329 9.8493 21.9097 -13.5385
# 2 45.2508 111.8349 41.6294 4.0496 14.0836 -4.8157
# 3 72.7329 41.6294 141.8023 14.4977 19.6814 1.7633
# 4 9.8493 4.0496 14.4977 37.9772 1.0582 10.9894
# 5 21.9097 14.0836 19.6814 1.0582 53.0947 -2.8064
# 6 -13.5385 -4.8157 1.7633 10.9894 -2.8064 43.6046
#
#
#
# Elastic Compliance Matrix: (Units=1/GPa)
#
#
# Indices 1 2 3 4 5 6 
#
# 1 0.015798 -0.003270 -0.006530 -0.002710 -0.002897 0.005304
# 2 -0.003270 0.010916 -0.001409 0.000213 -0.001021 0.000128
# 3 -0.006530 -0.001409 0.011182 -0.001735 -0.001162 -0.002273
# 4 -0.002710 0.000213 -0.001735 0.030051 0.000668 -0.008278
# 5 -0.002897 -0.001021 -0.001162 0.000668 0.020729 0.000201
# 6 0.005304 0.000128 -0.002273 -0.008278 0.000201 0.026785
#
#
# Mechanical properties :
#
#
# Convention : Reuss Voigt Hill
#
# Bulk Modulus (GPa) = 64.60921 76.20518 70.40719
# Shear Modulus (GPa) = 34.95605 40.73581 37.84593
#
# Velocity S-wave (km/s) = 3.91418 4.22540 4.07276
# Velocity P-wave (km/s) = 6.98177 7.56340 7.27839
#
# Compressibility (1/GPa) = 0.01547767
#
# Stress axis : x y z
#
# Youngs Moduli (GPa) = 63.30071 91.61074 89.43058
#
# Poissons Ratio (x) = 0.29958 0.58396
# Poissons Ratio (y) = 0.20700 0.12600
# Poissons Ratio (z) = 0.41334 0.12907
#
# Static dielectric constant tensor:
#      x y z
#    x 4.365020 0.016660 0.181110 
#    y 0.016660 4.207810 -0.585940 
#    z 0.181110 -0.585940 4.913830 
# 
# 
# High freq. dielectric constant tensor:
#      x y z
#    x 1.912320 -0.008560 0.018560 
#    y -0.008560 1.896730 -0.000390 
#    z 0.018560 -0.000390 1.912010 
# 
# From -- ./inp_files/494361.got.cif
#   From: 2010.06.25/outbox.cif.g09.slc.cpg/sg2_248_cif.got.tgz:494361.got - 2010.06.27 13:26:56.
