data_PCOD8020518
_publ_section_title
;
Structure prediction by ZEFSAII (Michael W. Deem and Ramdas Pophale) SiO2 
 PCOD8020518
Probable space group: P -1
;
_chemical_formula_sum "Si O2"
_cell_formula_units_Z 14
_cell_length_a 15.633417
_cell_length_b 10.068081
_cell_length_c 12.976006
_cell_angle_alpha 55.674283
_cell_angle_beta 26.326140
_cell_angle_gamma 47.975014
_cell_volume 668.793183
_symmetry_space_group_name_H-M "P -1"
_symmetry_group_IT_number 2
_symmetry_cell_setting 'triclinic'
loop_
_space_group_symop_operation_xyz
x,y,z
-x,-y,-z
loop_
_atom_site_type_symbol
_atom_site_label
_atom_site_fract_x
_atom_site_fract_y
_atom_site_fract_z
Si Si1 0.328630 0.631591 0.706402
Si Si2 0.123845 0.372889 0.328370
Si Si3 0.502852 0.364362 0.813819
Si Si4 0.115407 0.996879 0.485198
Si Si5 0.416406 0.164083 0.594906
Si Si6 0.055415 0.194317 0.105982
Si Si7 0.137236 0.522128 0.632827
O O1 0.500000 0.500000 0.500000
O O2 0.337994 0.506125 0.847603
O O3 0.389153 0.791796 0.601229
O O4 0.094336 0.720369 0.869625
O O5 0.000000 0.500000 0.500000
O O6 0.009891 0.473117 0.304214
O O7 0.126972 0.180015 0.417185
O O8 0.368107 0.350029 0.064084
O O9 0.640938 0.164787 0.704110
O O10 0.674258 0.433561 0.634575
O O11 0.977356 0.970907 0.738912
O O12 0.000000 0.000000 0.500000
O O13 0.232040 0.327176 0.663026
O O14 0.500000 0.000000 0.500000
O O15 0.303753 0.123514 0.834033
O O16 0.002817 0.340535 0.187944
#
# Coordination Sequence:
#
# PCOD8020518 Si02
#       7
#     2   2   2   2   2   2   2
#     4  11  21  40  71  98 117 165 217 253 318 376
#     4  12  26  42  63  94 128 171 212 258 321 370
#     4  10  22  42  69  89 127 162 215 265 303 373
#     4  11  22  43  63  93 124 168 217 255 302 375
#     4  11  25  40  64 102 131 160 203 265 329 367
#     4  11  22  41  71  91 129 167 211 262 305 379
#     4  10  22  43  63  93 128 165 215 259 313 376
#
# _framework density 20.933226999999999
#
# number of rings (size 3 to 8) (size 9 to 14) (size 15 to 20)
#    0.000    1.143    7.143    1.714    2.000    4.571 
#    5.143    0.000    0.000    0.000    0.000    0.000 
#    0.000    0.000    0.000    0.000    0.000    0.000 
#
# Total GULP energy -173581.069696 kJ/mol
# GULP energy per Si atom -12398.647835 kJ/mol
# Density = 2.088558 g / cm^3
# Si number density = 20.933227 Si / 1000 Ang^3
#
#
#
# Elastic Constant Matrix: (Units=GPa)
#
#
# Indices 1 2 3 4 5 6 
#
# 1 87.6532 17.9231 34.1785 4.0235 5.2911 12.0810
# 2 17.9231 44.8635 66.0677 -26.5666 32.9664 28.2651
# 3 34.1785 66.0677 156.8592 -11.1145 22.7796 18.4653
# 4 4.0235 -26.5666 -11.1145 16.8641 5.5942 6.1024
# 5 5.2911 32.9664 22.7796 5.5942 13.0008 2.9841
# 6 12.0810 28.2651 18.4653 6.1024 2.9841 37.9669
#
#
#
# Elastic Compliance Matrix: (Units=1/GPa)
#
#
# Indices 1 2 3 4 5 6 
#
# 1 0.012878 0.001006 -0.002762 -0.001677 -0.001517 -0.003115
# 2 0.001006 -0.003893 -0.003914 -0.018647 0.023043 0.005668
# 3 -0.002762 -0.003914 0.010439 0.004854 -0.009018 -0.001355
# 4 -0.001677 -0.018647 0.004854 0.021730 0.028663 0.006309
# 5 -0.001517 0.023043 -0.009018 0.028663 0.026936 -0.019010
# 6 -0.003115 0.005668 -0.001355 0.006309 -0.019010 0.024250
#
#
# Mechanical properties :
#
#
# Convention : Reuss Voigt Hill
#
# Bulk Modulus (GPa) = 123.70553 58.41274 91.05913
# Shear Modulus (GPa) = 47.00396 24.98013 35.99204
#
# Velocity S-wave (km/s) = 4.74373 3.45820 4.15103
# Velocity P-wave (km/s) = 9.44603 6.62649 8.15898
#
# Compressibility (1/GPa) = 0.00808371
#
# Stress axis : x y z
#
# Youngs Moduli (GPa) = 77.65465 -256.89233 95.79726
#
# Poissons Ratio (x) = 0.25847 0.26455
# Poissons Ratio (y) = -0.07813 0.37500
# Poissons Ratio (z) = 0.21445 -1.00560
#
# Static dielectric constant tensor:
#      x y z
#    x 2.562540 -0.169860 1.005270 
#    y -0.169860 3.957550 -0.250490 
#    z 1.005270 -0.250490 2.999930 
# 
# 
# High freq. dielectric constant tensor:
#      x y z
#    x 1.807910 -0.008450 -0.005580 
#    y -0.008450 1.818470 -0.021040 
#    z -0.005580 -0.021040 1.828560 
# 
# From -- ./inp_files/446118.got.cif
#   From: 2010.06.25/outbox.cif.g09.slc.cpg/sg2_224_cif.got.tgz:446118.got - 2010.06.27 13:26:56.
