data_PCOD8020740
_publ_section_title
;
Structure prediction by ZEFSAII (Michael W. Deem and Ramdas Pophale) SiO2 
 PCOD8020740
Probable space group: P -1
;
_chemical_formula_sum "Si O2"
_cell_formula_units_Z 16
_cell_length_a 21.009862
_cell_length_b 8.390605
_cell_length_c 9.121845
_cell_angle_alpha 87.376714
_cell_angle_beta 116.550491
_cell_angle_gamma 137.759782
_cell_volume 851.366078
_symmetry_space_group_name_H-M "P -1"
_symmetry_group_IT_number 2
_symmetry_cell_setting 'triclinic'
loop_
_space_group_symop_operation_xyz
x,y,z
-x,-y,-z
loop_
_atom_site_type_symbol
_atom_site_label
_atom_site_fract_x
_atom_site_fract_y
_atom_site_fract_z
Si Si1 0.979176 0.491525 0.310099
Si Si2 0.566986 0.292140 0.440070
Si Si3 0.030176 0.248159 0.899486
Si Si4 0.498721 0.491376 0.673265
Si Si5 0.147646 0.663067 0.236005
Si Si6 0.190726 0.274917 0.150269
Si Si7 0.769979 0.968207 0.943325
Si Si8 0.608247 0.026607 0.466131
O O1 0.978563 0.680290 0.269229
O O2 0.000000 0.500000 0.500000
O O3 0.088656 0.614154 0.327229
O O4 0.850217 0.189969 0.143308
O O5 0.568243 0.463817 0.343437
O O6 0.678615 0.481200 0.657124
O O7 0.446423 0.077661 0.421991
O O8 0.570554 0.133459 0.353421
O O9 0.042625 0.404054 0.034530
O O10 0.151711 0.363909 0.020564
O O11 0.908933 0.930550 0.816072
O O12 0.500000 0.500000 0.500000
O O13 0.632639 0.732299 0.865926
O O14 0.433370 0.204953 0.662543
O O15 0.216083 0.927160 0.208053
O O16 0.247314 0.711835 0.380701
O O17 0.190304 0.141988 0.029064
#
# Coordination Sequence:
#
# PCOD8020740 Si02
#       8
#     2   2   2   2   2   2   2   2
#     4  11  24  38  53  74 108 152 187 222 271 327
#     4  10  18  27  46  84 123 134 163 219 295 328
#     4  10  21  31  55  84 104 136 183 227 278 320
#     4  10  17  28  48  82 115 136 170 224 274 326
#     4  11  17  34  53  78 106 136 180 230 268 319
#     4  11  17  31  53  86 111 132 172 236 277 323
#     4  11  18  34  56  79 108 140 178 229 271 321
#     4  10  18  26  46  81 114 137 168 214 282 327
#
# _framework density 18.793326
#
# number of rings (size 3 to 8) (size 9 to 14) (size 15 to 20)
#    0.000    1.500    8.750    0.750    0.000    0.000 
#    0.000    0.625    0.000    0.750    0.000    1.750 
#    0.000    0.000    0.000    0.000    0.000    0.000 
#
# Total GULP energy -198266.845674 kJ/mol
# GULP energy per Si atom -12391.677855 kJ/mol
# Density = 1.875055 g / cm^3
# Si number density = 18.793326 Si / 1000 Ang^3
#
#
#
# Elastic Constant Matrix: (Units=GPa)
#
#
# Indices 1 2 3 4 5 6 
#
# 1 96.4350 31.8267 38.4091 -16.2682 25.2988 -28.3218
# 2 31.8267 62.3582 36.6436 2.1082 4.8841 -15.8760
# 3 38.4091 36.6436 84.2684 -3.6334 11.9192 6.7581
# 4 -16.2682 2.1082 -3.6334 27.5955 1.6495 9.2225
# 5 25.2988 4.8841 11.9192 1.6495 26.4353 -0.6603
# 6 -28.3218 -15.8760 6.7581 9.2225 -0.6603 38.0333
#
#
#
# Elastic Compliance Matrix: (Units=1/GPa)
#
#
# Indices 1 2 3 4 5 6 
#
# 1 0.028189 -0.002631 -0.009572 0.010674 -0.022376 0.018617
# 2 -0.002631 0.029692 -0.014090 -0.011200 0.004477 0.015732
# 3 -0.009572 -0.014090 0.024013 0.004741 0.000181 -0.018423
# 4 0.010674 -0.011200 0.004741 0.047972 -0.013513 -0.009436
# 5 -0.022376 0.004477 0.000181 -0.013513 0.058914 -0.010526
# 6 0.018617 0.015732 -0.018423 -0.009436 -0.010526 0.052102
#
#
# Mechanical properties :
#
#
# Convention : Reuss Voigt Hill
#
# Bulk Modulus (GPa) = 34.12052 50.75783 42.43917
# Shear Modulus (GPa) = 16.48871 27.49163 21.99017
#
# Velocity S-wave (km/s) = 2.96526 3.82886 3.42439
# Velocity P-wave (km/s) = 5.46980 6.82744 6.18598
#
# Compressibility (1/GPa) = 0.02930788
#
# Stress axis : x y z
#
# Youngs Moduli (GPa) = 35.47497 33.67871 41.64381
#
# Poissons Ratio (x) = 0.08860 0.39862
# Poissons Ratio (y) = 0.09333 0.58677
# Poissons Ratio (z) = 0.33957 0.47454
#
# Static dielectric constant tensor:
#      x y z
#    x 3.860160 -0.605270 0.511730 
#    y -0.605270 3.656730 0.244560 
#    z 0.511730 0.244560 3.059290 
# 
# 
# High freq. dielectric constant tensor:
#      x y z
#    x 1.730750 -0.032610 0.052230 
#    y -0.032610 1.719890 0.043340 
#    z 0.052230 0.043340 1.680490 
# 
# From -- ./inp_files/176508.got.cif
#   From: 2010.06.25/outbox.cif.g09.slc.cpg/sg2_89_cif.got.tgz:176508.got - 2010.06.27 13:26:56.
