data_PCOD8020231
_publ_section_title
;
Structure prediction by ZEFSAII (Michael W. Deem and Ramdas Pophale) SiO2 
 PCOD8020231
Probable space group: P -1
;
_chemical_formula_sum "Si O2"
_cell_formula_units_Z 14
_cell_length_a 9.660492
_cell_length_b 13.449079
_cell_length_c 19.923583
_cell_angle_alpha 152.839656
_cell_angle_beta 45.030569
_cell_angle_gamma 144.827117
_cell_volume 678.592638
_symmetry_space_group_name_H-M "P -1"
_symmetry_group_IT_number 2
_symmetry_cell_setting 'triclinic'
loop_
_space_group_symop_operation_xyz
x,y,z
-x,-y,-z
loop_
_atom_site_type_symbol
_atom_site_label
_atom_site_fract_x
_atom_site_fract_y
_atom_site_fract_z
Si Si1 0.539295 0.511919 0.716903
Si Si2 0.554958 0.636661 0.134666
Si Si3 0.682150 0.782474 0.685781
Si Si4 0.725554 0.224819 0.422337
Si Si5 0.312160 0.676686 0.648907
Si Si6 0.864569 0.637509 0.132836
Si Si7 0.120252 0.291963 0.162469
O O1 0.578912 0.662633 0.723325
O O2 0.553458 0.257759 0.549341
O O3 0.281659 0.416193 0.779429
O O4 0.758996 0.709212 0.810143
O O5 0.679686 0.525091 0.066934
O O6 0.303067 0.522849 0.187302
O O7 0.717492 0.961325 0.279950
O O8 0.500000 0.500000 0.000000
O O9 0.500353 0.830262 0.738048
O O10 0.727494 0.604540 0.516643
O O11 0.943396 0.053043 0.762173
O O12 0.600407 0.166793 0.357457
O O13 0.000000 0.500000 0.500000
O O14 0.064014 0.632373 0.722265
O O15 0.000000 0.500000 0.000000
O O16 0.000000 0.000000 0.000000
#
# Coordination Sequence:
#
# PCOD8020231 Si02
#       7
#     2   2   2   2   2   2   2
#     4  10  24  44  67  99 125 178 229 267 342 392
#     4  11  26  41  67 101 131 173 223 278 343 386
#     4  10  24  44  67  91 136 175 214 274 335 401
#     4  11  21  42  75  97 132 171 220 289 328 398
#     4  10  22  42  66  98 125 171 221 267 335 395
#     4  11  27  43  65  94 135 177 222 274 328 412
#     4  11  24  39  67  95 135 169 224 281 326 400
#
# _framework density 20.630934
#
# number of rings (size 3 to 8) (size 9 to 14) (size 15 to 20)
#    0.000    1.429    1.429    2.571   10.000    2.857 
#    0.000    2.143    0.000    0.000    0.000    0.000 
#    0.000    0.000    0.000    0.000    0.000    0.000 
#
# Total GULP energy -173477.915284 kJ/mol
# GULP energy per Si atom -12391.279663 kJ/mol
# Density = 2.058398 g / cm^3
# Si number density = 20.630934 Si / 1000 Ang^3
#
#
#
# Elastic Constant Matrix: (Units=GPa)
#
#
# Indices 1 2 3 4 5 6 
#
# 1 107.8838 45.0320 46.9607 -17.4367 2.2172 -13.3194
# 2 45.0320 120.5575 64.9779 -13.8476 -0.8049 4.3690
# 3 46.9607 64.9779 114.9857 -14.1319 -6.3107 2.2776
# 4 -17.4367 -13.8476 -14.1319 40.0488 2.8318 -2.9877
# 5 2.2172 -0.8049 -6.3107 2.8318 39.5191 -10.7514
# 6 -13.3194 4.3690 2.2776 -2.9877 -10.7514 28.1645
#
#
#
# Elastic Compliance Matrix: (Units=1/GPa)
#
#
# Indices 1 2 3 4 5 6 
#
# 1 0.013699 -0.003029 -0.003493 0.004239 0.000444 0.007850
# 2 -0.003029 0.012833 -0.005922 0.000880 -0.001510 -0.003427
# 3 -0.003493 -0.005922 0.013726 0.001065 0.001919 -0.000998
# 4 0.004239 0.000880 0.001065 0.027884 -0.000846 0.004417
# 5 0.000444 -0.001510 0.001919 -0.000846 0.028645 0.011134
# 6 0.007850 -0.003427 -0.000998 0.004417 0.011134 0.044549
#
#
# Mechanical properties :
#
#
# Convention : Reuss Voigt Hill
#
# Bulk Modulus (GPa) = 65.06158 73.04091 69.05124
# Shear Modulus (GPa) = 29.18043 33.97692 31.57867
#
# Velocity S-wave (km/s) = 3.76493 4.06259 3.91659
# Velocity P-wave (km/s) = 7.10662 7.58200 7.34815
#
# Compressibility (1/GPa) = 0.01537005
#
# Stress axis : x y z
#
# Youngs Moduli (GPa) = 72.99641 77.92370 72.85577
#
# Poissons Ratio (x) = 0.23602 0.25452
# Poissons Ratio (y) = 0.22110 0.43143
# Poissons Ratio (z) = 0.25501 0.46144
#
# Static dielectric constant tensor:
#      x y z
#    x 4.958990 -0.459830 -0.766360 
#    y -0.459830 4.060600 0.400350 
#    z -0.766360 0.400350 4.938000 
# 
# 
# High freq. dielectric constant tensor:
#      x y z
#    x 1.821370 -0.000130 0.001370 
#    y -0.000130 1.800740 -0.011310 
#    z 0.001370 -0.011310 1.813330 
# 
# From -- ./inp_files/184960.got.cif
#   From: 2010.06.25/outbox.cif.g09.slc.cpg/sg2_93_cif.got.tgz:184960.got - 2010.06.27 13:26:56.
