data_PCOD8020253
_publ_section_title
;
Structure prediction by ZEFSAII (Michael W. Deem and Ramdas Pophale) SiO2 
 PCOD8020253
Probable space group: P -1
;
_chemical_formula_sum "Si O2"
_cell_formula_units_Z 12
_cell_length_a 8.466911
_cell_length_b 6.371662
_cell_length_c 16.824780
_cell_angle_alpha 124.814448
_cell_angle_beta 43.451889
_cell_angle_gamma 103.895206
_cell_volume 487.474162
_symmetry_space_group_name_H-M "P -1"
_symmetry_group_IT_number 2
_symmetry_cell_setting 'triclinic'
loop_
_space_group_symop_operation_xyz
x,y,z
-x,-y,-z
loop_
_atom_site_type_symbol
_atom_site_label
_atom_site_fract_x
_atom_site_fract_y
_atom_site_fract_z
Si Si1 0.804406 0.689764 0.210817
Si Si2 0.379351 0.801123 0.139715
Si Si3 0.825394 0.852659 0.069872
Si Si4 0.915541 0.768449 0.361043
Si Si5 0.029528 0.324867 0.332767
Si Si6 0.297752 0.673108 0.400878
O O1 0.780326 0.900239 0.191742
O O2 0.814929 0.831855 0.321497
O O3 0.588259 0.553289 0.263028
O O4 0.059141 0.463415 0.056566
O O5 0.567880 0.935811 0.137640
O O6 0.190076 0.778427 0.270614
O O7 0.217479 0.024711 0.183866
O O8 0.500000 0.500000 0.000000
O O9 0.000000 0.000000 0.000000
O O10 0.911800 0.471418 0.325502
O O11 0.757855 0.006080 0.527622
O O12 0.177522 0.518607 0.351925
O O13 0.809805 0.332139 0.472659
#
# Coordination Sequence:
#
# PCOD8020253 Si02
#       6
#     2   2   2   2   2   2
#     4  11  24  43  64  99 138 176 222 280 342 397
#     4  11  23  45  67  98 134 178 228 281 332 398
#     4  11  25  44  68  95 136 182 227 276 337 406
#     4  11  23  42  68 102 137 175 223 286 338 402
#     4  10  23  41  69 101 132 180 228 274 344 405
#     4  10  22  42  67 100 138 176 226 277 340 401
#
# _framework density 24.616689999999998
#
# number of rings (size 3 to 8) (size 9 to 14) (size 15 to 20)
#    0.000    1.333    1.667    3.000    0.000    9.333 
#    0.000    0.000    0.000    0.000    0.000    0.000 
#    0.000    0.000    0.000    0.000    0.000    0.000 
#
# Total GULP energy -148680.181052 kJ/mol
# GULP energy per Si atom -12390.015088 kJ/mol
# Density = 2.456066 g / cm^3
# Si number density = 24.616690 Si / 1000 Ang^3
#
#
#
# Elastic Constant Matrix: (Units=GPa)
#
#
# Indices 1 2 3 4 5 6 
#
# 1 72.9336 39.0751 17.1052 -22.3331 -3.5055 -4.3738
# 2 39.0751 136.9004 24.0405 -3.4659 3.0151 -14.6926
# 3 17.1052 24.0405 79.2506 -0.3882 -2.1786 -8.1887
# 4 -22.3331 -3.4659 -0.3882 53.1044 14.2718 -8.9634
# 5 -3.5055 3.0151 -2.1786 14.2718 35.1482 -3.1178
# 6 -4.3738 -14.6926 -8.1887 -8.9634 -3.1178 35.7936
#
#
#
# Elastic Compliance Matrix: (Units=1/GPa)
#
#
# Indices 1 2 3 4 5 6 
#
# 1 0.019473 -0.004662 -0.002581 0.008481 -0.001093 0.001904
# 2 -0.004662 0.009184 -0.001538 -0.000711 -0.000829 0.002598
# 3 -0.002581 -0.001538 0.013888 -0.001101 0.001367 0.002074
# 4 0.008481 -0.000711 -0.001101 0.025831 -0.009103 0.006168
# 5 -0.001093 -0.000829 0.001367 -0.009103 0.032226 0.000366
# 6 0.001904 0.002598 0.002074 0.006168 0.000366 0.031288
#
#
# Mechanical properties :
#
#
# Convention : Reuss Voigt Hill
#
# Bulk Modulus (GPa) = 40.02370 49.94737 44.98553
# Shear Modulus (GPa) = 31.69001 38.73350 35.21175
#
# Velocity S-wave (km/s) = 3.59184 3.97100 3.78617
# Velocity P-wave (km/s) = 5.78756 6.43111 6.11780
#
# Compressibility (1/GPa) = 0.02498520
#
# Stress axis : x y z
#
# Youngs Moduli (GPa) = 51.35424 108.88155 72.00410
#
# Poissons Ratio (x) = 0.50757 0.18581
# Poissons Ratio (y) = 0.23940 0.11072
# Poissons Ratio (z) = 0.13252 0.16742
#
# Static dielectric constant tensor:
#      x y z
#    x 4.339320 -0.135250 -0.324780 
#    y -0.135250 4.637380 0.059750 
#    z -0.324780 0.059750 4.565180 
# 
# 
# High freq. dielectric constant tensor:
#      x y z
#    x 1.964490 0.005550 -0.015100 
#    y 0.005550 1.985510 -0.000600 
#    z -0.015100 -0.000600 1.978210 
# 
# From -- ./inp_files/22756.got.cif
#   From: 2010.06.25/outbox.cif.g09.slc.cpg/sg2_12_cif.got.tgz:22756.got - 2010.06.27 13:26:56.
