data_PCOD8020310
_publ_section_title
;
Structure prediction by ZEFSAII (Michael W. Deem and Ramdas Pophale) SiO2 
 PCOD8020310
Probable space group: P -1
;
_chemical_formula_sum "Si O2"
_cell_formula_units_Z 16
_cell_length_a 8.747086
_cell_length_b 8.519516
_cell_length_c 14.593316
_cell_angle_alpha 72.920588
_cell_angle_beta 132.001015
_cell_angle_gamma 85.953705
_cell_volume 715.837014
_symmetry_space_group_name_H-M "P -1"
_symmetry_group_IT_number 2
_symmetry_cell_setting 'triclinic'
loop_
_space_group_symop_operation_xyz
x,y,z
-x,-y,-z
loop_
_atom_site_type_symbol
_atom_site_label
_atom_site_fract_x
_atom_site_fract_y
_atom_site_fract_z
Si Si1 0.346403 0.562773 0.302415
Si Si2 0.903619 0.122204 0.220924
Si Si3 0.660816 0.006154 0.482768
Si Si4 0.042415 0.067369 0.908273
Si Si5 0.727972 0.630016 0.526695
Si Si6 0.200531 0.533900 0.775722
Si Si7 0.472865 0.346465 0.223274
Si Si8 0.585738 0.791449 0.959467
O O1 0.144554 0.740529 0.220089
O O2 0.583657 0.585329 0.397838
O O3 0.360668 0.403927 0.403832
O O4 0.313664 0.507013 0.195204
O O5 0.879187 0.324954 0.195784
O O6 0.678415 0.094570 0.165067
O O7 0.107690 0.992254 0.385017
O O8 0.961185 0.073373 0.145798
O O9 0.559836 0.171880 0.348802
O O10 0.500000 0.000000 0.500000
O O11 0.701573 0.832312 0.468092
O O12 0.284958 0.077253 0.000527
O O13 0.000000 0.000000 0.000000
O O14 0.990254 0.509245 0.647134
O O15 0.322466 0.605725 0.736892
O O16 0.362290 0.347052 0.912497
O O17 0.339631 0.315477 0.088098
#
# Coordination Sequence:
#
# PCOD8020310 Si02
#       8
#     2   2   2   2   2   2   2   2
#     4  11  24  43  65  98 133 170 220 269 327 395
#     4  10  24  44  68  94 133 174 216 271 333 383
#     4  11  22  41  70  99 132 170 219 277 328 386
#     4  12  28  42  66 101 133 176 223 270 327 395
#     4  10  22  42  67  93 135 176 210 270 335 380
#     4  10  23  46  69  94 129 177 222 271 328 392
#     4  11  25  41  69 101 126 173 224 269 327 395
#     4  11  25  46  68  92 136 176 221 274 328 391
#
# _framework density 22.351455000000001
#
# number of rings (size 3 to 8) (size 9 to 14) (size 15 to 20)
#    0.000    1.250    2.500    2.625    8.750    5.500 
#    0.000    0.000    0.000    0.000    0.000    0.000 
#    0.000    0.000    0.000    0.000    0.000    0.000 
#
# Total GULP energy -198408.783056 kJ/mol
# GULP energy per Si atom -12400.548941 kJ/mol
# Density = 2.230058 g / cm^3
# Si number density = 22.351455 Si / 1000 Ang^3
#
#
#
# Elastic Constant Matrix: (Units=GPa)
#
#
# Indices 1 2 3 4 5 6 
#
# 1 79.6330 29.5426 28.5693 -9.0641 -1.1867 12.9327
# 2 29.5426 64.2794 13.6210 0.1483 -4.1998 2.6909
# 3 28.5693 13.6210 68.7928 -8.6911 10.4156 18.2460
# 4 -9.0641 0.1483 -8.6911 31.0270 4.0866 -3.5229
# 5 -1.1867 -4.1998 10.4156 4.0866 45.6749 5.5225
# 6 12.9327 2.6909 18.2460 -3.5229 5.5225 45.9374
#
#
#
# Elastic Compliance Matrix: (Units=1/GPa)
#
#
# Indices 1 2 3 4 5 6 
#
# 1 0.017740 -0.006921 -0.005071 0.003391 0.000971 -0.002432
# 2 -0.006921 0.019242 -0.001908 -0.002805 0.002142 0.001107
# 3 -0.005071 -0.001908 0.019642 0.004006 -0.004490 -0.005415
# 4 0.003391 -0.002805 0.004006 0.035018 -0.004316 0.000823
# 5 0.000971 0.002142 -0.004490 -0.004316 0.023744 -0.001801
# 6 -0.002432 0.001107 -0.005415 0.000823 -0.001801 0.024819
#
#
# Mechanical properties :
#
#
# Convention : Reuss Voigt Hill
#
# Bulk Modulus (GPa) = 34.69167 39.57454 37.13311
# Shear Modulus (GPa) = 28.15110 33.92602 31.03856
#
# Velocity S-wave (km/s) = 3.55276 3.90018 3.73051
# Velocity P-wave (km/s) = 5.69071 6.16651 5.93338
#
# Compressibility (1/GPa) = 0.02882536
#
# Stress axis : x y z
#
# Youngs Moduli (GPa) = 56.37055 51.96854 50.91068
#
# Poissons Ratio (x) = 0.35969 0.25814
# Poissons Ratio (y) = 0.39015 0.09712
# Poissons Ratio (z) = 0.28583 0.09914
#
# Static dielectric constant tensor:
#      x y z
#    x 4.020300 0.015410 0.156270 
#    y 0.015410 4.138090 0.156040 
#    z 0.156270 0.156040 4.059290 
# 
# 
# High freq. dielectric constant tensor:
#      x y z
#    x 1.875590 0.006070 0.009800 
#    y 0.006070 1.879500 0.007040 
#    z 0.009800 0.007040 1.879530 
# 
# From -- ./inp_files/203163.got.cif
#   From: 2010.06.25/outbox.cif.g09.slc.cpg/sg2_102_cif.got.tgz:203163.got - 2010.06.27 13:26:56.
