data_PCOD8020391
_publ_section_title
;
Structure prediction by ZEFSAII (Michael W. Deem and Ramdas Pophale) SiO2 
 PCOD8020391
Probable space group: P -1
;
_chemical_formula_sum "Si O2"
_cell_formula_units_Z 16
_cell_length_a 23.120243
_cell_length_b 9.947296
_cell_length_c 12.913085
_cell_angle_alpha 140.181879
_cell_angle_beta 146.446601
_cell_angle_gamma 27.182430
_cell_volume 745.635805
_symmetry_space_group_name_H-M "P -1"
_symmetry_group_IT_number 2
_symmetry_cell_setting 'triclinic'
loop_
_space_group_symop_operation_xyz
x,y,z
-x,-y,-z
loop_
_atom_site_type_symbol
_atom_site_label
_atom_site_fract_x
_atom_site_fract_y
_atom_site_fract_z
Si Si1 0.835000 0.822484 0.224017
Si Si2 0.268051 0.632542 0.960899
Si Si3 0.610392 0.849533 0.669214
Si Si4 0.034720 0.651376 0.709637
Si Si5 0.521315 0.056019 0.879145
Si Si6 0.136223 0.183885 0.970242
Si Si7 0.491842 0.379170 0.311424
Si Si8 0.772101 0.184885 0.529865
O O1 0.935148 0.481205 0.208350
O O2 0.848371 0.001731 0.428139
O O3 0.892386 0.816556 0.194487
O O4 0.666750 0.987629 0.068030
O O5 0.180927 0.559374 0.834009
O O6 0.382799 0.392751 0.903386
O O7 0.353253 0.636163 0.183110
O O8 0.151011 0.947232 0.915193
O O9 0.711348 0.909180 0.842847
O O10 0.716561 0.499032 0.624150
O O11 0.500000 0.000000 0.500000
O O12 0.507921 0.004138 0.709241
O O13 0.000000 0.500000 0.500000
O O14 0.891703 0.006064 0.697154
O O15 0.523982 0.845733 0.828882
O O16 0.000000 0.500000 0.000000
O O17 0.500000 0.500000 0.500000
O O18 0.641109 0.207852 0.370368
#
# Coordination Sequence:
#
# PCOD8020391 Si02
#       8
#     2   2   2   2   2   2   2   2
#     4  10  22  43  71  94 132 178 221 276 336 399
#     4  12  24  44  73  97 135 180 228 276 333 405
#     4  11  25  43  63  96 141 174 222 279 335 393
#     4  10  22  42  68 101 130 176 220 276 332 396
#     4  11  22  40  69 100 130 176 226 274 333 400
#     4  11  27  47  64  96 134 177 228 274 337 402
#     4  12  23  40  68 107 135 169 226 282 333 391
#     4  11  22  42  67  98 137 173 226 275 334 403
#
# _framework density 21.458195
#
# number of rings (size 3 to 8) (size 9 to 14) (size 15 to 20)
#    0.000    1.000    3.750    3.375    1.750    2.000 
#    4.500    5.625    0.000    0.000    0.000    0.000 
#    0.000    0.000    0.000    0.000    0.000    0.000 
#
# Total GULP energy -198408.339601 kJ/mol
# GULP energy per Si atom -12400.521225 kJ/mol
# Density = 2.140936 g / cm^3
# Si number density = 21.458195 Si / 1000 Ang^3
#
#
#
# Elastic Constant Matrix: (Units=GPa)
#
#
# Indices 1 2 3 4 5 6 
#
# 1 86.2296 24.9837 34.8610 -2.5291 -20.9219 7.1501
# 2 24.9837 129.0888 32.8865 -8.0415 -28.1549 11.5062
# 3 34.8610 32.8865 86.0159 -9.9256 -23.1724 -1.9427
# 4 -2.5291 -8.0415 -9.9256 39.4424 0.8760 -2.6139
# 5 -20.9219 -28.1549 -23.1724 0.8760 42.0434 -3.7666
# 6 7.1501 11.5062 -1.9427 -2.6139 -3.7666 31.6875
#
#
#
# Elastic Compliance Matrix: (Units=1/GPa)
#
#
# Indices 1 2 3 4 5 6 
#
# 1 0.014965 -0.000514 -0.004899 -0.000672 0.004143 -0.003053
# 2 -0.000514 0.009777 -0.002170 0.001115 0.004812 -0.002903
# 3 -0.004899 -0.002170 0.016390 0.003501 0.005412 0.003830
# 4 -0.000672 0.001115 0.003501 0.026533 0.002003 0.002388
# 5 0.004143 0.004812 0.005412 0.002003 0.032157 0.001637
# 6 -0.003053 -0.002903 0.003830 0.002388 0.001637 0.033928
#
#
# Mechanical properties :
#
#
# Convention : Reuss Voigt Hill
#
# Bulk Modulus (GPa) = 38.51416 54.08854 46.30135
# Shear Modulus (GPa) = 31.73187 36.54154 34.13671
#
# Velocity S-wave (km/s) = 3.84966 4.13112 3.99287
# Velocity P-wave (km/s) = 6.14388 6.92936 6.54841
#
# Compressibility (1/GPa) = 0.02596448
#
# Stress axis : x y z
#
# Youngs Moduli (GPa) = 66.82164 102.28398 61.01465
#
# Poissons Ratio (x) = 0.05262 0.29891
# Poissons Ratio (y) = 0.03438 0.13241
# Poissons Ratio (z) = 0.32736 0.22197
#
# Static dielectric constant tensor:
#      x y z
#    x 4.086580 0.098550 -0.162170 
#    y 0.098550 4.114590 -0.249420 
#    z -0.162170 -0.249420 4.039930 
# 
# 
# High freq. dielectric constant tensor:
#      x y z
#    x 1.845130 0.007980 -0.001820 
#    y 0.007980 1.842580 -0.007210 
#    z -0.001820 -0.007210 1.848410 
# 
# From -- ./inp_files/217701.got.cif
#   From: 2010.06.25/outbox.cif.g09.slc.cpg/sg2_109_cif.got.tgz:217701.got - 2010.06.27 13:26:56.
