data_PCOD8020074
_publ_section_title
;
Structure prediction by ZEFSAII (Michael W. Deem and Ramdas Pophale) SiO2 
 PCOD8020074
Probable space group: P -1
;
_chemical_formula_sum "Si O2"
_cell_formula_units_Z 16
_cell_length_a 8.855809
_cell_length_b 6.865465
_cell_length_c 16.468840
_cell_angle_alpha 126.327708
_cell_angle_beta 80.892584
_cell_angle_gamma 79.103147
_cell_volume 744.476905
_symmetry_space_group_name_H-M "P -1"
_symmetry_group_IT_number 2
_symmetry_cell_setting 'triclinic'
loop_
_space_group_symop_operation_xyz
x,y,z
-x,-y,-z
loop_
_atom_site_type_symbol
_atom_site_label
_atom_site_fract_x
_atom_site_fract_y
_atom_site_fract_z
Si Si1 0.477360 0.206408 0.850015
Si Si2 0.068985 0.563621 0.238215
Si Si3 0.819789 0.196075 0.573636
Si Si4 0.505875 0.207271 0.663274
Si Si5 0.234485 0.636532 0.081171
Si Si6 0.025488 0.930792 0.887845
Si Si7 0.257374 0.933141 0.614747
Si Si8 0.361335 0.752801 0.735883
O O1 0.464412 0.305561 0.783208
O O2 0.641801 0.209943 0.878582
O O3 0.481657 0.913240 0.777098
O O4 0.317724 0.388642 0.956101
O O5 0.169883 0.570960 0.313765
O O6 0.187349 0.537644 0.145208
O O7 0.023809 0.312218 0.189678
O O8 0.906814 0.815385 0.303403
O O9 0.701921 0.066350 0.597835
O O10 0.754462 0.265563 0.503643
O O11 0.000000 0.000000 0.500000
O O12 0.409178 0.021610 0.600217
O O13 0.461668 0.454940 0.669586
O O14 0.073933 0.824035 0.097255
O O15 0.215625 0.861520 0.838637
O O16 0.000000 0.000000 0.000000
O O17 0.287979 0.779277 0.658023
#
# Coordination Sequence:
#
# PCOD8020074 Si02
#       8
#     2   2   2   2   2   2   2   2
#     4  10  24  40  63  94 128 172 209 257 319 374
#     4  11  22  43  64  93 131 166 210 266 311 373
#     4  10  23  42  68  92 121 171 215 260 320 371
#     4  11  21  42  66  92 131 162 209 266 313 378
#     4  11  23  41  64  92 130 170 212 258 316 377
#     4  12  25  39  65  97 128 170 212 257 314 379
#     4  10  22  42  65  92 128 167 213 260 320 368
#     4  11  23  39  64  95 129 165 211 259 313 380
#
# _framework density 21.491600999999999
#
# number of rings (size 3 to 8) (size 9 to 14) (size 15 to 20)
#    0.000    1.250    3.750    1.875    3.500    1.500 
#    0.000    5.000    0.000    0.000    0.000    0.000 
#    0.000    0.000    0.000    0.000    0.000    0.000 
#
# Total GULP energy -198396.443122 kJ/mol
# GULP energy per Si atom -12399.777695 kJ/mol
# Density = 2.144269 g / cm^3
# Si number density = 21.491601 Si / 1000 Ang^3
#
#
#
# Elastic Constant Matrix: (Units=GPa)
#
#
# Indices 1 2 3 4 5 6 
#
# 1 99.4854 14.5579 39.3962 -4.3797 -7.8750 7.3435
# 2 14.5579 80.9309 30.0137 -6.5272 3.7928 4.7390
# 3 39.3962 30.0137 123.3556 -25.1956 9.3615 1.9728
# 4 -4.3797 -6.5272 -25.1956 21.5642 0.8848 -4.3756
# 5 -7.8750 3.7928 9.3615 0.8848 49.1151 -2.3741
# 6 7.3435 4.7390 1.9728 -4.3756 -2.3741 24.2830
#
#
#
# Elastic Compliance Matrix: (Units=1/GPa)
#
#
# Indices 1 2 3 4 5 6 
#
# 1 0.012363 -0.000703 -0.004783 -0.004154 0.002845 -0.003683
# 2 -0.000703 0.013777 -0.003025 0.000057 -0.000712 -0.002290
# 3 -0.004783 -0.003025 0.013582 0.014780 -0.003230 0.003281
# 4 -0.004154 0.000057 0.014780 0.065299 -0.004112 0.011409
# 5 0.002845 -0.000712 -0.003230 -0.004112 0.021605 0.000912
# 6 -0.003683 -0.002290 0.003281 0.011409 0.000912 0.044620
#
#
# Mechanical properties :
#
#
# Convention : Reuss Voigt Hill
#
# Bulk Modulus (GPa) = 44.05407 52.41196 48.23302
# Shear Modulus (GPa) = 25.53182 33.64606 29.58894
#
# Velocity S-wave (km/s) = 3.45046 3.96099 3.71451
# Velocity P-wave (km/s) = 6.03465 6.73494 6.39439
#
# Compressibility (1/GPa) = 0.02269938
#
# Stress axis : x y z
#
# Youngs Moduli (GPa) = 80.88811 72.58687 73.62864
#
# Poissons Ratio (x) = 0.05101 0.35215
# Poissons Ratio (y) = 0.05685 0.22274
# Poissons Ratio (z) = 0.38687 0.21959
#
# Static dielectric constant tensor:
#      x y z
#    x 4.331090 0.041960 0.096240 
#    y 0.041960 3.560130 -0.171890 
#    z 0.096240 -0.171890 4.277870 
# 
# 
# High freq. dielectric constant tensor:
#      x y z
#    x 1.864250 0.004310 -0.001830 
#    y 0.004310 1.814200 -0.013790 
#    z -0.001830 -0.013790 1.865070 
# 
# From -- ./inp_files/38614.got.cif
#   From: 2010.06.25/outbox.cif.g09.slc.cpg/sg2_20_cif.got.tgz:38614.got - 2010.06.27 13:26:56.
