data_PCOD8020890
_publ_section_title
;
Structure prediction by ZEFSAII (Michael W. Deem and Ramdas Pophale) SiO2 
 PCOD8020890
Probable space group: P -1
;
_chemical_formula_sum "Si O2"
_cell_formula_units_Z 14
_cell_length_a 19.942899
_cell_length_b 8.406333
_cell_length_c 13.453110
_cell_angle_alpha 148.057423
_cell_angle_beta 143.922712
_cell_angle_gamma 47.544387
_cell_volume 702.249831
_symmetry_space_group_name_H-M "P -1"
_symmetry_group_IT_number 2
_symmetry_cell_setting 'triclinic'
loop_
_space_group_symop_operation_xyz
x,y,z
-x,-y,-z
loop_
_atom_site_type_symbol
_atom_site_label
_atom_site_fract_x
_atom_site_fract_y
_atom_site_fract_z
Si Si1 0.435743 0.337937 0.748182
Si Si2 0.817707 0.773330 0.365307
Si Si3 0.837198 0.260311 0.789333
Si Si4 0.427455 0.289079 0.043319
Si Si5 0.817931 0.638428 0.508089
Si Si6 0.028377 0.339923 0.694037
Si Si7 0.594374 0.354254 0.602142
O O1 0.496170 0.447801 0.777854
O O2 0.307087 0.453325 0.650098
O O3 0.442114 0.980702 0.582942
O O4 0.500000 0.500000 0.000000
O O5 0.829152 0.552470 0.358040
O O6 0.882206 0.631147 0.274484
O O7 0.869156 0.106921 0.639220
O O8 0.683168 0.809360 0.205529
O O9 0.709281 0.371695 0.684218
O O10 0.836561 0.998769 0.734271
O O11 0.923552 0.519271 0.070473
O O12 0.380100 0.429740 0.160634
O O13 0.500000 0.000000 0.000000
O O14 0.910211 0.483601 0.602925
O O15 0.000000 0.000000 0.500000
O O16 0.500000 0.500000 0.500000
#
# Coordination Sequence:
#
# PCOD8020890 Si02
#       7
#     2   2   2   2   2   2   2
#     4  11  21  40  63  97 128 165 218 257 321 392
#     4  10  22  43  65  88 125 169 210 247 333 369
#     4   9  21  42  63  86 126 162 210 254 316 376
#     4  12  23  39  67  94 133 169 209 270 324 390
#     4   9  22  42  64  86 128 168 208 258 311 382
#     4  12  24  39  66  95 123 163 217 266 312 377
#     4  11  22  40  65  95 128 170 212 267 326 383
#
# _framework density 19.935925000000001
#
# number of rings (size 3 to 8) (size 9 to 14) (size 15 to 20)
#    0.857    0.571    2.857    3.000    2.000    1.714 
#    0.000    0.000    0.000    0.000    0.000    0.000 
#    0.000    0.000    0.000    0.000    0.000    0.000 
#
# Total GULP energy -173489.614603 kJ/mol
# GULP energy per Si atom -12392.115329 kJ/mol
# Density = 1.989055 g / cm^3
# Si number density = 19.935925 Si / 1000 Ang^3
#
#
#
# Elastic Constant Matrix: (Units=GPa)
#
#
# Indices 1 2 3 4 5 6 
#
# 1 50.5275 4.6228 11.0830 -3.7446 1.0022 -10.4678
# 2 4.6228 117.8107 37.6294 -15.6357 16.9571 -14.8241
# 3 11.0830 37.6294 125.4918 -7.2111 -3.9545 -9.3196
# 4 -3.7446 -15.6357 -7.2111 32.4926 -5.9721 2.7189
# 5 1.0022 16.9571 -3.9545 -5.9721 35.1440 0.6301
# 6 -10.4678 -14.8241 -9.3196 2.7189 0.6301 29.7942
#
#
#
# Elastic Compliance Matrix: (Units=1/GPa)
#
#
# Indices 1 2 3 4 5 6 
#
# 1 0.021760 0.000999 -0.001595 0.001802 -0.001110 0.007502
# 2 0.000999 0.011258 -0.003076 0.003475 -0.005302 0.004785
# 3 -0.001595 -0.003076 0.009213 0.000821 0.002694 0.000659
# 4 0.001802 0.003475 0.000821 0.033635 0.004090 -0.000537
# 5 -0.001110 -0.005302 0.002694 0.004090 0.032100 -0.003237
# 6 0.007502 0.004785 0.000659 -0.000537 -0.003237 0.038904
#
#
# Mechanical properties :
#
#
# Convention : Reuss Voigt Hill
#
# Bulk Modulus (GPa) = 28.66574 44.50004 36.58289
# Shear Modulus (GPa) = 30.14902 35.51915 32.83408
#
# Velocity S-wave (km/s) = 3.89304 4.22556 4.06270
# Velocity P-wave (km/s) = 5.88370 6.79537 6.35590
#
# Compressibility (1/GPa) = 0.03488485
#
# Stress axis : x y z
#
# Youngs Moduli (GPa) = 45.95686 88.82632 108.54371
#
# Poissons Ratio (x) = -0.08871 0.17318
# Poissons Ratio (y) = -0.04590 0.33388
# Poissons Ratio (z) = 0.07332 0.27323
#
# Static dielectric constant tensor:
#      x y z
#    x 3.911980 -0.491550 -0.351570 
#    y -0.491550 4.020550 0.408490 
#    z -0.351570 0.408490 4.042360 
# 
# 
# High freq. dielectric constant tensor:
#      x y z
#    x 1.768400 -0.013260 -0.006240 
#    y -0.013260 1.774480 -0.009680 
#    z -0.006240 -0.009680 1.785140 
# 
# From -- ./inp_files/516068.got.cif
#   From: 2010.06.25/outbox.cif.g09.slc.cpg/sg2_259_cif.got.tgz:516068.got - 2010.06.27 13:26:56.
