data_PCOD8020529
_publ_section_title
;
Structure prediction by ZEFSAII (Michael W. Deem and Ramdas Pophale) SiO2 
 PCOD8020529
Probable space group: P -1
;
_chemical_formula_sum "Si O2"
_cell_formula_units_Z 16
_cell_length_a 17.299173
_cell_length_b 11.311406
_cell_length_c 9.642305
_cell_angle_alpha 114.788463
_cell_angle_beta 54.486463
_cell_angle_gamma 149.784956
_cell_volume 756.970538
_symmetry_space_group_name_H-M "P -1"
_symmetry_group_IT_number 2
_symmetry_cell_setting 'triclinic'
loop_
_space_group_symop_operation_xyz
x,y,z
-x,-y,-z
loop_
_atom_site_type_symbol
_atom_site_label
_atom_site_fract_x
_atom_site_fract_y
_atom_site_fract_z
Si Si1 0.009345 0.070765 0.874651
Si Si2 0.397772 0.752999 0.017765
Si Si3 0.485317 0.383803 0.670301
Si Si4 0.076128 0.544082 0.295640
Si Si5 0.846975 0.142608 0.122373
Si Si6 0.172782 0.158910 0.316379
Si Si7 0.613040 0.473441 0.297580
Si Si8 0.739912 0.042304 0.891144
O O1 0.201032 0.259020 0.707368
O O2 0.861969 0.845744 0.812399
O O3 0.999148 0.214378 0.970812
O O4 0.000000 0.000000 0.000000
O O5 0.210915 0.577609 0.195062
O O6 0.362629 0.637318 0.854042
O O7 0.500000 0.000000 0.000000
O O8 0.527895 0.814518 0.005928
O O9 0.660369 0.567375 0.670258
O O10 0.492729 0.319094 0.482384
O O11 0.463204 0.512081 0.727169
O O12 0.325337 0.137708 0.797146
O O13 0.177091 0.778502 0.231832
O O14 0.000000 0.500000 0.500000
O O15 0.910094 0.313093 0.259860
O O16 0.810109 0.174967 0.032044
O O17 0.206913 0.044506 0.236446
O O18 0.000000 0.000000 0.500000
#
# Coordination Sequence:
#
# PCOD8020529 Si02
#       8
#     2   2   2   2   2   2   2   2
#     4  11  22  38  62  93 127 174 215 263 331 398
#     4  10  22  42  69  93 130 178 222 268 331 389
#     4  11  24  38  66 100 137 172 220 275 337 390
#     4  11  25  44  71  97 127 174 230 277 322 395
#     4  11  24  42  64  95 132 173 215 274 334 395
#     4  11  23  42  65  97 135 172 219 274 333 391
#     4  11  21  40  64  98 136 173 218 279 326 399
#     4  10  24  45  67  94 135 176 218 273 335 393
#
# _framework density 21.136884999999999
#
# number of rings (size 3 to 8) (size 9 to 14) (size 15 to 20)
#    0.000    1.250    5.000    0.375    3.500    4.000 
#    2.250    0.625    0.000    0.000    0.000    0.000 
#    0.000    0.000    0.000    0.000    0.000    0.000 
#
# Total GULP energy -198313.598092 kJ/mol
# GULP energy per Si atom -12394.599881 kJ/mol
# Density = 2.108878 g / cm^3
# Si number density = 21.136885 Si / 1000 Ang^3
#
#
#
# Elastic Constant Matrix: (Units=GPa)
#
#
# Indices 1 2 3 4 5 6 
#
# 1 116.3689 33.3380 58.7817 2.0116 5.5003 26.4271
# 2 33.3380 81.1062 39.5672 8.4790 3.0936 30.3569
# 3 58.7817 39.5672 143.0875 6.8478 -1.9094 12.6261
# 4 2.0116 8.4790 6.8478 32.4966 0.8135 1.0600
# 5 5.5003 3.0936 -1.9094 0.8135 38.7197 -2.6561
# 6 26.4271 30.3569 12.6261 1.0600 -2.6561 32.5561
#
#
#
# Elastic Compliance Matrix: (Units=1/GPa)
#
#
# Indices 1 2 3 4 5 6 
#
# 1 0.013144 0.000584 -0.004771 0.000423 -0.002817 -0.009607
# 2 0.000584 0.022145 -0.004487 -0.004149 -0.003325 -0.019519
# 3 -0.004771 -0.004487 0.009864 -0.000802 0.001842 0.004408
# 4 0.000423 -0.004149 -0.000802 0.031913 -0.000248 0.002777
# 5 -0.002817 -0.003325 0.001842 -0.000248 0.027061 0.006889
# 6 -0.009607 -0.019519 0.004408 0.002777 0.006889 0.055477
#
#
# Mechanical properties :
#
#
# Convention : Reuss Voigt Hill
#
# Bulk Modulus (GPa) = 35.96660 67.10405 51.53533
# Shear Modulus (GPa) = 26.85005 34.67954 30.76479
#
# Velocity S-wave (km/s) = 3.56798 4.05496 3.81924
# Velocity P-wave (km/s) = 5.83327 7.33075 6.62446
#
# Compressibility (1/GPa) = 0.02780357
#
# Stress axis : x y z
#
# Youngs Moduli (GPa) = 76.08218 45.15783 101.38363
#
# Poissons Ratio (x) = -0.02637 0.48372
# Poissons Ratio (y) = -0.04443 0.45490
# Poissons Ratio (z) = 0.36300 0.20262
#
# Static dielectric constant tensor:
#      x y z
#    x 1.401090 -2.785910 2.277060 
#    y -2.785910 -0.068810 2.926430 
#    z 2.277060 2.926430 1.653390 
# 
# 
# High freq. dielectric constant tensor:
#      x y z
#    x 1.829450 0.028160 -0.006160 
#    y 0.028160 1.826240 0.002490 
#    z -0.006160 0.002490 1.830620 
# 
# From -- ./inp_files/208904.got.cif
#   From: 2010.06.25/outbox.cif.g09.slc.cpg/sg2_105_cif.got.tgz:208904.got - 2010.06.27 13:26:56.
