data_PCOD8020583
_publ_section_title
;
Structure prediction by ZEFSAII (Michael W. Deem and Ramdas Pophale) SiO2 
 PCOD8020583
Probable space group: P -1
;
_chemical_formula_sum "Si O2"
_cell_formula_units_Z 12
_cell_length_a 8.224002
_cell_length_b 8.300175
_cell_length_c 12.534277
_cell_angle_alpha 48.789883
_cell_angle_beta 52.800040
_cell_angle_gamma 53.300490
_cell_volume 483.512311
_symmetry_space_group_name_H-M "P -1"
_symmetry_group_IT_number 2
_symmetry_cell_setting 'triclinic'
loop_
_space_group_symop_operation_xyz
x,y,z
-x,-y,-z
loop_
_atom_site_type_symbol
_atom_site_label
_atom_site_fract_x
_atom_site_fract_y
_atom_site_fract_z
Si Si1 0.208441 0.951058 0.013103
Si Si2 0.846521 0.731209 0.508691
Si Si3 0.847095 0.292546 0.417089
Si Si4 0.533379 0.486505 0.786158
Si Si5 0.532395 0.754985 0.294917
Si Si6 0.894023 0.158733 0.219727
O O1 0.325171 0.682443 0.105996
O O2 0.120037 0.095038 0.093518
O O3 0.395604 0.029311 0.852847
O O4 0.000000 0.000000 0.000000
O O5 0.621177 0.694591 0.638398
O O6 0.000000 0.500000 0.500000
O O7 0.949584 0.794381 0.547689
O O8 0.815711 0.937188 0.347825
O O9 0.737119 0.564378 0.350182
O O10 0.666034 0.177853 0.571903
O O11 0.937525 0.223282 0.293514
O O12 0.545548 0.340685 0.738494
O O13 0.285416 0.623087 0.859602
#
# Coordination Sequence:
#
# PCOD8020583 Si02
#       6
#     2   2   2   2   2   2
#     4  12  26  45  70  98 141 184 225 285 347 401
#     4  12  21  41  73 102 138 177 227 280 340 402
#     4  10  22  42  72 104 133 181 228 280 339 405
#     4  11  24  43  68 103 138 180 228 282 340 405
#     4  10  22  42  70 101 140 178 226 280 346 403
#     4  11  26  44  70 102 137 180 232 281 338 407
#
# _framework density 24.818394000000001
#
# number of rings (size 3 to 8) (size 9 to 14) (size 15 to 20)
#    0.000    1.000    3.333    2.500    0.000    4.667 
#    0.000    3.333    0.000    0.000    0.000    0.000 
#    0.000    0.000    0.000    0.000    0.000    0.000 
#
# Total GULP energy -148808.280697 kJ/mol
# GULP energy per Si atom -12400.690058 kJ/mol
# Density = 2.476191 g / cm^3
# Si number density = 24.818394 Si / 1000 Ang^3
#
#
#
# Elastic Constant Matrix: (Units=GPa)
#
#
# Indices 1 2 3 4 5 6 
#
# 1 90.4216 15.6092 24.6866 -8.2683 8.6924 -8.4569
# 2 15.6092 96.9804 17.3124 -1.9641 20.8709 -21.2665
# 3 24.6866 17.3124 98.6749 -4.4353 -0.8272 4.9886
# 4 -8.2683 -1.9641 -4.4353 41.8665 -5.4220 9.3660
# 5 8.6924 20.8709 -0.8272 -5.4220 32.0118 -15.5217
# 6 -8.4569 -21.2665 4.9886 9.3660 -15.5217 28.8812
#
#
#
# Elastic Compliance Matrix: (Units=1/GPa)
#
#
# Indices 1 2 3 4 5 6 
#
# 1 0.012519 -0.000521 -0.003119 0.001344 -0.001719 0.002461
# 2 -0.000521 0.013850 -0.002877 -0.002335 -0.005246 0.008480
# 3 -0.003119 -0.002877 0.011769 0.001764 0.000801 -0.005206
# 4 0.001344 -0.002335 0.001764 0.026527 0.000993 -0.009699
# 5 -0.001719 -0.005246 0.000801 0.000993 0.044595 0.019140
# 6 0.002461 0.008480 -0.005206 -0.009699 0.019140 0.055921
#
#
# Mechanical properties :
#
#
# Convention : Reuss Voigt Hill
#
# Bulk Modulus (GPa) = 39.83598 44.58814 42.21206
# Shear Modulus (GPa) = 26.79762 35.78314 31.29038
#
# Velocity S-wave (km/s) = 3.28952 3.80122 3.55459
# Velocity P-wave (km/s) = 5.52392 6.10496 5.82169
#
# Compressibility (1/GPa) = 0.02510293
#
# Stress axis : x y z
#
# Youngs Moduli (GPa) = 79.87736 72.20051 84.97165
#
# Poissons Ratio (x) = 0.03764 0.26502
# Poissons Ratio (y) = 0.04165 0.24448
# Poissons Ratio (z) = 0.24914 0.20774
#
# Static dielectric constant tensor:
#      x y z
#    x 4.493760 -0.133130 0.060290 
#    y -0.133130 4.547930 -0.133970 
#    z 0.060290 -0.133970 4.600520 
# 
# 
# High freq. dielectric constant tensor:
#      x y z
#    x 1.979390 -0.013270 0.007150 
#    y -0.013270 1.998300 -0.006860 
#    z 0.007150 -0.006860 1.981090 
# 
# From -- ./inp_files/148572.got.cif
#   From: 2010.06.25/outbox.cif.g09.slc.cpg/sg2_75_cif.got.tgz:148572.got - 2010.06.27 13:26:56.
