data_PCOD8020971
_publ_section_title
;
Structure prediction by ZEFSAII (Michael W. Deem and Ramdas Pophale) SiO2 
 PCOD8020971
Probable space group: P -1
;
_chemical_formula_sum "Si O2"
_cell_formula_units_Z 12
_cell_length_a 13.486240
_cell_length_b 10.049888
_cell_length_c 8.643602
_cell_angle_alpha 77.432435
_cell_angle_beta 68.765356
_cell_angle_gamma 132.832855
_cell_volume 588.215268
_symmetry_space_group_name_H-M "P -1"
_symmetry_group_IT_number 2
_symmetry_cell_setting 'triclinic'
loop_
_space_group_symop_operation_xyz
x,y,z
-x,-y,-z
loop_
_atom_site_type_symbol
_atom_site_label
_atom_site_fract_x
_atom_site_fract_y
_atom_site_fract_z
Si Si1 0.503772 0.342771 0.036929
Si Si2 0.143044 0.387202 0.046425
Si Si3 0.439613 0.612333 0.353795
Si Si4 0.681908 0.262872 0.405437
Si Si5 0.802871 0.113263 0.481783
Si Si6 0.234462 0.127224 0.691858
O O1 0.657619 0.464869 0.049911
O O2 0.562669 0.350671 0.833979
O O3 0.500000 0.500000 0.000000
O O4 0.294724 0.052931 0.266395
O O5 0.031237 0.323646 0.279380
O O6 0.180134 0.545814 0.861669
O O7 0.000365 0.128040 0.101860
O O8 0.373668 0.673138 0.469016
O O9 0.286825 0.330155 0.543783
O O10 0.653687 0.785576 0.233778
O O11 0.784806 0.257013 0.451600
O O12 0.500000 0.000000 0.500000
O O13 0.693273 0.917149 0.452631
#
# Coordination Sequence:
#
# PCOD8020971 Si02
#       6
#     2   2   2   2   2   2
#     4  12  23  42  67  95 137 170 206 274 332 375
#     4  10  23  44  69  93 128 175 220 261 324 386
#     4  11  23  39  67 101 129 168 221 265 321 382
#     4  12  21  42  70  93 130 177 214 268 320 383
#     4  10  22  43  66  91 129 175 210 260 328 378
#     4   9  21  42  64  94 126 169 225 260 305 386
#
# _framework density 20.400691999999999
#
# number of rings (size 3 to 8) (size 9 to 14) (size 15 to 20)
#    1.000    0.333    5.000    0.500    2.333    4.000 
#    3.000    0.833    0.000    0.000    0.000    0.000 
#    0.000    0.000    0.000    0.000    0.000    0.000 
#
# Total GULP energy -148699.410238 kJ/mol
# GULP energy per Si atom -12391.617520 kJ/mol
# Density = 2.035426 g / cm^3
# Si number density = 20.400692 Si / 1000 Ang^3
#
#
#
# Elastic Constant Matrix: (Units=GPa)
#
#
# Indices 1 2 3 4 5 6 
#
# 1 83.7709 16.3486 48.3206 -0.9426 12.8467 -21.2120
# 2 16.3486 76.6254 42.9457 -4.3379 5.2797 -14.4258
# 3 48.3206 42.9457 141.8494 -17.1920 12.5310 -14.7201
# 4 -0.9426 -4.3379 -17.1920 25.2302 -2.7739 -0.0469
# 5 12.8467 5.2797 12.5310 -2.7739 32.9176 -4.2659
# 6 -21.2120 -14.4258 -14.7201 -0.0469 -4.2659 33.4973
#
#
#
# Elastic Compliance Matrix: (Units=1/GPa)
#
#
# Indices 1 2 3 4 5 6 
#
# 1 0.017698 0.001029 -0.005474 -0.003331 -0.004140 0.008713
# 2 0.001029 0.016589 -0.004793 -0.000425 -0.000545 0.005619
# 3 -0.005474 -0.004793 0.011152 0.006471 -0.000890 -0.000734
# 4 -0.003331 -0.000425 0.006471 0.044151 0.002750 0.000964
# 5 -0.004140 -0.000545 -0.000890 0.002750 0.032773 0.000930
# 6 0.008713 0.005619 -0.000734 0.000964 0.000930 0.037588
#
#
# Mechanical properties :
#
#
# Convention : Reuss Voigt Hill
#
# Bulk Modulus (GPa) = 37.08855 57.49729 47.29292
# Shear Modulus (GPa) = 26.67886 31.30440 28.99163
#
# Velocity S-wave (km/s) = 3.62020 3.92149 3.77385
# Velocity P-wave (km/s) = 5.97444 6.98207 6.49782
#
# Compressibility (1/GPa) = 0.02696250
#
# Stress axis : x y z
#
# Youngs Moduli (GPa) = 56.50508 60.28187 89.66701
#
# Poissons Ratio (x) = -0.06203 0.49084
# Poissons Ratio (y) = -0.05815 0.42978
# Poissons Ratio (z) = 0.30931 0.28894
#
# Static dielectric constant tensor:
#      x y z
#    x 5.742190 -1.383450 0.959800 
#    y -1.383450 4.432750 -0.598250 
#    z 0.959800 -0.598250 4.117920 
# 
# 
# High freq. dielectric constant tensor:
#      x y z
#    x 1.790520 -0.012750 0.003090 
#    y -0.012750 1.782630 -0.012170 
#    z 0.003090 -0.012170 1.804590 
# 
# From -- ./inp_files/266120.got.cif
#   From: 2010.06.25/outbox.cif.g09.slc.cpg/sg2_134_cif.got.tgz:266120.got - 2010.06.27 13:26:56.
