data_PCOD8020811
_publ_section_title
;
Structure prediction by ZEFSAII (Michael W. Deem and Ramdas Pophale) SiO2 
 PCOD8020811
Probable space group: P -1
;
_chemical_formula_sum "Si O2"
_cell_formula_units_Z 16
_cell_length_a 8.155141
_cell_length_b 9.207752
_cell_length_c 17.051682
_cell_angle_alpha 60.445448
_cell_angle_beta 92.076126
_cell_angle_gamma 132.395592
_cell_volume 729.816019
_symmetry_space_group_name_H-M "P -1"
_symmetry_group_IT_number 2
_symmetry_cell_setting 'triclinic'
loop_
_space_group_symop_operation_xyz
x,y,z
-x,-y,-z
loop_
_atom_site_type_symbol
_atom_site_label
_atom_site_fract_x
_atom_site_fract_y
_atom_site_fract_z
Si Si1 0.903053 0.239575 0.072197
Si Si2 0.660177 0.149226 0.784542
Si Si3 0.627750 0.558792 0.905563
Si Si4 0.738486 0.958141 0.702697
Si Si5 0.366034 0.184166 0.431550
Si Si6 0.316858 0.005424 0.018877
Si Si7 0.132362 0.360486 0.393217
Si Si8 0.276005 0.443754 0.539865
O O1 0.084293 0.271438 0.121619
O O2 0.628820 0.026449 0.161492
O O3 0.000000 0.500000 0.000000
O O4 0.907809 0.166458 0.002854
O O5 0.814760 0.441709 0.715174
O O6 0.691021 0.089063 0.716267
O O7 0.767288 0.100646 0.864851
O O8 0.615397 0.707466 0.810113
O O9 0.500000 0.500000 0.000000
O O10 0.466830 0.290787 0.934297
O O11 0.600032 0.868636 0.639993
O O12 0.036335 0.156234 0.643725
O O13 0.306561 0.336169 0.381037
O O14 0.620341 0.357779 0.441179
O O15 0.151721 0.920787 0.545668
O O16 0.500000 0.000000 0.000000
O O17 0.184357 0.469981 0.453396
O O18 0.500000 0.500000 0.500000
#
# Coordination Sequence:
#
# PCOD8020811 Si02
#       8
#     2   2   2   2   2   2   2   2
#     4  11  23  43  67  90 131 174 214 261 321 384
#     4  11  23  44  61  97 131 167 212 263 323 377
#     4  12  24  44  65  97 134 166 213 269 315 379
#     4  11  24  40  64  94 133 164 207 272 312 372
#     4   9  20  40  63  92 121 164 213 260 318 375
#     4  10  22  43  63  93 131 166 217 260 315 381
#     4   9  20  39  64  87 125 164 208 269 310 374
#     4   9  20  41  61  93 125 160 217 257 314 383
#
# _framework density 21.923333
#
# number of rings (size 3 to 8) (size 9 to 14) (size 15 to 20)
#    0.000    1.750    3.750    0.750    7.000    2.500 
#    6.750    1.250    0.000    0.000    0.000    0.000 
#    0.000    0.000    0.000    0.000    0.000    0.000 
#
# Total GULP energy -198335.960790 kJ/mol
# GULP energy per Si atom -12395.997549 kJ/mol
# Density = 2.187343 g / cm^3
# Si number density = 21.923333 Si / 1000 Ang^3
#
#
#
# Elastic Constant Matrix: (Units=GPa)
#
#
# Indices 1 2 3 4 5 6 
#
# 1 34.7892 14.7239 18.8181 -7.9810 -4.0697 -6.4199
# 2 14.7239 150.9718 35.1679 0.2219 -3.4536 3.4495
# 3 18.8181 35.1679 107.7841 -21.3021 -6.0906 -6.1560
# 4 -7.9810 0.2219 -21.3021 44.3672 -12.7347 2.7946
# 5 -4.0697 -3.4536 -6.0906 -12.7347 27.3107 1.7627
# 6 -6.4199 3.4495 -6.1560 2.7946 1.7627 34.5131
#
#
#
# Elastic Compliance Matrix: (Units=1/GPa)
#
#
# Indices 1 2 3 4 5 6 
#
# 1 0.034842 -0.002604 -0.003309 0.006285 0.006713 0.005299
# 2 -0.002604 0.007472 -0.002468 -0.001810 -0.000741 -0.001487
# 3 -0.003309 -0.002468 0.012328 0.006708 0.005005 0.001031
# 4 0.006285 -0.001810 0.006708 0.031872 0.017124 -0.000909
# 5 0.006713 -0.000741 0.005005 0.017124 0.046724 -0.001557
# 6 0.005299 -0.001487 0.001031 -0.000909 -0.001557 0.030446
#
#
# Mechanical properties :
#
#
# Convention : Reuss Voigt Hill
#
# Bulk Modulus (GPa) = 26.39926 47.88500 37.14213
# Shear Modulus (GPa) = 25.89696 36.22720 31.06208
#
# Velocity S-wave (km/s) = 3.44066 4.06944 3.76819
# Velocity P-wave (km/s) = 5.27750 6.63098 5.99257
#
# Compressibility (1/GPa) = 0.03787985
#
# Stress axis : x y z
#
# Youngs Moduli (GPa) = 28.70125 133.82803 81.11391
#
# Poissons Ratio (x) = 0.34847 0.26844
# Poissons Ratio (y) = 0.07473 0.20019
# Poissons Ratio (z) = 0.09498 0.33028
#
# Static dielectric constant tensor:
#      x y z
#    x 6.069940 0.850390 -0.353870 
#    y 0.850390 4.925110 0.268140 
#    z -0.353870 0.268140 4.560910 
# 
# 
# High freq. dielectric constant tensor:
#      x y z
#    x 1.828680 -0.005080 -0.004090 
#    y -0.005080 1.881980 0.000270 
#    z -0.004090 0.000270 1.862790 
# 
# From -- ./inp_files/215634.got.cif
#   From: 2010.06.25/outbox.cif.g09.slc.cpg/sg2_108_cif.got.tgz:215634.got - 2010.06.27 13:26:56.
