data_PCOD8020195
_publ_section_title
;
Structure prediction by ZEFSAII (Michael W. Deem and Ramdas Pophale) SiO2 
 PCOD8020195
Probable space group: P -1
;
_chemical_formula_sum "Si O2"
_cell_formula_units_Z 16
_cell_length_a 6.775887
_cell_length_b 17.959386
_cell_length_c 13.974283
_cell_angle_alpha 30.520269
_cell_angle_beta 90.982404
_cell_angle_gamma 103.765970
_cell_volume 775.596913
_symmetry_space_group_name_H-M "P -1"
_symmetry_group_IT_number 2
_symmetry_cell_setting 'triclinic'
loop_
_space_group_symop_operation_xyz
x,y,z
-x,-y,-z
loop_
_atom_site_type_symbol
_atom_site_label
_atom_site_fract_x
_atom_site_fract_y
_atom_site_fract_z
Si Si1 0.201855 0.269608 0.212814
Si Si2 0.717134 0.168369 0.562330
Si Si3 0.709096 0.672279 0.306037
Si Si4 0.159359 0.380942 0.429104
Si Si5 0.504343 0.911350 0.003421
Si Si6 0.728299 0.035325 0.510609
Si Si7 0.943363 0.382071 0.719887
Si Si8 0.502203 0.594816 0.750057
O O1 0.312378 0.317578 0.265061
O O2 0.935937 0.202648 0.290810
O O3 0.236506 0.123589 0.328746
O O4 0.308840 0.424946 0.972611
O O5 0.703524 0.054112 0.601005
O O6 0.617497 0.293838 0.399314
O O7 0.967175 0.253587 0.504384
O O8 0.571627 0.049057 0.773377
O O9 0.500000 0.500000 0.500000
O O10 0.826859 0.701400 0.378672
O O11 0.852136 0.663589 0.225248
O O12 0.662464 0.824315 0.112891
O O13 0.384443 0.438406 0.306660
O O14 0.098334 0.532148 0.281628
O O15 0.265292 0.782725 0.117540
O O16 0.500000 0.000000 0.000000
O O17 0.500000 0.000000 0.500000
O O18 0.000000 0.500000 0.500000
#
# Coordination Sequence:
#
# PCOD8020195 Si02
#       8
#     2   2   2   2   2   2   2   2
#     4  10  24  45  73  98 135 180 229 280 354 412
#     4  12  27  42  67 104 140 178 230 286 347 408
#     4  11  23  43  71  92 135 185 222 277 341 401
#     4  11  24  42  68  99 138 174 236 284 328 421
#     4  12  25  43  68 102 139 177 229 283 344 400
#     4  11  23  47  70 101 143 177 223 293 350 411
#     4  10  22  42  66  94 127 178 226 276 335 397
#     4  11  24  45  71 102 132 182 231 285 341 415
#
# _framework density 20.629272
#
# number of rings (size 3 to 8) (size 9 to 14) (size 15 to 20)
#    0.000    1.000    5.000    2.250    3.500    4.500 
#    0.000    0.000    0.000    0.000    0.000    0.000 
#    0.000    0.000    0.000    0.000    0.000    0.000 
#
# Total GULP energy -198342.185965 kJ/mol
# GULP energy per Si atom -12396.386623 kJ/mol
# Density = 2.058232 g / cm^3
# Si number density = 20.629272 Si / 1000 Ang^3
#
#
#
# Elastic Constant Matrix: (Units=GPa)
#
#
# Indices 1 2 3 4 5 6 
#
# 1 119.5345 29.4599 45.9287 -0.7047 -8.9077 -1.5939
# 2 29.4599 110.1377 31.3122 -7.2643 -14.0471 -8.9709
# 3 45.9287 31.3122 135.1887 0.3562 -9.2643 -0.8084
# 4 -0.7047 -7.2643 0.3562 29.5546 -4.2662 -2.3491
# 5 -8.9077 -14.0471 -9.2643 -4.2662 32.7156 -5.3174
# 6 -1.5939 -8.9709 -0.8084 -2.3491 -5.3174 49.7545
#
#
#
# Elastic Compliance Matrix: (Units=1/GPa)
#
#
# Indices 1 2 3 4 5 6 
#
# 1 0.009994 -0.001679 -0.002924 0.000041 0.001194 0.000099
# 2 -0.001679 0.011047 -0.001660 0.003579 0.004702 0.002583
# 3 -0.002924 -0.001660 0.008837 -0.000468 0.000904 -0.000175
# 4 0.000041 0.003579 -0.000468 0.035915 0.006593 0.003039
# 5 0.001194 0.004702 0.000904 0.006593 0.034828 0.004934
# 6 0.000099 0.002583 -0.000175 0.003039 0.004934 0.021235
#
#
# Mechanical properties :
#
#
# Convention : Reuss Voigt Hill
#
# Bulk Modulus (GPa) = 57.63108 64.25137 60.94123
# Shear Modulus (GPa) = 35.67194 39.61562 37.64378
#
# Velocity S-wave (km/s) = 4.16286 4.38694 4.27637
# Velocity P-wave (km/s) = 7.14865 7.54147 7.34768
#
# Compressibility (1/GPa) = 0.01735175
#
# Stress axis : x y z
#
# Youngs Moduli (GPa) = 100.06449 90.52473 113.15898
#
# Poissons Ratio (x) = 0.15197 0.33089
# Poissons Ratio (y) = 0.16798 0.18785
# Poissons Ratio (z) = 0.29260 0.15027
#
# Static dielectric constant tensor:
#      x y z
#    x 4.236180 -0.166680 -0.037100 
#    y -0.166680 4.065080 -0.089110 
#    z -0.037100 -0.089110 3.787330 
# 
# 
# High freq. dielectric constant tensor:
#      x y z
#    x 1.824680 -0.009130 -0.008900 
#    y -0.009130 1.821610 -0.012840 
#    z -0.008900 -0.012840 1.800950 
# 
# From -- ./inp_files/485147.got.cif
#   From: 2010.06.25/outbox.cif.g09.slc.cpg/sg2_243_cif.got.tgz:485147.got - 2010.06.27 13:26:56.
