data_PCOD8020999
_publ_section_title
;
Structure prediction by ZEFSAII (Michael W. Deem and Ramdas Pophale) SiO2 
 PCOD8020999
Probable space group: P -1
;
_chemical_formula_sum "Si O2"
_cell_formula_units_Z 16
_cell_length_a 13.952937
_cell_length_b 13.742220
_cell_length_c 13.209172
_cell_angle_alpha 135.310667
_cell_angle_beta 145.872329
_cell_angle_gamma 29.529162
_cell_volume 699.959335
_symmetry_space_group_name_H-M "P -1"
_symmetry_group_IT_number 2
_symmetry_cell_setting 'triclinic'
loop_
_space_group_symop_operation_xyz
x,y,z
-x,-y,-z
loop_
_atom_site_type_symbol
_atom_site_label
_atom_site_fract_x
_atom_site_fract_y
_atom_site_fract_z
Si Si1 0.189166 0.134367 0.862831
Si Si2 0.074806 0.334585 0.721783
Si Si3 0.841503 0.122113 0.551969
Si Si4 0.557198 0.193777 0.007723
Si Si5 0.348525 0.278179 0.249631
Si Si6 0.129394 0.281127 0.423924
Si Si7 0.101577 0.770162 0.664427
Si Si8 0.375761 0.052364 0.276959
O O1 0.221834 0.130914 0.765343
O O2 0.911654 0.242960 0.726504
O O3 0.367681 0.909818 0.893221
O O4 0.262327 0.237411 0.049903
O O5 0.899019 0.504215 0.774528
O O6 0.907684 0.363837 0.510533
O O7 0.267227 0.333306 0.841568
O O8 0.553634 0.271018 0.391416
O O9 0.000000 0.000000 0.500000
O O10 0.919624 0.987348 0.618292
O O11 0.628318 0.315902 0.155708
O O12 0.707701 0.028682 0.926757
O O13 0.456707 0.125170 0.323642
O O14 0.160549 0.236436 0.297119
O O15 0.000000 0.500000 0.500000
O O16 0.979518 0.234683 0.299168
O O17 0.396034 0.130578 0.594325
#
# Coordination Sequence:
#
# PCOD8020999 Si02
#       8
#     2   2   2   2   2   2   2   2
#     4  10  23  37  60  89 126 178 218 258 317 382
#     4  12  22  38  62  94 137 171 219 265 315 387
#     4  11  22  39  62  88 124 171 217 260 320 386
#     4  10  23  39  66  93 129 174 216 262 322 383
#     4  11  24  40  62  91 133 172 213 274 326 378
#     4  11  22  42  74  97 124 171 215 271 337 382
#     4  11  22  41  66  94 128 169 218 262 325 384
#     4  10  22  43  66  95 131 164 219 272 325 393
#
# _framework density 22.858471999999999
#
# number of rings (size 3 to 8) (size 9 to 14) (size 15 to 20)
#    0.000    1.250    3.750    2.250    3.500    2.000 
#    0.000    0.625    0.000    0.000    0.000    0.000 
#    0.000    0.000    0.000    0.000    0.000    0.000 
#
# Total GULP energy -198262.409441 kJ/mol
# GULP energy per Si atom -12391.400590 kJ/mol
# Density = 2.280644 g / cm^3
# Si number density = 22.858472 Si / 1000 Ang^3
#
#
#
# Elastic Constant Matrix: (Units=GPa)
#
#
# Indices 1 2 3 4 5 6 
#
# 1 131.9797 23.8503 66.7695 1.8612 14.0420 -17.0248
# 2 23.8503 54.9449 28.7511 -3.3746 8.2239 -15.3580
# 3 66.7695 28.7511 176.2517 -0.7014 48.1534 -17.7070
# 4 1.8612 -3.3746 -0.7014 12.2952 2.8333 1.1138
# 5 14.0420 8.2239 48.1534 2.8333 48.4151 -6.0845
# 6 -17.0248 -15.3580 -17.7070 1.1138 -6.0845 28.6549
#
#
#
# Elastic Compliance Matrix: (Units=1/GPa)
#
#
# Indices 1 2 3 4 5 6 
#
# 1 0.010039 -0.002020 -0.003605 -0.002924 0.001578 0.003103
# 2 -0.002020 0.023220 -0.001846 0.005839 -0.000640 0.009742
# 3 -0.003605 -0.001846 0.009728 0.002421 -0.008330 0.001018
# 4 -0.002924 0.005839 0.002421 0.085507 -0.007819 -0.002096
# 5 0.001578 -0.000640 -0.008330 -0.007819 0.029297 0.001971
# 6 0.003103 0.009742 0.001018 -0.002096 0.001971 0.043092
#
#
# Mechanical properties :
#
#
# Convention : Reuss Voigt Hill
#
# Bulk Modulus (GPa) = 35.65477 66.87979 51.26728
# Shear Modulus (GPa) = 22.20519 34.12673 28.16596
#
# Velocity S-wave (km/s) = 3.12014 3.86807 3.51406
# Velocity P-wave (km/s) = 5.34905 7.01933 6.24033
#
# Compressibility (1/GPa) = 0.02804674
#
# Stress axis : x y z
#
# Youngs Moduli (GPa) = 99.60931 43.06627 102.79491
#
# Poissons Ratio (x) = 0.08699 0.37053
# Poissons Ratio (y) = 0.20121 0.18974
# Poissons Ratio (z) = 0.35905 0.07949
#
# Static dielectric constant tensor:
#      x y z
#    x 4.429200 0.037550 0.110530 
#    y 0.037550 3.822910 0.052820 
#    z 0.110530 0.052820 4.595910 
# 
# 
# High freq. dielectric constant tensor:
#      x y z
#    x 1.908480 0.004330 0.002020 
#    y 0.004330 1.863430 -0.000280 
#    z 0.002020 -0.000280 1.914160 
# 
# From -- ./inp_files/534476.got.cif
#   From: 2010.06.25/outbox.cif.g09.slc.cpg/sg2_268_cif.got.tgz:534476.got - 2010.06.27 13:26:56.
