data_PCOD8020506
_publ_section_title
;
Structure prediction by ZEFSAII (Michael W. Deem and Ramdas Pophale) SiO2 
 PCOD8020506
Probable space group: P -1
;
_chemical_formula_sum "Si O2"
_cell_formula_units_Z 14
_cell_length_a 19.464399
_cell_length_b 21.189985
_cell_length_c 11.580564
_cell_angle_alpha 149.056205
_cell_angle_beta 157.841505
_cell_angle_gamma 19.340305
_cell_volume 591.579451
_symmetry_space_group_name_H-M "P -1"
_symmetry_group_IT_number 2
_symmetry_cell_setting 'triclinic'
loop_
_space_group_symop_operation_xyz
x,y,z
-x,-y,-z
loop_
_atom_site_type_symbol
_atom_site_label
_atom_site_fract_x
_atom_site_fract_y
_atom_site_fract_z
Si Si1 0.303324 0.483280 0.508934
Si Si2 0.323295 0.970386 0.159024
Si Si3 0.570524 0.652280 0.904209
Si Si4 0.885301 0.099012 0.853992
Si Si5 0.827822 0.876521 0.301962
Si Si6 0.732690 0.693728 0.009020
Si Si7 0.033556 0.764088 0.194066
O O1 0.152485 0.690605 0.566683
O O2 0.075432 0.525055 0.297309
O O3 0.337667 0.397229 0.305104
O O4 0.612767 0.332425 0.814305
O O5 0.500000 0.000000 0.500000
O O6 0.131564 0.046650 0.092382
O O7 0.126152 0.083255 0.916944
O O8 0.533883 0.743663 0.112208
O O9 0.302603 0.704518 0.553954
O O10 0.861759 0.422886 0.985573
O O11 0.574464 0.764266 0.994821
O O12 0.758927 0.051348 0.507087
O O13 0.000000 0.000000 0.000000
O O14 0.630616 0.869087 0.049387
O O15 0.831514 0.855450 0.135994
#
# Coordination Sequence:
#
# PCOD8020506 Si02
#       7
#     2   2   2   2   2   2   2
#     4   9  20  42  65  98 133 157 229 270 328 394
#     4  12  30  45  64 104 143 180 226 275 346 414
#     4  11  22  43  72 102 138 169 228 285 339 392
#     4  12  28  45  66  92 137 189 222 270 337 412
#     4  10  22  42  69 104 125 176 229 275 338 385
#     4   9  19  39  67 102 126 163 212 289 323 380
#     4  11  23  43  76 102 131 183 223 285 343 395
#
# _framework density 23.665458999999998
#
# number of rings (size 3 to 8) (size 9 to 14) (size 15 to 20)
#    0.857    0.571    2.857    1.286    6.000    4.000 
#    0.000    0.000    0.000    0.000    0.000    0.000 
#    0.000    0.000    0.000    0.000    0.000    0.000 
#
# Total GULP energy -173513.817713 kJ/mol
# GULP energy per Si atom -12393.844122 kJ/mol
# Density = 2.361160 g / cm^3
# Si number density = 23.665459 Si / 1000 Ang^3
#
#
#
# Elastic Constant Matrix: (Units=GPa)
#
#
# Indices 1 2 3 4 5 6 
#
# 1 140.5489 35.7789 22.3414 -18.2342 20.4823 -5.0682
# 2 35.7789 100.4743 14.8282 5.5095 6.4374 -6.1527
# 3 22.3414 14.8282 69.7116 9.3974 19.4585 -11.5558
# 4 -18.2342 5.5095 9.3974 29.5578 -0.5141 2.2121
# 5 20.4823 6.4374 19.4585 -0.5141 29.4295 -2.9166
# 6 -5.0682 -6.1527 -11.5558 2.2121 -2.9166 27.8019
#
#
#
# Elastic Compliance Matrix: (Units=1/GPa)
#
#
# Indices 1 2 3 4 5 6 
#
# 1 0.009961 -0.003376 -0.002371 0.007523 -0.004593 -0.000998
# 2 -0.003376 0.011575 -0.000555 -0.004214 0.000318 0.002084
# 3 -0.002371 -0.000555 0.020851 -0.008757 -0.011413 0.007611
# 4 0.007523 -0.004214 -0.008757 0.042551 0.001583 -0.006421
# 5 -0.004593 0.000318 -0.011413 0.001583 0.044586 -0.000959
# 6 -0.000998 0.002084 0.007611 -0.006421 -0.000959 0.039822
#
#
# Mechanical properties :
#
#
# Convention : Reuss Voigt Hill
#
# Bulk Modulus (GPa) = 33.57859 50.73687 42.15773
# Shear Modulus (GPa) = 26.05822 33.21026 29.63424
#
# Velocity S-wave (km/s) = 3.32189 3.75016 3.54250
# Velocity P-wave (km/s) = 5.37894 6.34329 5.88091
#
# Compressibility (1/GPa) = 0.02978088
#
# Stress axis : x y z
#
# Youngs Moduli (GPa) = 100.39302 86.38992 47.96001
#
# Poissons Ratio (x) = 0.29169 0.11373
# Poissons Ratio (y) = 0.33897 0.02663
# Poissons Ratio (z) = 0.23807 0.04797
#
# Static dielectric constant tensor:
#      x y z
#    x 4.376770 -0.172390 0.177730 
#    y -0.172390 4.929530 -0.135180 
#    z 0.177730 -0.135180 3.873770 
# 
# 
# High freq. dielectric constant tensor:
#      x y z
#    x 1.935970 -0.004800 0.022360 
#    y -0.004800 1.971510 -0.011420 
#    z 0.022360 -0.011420 1.903810 
# 
# From -- ./inp_files/472954.got.cif
#   From: 2010.06.25/outbox.cif.g09.slc.cpg/sg2_237_cif.got.tgz:472954.got - 2010.06.27 13:26:56.
