data_PCOD8020075
_publ_section_title
;
Structure prediction by ZEFSAII (Michael W. Deem and Ramdas Pophale) SiO2 
 PCOD8020075
Probable space group: P -1
;
_chemical_formula_sum "Si O2"
_cell_formula_units_Z 16
_cell_length_a 14.368575
_cell_length_b 12.926483
_cell_length_c 14.743529
_cell_angle_alpha 40.770428
_cell_angle_beta 146.804679
_cell_angle_gamma 115.071128
_cell_volume 792.376667
_symmetry_space_group_name_H-M "P -1"
_symmetry_group_IT_number 2
_symmetry_cell_setting 'triclinic'
loop_
_space_group_symop_operation_xyz
x,y,z
-x,-y,-z
loop_
_atom_site_type_symbol
_atom_site_label
_atom_site_fract_x
_atom_site_fract_y
_atom_site_fract_z
Si Si1 0.181634 0.465721 0.735990
Si Si2 0.573530 0.193906 0.120552
Si Si3 0.578348 0.878966 0.428580
Si Si4 0.033994 0.884175 0.407248
Si Si5 0.931714 0.841955 0.861924
Si Si6 0.418579 0.870793 0.031130
Si Si7 0.695428 0.887470 0.803263
Si Si8 0.654580 0.559604 0.577518
O O1 0.101002 0.672838 0.574484
O O2 0.000000 0.500000 0.500000
O O3 0.387602 0.385438 0.895657
O O4 0.242385 0.319767 0.967922
O O5 0.797405 0.132461 0.377225
O O6 0.572891 0.229656 0.989639
O O7 0.541474 0.021054 0.221182
O O8 0.733363 0.884151 0.618714
O O9 0.652509 0.668208 0.594453
O O10 0.363082 0.973477 0.248576
O O11 0.017700 0.004123 0.224890
O O12 0.812021 0.005703 0.195930
O O13 0.892535 0.851706 0.932119
O O14 0.112930 0.626259 0.122475
O O15 0.590066 0.694941 0.349366
O O16 0.500000 0.000000 0.000000
O O17 0.500000 0.000000 0.500000
O O18 0.500000 0.500000 0.500000
#
# Coordination Sequence:
#
# PCOD8020075 Si02
#       8
#     2   2   2   2   2   2   2   2
#     4  11  24  41  70  99 131 168 217 267 327 379
#     4  10  22  42  65  93 127 169 214 261 317 387
#     4   9  20  42  66  88 126 170 207 259 318 382
#     4  11  24  44  65  93 131 170 215 265 319 391
#     4  10  22  42  65  92 128 168 213 260 319 386
#     4  12  24  42  65  90 129 167 217 269 323 381
#     4   9  21  42  67  95 126 167 213 257 319 392
#     4  12  24  41  60  92 132 164 212 267 320 374
#
# _framework density 20.192416000000001
#
# number of rings (size 3 to 8) (size 9 to 14) (size 15 to 20)
#    0.000    1.500    2.500    2.625    5.250    0.000 
#    6.750    1.250    0.000    0.000    0.000    0.000 
#    0.000    0.000    0.000    0.000    0.000    0.000 
#
# Total GULP energy -198323.503771 kJ/mol
# GULP energy per Si atom -12395.218986 kJ/mol
# Density = 2.014646 g / cm^3
# Si number density = 20.192416 Si / 1000 Ang^3
#
#
#
# Elastic Constant Matrix: (Units=GPa)
#
#
# Indices 1 2 3 4 5 6 
#
# 1 158.6328 51.1049 38.9242 -19.4215 1.0247 -5.5182
# 2 51.1049 69.2649 24.4865 -15.5954 -11.1228 -0.0889
# 3 38.9242 24.4865 74.7936 -26.0767 -12.7175 -6.1343
# 4 -19.4215 -15.5954 -26.0767 32.5819 -0.2706 5.8800
# 5 1.0247 -11.1228 -12.7175 -0.2706 37.4657 -4.7222
# 6 -5.5182 -0.0889 -6.1343 5.8800 -4.7222 25.3023
#
#
#
# Elastic Compliance Matrix: (Units=1/GPa)
#
#
# Indices 1 2 3 4 5 6 
#
# 1 0.009087 -0.006098 -0.003310 -0.000294 -0.003103 0.000647
# 2 -0.006098 0.021653 -0.000746 0.006508 0.006162 -0.001797
# 3 -0.003310 -0.000746 0.022087 0.014940 0.007804 0.002615
# 4 -0.000294 0.006508 0.014940 0.046736 0.006586 -0.006051
# 5 -0.003103 0.006162 0.007804 0.006586 0.032018 0.005682
# 6 0.000647 -0.001797 0.002615 -0.006051 0.005682 0.042757
#
#
# Mechanical properties :
#
#
# Convention : Reuss Voigt Hill
#
# Bulk Modulus (GPa) = 30.75057 59.08028 44.91543
# Shear Modulus (GPa) = 24.33259 31.61503 27.97381
#
# Velocity S-wave (km/s) = 3.47513 3.96117 3.72608
# Velocity P-wave (km/s) = 5.60034 7.08825 6.38777
#
# Compressibility (1/GPa) = 0.03251972
#
# Stress axis : x y z
#
# Youngs Moduli (GPa) = 110.04556 46.18311 45.27548
#
# Poissons Ratio (x) = 0.28163 0.14984
# Poissons Ratio (y) = 0.67108 0.03377
# Poissons Ratio (z) = 0.36420 0.03445
#
# Static dielectric constant tensor:
#      x y z
#    x 4.234260 -0.051120 -0.056420 
#    y -0.051120 3.588100 -0.113040 
#    z -0.056420 -0.113040 3.779130 
# 
# 
# High freq. dielectric constant tensor:
#      x y z
#    x 1.806210 -0.006100 0.005250 
#    y -0.006100 1.775330 -0.004150 
#    z 0.005250 -0.004150 1.800410 
# 
# From -- ./inp_files/184340.got.cif
#   From: 2010.06.25/outbox.cif.g09.slc.cpg/sg2_93_cif.got.tgz:184340.got - 2010.06.27 13:26:56.
