data_PCOD8020710
_publ_section_title
;
Structure prediction by ZEFSAII (Michael W. Deem and Ramdas Pophale) SiO2 
 PCOD8020710
Probable space group: P -1
;
_chemical_formula_sum "Si O2"
_cell_formula_units_Z 16
_cell_length_a 8.909748
_cell_length_b 15.327632
_cell_length_c 12.584902
_cell_angle_alpha 152.777584
_cell_angle_beta 80.541248
_cell_angle_gamma 91.938430
_cell_volume 751.100105
_symmetry_space_group_name_H-M "P -1"
_symmetry_group_IT_number 2
_symmetry_cell_setting 'triclinic'
loop_
_space_group_symop_operation_xyz
x,y,z
-x,-y,-z
loop_
_atom_site_type_symbol
_atom_site_label
_atom_site_fract_x
_atom_site_fract_y
_atom_site_fract_z
Si Si1 0.992730 0.130575 0.743845
Si Si2 0.120497 0.725671 0.676605
Si Si3 0.679225 0.992854 0.969526
Si Si4 0.863558 0.546454 0.151923
Si Si5 0.082747 0.133752 0.352765
Si Si6 0.830976 0.718546 0.826882
Si Si7 0.452847 0.298398 0.770364
Si Si8 0.320455 0.096483 0.742944
O O1 0.164944 0.166422 0.766282
O O2 0.971056 0.017658 0.729695
O O3 0.856974 0.333946 0.970628
O O4 0.000000 0.000000 0.500000
O O5 0.182991 0.501859 0.389528
O O6 0.023916 0.843366 0.716314
O O7 0.012970 0.732873 0.804451
O O8 0.267724 0.819938 0.783728
O O9 0.738558 0.963664 0.809489
O O10 0.752764 0.790402 0.802289
O O11 0.500000 0.000000 0.000000
O O12 0.921027 0.664564 0.368052
O O13 0.698879 0.664314 0.248691
O O14 0.000000 0.500000 0.000000
O O15 0.729081 0.850721 0.073171
O O16 0.431014 0.218701 0.805404
O O17 0.594604 0.136899 0.523018
O O18 0.500000 0.500000 0.000000
#
# Coordination Sequence:
#
# PCOD8020710 Si02
#       8
#     2   2   2   2   2   2   2   2
#     4  12  22  39  70  96 130 175 225 271 324 392
#     4  10  22  44  71 102 127 171 232 280 333 399
#     4  11  25  44  65  98 139 173 216 276 344 405
#     4  12  24  44  66  99 134 171 229 275 325 400
#     4  11  24  42  70  97 130 174 221 278 326 388
#     4  10  22  42  72  96 127 172 233 277 329 399
#     4  11  26  43  62  96 142 180 219 272 342 404
#     4  11  23  41  67  96 132 176 223 276 334 398
#
# _framework density 21.302087
#
# number of rings (size 3 to 8) (size 9 to 14) (size 15 to 20)
#    0.000    1.000    2.500    4.500    1.750    4.500 
#    0.000    0.000    0.000    0.000    0.000    0.000 
#    0.000    0.000    0.000    0.000    0.000    0.000 
#
# Total GULP energy -198306.234118 kJ/mol
# GULP energy per Si atom -12394.139632 kJ/mol
# Density = 2.125360 g / cm^3
# Si number density = 21.302087 Si / 1000 Ang^3
#
#
#
# Elastic Constant Matrix: (Units=GPa)
#
#
# Indices 1 2 3 4 5 6 
#
# 1 108.3042 26.0165 42.4633 -3.9174 -0.1696 12.0167
# 2 26.0165 110.8308 57.2882 3.7489 2.7210 17.5160
# 3 42.4633 57.2882 139.2401 -3.0815 -3.8079 17.1903
# 4 -3.9174 3.7489 -3.0815 50.4230 0.8882 -2.8919
# 5 -0.1696 2.7210 -3.8079 0.8882 35.5046 4.0405
# 6 12.0167 17.5160 17.1903 -2.8919 4.0405 29.3576
#
#
#
# Elastic Compliance Matrix: (Units=1/GPa)
#
#
# Indices 1 2 3 4 5 6 
#
# 1 0.010743 -0.000813 -0.002640 0.000599 0.000079 -0.002318
# 2 -0.000813 0.012201 -0.004276 -0.001473 -0.000852 -0.004471
# 3 -0.002640 -0.004276 0.010108 0.000560 0.001665 -0.002461
# 4 0.000599 -0.001473 0.000560 0.020169 -0.000599 0.002375
# 5 0.000079 -0.000852 0.001665 -0.000599 0.028941 -0.004541
# 6 -0.002318 -0.004471 -0.002461 0.002375 -0.004541 0.039979
#
#
# Mechanical properties :
#
#
# Convention : Reuss Voigt Hill
#
# Bulk Modulus (GPa) = 56.83787 67.76790 62.30288
# Shear Modulus (GPa) = 34.85186 38.56417 36.70801
#
# Velocity S-wave (km/s) = 4.04923 4.25943 4.15566
# Velocity P-wave (km/s) = 6.97148 7.48814 7.23442
#
# Compressibility (1/GPa) = 0.01759391
#
# Stress axis : x y z
#
# Youngs Moduli (GPa) = 93.08711 81.95910 98.93170
#
# Poissons Ratio (x) = 0.06663 0.26118
# Poissons Ratio (y) = 0.07568 0.42303
# Poissons Ratio (z) = 0.24575 0.35046
#
# Static dielectric constant tensor:
#      x y z
#    x 3.955230 0.128560 -0.227640 
#    y 0.128560 3.828890 0.025620 
#    z -0.227640 0.025620 4.149360 
# 
# 
# High freq. dielectric constant tensor:
#      x y z
#    x 1.820440 0.008800 0.000360 
#    y 0.008800 1.850830 0.003630 
#    z 0.000360 0.003630 1.846980 
# 
# From -- ./inp_files/399986.got.cif
#   From: 2010.06.25/outbox.cif.g09.slc.cpg/sg2_200_cif.got.tgz:399986.got - 2010.06.27 13:26:56.
