data_PCOD8020888
_publ_section_title
;
Structure prediction by ZEFSAII (Michael W. Deem and Ramdas Pophale) SiO2 
 PCOD8020888
Probable space group: P -1
;
_chemical_formula_sum "Si O2"
_cell_formula_units_Z 14
_cell_length_a 15.730143
_cell_length_b 8.335030
_cell_length_c 11.384201
_cell_angle_alpha 41.365300
_cell_angle_beta 46.437658
_cell_angle_gamma 65.347622
_cell_volume 698.975858
_symmetry_space_group_name_H-M "P -1"
_symmetry_group_IT_number 2
_symmetry_cell_setting 'triclinic'
loop_
_space_group_symop_operation_xyz
x,y,z
-x,-y,-z
loop_
_atom_site_type_symbol
_atom_site_label
_atom_site_fract_x
_atom_site_fract_y
_atom_site_fract_z
Si Si1 0.935660 0.843017 0.303973
Si Si2 0.711739 0.489186 0.606363
Si Si3 0.093519 0.194321 0.376872
Si Si4 0.613376 0.943331 0.356728
Si Si5 0.440504 0.964895 0.899770
Si Si6 0.134990 0.756327 0.995725
Si Si7 0.677145 0.015558 0.767890
O O1 0.839199 0.611321 0.472914
O O2 0.951238 0.813756 0.442928
O O3 0.064422 0.842712 0.125230
O O4 0.896054 0.101737 0.169553
O O5 0.641425 0.688775 0.515403
O O6 0.734664 0.307172 0.578030
O O7 0.627699 0.326084 0.874943
O O8 0.098581 0.463841 0.168255
O O9 0.224134 0.133819 0.281098
O O10 0.000000 0.000000 0.500000
O O11 0.500000 0.000000 0.500000
O O12 0.585505 0.906908 0.265540
O O13 0.724698 0.170319 0.148321
O O14 0.583290 0.988194 0.764777
O O15 0.392048 0.102406 0.982028
#
# Coordination Sequence:
#
# PCOD8020888 Si02
#       7
#     2   2   2   2   2   2   2
#     4  10  22  43  65  87 124 161 201 257 306 352
#     4   9  20  42  62  89 121 166 197 250 309 356
#     4  12  25  39  66  94 120 160 207 248 307 371
#     4  11  24  36  67  95 116 164 213 243 300 362
#     4   9  21  41  59  87 131 158 196 254 300 361
#     4  10  24  42  62  93 122 158 209 253 300 356
#     4   9  22  41  59  90 125 164 193 247 315 349
#
# _framework density 20.029305000000001
#
# number of rings (size 3 to 8) (size 9 to 14) (size 15 to 20)
#    0.857    1.143    0.000    2.143    8.000    1.714 
#    2.571    0.000    0.000    0.000    0.000    0.000 
#    0.000    0.000    0.000    0.000    0.000    0.000 
#
# Total GULP energy -173595.347308 kJ/mol
# GULP energy per Si atom -12399.667665 kJ/mol
# Density = 1.998372 g / cm^3
# Si number density = 20.029305 Si / 1000 Ang^3
#
#
#
# Elastic Constant Matrix: (Units=GPa)
#
#
# Indices 1 2 3 4 5 6 
#
# 1 87.6950 16.6938 42.4108 0.9797 -12.9712 -1.0778
# 2 16.6938 59.6580 30.3273 -11.0370 -6.9369 -10.0764
# 3 42.4108 30.3273 85.9171 -9.1092 -11.8951 3.1145
# 4 0.9797 -11.0370 -9.1092 34.2353 -2.7964 -3.7917
# 5 -12.9712 -6.9369 -11.8951 -2.7964 33.3343 4.2274
# 6 -1.0778 -10.0764 3.1145 -3.7917 4.2274 24.9397
#
#
#
# Elastic Compliance Matrix: (Units=1/GPa)
#
#
# Indices 1 2 3 4 5 6 
#
# 1 0.015527 -0.000636 -0.007274 -0.002284 0.003064 0.000456
# 2 -0.000636 0.024326 -0.007773 0.007179 0.001164 0.011666
# 3 -0.007274 -0.007773 0.018888 0.002328 0.003249 -0.006011
# 4 -0.002284 0.007179 0.002328 0.033257 0.003338 0.007002
# 5 0.003064 0.001164 0.003249 0.003338 0.033504 -0.004975
# 6 0.000456 0.011666 -0.006011 0.007002 -0.004975 0.047488
#
#
# Mechanical properties :
#
#
# Convention : Reuss Voigt Hill
#
# Bulk Modulus (GPa) = 36.53181 45.79265 41.16223
# Shear Modulus (GPa) = 23.42132 28.09108 25.75620
#
# Velocity S-wave (km/s) = 3.42329 3.74906 3.58987
# Velocity P-wave (km/s) = 5.82271 6.45392 6.14642
#
# Compressibility (1/GPa) = 0.02737341
#
# Stress axis : x y z
#
# Youngs Moduli (GPa) = 64.40578 41.10900 52.94317
#
# Poissons Ratio (x) = 0.02615 0.38512
# Poissons Ratio (y) = 0.04097 0.41153
# Poissons Ratio (z) = 0.46850 0.31954
#
# Static dielectric constant tensor:
#      x y z
#    x 3.633640 -0.083490 -0.063600 
#    y -0.083490 3.468010 -0.028850 
#    z -0.063600 -0.028850 3.752900 
# 
# 
# High freq. dielectric constant tensor:
#      x y z
#    x 1.789680 -0.010460 -0.008280 
#    y -0.010460 1.768060 -0.001700 
#    z -0.008280 -0.001700 1.783940 
# 
# From -- ./inp_files/446588.got.cif
#   From: 2010.06.25/outbox.cif.g09.slc.cpg/sg2_224_cif.got.tgz:446588.got - 2010.06.27 13:26:56.
