data_PCOD8020742
_publ_section_title
;
Structure prediction by ZEFSAII (Michael W. Deem and Ramdas Pophale) SiO2 
 PCOD8020742
Probable space group: P -1
;
_chemical_formula_sum "Si O2"
_cell_formula_units_Z 16
_cell_length_a 9.146784
_cell_length_b 10.001093
_cell_length_c 15.730557
_cell_angle_alpha 67.193727
_cell_angle_beta 144.680415
_cell_angle_gamma 115.164105
_cell_volume 750.703211
_symmetry_space_group_name_H-M "P -1"
_symmetry_group_IT_number 2
_symmetry_cell_setting 'triclinic'
loop_
_space_group_symop_operation_xyz
x,y,z
-x,-y,-z
loop_
_atom_site_type_symbol
_atom_site_label
_atom_site_fract_x
_atom_site_fract_y
_atom_site_fract_z
Si Si1 0.375815 0.913417 0.880449
Si Si2 0.740226 0.151640 0.785714
Si Si3 0.698949 0.838021 0.890186
Si Si4 0.641573 0.571934 0.821928
Si Si5 0.197201 0.111316 0.623363
Si Si6 0.162769 0.434329 0.527871
Si Si7 0.916060 0.380902 0.103658
Si Si8 0.763932 0.441946 0.642814
O O1 0.573932 0.873555 0.912419
O O2 0.186011 0.764521 0.854909
O O3 0.201473 0.023063 0.734517
O O4 0.500000 0.000000 0.000000
O O5 0.492988 0.166824 0.720534
O O6 0.727578 0.261224 0.672207
O O7 0.710495 0.976017 0.795898
O O8 0.016620 0.197793 0.952717
O O9 0.536059 0.695163 0.798260
O O10 0.458962 0.500075 0.676260
O O11 0.907541 0.651854 0.882973
O O12 0.677461 0.441588 0.935518
O O13 0.082362 0.257727 0.541201
O O14 0.000000 0.000000 0.500000
O O15 0.084655 0.491347 0.385632
O O16 0.000000 0.500000 0.500000
O O17 0.075145 0.504448 0.210287
O O18 0.500000 0.500000 0.500000
#
# Coordination Sequence:
#
# PCOD8020742 Si02
#       8
#     2   2   2   2   2   2   2   2
#     4  11  26  42  68  99 133 174 230 279 338 403
#     4  10  22  42  73  93 130 180 229 271 337 409
#     4  10  24  43  71 100 136 177 222 287 346 396
#     4  11  24  44  69 100 137 178 227 283 349 397
#     4  11  24  45  68  95 139 185 217 277 352 404
#     4  12  28  44  68 100 144 176 232 286 343 408
#     4  11  24  42  72  97 131 179 230 278 341 413
#     4  12  22  44  68  98 130 182 223 276 339 408
#
# _framework density 21.313348999999999
#
# number of rings (size 3 to 8) (size 9 to 14) (size 15 to 20)
#    0.000    1.000    3.750    1.500   12.250    2.500 
#    0.000    0.625    0.000    0.000    0.000    0.000 
#    0.000    0.000    0.000    0.000    0.000    0.000 
#
# Total GULP energy -198275.847475 kJ/mol
# GULP energy per Si atom -12392.240467 kJ/mol
# Density = 2.126484 g / cm^3
# Si number density = 21.313349 Si / 1000 Ang^3
#
#
#
# Elastic Constant Matrix: (Units=GPa)
#
#
# Indices 1 2 3 4 5 6 
#
# 1 97.9552 54.3370 29.5298 -15.5080 -13.4987 0.5085
# 2 54.3370 158.3064 48.8887 -30.8297 -16.0388 3.9273
# 3 29.5298 48.8887 100.6915 -23.6044 -19.1336 3.5268
# 4 -15.5080 -30.8297 -23.6044 50.7301 3.2380 -11.9043
# 5 -13.4987 -16.0388 -19.1336 3.2380 34.8004 -1.7052
# 6 0.5085 3.9273 3.5268 -11.9043 -1.7052 39.5464
#
#
#
# Elastic Compliance Matrix: (Units=1/GPa)
#
#
# Indices 1 2 3 4 5 6 
#
# 1 0.013175 -0.003622 -0.001349 0.001216 0.002625 0.000790
# 2 -0.003622 0.009038 -0.002337 0.003318 0.001187 0.000407
# 3 -0.001349 -0.002337 0.013463 0.004214 0.005437 0.000552
# 4 0.001216 0.003318 0.004214 0.025576 0.002285 0.007076
# 5 0.002625 0.001187 0.005437 0.002285 0.033150 0.001481
# 6 0.000790 0.000407 0.000552 0.007076 0.001481 0.027381
#
#
# Mechanical properties :
#
#
# Convention : Reuss Voigt Hill
#
# Bulk Modulus (GPa) = 47.48298 69.16269 58.32283
# Shear Modulus (GPa) = 34.86282 39.96187 37.41234
#
# Velocity S-wave (km/s) = 4.04880 4.33479 4.19423
# Velocity P-wave (km/s) = 6.64710 7.58780 7.13297
#
# Compressibility (1/GPa) = 0.02106018
#
# Stress axis : x y z
#
# Youngs Moduli (GPa) = 75.90165 110.64170 74.27608
#
# Poissons Ratio (x) = 0.40079 0.10018
# Poissons Ratio (y) = 0.27495 0.17358
# Poissons Ratio (z) = 0.10237 0.25856
#
# Static dielectric constant tensor:
#      x y z
#    x 3.598740 0.016200 -0.016080 
#    y 0.016200 3.994660 -0.231890 
#    z -0.016080 -0.231890 3.561060 
# 
# 
# High freq. dielectric constant tensor:
#      x y z
#    x 1.821810 0.007310 0.000030 
#    y 0.007310 1.852310 -0.012280 
#    z 0.000030 -0.012280 1.841720 
# 
# From -- ./inp_files/209523.got.cif
#   From: 2010.06.25/outbox.cif.g09.slc.cpg/sg2_105_cif.got.tgz:209523.got - 2010.06.27 13:26:56.
