data_PCOD8020675
_publ_section_title
;
Structure prediction by ZEFSAII (Michael W. Deem and Ramdas Pophale) SiO2 
 PCOD8020675
Probable space group: P -1
;
_chemical_formula_sum "Si O2"
_cell_formula_units_Z 10
_cell_length_a 16.044453
_cell_length_b 5.802388
_cell_length_c 8.870882
_cell_angle_alpha 86.029473
_cell_angle_beta 147.718803
_cell_angle_gamma 101.180154
_cell_volume 425.568860
_symmetry_space_group_name_H-M "P -1"
_symmetry_group_IT_number 2
_symmetry_cell_setting 'triclinic'
loop_
_space_group_symop_operation_xyz
x,y,z
-x,-y,-z
loop_
_atom_site_type_symbol
_atom_site_label
_atom_site_fract_x
_atom_site_fract_y
_atom_site_fract_z
Si Si1 0.937535 0.234167 0.341269
Si Si2 0.363037 0.053777 0.972289
Si Si3 0.436357 0.562368 0.556571
Si Si4 0.689869 0.909067 0.438864
Si Si5 0.118281 0.713369 0.082336
O O1 0.000000 0.500000 0.500000
O O2 0.747783 0.167075 0.095591
O O3 0.968611 0.250247 0.208265
O O4 0.000000 0.000000 0.500000
O O5 0.269973 0.099503 0.676648
O O6 0.399247 0.288546 0.120358
O O7 0.538959 0.021059 0.212343
O O8 0.500000 0.500000 0.500000
O O9 0.353483 0.351161 0.549123
O O10 0.294872 0.691350 0.305312
O O11 0.847182 0.059888 0.761976
O O12 0.000000 0.500000 0.000000
#
# Coordination Sequence:
#
# PCOD8020675 Si02
#       5
#     2   2   2   2   2
#     4  12  29  46  71 104 147 191 235 297 361 428
#     4  10  23  43  67 101 136 181 238 288 358 421
#     4  11  23  40  72  99 136 179 234 295 354 422
#     4  10  22  42  71  96 134 182 237 296 348 425
#     4  11  26  45  69 102 139 185 239 293 358 425
#
# _framework density 23.497958000000001
#
# number of rings (size 3 to 8) (size 9 to 14) (size 15 to 20)
#    0.000    1.200    0.000    4.200   11.200    4.000 
#    0.000    0.000    0.000    0.000    0.000    0.000 
#    0.000    0.000    0.000    0.000    0.000    0.000 
#
# Total GULP energy -123895.918943 kJ/mol
# GULP energy per Si atom -12389.591894 kJ/mol
# Density = 2.344448 g / cm^3
# Si number density = 23.497958 Si / 1000 Ang^3
#
#
#
# Elastic Constant Matrix: (Units=GPa)
#
#
# Indices 1 2 3 4 5 6 
#
# 1 100.8259 30.4812 66.5841 8.9441 -24.4434 20.4691
# 2 30.4812 141.2232 71.0524 28.3780 -20.7361 17.6218
# 3 66.5841 71.0524 144.4699 30.1192 -38.4258 2.3325
# 4 8.9441 28.3780 30.1192 57.7430 4.9900 -0.7288
# 5 -24.4434 -20.7361 -38.4258 4.9900 45.0633 4.0496
# 6 20.4691 17.6218 2.3325 -0.7288 4.0496 46.4332
#
#
#
# Elastic Compliance Matrix: (Units=1/GPa)
#
#
# Indices 1 2 3 4 5 6 
#
# 1 0.016999 0.001730 -0.007313 -0.000164 0.004534 -0.008181
# 2 0.001730 0.010701 -0.004493 -0.003493 0.002859 -0.004902
# 3 -0.007313 -0.004493 0.015577 -0.005393 0.007539 0.003404
# 4 -0.000164 -0.003493 -0.005393 0.022691 -0.009060 0.002815
# 5 0.004534 0.002859 0.007539 -0.009060 0.033988 -0.006569
# 6 -0.008181 -0.004902 0.003404 0.002815 -0.006569 0.027449
#
#
# Mechanical properties :
#
#
# Convention : Reuss Voigt Hill
#
# Bulk Modulus (GPa) = 43.24319 80.30606 61.77463
# Shear Modulus (GPa) = 32.20267 44.40798 38.30532
#
# Velocity S-wave (km/s) = 3.70597 4.35197 4.04190
# Velocity P-wave (km/s) = 6.06261 7.71381 6.93751
#
# Compressibility (1/GPa) = 0.02312503
#
# Stress axis : x y z
#
# Youngs Moduli (GPa) = 58.82587 93.44684 64.19881
#
# Poissons Ratio (x) = -0.16165 0.46951
# Poissons Ratio (y) = -0.10176 0.28842
# Poissons Ratio (z) = 0.43022 0.41981
#
# Static dielectric constant tensor:
#      x y z
#    x 4.390130 -0.039680 -0.239360 
#    y -0.039680 4.336580 0.089550 
#    z -0.239360 0.089550 4.764120 
# 
# 
# High freq. dielectric constant tensor:
#      x y z
#    x 1.946650 0.007540 -0.006020 
#    y 0.007540 1.928950 0.009770 
#    z -0.006020 0.009770 1.945830 
# 
# From -- ./inp_files/15431.got.cif
#   From: 2010.06.25/outbox.cif.g09.slc.cpg/sg2_8_cif.got.tgz:15431.got - 2010.06.27 13:26:56.
