data_PCOD8020376
_publ_section_title
;
Structure prediction by ZEFSAII (Michael W. Deem and Ramdas Pophale) SiO2 
 PCOD8020376
Probable space group: P -1
;
_chemical_formula_sum "Si O2"
_cell_formula_units_Z 14
_cell_length_a 9.066738
_cell_length_b 15.287304
_cell_length_c 11.203681
_cell_angle_alpha 129.877656
_cell_angle_beta 30.367596
_cell_angle_gamma 117.988276
_cell_volume 588.213281
_symmetry_space_group_name_H-M "P -1"
_symmetry_group_IT_number 2
_symmetry_cell_setting 'triclinic'
loop_
_space_group_symop_operation_xyz
x,y,z
-x,-y,-z
loop_
_atom_site_type_symbol
_atom_site_label
_atom_site_fract_x
_atom_site_fract_y
_atom_site_fract_z
Si Si1 0.249073 0.506589 0.005624
Si Si2 0.350491 0.851521 0.914395
Si Si3 0.615022 0.596677 0.431702
Si Si4 0.850325 0.849461 0.932235
Si Si5 0.779705 0.595829 0.810940
Si Si6 0.653974 0.029545 0.749146
Si Si7 0.156339 0.006044 0.724439
O O1 0.403919 0.423647 0.715806
O O2 0.448089 0.593201 0.994024
O O3 0.186490 0.424810 0.087675
O O4 0.953593 0.591920 0.233824
O O5 0.397690 0.717399 0.727241
O O6 0.527866 0.913402 0.749930
O O7 0.477632 0.869362 0.972273
O O8 0.995850 0.923546 0.225331
O O9 0.500000 0.500000 0.500000
O O10 0.878784 0.713424 0.809000
O O11 0.488332 0.910516 0.223514
O O12 0.998334 0.900567 0.984914
O O13 0.040766 0.884395 0.716518
O O14 0.000000 0.500000 0.500000
O O15 0.000000 0.000000 0.500000
O O16 0.500000 0.000000 0.500000
#
# Coordination Sequence:
#
# PCOD8020376 Si02
#       7
#     2   2   2   2   2   2   2
#     4  10  26  45  68 104 136 187 230 280 360 400
#     4  10  24  41  68  98 133 174 227 282 340 406
#     4  11  25  46  70 102 140 181 234 287 342 417
#     4  10  24  41  67  99 132 175 226 279 342 410
#     4  11  25  46  69 103 139 179 232 287 344 418
#     4  10  22  42  67  99 130 174 221 282 344 408
#     4  10  22  45  65  99 134 178 223 283 344 408
#
# _framework density 23.800891
#
# number of rings (size 3 to 8) (size 9 to 14) (size 15 to 20)
#    0.000    1.714    0.000    1.714   10.000    3.429 
#    5.143    0.000    0.000    0.000    0.000    0.000 
#    0.000    0.000    0.000    0.000    0.000    0.000 
#
# Total GULP energy -173478.742818 kJ/mol
# GULP energy per Si atom -12391.338773 kJ/mol
# Density = 2.374672 g / cm^3
# Si number density = 23.800891 Si / 1000 Ang^3
#
#
#
# Elastic Constant Matrix: (Units=GPa)
#
#
# Indices 1 2 3 4 5 6 
#
# 1 140.6139 46.8889 20.1672 0.9042 4.5581 -7.1927
# 2 46.8889 177.8506 45.3107 15.9492 2.1967 0.4687
# 3 20.1672 45.3107 63.9860 0.7493 -16.3115 1.9131
# 4 0.9042 15.9492 0.7493 35.0988 7.6220 -0.9999
# 5 4.5581 2.1967 -16.3115 7.6220 42.6834 -6.0460
# 6 -7.1927 0.4687 1.9131 -0.9999 -6.0460 29.3810
#
#
#
# Elastic Compliance Matrix: (Units=1/GPa)
#
#
# Indices 1 2 3 4 5 6 
#
# 1 0.008079 -0.001774 -0.001696 0.000976 -0.001328 0.001877
# 2 -0.001774 0.007739 -0.005327 -0.002984 -0.001809 -0.000685
# 3 -0.001696 -0.005327 0.022213 0.000050 0.008944 0.000066
# 4 0.000976 -0.002984 0.000050 0.031008 -0.005438 0.000220
# 5 -0.001328 -0.001809 0.008944 -0.005438 0.028739 0.004850
# 6 0.001877 -0.000685 0.000066 0.000220 0.004850 0.035507
#
#
# Mechanical properties :
#
#
# Convention : Reuss Voigt Hill
#
# Bulk Modulus (GPa) = 48.93124 67.46487 58.19806
# Shear Modulus (GPa) = 31.70720 39.43822 35.57271
#
# Velocity S-wave (km/s) = 3.65387 4.07505 3.87019
# Velocity P-wave (km/s) = 6.19712 7.10974 6.66906
#
# Compressibility (1/GPa) = 0.02043684
#
# Stress axis : x y z
#
# Youngs Moduli (GPa) = 123.77358 129.21099 45.01880
#
# Poissons Ratio (x) = 0.22921 0.07637
# Poissons Ratio (y) = 0.21956 0.23982
# Poissons Ratio (z) = 0.20997 0.68831
#
# Static dielectric constant tensor:
#      x y z
#    x 5.361090 0.044140 0.051310 
#    y 0.044140 1.680670 0.407850 
#    z 0.051310 0.407850 4.242300 
# 
# 
# High freq. dielectric constant tensor:
#      x y z
#    x 1.979690 0.008050 -0.004380 
#    y 0.008050 1.928580 -0.012580 
#    z -0.004380 -0.012580 1.935770 
# 
# From -- ./inp_files/399500.got.cif
#   From: 2010.06.25/outbox.cif.g09.slc.cpg/sg2_200_cif.got.tgz:399500.got - 2010.06.27 13:26:56.
