data_PCOD8020124
_publ_section_title
;
Structure prediction by ZEFSAII (Michael W. Deem and Ramdas Pophale) SiO2 
 PCOD8020124
Probable space group: P -1
;
_chemical_formula_sum "Si O2"
_cell_formula_units_Z 16
_cell_length_a 13.618798
_cell_length_b 6.865463
_cell_length_c 13.851583
_cell_angle_alpha 82.873516
_cell_angle_beta 44.342794
_cell_angle_gamma 108.421710
_cell_volume 729.418370
_symmetry_space_group_name_H-M "P -1"
_symmetry_group_IT_number 2
_symmetry_cell_setting 'triclinic'
loop_
_space_group_symop_operation_xyz
x,y,z
-x,-y,-z
loop_
_atom_site_type_symbol
_atom_site_label
_atom_site_fract_x
_atom_site_fract_y
_atom_site_fract_z
Si Si1 0.450898 0.919163 0.184686
Si Si2 0.384127 0.744811 0.788415
Si Si3 0.961145 0.082404 0.750620
Si Si4 0.826922 0.110786 0.176142
Si Si5 0.175647 0.209721 0.943492
Si Si6 0.384039 0.215730 0.083708
Si Si7 0.779182 0.022169 0.438295
Si Si8 0.097160 0.565799 0.530293
O O1 0.297004 0.673129 0.360304
O O2 0.607391 0.109961 0.132756
O O3 0.373498 0.063903 0.192506
O O4 0.533259 0.845037 0.054602
O O5 0.250821 0.745320 0.811369
O O6 0.318467 0.470759 0.873414
O O7 0.575852 0.875840 0.604084
O O8 0.993623 0.335049 0.687396
O O9 0.808876 0.873638 0.802076
O O10 0.145697 0.134783 0.593480
O O11 0.905011 0.000463 0.905807
O O12 0.812079 0.113710 0.300565
O O13 0.735418 0.850925 0.200300
O O14 0.028390 0.233920 0.000511
O O15 0.500000 0.500000 0.000000
O O16 0.894030 0.232605 0.422983
O O17 0.000000 0.500000 0.500000
#
# Coordination Sequence:
#
# PCOD8020124 Si02
#       8
#     2   2   2   2   2   2   2   2
#     4  10  24  41  61  97 122 167 221 254 321 388
#     4  11  22  42  66  93 137 168 213 268 319 382
#     4  11  24  41  64  93 129 169 214 270 318 384
#     4  10  22  42  65  97 133 170 215 263 321 385
#     4  10  23  40  66 100 129 170 216 262 328 382
#     4  11  23  39  64  90 126 164 212 269 321 372
#     4  10  26  41  66 101 125 173 222 258 326 387
#     4  11  24  45  66  90 132 173 214 267 321 381
#
# _framework density 21.935285
#
# number of rings (size 3 to 8) (size 9 to 14) (size 15 to 20)
#    0.000    1.500    1.250    2.250    1.750   13.000 
#    0.000    0.000    0.000    0.000    0.000    0.000 
#    0.000    0.000    0.000    0.000    0.000    0.000 
#
# Total GULP energy -198244.362474 kJ/mol
# GULP energy per Si atom -12390.272655 kJ/mol
# Density = 2.188536 g / cm^3
# Si number density = 21.935285 Si / 1000 Ang^3
#
#
#
# Elastic Constant Matrix: (Units=GPa)
#
#
# Indices 1 2 3 4 5 6 
#
# 1 107.5227 30.1404 29.7346 2.9592 6.3144 2.6634
# 2 30.1404 106.3419 46.0420 -8.2407 13.0286 17.3669
# 3 29.7346 46.0420 75.9722 -3.5321 6.4333 -1.5301
# 4 2.9592 -8.2407 -3.5321 34.7226 2.1987 -3.0552
# 5 6.3144 13.0286 6.4333 2.1987 28.1371 9.3809
# 6 2.6634 17.3669 -1.5301 -3.0552 9.3809 33.7518
#
#
#
# Elastic Compliance Matrix: (Units=1/GPa)
#
#
# Indices 1 2 3 4 5 6 
#
# 1 0.010746 -0.001682 -0.003198 -0.001598 -0.000756 -0.000062
# 2 -0.001682 0.015154 -0.008340 0.002427 -0.002550 -0.007114
# 3 -0.003198 -0.008340 0.019811 0.000976 -0.002061 0.006103
# 4 -0.001598 0.002427 0.000976 0.030133 -0.004290 0.002842
# 5 -0.000756 -0.002550 -0.002061 -0.004290 0.041220 -0.010567
# 6 -0.000062 -0.007114 0.006103 0.002842 -0.010567 0.036764
#
#
# Mechanical properties :
#
#
# Convention : Reuss Voigt Hill
#
# Bulk Modulus (GPa) = 51.89066 55.74119 53.81593
# Shear Modulus (GPa) = 26.78210 31.58362 29.18286
#
# Velocity S-wave (km/s) = 3.49801 3.79866 3.65143
# Velocity P-wave (km/s) = 6.32633 6.68630 6.50880
#
# Compressibility (1/GPa) = 0.01927129
#
# Stress axis : x y z
#
# Youngs Moduli (GPa) = 93.05611 65.99128 50.47620
#
# Poissons Ratio (x) = 0.11102 0.16142
# Poissons Ratio (y) = 0.15655 0.42095
# Poissons Ratio (z) = 0.29758 0.55034
#
# Static dielectric constant tensor:
#      x y z
#    x 4.267710 0.117150 -0.055400 
#    y 0.117150 4.089970 0.011740 
#    z -0.055400 0.011740 3.875460 
# 
# 
# High freq. dielectric constant tensor:
#      x y z
#    x 1.875690 0.010210 -0.004160 
#    y 0.010210 1.864350 0.005570 
#    z -0.004160 0.005570 1.855280 
# 
# From -- ./inp_files/525783.got.cif
#   From: 2010.06.25/outbox.cif.g09.slc.cpg/sg2_263_cif.got.tgz:525783.got - 2010.06.27 13:26:56.
