data_PCOD8020054
_publ_section_title
;
Structure prediction by ZEFSAII (Michael W. Deem and Ramdas Pophale) SiO2 
 PCOD8020054
Probable space group: P -1
;
_chemical_formula_sum "Si O2"
_cell_formula_units_Z 14
_cell_length_a 17.471578
_cell_length_b 9.416903
_cell_length_c 5.507068
_cell_angle_alpha 139.525081
_cell_angle_beta 67.082131
_cell_angle_gamma 117.345460
_cell_volume 521.161441
_symmetry_space_group_name_H-M "P -1"
_symmetry_group_IT_number 2
_symmetry_cell_setting 'triclinic'
loop_
_space_group_symop_operation_xyz
x,y,z
-x,-y,-z
loop_
_atom_site_type_symbol
_atom_site_label
_atom_site_fract_x
_atom_site_fract_y
_atom_site_fract_z
Si Si1 0.205352 0.802844 0.381164
Si Si2 0.989596 0.361031 0.580285
Si Si3 0.765159 0.699003 0.304531
Si Si4 0.728175 0.189804 0.191821
Si Si5 0.833873 0.716611 0.734895
Si Si6 0.542449 0.192385 0.514744
Si Si7 0.428754 0.392216 0.640177
O O1 0.255429 0.922964 0.718098
O O2 0.106003 0.808008 0.529437
O O3 0.216512 0.547874 0.038212
O O4 0.244420 0.928657 0.239693
O O5 0.062688 0.227537 0.309155
O O6 0.000000 0.500000 0.500000
O O7 0.000000 0.500000 0.000000
O O8 0.813411 0.828679 0.653133
O O9 0.665257 0.685060 0.462485
O O10 0.799444 0.820239 0.156286
O O11 0.786718 0.448451 0.447464
O O12 0.626539 0.154658 0.231971
O O13 0.463071 0.182626 0.418467
O O14 0.500000 0.000000 0.500000
O O15 0.576412 0.438173 0.915829
O O16 0.500000 0.500000 0.500000
#
# Coordination Sequence:
#
# PCOD8020054 Si02
#       7
#     2   2   2   2   2   2   2
#     4  10  17  28  47  74 110 152 187 239 296 356
#     4  12  16  24  40  73 112 145 187 235 292 354
#     4  10  18  30  50  72 106 152 189 231 302 347
#     4  10  18  33  49  72 110 153 186 241 303 342
#     4  10  17  28  46  75 110 150 187 240 292 354
#     4  11  25  41  61  90 121 161 212 259 305 370
#     4  11  23  40  63  85 119 166 202 258 315 363
#
# _framework density 26.863078000000002
#
# number of rings (size 3 to 8) (size 9 to 14) (size 15 to 20)
#    0.000    1.429    8.571    1.714    2.000    0.571 
#    0.000    0.000    0.000    0.000    0.000    0.000 
#    0.000   12.571    0.000    0.000    0.000    0.000 
#
# Total GULP energy -173577.104028 kJ/mol
# GULP energy per Si atom -12398.364573 kJ/mol
# Density = 2.680194 g / cm^3
# Si number density = 26.863078 Si / 1000 Ang^3
#
#
#
# Elastic Constant Matrix: (Units=GPa)
#
#
# Indices 1 2 3 4 5 6 
#
# 1 247.3477 70.3162 81.4990 -35.0209 -40.7842 -20.8394
# 2 70.3162 137.3904 43.6361 -46.4775 -4.3649 -25.8582
# 3 81.4990 43.6361 191.2959 -47.4910 -16.7198 -15.7550
# 4 -35.0209 -46.4775 -47.4910 52.0399 2.3264 13.7073
# 5 -40.7842 -4.3649 -16.7198 2.3264 52.0827 -25.8472
# 6 -20.8394 -25.8582 -15.7550 13.7073 -25.8472 52.6738
#
#
#
# Elastic Compliance Matrix: (Units=1/GPa)
#
#
# Indices 1 2 3 4 5 6 
#
# 1 0.006528 -0.001822 -0.001398 -0.000030 0.006802 0.004615
# 2 -0.001822 0.011677 0.000696 0.008883 0.001086 0.003441
# 3 -0.001398 0.000696 0.007418 0.006038 0.001707 0.001273
# 4 -0.000030 0.008883 0.006038 0.033321 -0.000103 -0.002567
# 5 0.006802 0.001086 0.001707 -0.000103 0.035741 0.021300
# 6 0.004615 0.003441 0.001273 -0.002567 0.021300 0.034001
#
#
# Mechanical properties :
#
#
# Convention : Reuss Voigt Hill
#
# Bulk Modulus (GPa) = 48.60471 107.43738 78.02105
# Shear Modulus (GPa) = 35.56422 56.73146 46.14784
#
# Velocity S-wave (km/s) = 3.64250 4.60050 4.14924
# Velocity P-wave (km/s) = 5.98525 8.26443 7.21540
#
# Compressibility (1/GPa) = 0.02057414
#
# Stress axis : x y z
#
# Youngs Moduli (GPa) = 153.19212 85.63618 134.81573
#
# Poissons Ratio (x) = 0.15606 0.18851
# Poissons Ratio (y) = 0.27917 -0.09389
# Poissons Ratio (z) = 0.21421 -0.05964
#
# Static dielectric constant tensor:
#      x y z
#    x 5.204010 -0.597770 0.107560 
#    y -0.597770 5.170390 -0.586550 
#    z 0.107560 -0.586550 5.922110 
# 
# 
# High freq. dielectric constant tensor:
#      x y z
#    x 2.092090 -0.020750 -0.005160 
#    y -0.020750 2.090700 -0.003850 
#    z -0.005160 -0.003850 2.120360 
# 
# From -- ./inp_files/52280.got.cif
#   From: 2010.06.25/outbox.cif.g09.slc.cpg/sg2_27_cif.got.tgz:52280.got - 2010.06.27 13:26:56.
