data_PCOD8020024
_publ_section_title
;
Structure prediction by ZEFSAII (Michael W. Deem and Ramdas Pophale) SiO2 
 PCOD8020024
Probable space group: P -1
;
_chemical_formula_sum "Si O2"
_cell_formula_units_Z 14
_cell_length_a 8.870936
_cell_length_b 9.339177
_cell_length_c 18.397219
_cell_angle_alpha 146.257407
_cell_angle_beta 129.926622
_cell_angle_gamma 54.734743
_cell_volume 645.818378
_symmetry_space_group_name_H-M "P -1"
_symmetry_group_IT_number 2
_symmetry_cell_setting 'triclinic'
loop_
_space_group_symop_operation_xyz
x,y,z
-x,-y,-z
loop_
_atom_site_type_symbol
_atom_site_label
_atom_site_fract_x
_atom_site_fract_y
_atom_site_fract_z
Si Si1 0.314431 0.889868 0.430024
Si Si2 0.887772 0.574375 0.889170
Si Si3 0.957077 0.250874 0.426540
Si Si4 0.254417 0.067946 0.884812
Si Si5 0.287724 0.448313 0.883028
Si Si6 0.687908 0.098763 0.015625
Si Si7 0.786127 0.077541 0.433314
O O1 0.255850 0.644357 0.263961
O O2 0.349056 0.813236 0.494186
O O3 0.500000 0.000000 0.500000
O O4 0.152428 0.133725 0.477525
O O5 0.117709 0.468728 0.901525
O O6 0.854538 0.666440 0.001716
O O7 0.813153 0.822599 0.919299
O O8 0.000000 0.500000 0.500000
O O9 0.797226 0.289886 0.460489
O O10 0.895743 0.037279 0.261676
O O11 0.309011 0.857127 0.877218
O O12 0.457666 0.110746 0.924017
O O13 0.214736 0.669758 0.895387
O O14 0.303091 0.171069 0.732809
O O15 0.500000 0.500000 0.000000
O O16 0.000000 0.000000 0.500000
#
# Coordination Sequence:
#
# PCOD8020024 Si02
#       7
#     2   2   2   2   2   2   2
#     4  11  26  43  69  99 130 182 223 280 347 403
#     4  10  22  42  64  97 135 169 226 280 329 409
#     4  11  24  42  68  94 134 179 224 274 335 404
#     4   9  22  40  65  98 127 175 225 276 331 398
#     4  12  23  40  68  99 134 175 227 283 342 397
#     4   9  22  39  68  91 128 181 213 277 342 400
#     4  10  23  44  64  93 137 174 220 272 342 403
#
# _framework density 21.677921000000001
#
# number of rings (size 3 to 8) (size 9 to 14) (size 15 to 20)
#    0.857    0.857    2.857    1.286    8.000    1.714 
#    0.000    0.714    0.000    0.000    0.000    0.000 
#    0.000    0.000    0.000    0.000    0.000    0.000 
#
# Total GULP energy -173456.151731 kJ/mol
# GULP energy per Si atom -12389.725124 kJ/mol
# Density = 2.162858 g / cm^3
# Si number density = 21.677921 Si / 1000 Ang^3
#
#
#
# Elastic Constant Matrix: (Units=GPa)
#
#
# Indices 1 2 3 4 5 6 
#
# 1 129.8728 30.5275 68.2341 -7.6813 3.4473 21.6196
# 2 30.5275 68.4073 31.3868 12.9251 6.0703 29.2465
# 3 68.2341 31.3868 124.9388 -11.0413 4.2165 21.2457
# 4 -7.6813 12.9251 -11.0413 31.3237 2.4688 6.9443
# 5 3.4473 6.0703 4.2165 2.4688 33.5517 -0.9419
# 6 21.6196 29.2465 21.2457 6.9443 -0.9419 52.5497
#
#
#
# Elastic Compliance Matrix: (Units=1/GPa)
#
#
# Indices 1 2 3 4 5 6 
#
# 1 0.011373 -0.002499 -0.005099 0.002389 -0.000295 -0.001547
# 2 -0.002499 0.023435 -0.003639 -0.009242 -0.003109 -0.009377
# 3 -0.005099 -0.003639 0.012447 0.005055 -0.000799 -0.001591
# 4 0.002389 -0.009242 0.005055 0.038957 -0.002161 -0.003070
# 5 -0.000295 -0.003109 -0.000799 -0.002161 0.030741 0.003011
# 6 -0.001547 -0.009377 -0.001591 -0.003070 0.003011 0.025988
#
#
# Mechanical properties :
#
#
# Convention : Reuss Voigt Hill
#
# Bulk Modulus (GPa) = 40.35656 64.83509 52.59583
# Shear Modulus (GPa) = 28.78908 36.35640 32.57274
#
# Velocity S-wave (km/s) = 3.64818 4.09970 3.88051
# Velocity P-wave (km/s) = 6.03344 7.23764 6.66280
#
# Compressibility (1/GPa) = 0.02477912
#
# Stress axis : x y z
#
# Youngs Moduli (GPa) = 87.92627 42.67177 80.33857
#
# Poissons Ratio (x) = 0.10666 0.40966
# Poissons Ratio (y) = 0.21977 0.29238
# Poissons Ratio (z) = 0.44836 0.15530
#
# Static dielectric constant tensor:
#      x y z
#    x 3.976090 0.259350 0.172370 
#    y 0.259350 4.023350 0.106950 
#    z 0.172370 0.106950 3.638990 
# 
# 
# High freq. dielectric constant tensor:
#      x y z
#    x 1.848220 0.022990 0.008620 
#    y 0.022990 1.854660 -0.006540 
#    z 0.008620 -0.006540 1.843160 
# 
# From -- ./inp_files/554807.got.cif
#   From: 2010.06.25/outbox.cif.g09.slc.cpg/sg2_278_cif.got.tgz:554807.got - 2010.06.27 13:26:56.
