data_PCOD8020683
_publ_section_title
;
Structure prediction by ZEFSAII (Michael W. Deem and Ramdas Pophale) SiO2 
 PCOD8020683
Probable space group: P -1
;
_chemical_formula_sum "Si O2"
_cell_formula_units_Z 14
_cell_length_a 16.290862
_cell_length_b 9.181671
_cell_length_c 15.696396
_cell_angle_alpha 115.978401
_cell_angle_beta 155.757595
_cell_angle_gamma 48.067644
_cell_volume 593.789660
_symmetry_space_group_name_H-M "P -1"
_symmetry_group_IT_number 2
_symmetry_cell_setting 'triclinic'
loop_
_space_group_symop_operation_xyz
x,y,z
-x,-y,-z
loop_
_atom_site_type_symbol
_atom_site_label
_atom_site_fract_x
_atom_site_fract_y
_atom_site_fract_z
Si Si1 0.022950 0.177627 0.809968
Si Si2 0.596333 0.845448 0.362427
Si Si3 0.451966 0.762277 0.552714
Si Si4 0.179560 0.002439 0.733423
Si Si5 0.209334 0.357457 0.830927
Si Si6 0.279364 0.952113 0.260059
Si Si7 0.073359 0.515509 0.930781
O O1 0.000541 0.109086 0.679093
O O2 0.353891 0.945023 0.089689
O O3 0.792457 0.230447 0.667490
O O4 0.944493 0.413567 0.802276
O O5 0.906608 0.592562 0.563632
O O6 0.652789 0.003069 0.453086
O O7 0.487208 0.828427 0.342895
O O8 0.734689 0.544128 0.820261
O O9 0.489805 0.764038 0.487151
O O10 0.202835 0.169955 0.764808
O O11 0.000000 0.000000 0.500000
O O12 0.513501 0.736982 0.983801
O O13 0.245042 0.398278 0.973568
O O14 0.174986 0.199656 0.241489
O O15 0.000000 0.000000 0.000000
#
# Coordination Sequence:
#
# PCOD8020683 Si02
#       7
#     2   2   2   2   2   2   2
#     4  10  23  44  67 103 135 176 231 282 339 404
#     4  11  24  44  66  96 142 175 228 284 329 406
#     4  11  23  44  67  98 138 180 231 276 332 397
#     4  10  22  42  71  98 130 175 226 278 348 406
#     4  10  22  43  69  97 133 180 220 280 345 398
#     4  12  25  45  68 100 140 186 231 273 337 402
#     4  10  24  44  68  96 142 179 227 279 334 399
#
# _framework density 23.577372
#
# number of rings (size 3 to 8) (size 9 to 14) (size 15 to 20)
#    0.000    1.429    2.857    1.286    0.000    9.143 
#    2.571    1.429    0.000    0.000    0.000    0.000 
#    0.000    0.000    0.000    0.000    0.000    0.000 
#
# Total GULP energy -173516.385202 kJ/mol
# GULP energy per Si atom -12394.027514 kJ/mol
# Density = 2.352371 g / cm^3
# Si number density = 23.577372 Si / 1000 Ang^3
#
#
#
# Elastic Constant Matrix: (Units=GPa)
#
#
# Indices 1 2 3 4 5 6 
#
# 1 62.4904 39.6832 30.2207 5.4544 2.9396 13.6934
# 2 39.6832 74.8925 48.7570 3.5334 5.1058 -4.0961
# 3 30.2207 48.7570 124.4010 -10.4295 -9.0631 -6.9746
# 4 5.4544 3.5334 -10.4295 43.4230 -4.8861 -1.8254
# 5 2.9396 5.1058 -9.0631 -4.8861 48.5252 0.6902
# 6 13.6934 -4.0961 -6.9746 -1.8254 0.6902 30.0143
#
#
#
# Elastic Compliance Matrix: (Units=1/GPa)
#
#
# Indices 1 2 3 4 5 6 
#
# 1 0.031468 -0.015384 -0.003024 -0.004275 -0.001035 -0.017395
# 2 -0.015384 0.026603 -0.006580 -0.001814 -0.003408 0.009088
# 3 -0.003024 -0.006580 0.012174 0.004385 0.003541 0.003496
# 4 -0.004275 -0.001814 0.004385 0.025366 0.003764 0.004178
# 5 -0.001035 -0.003408 0.003541 0.003764 0.022062 0.000552
# 6 -0.017395 0.009088 0.003496 0.004178 0.000552 0.043548
#
#
# Mechanical properties :
#
#
# Convention : Reuss Voigt Hill
#
# Bulk Modulus (GPa) = 49.33949 55.45620 52.39785
# Shear Modulus (GPa) = 22.94074 33.93403 28.43739
#
# Velocity S-wave (km/s) = 3.12268 3.79788 3.47671
# Velocity P-wave (km/s) = 5.82868 6.54246 6.19586
#
# Compressibility (1/GPa) = 0.02026774
#
# Stress axis : x y z
#
# Youngs Moduli (GPa) = 31.77838 37.58968 82.14444
#
# Poissons Ratio (x) = 0.57829 0.24840
# Poissons Ratio (y) = 0.48889 0.54052
# Poissons Ratio (z) = 0.09610 0.24735
#
# Static dielectric constant tensor:
#      x y z
#    x 4.307470 0.110540 -0.090420 
#    y 0.110540 4.253530 -0.035880 
#    z -0.090420 -0.035880 4.478930 
# 
# 
# High freq. dielectric constant tensor:
#      x y z
#    x 1.924950 0.001090 0.003120 
#    y 0.001090 1.934890 0.001900 
#    z 0.003120 0.001900 1.953600 
# 
# From -- ./inp_files/528747.got.cif
#   From: 2010.06.25/outbox.cif.g09.slc.cpg/sg2_265_cif.got.tgz:528747.got - 2010.06.27 13:26:56.
