data_PCOD8020304
_publ_section_title
;
Structure prediction by ZEFSAII (Michael W. Deem and Ramdas Pophale) SiO2 
 PCOD8020304
Probable space group: P -1
;
_chemical_formula_sum "Si O2"
_cell_formula_units_Z 14
_cell_length_a 5.022891
_cell_length_b 25.759298
_cell_length_c 8.304348
_cell_angle_alpha 34.477989
_cell_angle_beta 91.315541
_cell_angle_gamma 94.164271
_cell_volume 605.341955
_symmetry_space_group_name_H-M "P -1"
_symmetry_group_IT_number 2
_symmetry_cell_setting 'triclinic'
loop_
_space_group_symop_operation_xyz
x,y,z
-x,-y,-z
loop_
_atom_site_type_symbol
_atom_site_label
_atom_site_fract_x
_atom_site_fract_y
_atom_site_fract_z
Si Si1 0.337604 0.168484 0.425135
Si Si2 0.368234 0.677531 0.145230
Si Si3 0.504313 0.696298 0.463127
Si Si4 0.839850 0.644398 0.047564
Si Si5 0.010119 0.402895 0.165546
Si Si6 0.978663 0.000270 0.308043
Si Si7 0.501810 0.896412 0.072341
O O1 0.559844 0.215989 0.182887
O O2 0.173316 0.250132 0.287931
O O3 0.132857 0.099915 0.498057
O O4 0.481562 0.117221 0.700441
O O5 0.387922 0.670176 0.354295
O O6 0.567013 0.612738 0.221318
O O7 0.070631 0.639903 0.192945
O O8 0.786017 0.654976 0.588277
O O9 0.553234 0.805110 0.209093
O O10 0.285463 0.652252 0.701283
O O11 0.889167 0.580569 0.058959
O O12 0.000000 0.500000 0.000000
O O13 0.274396 0.022828 0.182458
O O14 0.000000 0.000000 0.500000
O O15 0.789786 0.075823 0.048582
#
# Coordination Sequence:
#
# PCOD8020304 Si02
#       7
#     2   2   2   2   2   2   2
#     4  10  24  41  67  90 139 172 231 259 331 379
#     4  10  23  39  70  94 134 176 217 265 331 390
#     4  12  24  45  69 102 131 174 220 271 339 393
#     4  10  22  42  67  93 131 175 214 262 337 389
#     4  12  25  46  72 100 131 169 221 275 328 405
#     4  12  27  40  61  99 135 173 225 281 315 371
#     4  12  25  41  67  92 133 177 225 266 327 388
#
# _framework density 23.127423
#
# number of rings (size 3 to 8) (size 9 to 14) (size 15 to 20)
#    0.857    0.000    1.429    6.000    6.000    0.000 
#    0.000    4.286    0.000    0.000    0.000    0.000 
#    0.000    0.000    0.000    0.000    0.000    0.000 
#
# Total GULP energy -173635.595649 kJ/mol
# GULP energy per Si atom -12402.542546 kJ/mol
# Density = 2.307478 g / cm^3
# Si number density = 23.127423 Si / 1000 Ang^3
#
#
#
# Elastic Constant Matrix: (Units=GPa)
#
#
# Indices 1 2 3 4 5 6 
#
# 1 80.6704 -15.0006 0.3548 -1.6073 8.8343 1.0377
# 2 -15.0006 94.3839 2.9575 4.0689 19.5044 5.6918
# 3 0.3548 2.9575 13.5209 -3.2893 6.9103 -1.2075
# 4 -1.6073 4.0689 -3.2893 45.0134 -2.0026 0.6421
# 5 8.8343 19.5044 6.9103 -2.0026 22.9940 6.6937
# 6 1.0377 5.6918 -1.2075 0.6421 6.6937 34.9332
#
#
#
# Elastic Compliance Matrix: (Units=1/GPa)
#
#
# Indices 1 2 3 4 5 6 
#
# 1 0.014343 0.004308 0.004267 -0.000060 -0.010768 0.001084
# 2 0.004308 0.014367 0.004343 -0.001526 -0.015476 0.000675
# 3 0.004267 0.004343 0.093037 0.004849 -0.035509 0.009096
# 4 -0.000060 -0.001526 0.004849 0.022798 0.001955 -0.000376
# 5 -0.010768 -0.015476 -0.035509 0.001955 0.075339 -0.012858
# 6 0.001084 0.000675 0.009096 -0.000376 -0.012858 0.031269
#
#
# Mechanical properties :
#
#
# Convention : Reuss Voigt Hill
#
# Bulk Modulus (GPa) = 6.77586 18.35541 12.56564
# Shear Modulus (GPa) = 18.21421 33.93902 26.07662
#
# Velocity S-wave (km/s) = 2.80939 3.83493 3.36150
# Velocity P-wave (km/s) = 3.66875 5.25002 4.52893
#
# Compressibility (1/GPa) = 0.14758271
#
# Stress axis : x y z
#
# Youngs Moduli (GPa) = 69.72278 69.60454 10.74837
#
# Poissons Ratio (x) = -0.29987 -0.04586
# Poissons Ratio (y) = -0.30038 -0.04668
# Poissons Ratio (z) = -0.29748 -0.30230
#
# Static dielectric constant tensor:
#      x y z
#    x 4.203210 0.021180 0.075890 
#    y 0.021180 4.090190 0.001630 
#    z 0.075890 0.001630 3.951380 
# 
# 
# High freq. dielectric constant tensor:
#      x y z
#    x 1.923680 0.004600 0.007070 
#    y 0.004600 1.923480 0.004620 
#    z 0.007070 0.004620 1.900770 
# 
# From -- ./inp_files/142913.got.cif
#   From: 2010.06.25/outbox.cif.g09.slc.cpg/sg2_72_cif.got.tgz:142913.got - 2010.06.27 13:26:56.
