data_PCOD8020377
_publ_section_title
;
Structure prediction by ZEFSAII (Michael W. Deem and Ramdas Pophale) SiO2 
 PCOD8020377
Probable space group: P -1
;
_chemical_formula_sum "Si O2"
_cell_formula_units_Z 16
_cell_length_a 14.586676
_cell_length_b 11.878700
_cell_length_c 15.043310
_cell_angle_alpha 123.331536
_cell_angle_beta 28.258782
_cell_angle_gamma 138.748752
_cell_volume 758.797832
_symmetry_space_group_name_H-M "P -1"
_symmetry_group_IT_number 2
_symmetry_cell_setting 'triclinic'
loop_
_space_group_symop_operation_xyz
x,y,z
-x,-y,-z
loop_
_atom_site_type_symbol
_atom_site_label
_atom_site_fract_x
_atom_site_fract_y
_atom_site_fract_z
Si Si1 0.248919 0.017381 0.041756
Si Si2 0.615655 0.560592 0.546904
Si Si3 0.144984 0.141618 0.017536
Si Si4 0.251740 0.825363 0.583561
Si Si5 0.786262 0.188330 0.597071
Si Si6 0.901762 0.600498 0.156978
Si Si7 0.074146 0.031233 0.551662
Si Si8 0.285969 0.543719 0.406920
O O1 0.112291 0.032253 0.083888
O O2 0.563404 0.167659 0.829807
O O3 0.152351 0.817051 0.041477
O O4 0.182500 0.065163 0.209969
O O5 0.748378 0.516036 0.346113
O O6 0.299929 0.422916 0.750099
O O7 0.717662 0.754274 0.513631
O O8 0.691848 0.560025 0.581991
O O9 0.010757 0.221880 0.184121
O O10 0.447702 0.313405 0.813429
O O11 0.000000 0.000000 0.000000
O O12 0.298694 0.862659 0.454639
O O13 0.214667 0.650598 0.562341
O O14 0.500000 0.000000 0.500000
O O15 0.063080 0.395460 0.462651
O O16 0.789286 0.043332 0.573970
O O17 0.000000 0.500000 0.000000
O O18 0.000000 0.000000 0.500000
#
# Coordination Sequence:
#
# PCOD8020377 Si02
#       8
#     2   2   2   2   2   2   2   2
#     4  11  24  42  71  98 136 183 230 281 344 414
#     4  10  23  41  67 100 136 177 228 286 342 413
#     4  12  24  44  69 101 136 185 232 278 348 413
#     4  12  26  44  72 100 137 186 228 285 346 413
#     4  12  25  46  71 103 142 179 236 288 345 417
#     4  10  22  42  67  99 134 177 232 289 344 405
#     4  11  23  46  69  98 137 183 225 283 349 402
#     4  12  26  44  68 104 145 177 233 287 346 417
#
# _framework density 21.085985000000001
#
# number of rings (size 3 to 8) (size 9 to 14) (size 15 to 20)
#    0.000    0.750    5.000    1.875    0.000    6.000 
#    2.250    0.000    0.000    0.000    0.000    0.000 
#    0.000    0.000    0.000    0.000    0.000    0.000 
#
# Total GULP energy -198457.031582 kJ/mol
# GULP energy per Si atom -12403.564474 kJ/mol
# Density = 2.103799 g / cm^3
# Si number density = 21.085985 Si / 1000 Ang^3
#
#
#
# Elastic Constant Matrix: (Units=GPa)
#
#
# Indices 1 2 3 4 5 6 
#
# 1 135.1328 40.7785 48.9539 0.1912 7.9936 11.3582
# 2 40.7785 94.7683 42.5632 8.3613 -6.3238 -0.6447
# 3 48.9539 42.5632 141.7330 12.6441 -7.3446 7.7883
# 4 0.1912 8.3613 12.6441 37.9459 0.8553 -4.9582
# 5 7.9936 -6.3238 -7.3446 0.8553 32.8303 2.3041
# 6 11.3582 -0.6447 7.7883 -4.9582 2.3041 39.5760
#
#
#
# Elastic Compliance Matrix: (Units=1/GPa)
#
#
# Indices 1 2 3 4 5 6 
#
# 1 0.009714 -0.003413 -0.002524 0.001365 -0.003484 -0.001973
# 2 -0.003413 0.013582 -0.002649 -0.001985 0.002814 0.001309
# 3 -0.002524 -0.002649 0.009175 -0.002723 0.002340 -0.001602
# 4 0.001365 -0.001985 -0.002723 0.028238 -0.002325 0.003785
# 5 -0.003484 0.002814 0.002340 -0.002325 0.032547 -0.001601
# 6 -0.001973 0.001309 -0.001602 0.003785 -0.001601 0.026738
#
#
# Mechanical properties :
#
#
# Convention : Reuss Voigt Hill
#
# Bulk Modulus (GPa) = 65.36179 70.69168 68.02673
# Shear Modulus (GPa) = 35.14523 38.02633 36.58578
#
# Velocity S-wave (km/s) = 4.08702 4.25125 4.16994
# Velocity P-wave (km/s) = 7.30320 7.59577 7.45092
#
# Compressibility (1/GPa) = 0.01529946
#
# Stress axis : x y z
#
# Youngs Moduli (GPa) = 102.93901 73.62599 108.98982
#
# Poissons Ratio (x) = 0.25126 0.27513
# Poissons Ratio (y) = 0.35130 0.28872
# Poissons Ratio (z) = 0.25986 0.19504
#
# Static dielectric constant tensor:
#      x y z
#    x 3.719900 -0.071960 0.108240 
#    y -0.071960 4.017190 0.126100 
#    z 0.108240 0.126100 3.892900 
# 
# 
# High freq. dielectric constant tensor:
#      x y z
#    x 1.834100 -0.004090 -0.003410 
#    y -0.004090 1.831410 0.005840 
#    z -0.003410 0.005840 1.832430 
# 
# From -- ./inp_files/308917.got.cif
#   From: 2010.06.25/outbox.cif.g09.slc.cpg/sg2_155_cif.got.tgz:308917.got - 2010.06.27 13:26:56.
