data_PCOD8020556
_publ_section_title
;
Structure prediction by ZEFSAII (Michael W. Deem and Ramdas Pophale) SiO2 
 PCOD8020556
Probable space group: P -1
;
_chemical_formula_sum "Si O2"
_cell_formula_units_Z 16
_cell_length_a 6.850668
_cell_length_b 9.700860
_cell_length_c 21.007531
_cell_angle_alpha 118.904442
_cell_angle_beta 47.428513
_cell_angle_gamma 129.818072
_cell_volume 786.585376
_symmetry_space_group_name_H-M "P -1"
_symmetry_group_IT_number 2
_symmetry_cell_setting 'triclinic'
loop_
_space_group_symop_operation_xyz
x,y,z
-x,-y,-z
loop_
_atom_site_type_symbol
_atom_site_label
_atom_site_fract_x
_atom_site_fract_y
_atom_site_fract_z
Si Si1 0.293303 0.657210 0.844671
Si Si2 0.735785 0.800532 0.533964
Si Si3 0.767483 0.533278 0.743794
Si Si4 0.373107 0.186649 0.828879
Si Si5 0.873386 0.480899 0.453568
Si Si6 0.631019 0.177241 0.264967
Si Si7 0.773097 0.195008 0.979967
Si Si8 0.657763 0.378414 0.930869
O O1 0.534187 0.608555 0.810066
O O2 0.448200 0.800928 0.785634
O O3 0.990456 0.482563 0.848118
O O4 0.163827 0.728634 0.945705
O O5 0.865351 0.662656 0.479088
O O6 0.450221 0.704198 0.526015
O O7 0.621735 0.821418 0.633082
O O8 0.000000 0.000000 0.500000
O O9 0.622318 0.337910 0.763200
O O10 0.875701 0.526748 0.647635
O O11 0.042526 0.659045 0.755999
O O12 0.459755 0.213727 0.890444
O O13 0.059171 0.186045 0.886434
O O14 0.351143 0.002981 0.769071
O O15 0.000000 0.500000 0.500000
O O16 0.682145 0.312815 0.980969
O O17 0.500000 0.000000 0.000000
O O18 0.500000 0.500000 0.000000
#
# Coordination Sequence:
#
# PCOD8020556 Si02
#       8
#     2   2   2   2   2   2   2   2
#     4  12  23  41  63  90 128 165 215 261 313 371
#     4  10  22  44  67  98 133 166 211 263 325 392
#     4  11  23  43  65  92 129 163 209 267 312 376
#     4  12  24  42  64  92 126 168 216 257 319 370
#     4  10  22  42  69  97 128 169 211 261 327 390
#     4  11  25  41  66  96 126 166 211 264 314 375
#     4  12  26  40  60  90 127 169 214 260 311 379
#     4  12  24  41  64  89 122 173 214 260 318 363
#
# _framework density 20.341085
#
# number of rings (size 3 to 8) (size 9 to 14) (size 15 to 20)
#    0.000    0.750    3.750    4.125    1.750    1.500 
#    2.250    0.000    0.000    0.000    0.000    0.000 
#    0.000    0.000    0.000    0.000    0.000    0.000 
#
# Total GULP energy -198424.115261 kJ/mol
# GULP energy per Si atom -12401.507204 kJ/mol
# Density = 2.029479 g / cm^3
# Si number density = 20.341085 Si / 1000 Ang^3
#
#
#
# Elastic Constant Matrix: (Units=GPa)
#
#
# Indices 1 2 3 4 5 6 
#
# 1 77.4450 27.1776 18.9557 -15.0114 13.9128 -0.4024
# 2 27.1776 130.9293 38.4567 -18.1160 4.6224 0.4762
# 3 18.9557 38.4567 62.5213 -1.7602 -4.6021 9.8585
# 4 -15.0114 -18.1160 -1.7602 35.5984 1.3659 -4.2983
# 5 13.9128 4.6224 -4.6021 1.3659 35.4135 -0.0216
# 6 -0.4024 0.4762 9.8585 -4.2983 -0.0216 29.0096
#
#
#
# Elastic Compliance Matrix: (Units=1/GPa)
#
#
# Indices 1 2 3 4 5 6 
#
# 1 0.017404 -0.000623 -0.005780 0.007435 -0.007792 0.003312
# 2 -0.000623 0.010542 -0.006767 0.005201 -0.002209 0.002887
# 3 -0.005780 -0.006767 0.023615 -0.006033 0.006450 -0.008883
# 4 0.007435 0.005201 -0.006033 0.034663 -0.005716 0.007200
# 5 -0.007792 -0.002209 0.006450 -0.005716 0.032644 -0.003086
# 6 0.003312 0.002887 -0.008883 0.007200 -0.003086 0.038553
#
#
# Mechanical properties :
#
#
# Convention : Reuss Voigt Hill
#
# Bulk Modulus (GPa) = 39.64927 48.89727 44.27327
# Shear Modulus (GPa) = 26.01905 32.42468 29.22187
#
# Velocity S-wave (km/s) = 3.58038 3.99689 3.79435
# Velocity P-wave (km/s) = 6.05200 6.73728 6.40382
#
# Compressibility (1/GPa) = 0.02522114
#
# Stress axis : x y z
#
# Youngs Moduli (GPa) = 57.45838 94.86206 42.34661
#
# Poissons Ratio (x) = 0.05912 0.24475
# Poissons Ratio (y) = 0.03581 0.28654
# Poissons Ratio (z) = 0.33209 0.64189
#
# Static dielectric constant tensor:
#      x y z
#    x 3.621590 0.234810 -0.213620 
#    y 0.234810 3.768240 -0.135300 
#    z -0.213620 -0.135300 3.906210 
# 
# 
# High freq. dielectric constant tensor:
#      x y z
#    x 1.802360 0.003090 -0.002710 
#    y 0.003090 1.801670 -0.000810 
#    z -0.002710 -0.000810 1.803680 
# 
# From -- ./inp_files/47576.got.cif
#   From: 2010.06.25/outbox.cif.g09.slc.cpg/sg2_24_cif.got.tgz:47576.got - 2010.06.27 13:26:56.
