data_PCOD8020705
_publ_section_title
;
Structure prediction by ZEFSAII (Michael W. Deem and Ramdas Pophale) SiO2 
 PCOD8020705
Probable space group: P -1
;
_chemical_formula_sum "Si O2"
_cell_formula_units_Z 16
_cell_length_a 12.095277
_cell_length_b 8.764096
_cell_length_c 7.161676
_cell_angle_alpha 109.549477
_cell_angle_beta 71.730809
_cell_angle_gamma 119.481475
_cell_volume 612.438453
_symmetry_space_group_name_H-M "P -1"
_symmetry_group_IT_number 2
_symmetry_cell_setting 'triclinic'
loop_
_space_group_symop_operation_xyz
x,y,z
-x,-y,-z
loop_
_atom_site_type_symbol
_atom_site_label
_atom_site_fract_x
_atom_site_fract_y
_atom_site_fract_z
Si Si1 0.745337 0.909574 0.735409
Si Si2 0.173003 0.709471 0.095214
Si Si3 0.465906 0.476622 0.291833
Si Si4 0.742085 0.693550 0.129946
Si Si5 0.945314 0.845370 0.811497
Si Si6 0.778808 0.053919 0.371116
Si Si7 0.271383 0.629660 0.384323
Si Si8 0.886613 0.584260 0.295349
O O1 0.625215 0.729148 0.796289
O O2 0.880814 0.898277 0.693151
O O3 0.744368 0.081403 0.916593
O O4 0.732918 0.942553 0.539803
O O5 0.240523 0.640863 0.188318
O O6 0.039078 0.697455 0.246320
O O7 0.156366 0.602005 0.870451
O O8 0.500000 0.500000 0.500000
O O9 0.597907 0.536017 0.126969
O O10 0.403196 0.610377 0.326198
O O11 0.809367 0.690358 0.291686
O O12 0.740265 0.888993 0.176715
O O13 0.831592 0.671955 0.906382
O O14 0.066567 0.813461 0.661976
O O15 0.000000 0.000000 0.000000
O O16 0.709068 0.185411 0.443320
O O17 0.156900 0.459619 0.482815
#
# Coordination Sequence:
#
# PCOD8020705 Si02
#       8
#     2   2   2   2   2   2   2   2
#     4  11  23  44  71 100 144 190 232 291 350 433
#     4  10  25  43  68 114 140 178 238 298 374 425
#     4  12  25  49  71  95 144 199 245 281 346 430
#     4  11  24  45  69 102 138 195 232 284 355 424
#     4  10  23  39  70 104 138 173 229 294 361 420
#     4  10  22  42  72 107 135 175 236 293 366 416
#     4  11  25  43  71 106 140 188 235 298 355 422
#     4  11  23  43  73 100 153 180 229 305 365 425
#
# _framework density 26.125074000000001
#
# number of rings (size 3 to 8) (size 9 to 14) (size 15 to 20)
#    0.000    1.250    2.500    2.250    8.750    4.000 
#    0.000    0.625    0.000    0.000    0.000    0.000 
#    0.000    0.000    0.000    0.000    0.000    0.000 
#
# Total GULP energy -198382.313374 kJ/mol
# GULP energy per Si atom -12398.894586 kJ/mol
# Density = 2.606561 g / cm^3
# Si number density = 26.125074 Si / 1000 Ang^3
#
#
#
# Elastic Constant Matrix: (Units=GPa)
#
#
# Indices 1 2 3 4 5 6 
#
# 1 155.0617 62.3056 19.4733 -15.5448 -2.3719 -2.6716
# 2 62.3056 150.0415 28.9246 -6.4974 -18.0288 -3.9664
# 3 19.4733 28.9246 58.9047 -16.4488 -8.4275 7.8215
# 4 -15.5448 -6.4974 -16.4488 42.4204 1.3054 -3.1975
# 5 -2.3719 -18.0288 -8.4275 1.3054 39.6229 -8.4695
# 6 -2.6716 -3.9664 7.8215 -3.1975 -8.4695 46.1759
#
#
#
# Elastic Compliance Matrix: (Units=1/GPa)
#
#
# Indices 1 2 3 4 5 6 
#
# 1 0.008049 -0.003256 -0.000628 0.002261 -0.001157 0.000237
# 2 -0.003256 0.009112 -0.003420 -0.001103 0.003637 0.001764
# 3 -0.000628 -0.003420 0.021623 0.007332 0.002101 -0.003099
# 4 0.002261 -0.001103 0.007332 0.027119 0.000461 0.000757
# 5 -0.001157 0.003637 0.002101 0.000461 0.028350 0.005121
# 6 0.000237 0.001764 -0.003099 0.000757 0.005121 0.023338
#
#
# Mechanical properties :
#
#
# Convention : Reuss Voigt Hill
#
# Bulk Modulus (GPa) = 41.36147 65.04610 53.20378
# Shear Modulus (GPa) = 35.64833 42.53079 39.08956
#
# Velocity S-wave (km/s) = 3.69796 4.03919 3.87233
# Velocity P-wave (km/s) = 5.83949 6.83413 6.35630
#
# Compressibility (1/GPa) = 0.02417709
#
# Stress axis : x y z
#
# Youngs Moduli (GPa) = 124.23319 109.74197 46.24704
#
# Poissons Ratio (x) = 0.35737 0.02903
# Poissons Ratio (y) = 0.40456 0.15815
# Poissons Ratio (z) = 0.07797 0.37529
#
# Static dielectric constant tensor:
#      x y z
#    x 4.679640 -0.071320 -0.084780 
#    y -0.071320 5.199170 0.000650 
#    z -0.084780 0.000650 4.783880 
# 
# 
# High freq. dielectric constant tensor:
#      x y z
#    x 2.025030 -0.014370 0.005880 
#    y -0.014370 2.060360 0.006210 
#    z 0.005880 0.006210 2.059090 
# 
# From -- ./inp_files/239698.got.cif
#   From: 2010.06.25/outbox.cif.g09.slc.cpg/sg2_120_cif.got.tgz:239698.got - 2010.06.27 13:26:56.
