data_PCOD8020197
_publ_section_title
;
Structure prediction by ZEFSAII (Michael W. Deem and Ramdas Pophale) SiO2 
 PCOD8020197
Probable space group: P -1
;
_chemical_formula_sum "Si O2"
_cell_formula_units_Z 16
_cell_length_a 8.293273
_cell_length_b 12.150902
_cell_length_c 9.011631
_cell_angle_alpha 97.138462
_cell_angle_beta 86.492127
_cell_angle_gamma 126.349691
_cell_volume 725.646384
_symmetry_space_group_name_H-M "P -1"
_symmetry_group_IT_number 2
_symmetry_cell_setting 'triclinic'
loop_
_space_group_symop_operation_xyz
x,y,z
-x,-y,-z
loop_
_atom_site_type_symbol
_atom_site_label
_atom_site_fract_x
_atom_site_fract_y
_atom_site_fract_z
Si Si1 0.089140 0.637655 0.601904
Si Si2 0.053154 0.997253 0.165157
Si Si3 0.325104 0.898412 0.099461
Si Si4 0.822278 0.374083 0.077174
Si Si5 0.218371 0.287306 0.346269
Si Si6 0.578697 0.477212 0.141112
Si Si7 0.683112 0.136495 0.587628
Si Si8 0.869022 0.758865 0.335596
O O1 0.157060 0.615439 0.747639
O O2 0.279885 0.748211 0.508550
O O3 0.000000 0.500000 0.500000
O O4 0.938532 0.676687 0.647468
O O5 0.221276 0.971437 0.156259
O O6 0.869741 0.871160 0.252511
O O7 0.125789 0.140254 0.255498
O O8 0.000000 0.000000 0.000000
O O9 0.396089 0.866615 0.242699
O O10 0.187046 0.755892 0.997728
O O11 0.500000 0.000000 0.000000
O O12 0.628563 0.372891 0.065160
O O13 0.000000 0.500000 0.000000
O O14 0.414499 0.406309 0.268204
O O15 0.267005 0.280126 0.515710
O O16 0.775416 0.620882 0.218795
O O17 0.500000 0.500000 0.000000
O O18 0.903034 0.169686 0.606912
O O19 0.500000 0.000000 0.500000
#
# Coordination Sequence:
#
# PCOD8020197 Si02
#       8
#     2   2   2   2   2   2   2   2
#     4  11  23  43  68  99 132 172 222 279 334 395
#     4  11  22  41  64  93 132 175 218 268 323 387
#     4  11  23  40  61  94 128 167 215 268 321 386
#     4  12  23  41  66  95 132 174 218 273 327 388
#     4  11  23  42  66  97 132 177 221 273 334 396
#     4  12  25  44  68 100 135 177 221 270 332 399
#     4  10  22  42  66  94 129 171 218 271 330 390
#     4  10  23  43  65  94 131 171 219 274 326 389
#
# _framework density 22.049306999999999
#
# number of rings (size 3 to 8) (size 9 to 14) (size 15 to 20)
#    0.000    1.000    0.000    8.250    0.000    2.000 
#    0.000    6.250    0.000    0.000    0.000    0.000 
#    0.000    0.000    0.000    0.000    0.000    0.000 
#
# Total GULP energy -198223.021334 kJ/mol
# GULP energy per Si atom -12388.938833 kJ/mol
# Density = 2.199912 g / cm^3
# Si number density = 22.049307 Si / 1000 Ang^3
#
#
#
# Elastic Constant Matrix: (Units=GPa)
#
#
# Indices 1 2 3 4 5 6 
#
# 1 85.7586 44.9217 38.1811 -1.3789 -10.0773 -10.6136
# 2 44.9217 180.7275 81.7086 -10.5700 -6.7533 3.2057
# 3 38.1811 81.7086 184.7552 -28.0894 2.6785 2.4350
# 4 -1.3789 -10.5700 -28.0894 74.5016 -2.6611 -10.0505
# 5 -10.0773 -6.7533 2.6785 -2.6611 35.5736 2.1850
# 6 -10.6136 3.2057 2.4350 -10.0505 2.1850 39.9314
#
#
#
# Elastic Compliance Matrix: (Units=1/GPa)
#
#
# Indices 1 2 3 4 5 6 
#
# 1 0.014914 -0.002752 -0.002000 -0.000192 0.003589 0.004062
# 2 -0.002752 0.007521 -0.002780 -0.000169 0.000922 -0.001259
# 3 -0.002000 -0.002780 0.007428 0.002303 -0.001475 -0.000101
# 4 -0.000192 -0.000169 0.002303 0.014758 0.000629 0.003502
# 5 0.003589 0.000922 -0.001475 0.000629 0.029490 -0.000486
# 6 0.004062 -0.001259 -0.000101 0.003502 -0.000486 0.027138
#
#
# Mechanical properties :
#
#
# Convention : Reuss Voigt Hill
#
# Bulk Modulus (GPa) = 67.56968 86.76268 77.16618
# Shear Modulus (GPa) = 41.23840 49.09663 45.16752
#
# Velocity S-wave (km/s) = 4.32937 4.72388 4.53092
# Velocity P-wave (km/s) = 7.46341 8.31795 7.90224
#
# Compressibility (1/GPa) = 0.01479954
#
# Stress axis : x y z
#
# Youngs Moduli (GPa) = 67.05139 132.96143 134.62411
#
# Poissons Ratio (x) = 0.36592 0.26922
# Poissons Ratio (y) = 0.18453 0.37424
# Poissons Ratio (z) = 0.13409 0.36962
#
# Static dielectric constant tensor:
#      x y z
#    x 3.865880 -0.012570 -0.004580 
#    y -0.012570 5.047030 -0.644250 
#    z -0.004580 -0.644250 4.464400 
# 
# 
# High freq. dielectric constant tensor:
#      x y z
#    x 1.841940 -0.003130 -0.004930 
#    y -0.003130 1.891610 -0.020270 
#    z -0.004930 -0.020270 1.899590 
# 
# From -- ./inp_files/188590.got.cif
#   From: 2010.06.25/outbox.cif.g09.slc.cpg/sg2_95_cif.got.tgz:188590.got - 2010.06.27 13:26:56.
