data_PCOD8020510
_publ_section_title
;
Structure prediction by ZEFSAII (Michael W. Deem and Ramdas Pophale) SiO2 
 PCOD8020510
Probable space group: P -1
;
_chemical_formula_sum "Si O2"
_cell_formula_units_Z 16
_cell_length_a 13.189252
_cell_length_b 11.040558
_cell_length_c 11.549948
_cell_angle_alpha 26.565942
_cell_angle_beta 59.029709
_cell_angle_gamma 64.582630
_cell_volume 642.823573
_symmetry_space_group_name_H-M "P -1"
_symmetry_group_IT_number 2
_symmetry_cell_setting 'triclinic'
loop_
_space_group_symop_operation_xyz
x,y,z
-x,-y,-z
loop_
_atom_site_type_symbol
_atom_site_label
_atom_site_fract_x
_atom_site_fract_y
_atom_site_fract_z
Si Si1 0.297854 0.541716 0.124075
Si Si2 0.868794 0.516965 0.519361
Si Si3 0.129466 0.436143 0.119908
Si Si4 0.809783 0.903999 0.026043
Si Si5 0.870414 0.431592 0.249406
Si Si6 0.698003 0.957554 0.729628
Si Si7 0.577683 0.758161 0.187375
Si Si8 0.477137 0.132256 0.278899
O O1 0.222287 0.414641 0.384182
O O2 0.200439 0.623704 0.015869
O O3 0.388629 0.363912 0.155783
O O4 0.388271 0.782228 0.917252
O O5 0.867283 0.771590 0.216892
O O6 0.000000 0.500000 0.500000
O O7 0.836539 0.227248 0.724451
O O8 0.992296 0.351523 0.307820
O O9 0.196087 0.162505 0.301778
O O10 0.124703 0.607159 0.858675
O O11 0.855806 0.746378 0.021022
O O12 0.668229 0.840405 0.167552
O O13 0.756244 0.228997 0.530042
O O14 0.591682 0.044081 0.632046
O O15 0.647404 0.728871 0.048449
O O16 0.500000 0.500000 0.500000
O O17 0.500000 0.000000 0.000000
O O18 0.500000 0.000000 0.500000
#
# Coordination Sequence:
#
# PCOD8020510 Si02
#       8
#     2   2   2   2   2   2   2   2
#     4  10  24  44  67 102 141 187 247 299 364 436
#     4  12  28  50  76 109 148 200 248 308 371 449
#     4  10  22  42  69 104 139 187 237 305 376 438
#     4  12  27  49  75 107 149 193 251 302 374 445
#     4  11  22  43  72 106 144 184 241 301 381 442
#     4  11  23  42  69 104 147 186 246 311 374 450
#     4  12  27  45  70 105 144 196 246 306 371 436
#     4  10  23  43  70 103 140 194 247 303 373 436
#
# _framework density 24.890191000000002
#
# number of rings (size 3 to 8) (size 9 to 14) (size 15 to 20)
#    0.000    1.000    1.250    4.500    5.250    0.000 
#    9.000    0.000    0.000    0.000    0.000    0.000 
#    0.000    0.000    0.000    0.000    0.000    0.000 
#
# Total GULP energy -198234.472073 kJ/mol
# GULP energy per Si atom -12389.654505 kJ/mol
# Density = 2.483354 g / cm^3
# Si number density = 24.890191 Si / 1000 Ang^3
#
#
#
# Elastic Constant Matrix: (Units=GPa)
#
#
# Indices 1 2 3 4 5 6 
#
# 1 209.4004 19.0197 32.5510 4.8959 -22.3413 9.1849
# 2 19.0197 62.9555 8.5261 4.3561 -15.1995 7.2735
# 3 32.5510 8.5261 85.9348 4.4698 -16.2684 4.2276
# 4 4.8959 4.3561 4.4698 36.0694 1.2557 -1.1127
# 5 -22.3413 -15.1995 -16.2684 1.2557 50.3021 0.2448
# 6 9.1849 7.2735 4.2276 -1.1127 0.2448 31.0235
#
#
#
# Elastic Compliance Matrix: (Units=1/GPa)
#
#
# Indices 1 2 3 4 5 6 
#
# 1 0.005330 -0.000831 -0.001540 -0.000527 0.001637 -0.001205
# 2 -0.000831 0.018024 -0.000186 -0.002344 0.005095 -0.004079
# 3 -0.001540 -0.000186 0.013054 -0.001551 0.003527 -0.001363
# 4 -0.000527 -0.002344 -0.001551 0.028407 -0.002162 0.001953
# 5 0.001637 0.005095 0.003527 -0.002162 0.023353 -0.002422
# 6 -0.001205 -0.004079 -0.001363 0.001953 -0.002422 0.033822
#
#
# Mechanical properties :
#
#
# Convention : Reuss Voigt Hill
#
# Bulk Modulus (GPa) = 31.95510 53.16492 42.56001
# Shear Modulus (GPa) = 36.35432 43.35859 39.85646
#
# Velocity S-wave (km/s) = 3.82591 4.17825 4.00596
# Velocity P-wave (km/s) = 5.69061 6.68455 6.20751
#
# Compressibility (1/GPa) = 0.03129391
#
# Stress axis : x y z
#
# Youngs Moduli (GPa) = 187.60845 55.48140 76.60528
#
# Poissons Ratio (x) = 0.04609 0.11797
# Poissons Ratio (y) = 0.15586 0.01428
# Poissons Ratio (z) = 0.28891 0.01034
#
# Static dielectric constant tensor:
#      x y z
#    x 4.653750 0.428800 -0.330260 
#    y 0.428800 4.226560 0.194450 
#    z -0.330260 0.194450 4.612500 
# 
# 
# High freq. dielectric constant tensor:
#      x y z
#    x 2.030070 -0.002000 -0.009830 
#    y -0.002000 1.977240 0.012970 
#    z -0.009830 0.012970 1.969530 
# 
# From -- ./inp_files/427215.got.cif
#   From: 2010.06.25/outbox.cif.g09.slc.cpg/sg2_214_cif.got.tgz:427215.got - 2010.06.27 13:26:56.
