data_PCOD8020904
_publ_section_title
;
Structure prediction by ZEFSAII (Michael W. Deem and Ramdas Pophale) SiO2 
 PCOD8020904
Probable space group: P -1
;
_chemical_formula_sum "Si O2"
_cell_formula_units_Z 14
_cell_length_a 9.024799
_cell_length_b 9.462511
_cell_length_c 14.893034
_cell_angle_alpha 134.298069
_cell_angle_beta 63.595920
_cell_angle_gamma 133.573864
_cell_volume 657.821448
_symmetry_space_group_name_H-M "P -1"
_symmetry_group_IT_number 2
_symmetry_cell_setting 'triclinic'
loop_
_space_group_symop_operation_xyz
x,y,z
-x,-y,-z
loop_
_atom_site_type_symbol
_atom_site_label
_atom_site_fract_x
_atom_site_fract_y
_atom_site_fract_z
Si Si1 0.113866 0.285977 0.105599
Si Si2 0.054954 0.323384 0.943503
Si Si3 0.268946 0.370413 0.734326
Si Si4 0.283906 0.232149 0.202250
Si Si5 0.007622 0.623674 0.328191
Si Si6 0.167570 0.468352 0.479217
Si Si7 0.586895 0.925152 0.520069
O O1 0.291247 0.364501 0.165604
O O2 0.976098 0.364228 0.220731
O O3 0.179230 0.410960 0.044231
O O4 0.000000 0.000000 0.000000
O O5 0.202845 0.313866 0.830881
O O6 0.839301 0.058806 0.900687
O O7 0.000000 0.500000 0.000000
O O8 0.478613 0.642942 0.784673
O O9 0.086801 0.351768 0.724354
O O10 0.294732 0.170102 0.601270
O O11 0.175532 0.282611 0.331892
O O12 0.898882 0.642715 0.452601
O O13 0.251235 0.843299 0.359319
O O14 0.394141 0.720965 0.540651
O O15 0.000000 0.500000 0.500000
O O16 0.500000 0.000000 0.500000
#
# Coordination Sequence:
#
# PCOD8020904 Si02
#       7
#     2   2   2   2   2   2   2
#     4  10  22  43  65  92 127 172 220 262 311 384
#     4  11  23  43  67  91 129 174 216 268 318 368
#     4  11  25  41  65  97 131 168 211 270 322 379
#     4  10  23  43  66  94 131 164 219 263 320 391
#     4  12  22  41  64  95 132 164 212 268 318 379
#     4  11  21  39  68  92 126 171 201 261 333 379
#     4  11  23  39  66  98 125 164 214 257 322 393
#
# _framework density 21.282371999999999
#
# number of rings (size 3 to 8) (size 9 to 14) (size 15 to 20)
#    0.000    1.143    4.286    2.143    0.000    4.571 
#    0.000    0.000    0.000    0.000    0.000    0.000 
#    0.000    0.000    0.000    0.000    0.000    0.000 
#
# Total GULP energy -173557.942050 kJ/mol
# GULP energy per Si atom -12396.995861 kJ/mol
# Density = 2.123393 g / cm^3
# Si number density = 21.282372 Si / 1000 Ang^3
#
#
#
# Elastic Constant Matrix: (Units=GPa)
#
#
# Indices 1 2 3 4 5 6 
#
# 1 117.8988 40.7366 45.5753 6.6015 3.2388 -2.6879
# 2 40.7366 93.8414 43.6030 -2.0384 5.2437 -1.3036
# 3 45.5753 43.6030 102.1218 -0.5277 7.4308 -0.5336
# 4 6.6015 -2.0384 -0.5277 40.2561 -10.3291 1.7955
# 5 3.2388 5.2437 7.4308 -10.3291 29.1777 -0.9676
# 6 -2.6879 -1.3036 -0.5336 1.7955 -0.9676 38.2543
#
#
#
# Elastic Compliance Matrix: (Units=1/GPa)
#
#
# Indices 1 2 3 4 5 6 
#
# 1 0.011113 -0.003172 -0.003576 -0.002191 -0.000505 0.000713
# 2 -0.003172 0.014235 -0.004608 0.001002 -0.000674 0.000134
# 3 -0.003576 -0.004608 0.013517 -0.000032 -0.002238 -0.000275
# 4 -0.002191 0.001002 -0.000032 0.027840 0.009888 -0.001177
# 5 -0.000505 -0.000674 -0.002238 0.009888 0.038534 0.000421
# 6 0.000713 0.000134 -0.000275 -0.001177 0.000421 0.026258
#
#
# Mechanical properties :
#
#
# Convention : Reuss Voigt Hill
#
# Bulk Modulus (GPa) = 61.90503 63.74354 62.82428
# Shear Modulus (GPa) = 31.32972 33.80077 32.56524
#
# Velocity S-wave (km/s) = 3.84095 3.98955 3.91596
# Velocity P-wave (km/s) = 6.98722 7.15810 7.07317
#
# Compressibility (1/GPa) = 0.01615378
#
# Stress axis : x y z
#
# Youngs Moduli (GPa) = 89.98422 70.24725 73.98263
#
# Poissons Ratio (x) = 0.22283 0.26457
# Poissons Ratio (y) = 0.28544 0.34088
# Poissons Ratio (z) = 0.32179 0.32367
#
# Static dielectric constant tensor:
#      x y z
#    x 3.883400 0.022830 0.424390 
#    y 0.022830 4.398430 0.263030 
#    z 0.424390 0.263030 4.429190 
# 
# 
# High freq. dielectric constant tensor:
#      x y z
#    x 1.834700 -0.009260 0.004460 
#    y -0.009260 1.822830 0.000500 
#    z 0.004460 0.000500 1.849700 
# 
# From -- ./inp_files/179758.got.cif
#   From: 2010.06.25/outbox.cif.g09.slc.cpg/sg2_90_cif.got.tgz:179758.got - 2010.06.27 13:26:56.
