data_PCOD8020689
_publ_section_title
;
Structure prediction by ZEFSAII (Michael W. Deem and Ramdas Pophale) SiO2 
 PCOD8020689
Probable space group: P -1
;
_chemical_formula_sum "Si O2"
_cell_formula_units_Z 16
_cell_length_a 9.821199
_cell_length_b 22.620335
_cell_length_c 5.872675
_cell_angle_alpha 54.443212
_cell_angle_beta 70.379248
_cell_angle_gamma 40.619071
_cell_volume 677.123261
_symmetry_space_group_name_H-M "P -1"
_symmetry_group_IT_number 2
_symmetry_cell_setting 'triclinic'
loop_
_space_group_symop_operation_xyz
x,y,z
-x,-y,-z
loop_
_atom_site_type_symbol
_atom_site_label
_atom_site_fract_x
_atom_site_fract_y
_atom_site_fract_z
Si Si1 0.900115 0.969694 0.254249
Si Si2 0.257412 0.089852 0.857388
Si Si3 0.409748 0.809388 0.893463
Si Si4 0.894420 0.458916 0.830388
Si Si5 0.810950 0.724670 0.610443
Si Si6 0.279401 0.334208 0.599288
Si Si7 0.381798 0.550507 0.203964
Si Si8 0.865409 0.210117 0.132611
O O1 0.764805 0.969503 0.163916
O O2 0.084998 0.854159 0.525097
O O3 0.741175 0.063708 0.319156
O O4 0.000000 0.000000 0.000000
O O5 0.211985 0.181439 0.542880
O O6 0.090238 0.145907 0.031862
O O7 0.500000 0.000000 0.000000
O O8 0.611215 0.752067 0.753001
O O9 0.285541 0.782678 0.956297
O O10 0.484641 0.767017 0.207613
O O11 0.740136 0.582968 0.720263
O O12 0.783499 0.454845 0.698627
O O13 0.121118 0.406347 0.738211
O O14 0.957477 0.384582 0.175772
O O15 0.803575 0.707240 0.388109
O O16 0.500000 0.500000 0.500000
O O17 0.500000 0.500000 0.000000
O O18 0.258894 0.671789 0.995165
#
# Coordination Sequence:
#
# PCOD8020689 Si02
#       8
#     2   2   2   2   2   2   2   2
#     4  12  27  46  75 103 148 196 255 315 397 463
#     4  12  27  46  76 109 150 198 253 321 397 471
#     4  11  25  43  71 109 141 197 253 312 386 472
#     4  10  23  43  67 102 142 197 251 319 382 456
#     4  11  24  41  72 103 146 190 252 315 385 464
#     4  10  22  42  71  98 145 190 253 311 387 459
#     4  12  30  48  78 114 159 206 265 321 395 475
#     4  12  28  48  77 107 157 200 259 324 396 465
#
# _framework density 23.629377999999999
#
# number of rings (size 3 to 8) (size 9 to 14) (size 15 to 20)
#    0.000    0.750    1.250    4.500   10.500    4.000 
#    0.000    0.000    0.000    0.000    0.000    0.000 
#    0.000    0.000    0.000    0.000    0.000    0.000 
#
# Total GULP energy -198286.292999 kJ/mol
# GULP energy per Si atom -12392.893312 kJ/mol
# Density = 2.357560 g / cm^3
# Si number density = 23.629378 Si / 1000 Ang^3
#
#
#
# Elastic Constant Matrix: (Units=GPa)
#
#
# Indices 1 2 3 4 5 6 
#
# 1 155.2694 33.0129 40.1503 -6.8027 4.4869 16.3286
# 2 33.0129 107.1826 26.4223 -9.7589 -10.4510 14.6295
# 3 40.1503 26.4223 109.1412 -19.7771 5.3428 -5.0945
# 4 -6.8027 -9.7589 -19.7771 42.4865 6.9054 -7.8765
# 5 4.4869 -10.4510 5.3428 6.9054 41.0448 -0.8140
# 6 16.3286 14.6295 -5.0945 -7.8765 -0.8140 43.9070
#
#
#
# Elastic Compliance Matrix: (Units=1/GPa)
#
#
# Indices 1 2 3 4 5 6 
#
# 1 0.007749 -0.001471 -0.002728 -0.000769 -0.000794 -0.002861
# 2 -0.001471 0.011178 -0.002480 0.000017 0.003260 -0.003402
# 3 -0.002728 -0.002480 0.012175 0.005910 -0.002828 0.004262
# 4 -0.000769 0.000017 0.005910 0.028126 -0.005296 0.005913
# 5 -0.000794 0.003260 -0.002828 -0.005296 0.026508 -0.001577
# 6 -0.002861 -0.003402 0.004262 0.005913 -0.001577 0.026499
#
#
# Mechanical properties :
#
#
# Convention : Reuss Voigt Hill
#
# Bulk Modulus (GPa) = 56.36169 63.41824 59.88997
# Shear Modulus (GPa) = 38.02045 43.62152 40.82099
#
# Velocity S-wave (km/s) = 4.01563 4.30125 4.16089
# Velocity P-wave (km/s) = 6.73829 7.18086 6.96309
#
# Compressibility (1/GPa) = 0.01774255
#
# Stress axis : x y z
#
# Youngs Moduli (GPa) = 129.05188 89.46107 82.13566
#
# Poissons Ratio (x) = 0.13160 0.22410
# Poissons Ratio (y) = 0.18984 0.20372
# Poissons Ratio (z) = 0.35211 0.22188
#
# Static dielectric constant tensor:
#      x y z
#    x 4.368370 -0.139610 0.192400 
#    y -0.139610 5.011560 -0.697760 
#    z 0.192400 -0.697760 4.923210 
# 
# 
# High freq. dielectric constant tensor:
#      x y z
#    x 1.950240 0.003310 0.002180 
#    y 0.003310 1.942410 -0.017980 
#    z 0.002180 -0.017980 1.939450 
# 
# From -- ./inp_files/52460.got.cif
#   From: 2010.06.25/outbox.cif.g09.slc.cpg/sg2_27_cif.got.tgz:52460.got - 2010.06.27 13:26:56.
