data_PCOD8020835
_publ_section_title
;
Structure prediction by ZEFSAII (Michael W. Deem and Ramdas Pophale) SiO2 
 PCOD8020835
Probable space group: P -1
;
_chemical_formula_sum "Si O2"
_cell_formula_units_Z 14
_cell_length_a 11.372112
_cell_length_b 14.063957
_cell_length_c 10.907285
_cell_angle_alpha 122.267489
_cell_angle_beta 25.636029
_cell_angle_gamma 118.456349
_cell_volume 638.136957
_symmetry_space_group_name_H-M "P -1"
_symmetry_group_IT_number 2
_symmetry_cell_setting 'triclinic'
loop_
_space_group_symop_operation_xyz
x,y,z
-x,-y,-z
loop_
_atom_site_type_symbol
_atom_site_label
_atom_site_fract_x
_atom_site_fract_y
_atom_site_fract_z
Si Si1 0.912113 0.958699 0.734088
Si Si2 0.750212 0.733247 0.265375
Si Si3 0.788191 0.598049 0.901250
Si Si4 0.632013 0.173446 0.869084
Si Si5 0.221005 0.028505 0.716380
Si Si6 0.778219 0.356142 0.660133
Si Si7 0.726557 0.213520 0.070680
O O1 0.123928 0.921142 0.400387
O O2 0.662166 0.873172 0.924115
O O3 0.140017 0.952202 0.623895
O O4 0.767817 0.079334 0.948879
O O5 0.785667 0.841477 0.221967
O O6 0.467557 0.739493 0.607547
O O7 0.776042 0.627773 0.077259
O O8 0.987947 0.724879 0.137554
O O9 0.869931 0.466328 0.725471
O O10 0.000557 0.671460 0.672807
O O11 0.498115 0.621474 0.133790
O O12 0.750759 0.254128 0.709393
O O13 0.600067 0.239675 0.073911
O O14 0.500000 0.000000 0.500000
O O15 0.000000 0.000000 0.000000
#
# Coordination Sequence:
#
# PCOD8020835 Si02
#       7
#     2   2   2   2   2   2   2
#     4  11  23  38  59  90 123 167 200 244 306 344
#     4  11  23  40  62  83 123 167 194 245 319 347
#     4  10  22  43  64  87 124 154 198 254 318 358
#     4  12  23  39  65  88 123 160 212 249 294 353
#     4  11  23  36  54  87 123 154 201 241 283 371
#     4  10  23  40  64  94 115 154 206 256 299 366
#     4  11  23  42  57  91 123 165 205 244 291 370
#
# _framework density 21.938862
#
# number of rings (size 3 to 8) (size 9 to 14) (size 15 to 20)
#    0.000    1.143    0.000    7.714    6.000    0.000 
#    0.000    1.429    0.000    0.000    0.000    0.000 
#    0.000    0.000    0.000    0.000    0.000    0.000 
#
# Total GULP energy -173523.948270 kJ/mol
# GULP energy per Si atom -12394.567734 kJ/mol
# Density = 2.188893 g / cm^3
# Si number density = 21.938862 Si / 1000 Ang^3
#
#
#
# Elastic Constant Matrix: (Units=GPa)
#
#
# Indices 1 2 3 4 5 6 
#
# 1 103.3414 30.3390 27.9118 -1.7021 -2.2260 30.4080
# 2 30.3390 47.7560 15.3284 -2.0146 -0.7978 26.5635
# 3 27.9118 15.3284 150.1171 -3.5609 3.9455 9.3920
# 4 -1.7021 -2.0146 -3.5609 31.6981 11.2023 -3.8205
# 5 -2.2260 -0.7978 3.9455 11.2023 44.7594 1.3598
# 6 30.4080 26.5635 9.3920 -3.8205 1.3598 29.3509
#
#
#
# Elastic Compliance Matrix: (Units=1/GPa)
#
#
# Indices 1 2 3 4 5 6 
#
# 1 0.014563 -0.000948 -0.001826 -0.001780 0.001738 -0.013957
# 2 -0.000948 0.043291 -0.002010 -0.003120 0.002840 -0.038092
# 3 -0.001826 -0.002010 0.007161 0.001162 -0.001098 0.001621
# 4 -0.001780 -0.003120 0.001162 0.035880 -0.009512 0.009407
# 5 0.001738 0.002840 -0.001098 -0.009512 0.025151 -0.006422
# 6 -0.013957 -0.038092 0.001621 0.009407 -0.006422 0.084008
#
#
# Mechanical properties :
#
#
# Convention : Reuss Voigt Hill
#
# Bulk Modulus (GPa) = 18.03484 49.81921 33.92703
# Shear Modulus (GPa) = 20.99919 36.33737 28.66828
#
# Velocity S-wave (km/s) = 3.09717 4.07418 3.61880
# Velocity P-wave (km/s) = 4.58566 6.69996 5.74098
#
# Compressibility (1/GPa) = 0.05544822
#
# Stress axis : x y z
#
# Youngs Moduli (GPa) = 68.66604 23.09952 139.64289
#
# Poissons Ratio (x) = 0.02191 0.25493
# Poissons Ratio (y) = 0.06513 0.28061
# Poissons Ratio (z) = 0.12536 0.04642
#
# Static dielectric constant tensor:
#      x y z
#    x 4.078260 0.294310 0.039900 
#    y 0.294310 3.867120 -0.001110 
#    z 0.039900 -0.001110 4.147480 
# 
# 
# High freq. dielectric constant tensor:
#      x y z
#    x 1.870430 0.020990 0.002140 
#    y 0.020990 1.833910 -0.006090 
#    z 0.002140 -0.006090 1.886910 
# 
# From -- ./inp_files/434175.got.cif
#   From: 2010.06.25/outbox.cif.g09.slc.cpg/sg2_218_cif.got.tgz:434175.got - 2010.06.27 13:26:56.
