data_PCOD8020604
_publ_section_title
;
Structure prediction by ZEFSAII (Michael W. Deem and Ramdas Pophale) SiO2 
 PCOD8020604
Probable space group: P -1
;
_chemical_formula_sum "Si O2"
_cell_formula_units_Z 14
_cell_length_a 9.314454
_cell_length_b 17.307747
_cell_length_c 9.104867
_cell_angle_alpha 124.544332
_cell_angle_beta 57.679847
_cell_angle_gamma 151.180225
_cell_volume 580.163742
_symmetry_space_group_name_H-M "P -1"
_symmetry_group_IT_number 2
_symmetry_cell_setting 'triclinic'
loop_
_space_group_symop_operation_xyz
x,y,z
-x,-y,-z
loop_
_atom_site_type_symbol
_atom_site_label
_atom_site_fract_x
_atom_site_fract_y
_atom_site_fract_z
Si Si1 0.219632 0.501534 0.791132
Si Si2 0.493601 0.251068 0.578504
Si Si3 0.656540 0.263186 0.188907
Si Si4 0.999811 0.041348 0.836005
Si Si5 0.138571 0.210211 0.215042
Si Si6 0.749502 0.185219 0.512580
Si Si7 0.259242 0.472753 0.075489
O O1 0.179022 0.592294 0.863699
O O2 0.555880 0.630241 0.689778
O O3 0.954573 0.315630 0.675676
O O4 0.266914 0.508991 0.944650
O O5 0.549505 0.276356 0.401828
O O6 0.595290 0.198146 0.526433
O O7 0.693167 0.422828 0.722284
O O8 0.147830 0.112658 0.668992
O O9 0.900571 0.290283 0.109556
O O10 0.344909 0.080323 0.101043
O O11 0.039812 0.953973 0.780900
O O12 0.186575 0.197943 0.006215
O O13 0.957830 0.224552 0.326814
O O14 0.500000 0.000000 0.500000
O O15 0.500000 0.500000 0.000000
#
# Coordination Sequence:
#
# PCOD8020604 Si02
#       7
#     2   2   2   2   2   2   2
#     4  11  25  47  78 103 145 193 250 289 371 438
#     4  12  25  48  71 110 152 189 242 312 360 429
#     4  11  26  46  79 105 147 197 241 302 371 427
#     4  10  22  44  72 103 148 186 244 296 362 429
#     4  10  22  42  70 109 141 193 238 300 357 432
#     4  12  26  42  74 108 152 189 246 299 367 428
#     4  12  28  48  75 109 146 189 249 304 366 439
#
# _framework density 24.131118000000001
#
# number of rings (size 3 to 8) (size 9 to 14) (size 15 to 20)
#    0.000    0.857    4.286    1.714    4.000    2.286 
#    2.571    1.429    0.000    0.000    0.000    0.000 
#    0.000    0.000    0.000    0.000    0.000    0.000 
#
# Total GULP energy -173438.567305 kJ/mol
# GULP energy per Si atom -12388.469093 kJ/mol
# Density = 2.407619 g / cm^3
# Si number density = 24.131118 Si / 1000 Ang^3
#
#
#
# Elastic Constant Matrix: (Units=GPa)
#
#
# Indices 1 2 3 4 5 6 
#
# 1 117.2508 55.5282 40.6019 -11.0212 -14.3096 20.8781
# 2 55.5282 118.4437 8.4899 19.2219 -5.4160 28.5374
# 3 40.6019 8.4899 47.2790 7.3440 11.6522 9.2283
# 4 -11.0212 19.2219 7.3440 40.9547 3.0029 -3.6212
# 5 -14.3096 -5.4160 11.6522 3.0029 48.4876 -11.0011
# 6 20.8781 28.5374 9.2283 -3.6212 -11.0011 33.3391
#
#
#
# Elastic Compliance Matrix: (Units=1/GPa)
#
#
# Indices 1 2 3 4 5 6 
#
# 1 0.029931 -0.017749 -0.032573 0.022202 0.016312 0.013259
# 2 -0.017749 0.022888 0.020913 -0.020238 -0.011014 -0.020098
# 3 -0.032573 0.020913 0.061681 -0.030060 -0.026251 -0.026503
# 4 0.022202 -0.020238 -0.030060 0.046168 0.013466 0.021198
# 5 0.016312 -0.011014 -0.026251 0.013466 0.034032 0.019171
# 6 0.013259 -0.020098 -0.026503 0.021198 0.019171 0.054859
#
#
# Mechanical properties :
#
#
# Convention : Reuss Voigt Hill
#
# Bulk Modulus (GPa) = 17.95936 54.69037 36.32487
# Shear Modulus (GPa) = 15.29346 36.44653 25.86999
#
# Velocity S-wave (km/s) = 2.52020 3.89054 3.27778
# Velocity P-wave (km/s) = 3.99088 6.54941 5.42319
#
# Compressibility (1/GPa) = 0.05568126
#
# Stress axis : x y z
#
# Youngs Moduli (GPa) = 33.41050 43.69114 16.21247
#
# Poissons Ratio (x) = 0.77548 0.52809
# Poissons Ratio (y) = 0.59301 -0.33906
# Poissons Ratio (z) = 1.08829 -0.91373
#
# Static dielectric constant tensor:
#      x y z
#    x 4.186590 0.515190 -0.126890 
#    y 0.515190 4.638610 -0.150150 
#    z -0.126890 -0.150150 4.314130 
# 
# 
# High freq. dielectric constant tensor:
#      x y z
#    x 1.948430 0.024620 0.000260 
#    y 0.024620 1.975360 -0.013130 
#    z 0.000260 -0.013130 1.953410 
# 
# From -- ./inp_files/218203.got.cif
#   From: 2010.06.25/outbox.cif.g09.slc.cpg/sg2_110_cif.got.tgz:218203.got - 2010.06.27 13:26:56.
