data_PCOD8020720
_publ_section_title
;
Structure prediction by ZEFSAII (Michael W. Deem and Ramdas Pophale) SiO2 
 PCOD8020720
Probable space group: P -1
;
_chemical_formula_sum "Si O2"
_cell_formula_units_Z 16
_cell_length_a 10.901552
_cell_length_b 19.975508
_cell_length_c 9.337649
_cell_angle_alpha 115.747768
_cell_angle_beta 64.162309
_cell_angle_gamma 150.008416
_cell_volume 907.474466
_symmetry_space_group_name_H-M "P -1"
_symmetry_group_IT_number 2
_symmetry_cell_setting 'triclinic'
loop_
_space_group_symop_operation_xyz
x,y,z
-x,-y,-z
loop_
_atom_site_type_symbol
_atom_site_label
_atom_site_fract_x
_atom_site_fract_y
_atom_site_fract_z
Si Si1 0.216695 0.312765 0.098147
Si Si2 0.769672 0.991526 0.670696
Si Si3 0.168023 0.357742 0.646764
Si Si4 0.541672 0.594323 0.229850
Si Si5 0.601368 0.655591 0.684882
Si Si6 0.316354 0.966175 0.971364
Si Si7 0.322469 0.213775 0.491629
Si Si8 0.381478 0.930140 0.341669
O O1 0.297942 0.432466 0.217375
O O2 0.266725 0.275518 0.164000
O O3 0.933706 0.191462 0.084520
O O4 0.387911 0.361035 0.928113
O O5 0.649608 0.003753 0.655117
O O6 0.051469 0.110935 0.591137
O O7 0.622173 0.848217 0.576264
O O8 0.751748 0.994757 0.855951
O O9 0.229509 0.343237 0.750197
O O10 0.307944 0.501507 0.706304
O O11 0.262520 0.352394 0.462032
O O12 0.873006 0.231823 0.665532
O O13 0.488107 0.649594 0.384102
O O14 0.644210 0.749561 0.658723
O O15 0.444425 0.042341 0.823304
O O16 0.500000 0.000000 0.000000
O O17 0.500000 0.000000 0.500000
#
# Coordination Sequence:
#
# PCOD8020720 Si02
#       8
#     2   2   2   2   2   2   2   2
#     4  10  17  28  48  81 102 124 178 215 261 284
#     4  10  20  35  51  74 105 141 174 194 266 320
#     4   9  16  31  47  75  99 129 172 203 266 292
#     4   9  16  29  52  73 105 132 160 227 256 300
#     4   9  17  28  52  73 101 125 163 229 249 298
#     4  10  20  33  50  71 107 140 169 206 244 315
#     4  10  18  34  54  72 107 139 162 213 263 319
#     4  11  20  32  54  76 104 134 173 217 243 305
#
# _framework density 17.631350000000001
#
# number of rings (size 3 to 8) (size 9 to 14) (size 15 to 20)
#    0.000    2.250    3.750    2.250    0.000    0.000 
#    0.000    1.875    0.000    7.500    0.000    0.000 
#    0.000    0.000    0.000    0.000    0.000    0.000 
#
# Total GULP energy -198268.818627 kJ/mol
# GULP energy per Si atom -12391.801164 kJ/mol
# Density = 1.759122 g / cm^3
# Si number density = 17.631350 Si / 1000 Ang^3
#
#
#
# Elastic Constant Matrix: (Units=GPa)
#
#
# Indices 1 2 3 4 5 6 
#
# 1 47.5416 35.2325 35.6102 2.9045 6.8831 -3.1666
# 2 35.2325 109.4383 45.5783 6.7652 -3.6243 8.0869
# 3 35.6102 45.5783 108.2985 -0.9348 20.2148 -6.5774
# 4 2.9045 6.7652 -0.9348 31.3320 -3.1488 5.3732
# 5 6.8831 -3.6243 20.2148 -3.1488 22.9556 5.5711
# 6 -3.1666 8.0869 -6.5774 5.3732 5.5711 27.5981
#
#
#
# Elastic Compliance Matrix: (Units=1/GPa)
#
#
# Indices 1 2 3 4 5 6 
#
# 1 0.034017 -0.009702 -0.004744 -0.003647 -0.010084 0.008361
# 2 -0.009702 0.016419 -0.007029 0.000394 0.014309 -0.010565
# 3 -0.004744 -0.007029 0.017603 -0.000906 -0.017604 0.009441
# 4 -0.003647 0.000394 -0.000906 0.034638 0.008962 -0.009303
# 5 -0.010084 0.014309 -0.017604 0.008962 0.071836 -0.025792
# 6 0.008361 -0.010565 0.009441 -0.009303 -0.025792 0.049557
#
#
# Mechanical properties :
#
#
# Convention : Reuss Voigt Hill
#
# Bulk Modulus (GPa) = 39.85681 55.34669 47.60175
# Shear Modulus (GPa) = 18.15653 26.30095 22.22874
#
# Velocity S-wave (km/s) = 3.21251 3.86646 3.55456
# Velocity P-wave (km/s) = 6.03449 7.16882 6.62597
#
# Compressibility (1/GPa) = 0.02508982
#
# Stress axis : x y z
#
# Youngs Moduli (GPa) = 29.39687 60.90661 56.80818
#
# Poissons Ratio (x) = 0.59093 0.26947
# Poissons Ratio (y) = 0.28522 0.39929
# Poissons Ratio (z) = 0.13944 0.42810
#
# Static dielectric constant tensor:
#      x y z
#    x 2.874760 -0.057190 0.178760 
#    y -0.057190 3.518380 -0.039980 
#    z 0.178760 -0.039980 3.725120 
# 
# 
# High freq. dielectric constant tensor:
#      x y z
#    x 1.625570 -0.000180 0.028610 
#    y -0.000180 1.689020 -0.005580 
#    z 0.028610 -0.005580 1.692250 
# 
# From -- ./inp_files/252493.got.cif
#   From: 2010.06.25/outbox.cif.g09.slc.cpg/sg2_127_cif.got.tgz:252493.got - 2010.06.27 13:26:56.
