data_PCOD8020700
_publ_section_title
;
Structure prediction by ZEFSAII (Michael W. Deem and Ramdas Pophale) SiO2 
 PCOD8020700
Probable space group: P -1
;
_chemical_formula_sum "Si O2"
_cell_formula_units_Z 14
_cell_length_a 12.410696
_cell_length_b 22.166827
_cell_length_c 16.022985
_cell_angle_alpha 19.707914
_cell_angle_beta 152.688953
_cell_angle_gamma 153.163036
_cell_volume 636.116586
_symmetry_space_group_name_H-M "P -1"
_symmetry_group_IT_number 2
_symmetry_cell_setting 'triclinic'
loop_
_space_group_symop_operation_xyz
x,y,z
-x,-y,-z
loop_
_atom_site_type_symbol
_atom_site_label
_atom_site_fract_x
_atom_site_fract_y
_atom_site_fract_z
Si Si1 0.835143 0.072363 0.040301
Si Si2 0.654207 0.110939 0.290025
Si Si3 0.408884 0.285469 0.182686
Si Si4 0.972574 0.260405 0.157389
Si Si5 0.160314 0.687769 0.677666
Si Si6 0.326593 0.095319 0.684225
Si Si7 0.835842 0.877238 0.120140
O O1 0.113820 0.230143 0.033090
O O2 0.772267 0.907649 0.284084
O O3 0.805572 0.987733 0.037828
O O4 0.628864 0.172559 0.783282
O O5 0.868722 0.208876 0.245042
O O6 0.774618 0.158176 0.403610
O O7 0.555521 0.877056 0.519239
O O8 0.441861 0.204118 0.005998
O O9 0.573571 0.289212 0.209694
O O10 0.500000 0.500000 0.000000
O O11 0.236677 0.225347 0.389659
O O12 0.789029 0.127779 0.134341
O O13 0.017370 0.477340 0.887144
O O14 0.960881 0.722615 0.431514
O O15 0.000000 0.000000 0.000000
#
# Coordination Sequence:
#
# PCOD8020700 Si02
#       7
#     2   2   2   2   2   2   2
#     4  11  22  43  71 100 141 188 233 294 347 419
#     4  12  24  47  73 101 147 188 232 291 354 423
#     4  12  25  45  72 100 141 189 233 291 357 414
#     4  11  23  44  73 103 140 189 237 284 359 423
#     4  12  26  45  72 105 144 185 235 297 352 423
#     4  10  22  42  72 102 144 185 230 294 357 410
#     4  12  24  44  72  99 137 192 236 284 355 421
#
# _framework density 22.008545999999999
#
# number of rings (size 3 to 8) (size 9 to 14) (size 15 to 20)
#    0.000    0.571    5.714    2.571    2.000    0.571 
#    7.714    1.429    0.000    0.000    0.000    0.000 
#    0.000    0.000    0.000    0.000    0.000    0.000 
#
# Total GULP energy -173518.883822 kJ/mol
# GULP energy per Si atom -12394.205987 kJ/mol
# Density = 2.195845 g / cm^3
# Si number density = 22.008546 Si / 1000 Ang^3
#
#
#
# Elastic Constant Matrix: (Units=GPa)
#
#
# Indices 1 2 3 4 5 6 
#
# 1 139.7380 17.5365 35.3202 -9.1735 -10.6875 7.0117
# 2 17.5365 66.9651 58.1311 7.7057 -0.4421 8.4517
# 3 35.3202 58.1311 148.0793 -1.7496 -9.6402 5.0277
# 4 -9.1735 7.7057 -1.7496 45.3924 4.1736 -0.0009
# 5 -10.6875 -0.4421 -9.6402 4.1736 27.7158 5.8116
# 6 7.0117 8.4517 5.0277 -0.0009 5.8116 27.1420
#
#
#
# Elastic Compliance Matrix: (Units=1/GPa)
#
#
# Indices 1 2 3 4 5 6 
#
# 1 0.008015 -0.000839 -0.001305 0.001449 0.002862 -0.002180
# 2 -0.000839 0.024483 -0.009372 -0.004560 -0.001379 -0.005376
# 3 -0.001305 -0.009372 0.010921 0.001492 0.002788 0.000636
# 4 0.001449 -0.004560 0.001492 0.023413 -0.002808 0.001372
# 5 0.002862 -0.001379 0.002788 -0.002808 0.040549 -0.009509
# 6 -0.002180 -0.005376 0.000636 0.001372 -0.009509 0.040999
#
#
# Mechanical properties :
#
#
# Convention : Reuss Voigt Hill
#
# Bulk Modulus (GPa) = 49.05074 64.08421 56.56748
# Shear Modulus (GPa) = 28.05734 36.30301 32.18017
#
# Velocity S-wave (km/s) = 3.57436 4.06580 3.82798
# Velocity P-wave (km/s) = 6.27457 7.15696 6.73024
#
# Compressibility (1/GPa) = 0.02038705
#
# Stress axis : x y z
#
# Youngs Moduli (GPa) = 124.76965 40.84509 91.56526
#
# Poissons Ratio (x) = 0.03425 0.11949
# Poissons Ratio (y) = 0.10464 0.85817
# Poissons Ratio (z) = 0.16282 0.38281
#
# Static dielectric constant tensor:
#      x y z
#    x 4.327260 0.197830 0.383590 
#    y 0.197830 3.989950 0.527610 
#    z 0.383590 0.527610 4.717080 
# 
# 
# High freq. dielectric constant tensor:
#      x y z
#    x 1.891140 0.010740 0.001190 
#    y 0.010740 1.849340 0.029900 
#    z 0.001190 0.029900 1.864710 
# 
# From -- ./inp_files/393327.got.cif
#   From: 2010.06.25/outbox.cif.g09.slc.cpg/sg2_197_cif.got.tgz:393327.got - 2010.06.27 13:26:56.
