data_PCOD8020429
_publ_section_title
;
Structure prediction by ZEFSAII (Michael W. Deem and Ramdas Pophale) SiO2 
 PCOD8020429
Probable space group: P -1
;
_chemical_formula_sum "Si O2"
_cell_formula_units_Z 16
_cell_length_a 15.383277
_cell_length_b 9.842802
_cell_length_c 23.322050
_cell_angle_alpha 42.589321
_cell_angle_beta 162.111661
_cell_angle_gamma 139.361658
_cell_volume 704.685291
_symmetry_space_group_name_H-M "P -1"
_symmetry_group_IT_number 2
_symmetry_cell_setting 'triclinic'
loop_
_space_group_symop_operation_xyz
x,y,z
-x,-y,-z
loop_
_atom_site_type_symbol
_atom_site_label
_atom_site_fract_x
_atom_site_fract_y
_atom_site_fract_z
Si Si1 0.495232 0.706194 0.324679
Si Si2 0.543376 0.677598 0.638270
Si Si3 0.172096 0.926466 0.376070
Si Si4 0.850969 0.044721 0.516736
Si Si5 0.170484 0.502935 0.034722
Si Si6 0.593110 0.671084 0.054612
Si Si7 0.440755 0.076929 0.818188
Si Si8 0.663622 0.425427 0.288105
O O1 0.647046 0.532460 0.448778
O O2 0.671306 0.809400 0.459466
O O3 0.528964 0.889853 0.241608
O O4 0.157062 0.588073 0.167519
O O5 0.366832 0.760988 0.550843
O O6 0.812205 0.600392 0.858948
O O7 0.643728 0.849310 0.599225
O O8 0.058629 0.949349 0.361492
O O9 0.917359 0.830954 0.199109
O O10 0.631297 0.187881 0.321743
O O11 0.150096 0.132238 0.641417
O O12 0.409124 0.425952 0.172649
O O13 0.276136 0.758284 0.024898
O O14 0.603281 0.562217 0.155214
O O15 0.500000 0.500000 0.000000
O O16 0.393100 0.832456 0.879634
O O17 0.000000 0.500000 0.500000
#
# Coordination Sequence:
#
# PCOD8020429 Si02
#       8
#     2   2   2   2   2   2   2   2
#     4  11  25  41  69 104 137 179 235 287 345 405
#     4  10  22  42  68  93 137 186 223 282 345 422
#     4  11  23  43  67  94 139 183 228 275 356 408
#     4  12  25  44  71 101 141 183 235 280 349 418
#     4  11  21  44  73  95 139 179 234 280 347 409
#     4  12  26  42  68 104 138 176 237 288 337 402
#     4  11  24  44  70 101 138 183 231 289 344 411
#     4  12  23  46  70 101 137 188 227 277 350 415
#
# _framework density 22.705172000000001
#
# number of rings (size 3 to 8) (size 9 to 14) (size 15 to 20)
#    0.000    0.750    3.750    4.125    3.500    4.000 
#    4.500    0.000    0.000    0.000    0.000    0.000 
#    0.000    0.000    0.000    0.000    0.000    0.000 
#
# Total GULP energy -198309.016356 kJ/mol
# GULP energy per Si atom -12394.313522 kJ/mol
# Density = 2.265349 g / cm^3
# Si number density = 22.705172 Si / 1000 Ang^3
#
#
#
# Elastic Constant Matrix: (Units=GPa)
#
#
# Indices 1 2 3 4 5 6 
#
# 1 87.5951 52.5951 34.9972 5.1272 0.8591 -10.0878
# 2 52.5951 157.0746 42.6812 1.4680 -10.9989 -19.7934
# 3 34.9972 42.6812 61.4589 5.9084 1.6947 -9.9289
# 4 5.1272 1.4680 5.9084 50.6223 4.9586 -6.2557
# 5 0.8591 -10.9989 1.6947 4.9586 30.7065 1.6797
# 6 -10.0878 -19.7934 -9.9289 -6.2557 1.6797 28.0313
#
#
#
# Elastic Compliance Matrix: (Units=1/GPa)
#
#
# Indices 1 2 3 4 5 6 
#
# 1 0.016394 -0.003687 -0.006532 -0.000539 -0.001384 0.000945
# 2 -0.003687 0.009392 -0.003960 0.000711 0.003360 0.003860
# 3 -0.006532 -0.003960 0.023423 -0.001344 -0.002475 0.002998
# 4 -0.000539 0.000711 -0.001344 0.020844 -0.003278 0.004680
# 5 -0.001384 0.003360 -0.002475 -0.003278 0.034573 -0.001805
# 6 0.000945 0.003860 0.002998 0.004680 -0.001805 0.040954
#
#
# Mechanical properties :
#
#
# Convention : Reuss Voigt Hill
#
# Bulk Modulus (GPa) = 47.96277 62.96397 55.46337
# Shear Modulus (GPa) = 27.64111 33.59568 30.61840
#
# Velocity S-wave (km/s) = 3.49290 3.85079 3.67620
# Velocity P-wave (km/s) = 6.11859 6.89658 6.51920
#
# Compressibility (1/GPa) = 0.02084951
#
# Stress axis : x y z
#
# Youngs Moduli (GPa) = 60.99881 106.47193 42.69346
#
# Poissons Ratio (x) = 0.39258 0.27888
# Poissons Ratio (y) = 0.22491 0.16908
# Poissons Ratio (z) = 0.39845 0.42167
#
# Static dielectric constant tensor:
#      x y z
#    x 4.016060 -0.110580 0.098790 
#    y -0.110580 4.456080 -0.211670 
#    z 0.098790 -0.211670 4.057230 
# 
# 
# High freq. dielectric constant tensor:
#      x y z
#    x 1.890300 -0.000530 0.013240 
#    y -0.000530 1.913090 -0.016640 
#    z 0.013240 -0.016640 1.884060 
# 
# From -- ./inp_files/611749.got.cif
#   From: 2010.06.25/outbox.cif.g09.slc.cpg/sg2_306_cif.got.tgz:611749.got - 2010.06.27 13:26:56.
