data_PCOD8020252
_publ_section_title
;
Structure prediction by ZEFSAII (Michael W. Deem and Ramdas Pophale) SiO2 
 PCOD8020252
Probable space group: P -1
;
_chemical_formula_sum "Si O2"
_cell_formula_units_Z 16
_cell_length_a 5.602493
_cell_length_b 15.347206
_cell_length_c 11.071693
_cell_angle_alpha 121.384735
_cell_angle_beta 66.415320
_cell_angle_gamma 88.282650
_cell_volume 709.405529
_symmetry_space_group_name_H-M "P -1"
_symmetry_group_IT_number 2
_symmetry_cell_setting 'triclinic'
loop_
_space_group_symop_operation_xyz
x,y,z
-x,-y,-z
loop_
_atom_site_type_symbol
_atom_site_label
_atom_site_fract_x
_atom_site_fract_y
_atom_site_fract_z
Si Si1 0.874383 0.017676 0.906033
Si Si2 0.583066 0.598932 0.341278
Si Si3 0.019251 0.923926 0.327716
Si Si4 0.318133 0.179694 0.162286
Si Si5 0.198343 0.261222 0.750087
Si Si6 0.659040 0.424238 0.015947
Si Si7 0.957743 0.600518 0.495396
Si Si8 0.590516 0.752299 0.046610
O O1 0.056604 0.021539 0.751987
O O2 0.776440 0.914030 0.825735
O O3 0.645690 0.132672 0.047346
O O4 0.000000 0.000000 0.000000
O O5 0.574606 0.711519 0.359431
O O6 0.736593 0.495717 0.155206
O O7 0.775409 0.581796 0.407440
O O8 0.263557 0.607770 0.421039
O O9 0.328945 0.849499 0.207720
O O10 0.804131 0.859938 0.356454
O O11 0.000000 0.000000 0.500000
O O12 0.229047 0.285745 0.335754
O O13 0.223807 0.212001 0.065998
O O14 0.222564 0.283659 0.901730
O O15 0.911905 0.347036 0.835271
O O16 0.500000 0.500000 0.000000
O O17 0.490534 0.351101 0.058549
O O18 0.000000 0.500000 0.500000
#
# Coordination Sequence:
#
# PCOD8020252 Si02
#       8
#     2   2   2   2   2   2   2   2
#     4  10  22  45  72 100 135 189 249 295 365 434
#     4  12  27  44  73 106 149 193 240 298 368 430
#     4  10  24  43  68 102 142 178 232 309 371 428
#     4  10  24  43  70  98 138 190 246 294 356 441
#     4  11  24  40  70 102 135 185 236 294 367 433
#     4  11  22  41  66 100 143 185 238 288 357 444
#     4  12  29  49  70 108 152 196 241 300 365 435
#     4  10  22  42  67 100 136 181 238 292 359 432
#
# _framework density 22.554093000000002
#
# number of rings (size 3 to 8) (size 9 to 14) (size 15 to 20)
#    0.000    1.250    1.250    3.000    8.750    0.500 
#    0.000    0.000    0.000    0.000    0.000    0.000 
#    0.000    0.000    0.000    0.000    0.000    0.000 
#
# Total GULP energy -198224.983953 kJ/mol
# GULP energy per Si atom -12389.061497 kJ/mol
# Density = 2.250276 g / cm^3
# Si number density = 22.554093 Si / 1000 Ang^3
#
#
#
# Elastic Constant Matrix: (Units=GPa)
#
#
# Indices 1 2 3 4 5 6 
#
# 1 120.6940 53.7451 48.8256 -9.0739 21.7417 -1.1754
# 2 53.7451 168.1843 70.5700 -6.9749 11.9174 11.4890
# 3 48.8256 70.5700 111.8082 3.0102 29.6491 6.4139
# 4 -9.0739 -6.9749 3.0102 37.7834 2.7030 5.2903
# 5 21.7417 11.9174 29.6491 2.7030 38.3900 -6.6557
# 6 -1.1754 11.4890 6.4139 5.2903 -6.6557 47.5694
#
#
#
# Elastic Compliance Matrix: (Units=1/GPa)
#
#
# Indices 1 2 3 4 5 6 
#
# 1 0.011181 -0.002103 -0.002645 0.002735 -0.003775 0.000309
# 2 -0.002103 0.008787 -0.005147 0.001568 0.002091 -0.001362
# 3 -0.002645 -0.005147 0.016046 -0.001887 -0.009530 -0.002109
# 4 0.002735 0.001568 -0.001887 0.028304 -0.003205 -0.003653
# 5 -0.003775 0.002091 -0.009530 -0.003205 0.036181 0.006105
# 6 0.000309 -0.001362 -0.002109 -0.003653 0.006105 0.022903
#
#
# Mechanical properties :
#
#
# Convention : Reuss Voigt Hill
#
# Bulk Modulus (GPa) = 61.63546 82.99644 72.31595
# Shear Modulus (GPa) = 33.64711 39.91829 36.78270
#
# Velocity S-wave (km/s) = 3.86663 4.21157 4.04278
# Velocity P-wave (km/s) = 6.87907 7.78001 7.34337
#
# Compressibility (1/GPa) = 0.01622443
#
# Stress axis : x y z
#
# Youngs Moduli (GPa) = 89.43962 113.80045 62.31948
#
# Poissons Ratio (x) = 0.23934 0.16485
# Poissons Ratio (y) = 0.18810 0.32073
# Poissons Ratio (z) = 0.23660 0.58568
#
# Static dielectric constant tensor:
#      x y z
#    x 4.165210 0.212600 -0.509300 
#    y 0.212600 4.834590 -0.613040 
#    z -0.509300 -0.613040 7.171550 
# 
# 
# High freq. dielectric constant tensor:
#      x y z
#    x 1.885250 0.000320 0.009570 
#    y 0.000320 1.919240 0.000950 
#    z 0.009570 0.000950 1.877650 
# 
# From -- ./inp_files/367894.got.cif
#   From: 2010.06.25/outbox.cif.g09.slc.cpg/sg2_184_cif.got.tgz:367894.got - 2010.06.27 13:26:56.
