data_PCOD8020083
_publ_section_title
;
Structure prediction by ZEFSAII (Michael W. Deem and Ramdas Pophale) SiO2 
 PCOD8020083
Probable space group: P -1
;
_chemical_formula_sum "Si O2"
_cell_formula_units_Z 14
_cell_length_a 21.689253
_cell_length_b 10.987558
_cell_length_c 7.944775
_cell_angle_alpha 44.038505
_cell_angle_beta 127.236490
_cell_angle_gamma 151.034364
_cell_volume 635.784128
_symmetry_space_group_name_H-M "P -1"
_symmetry_group_IT_number 2
_symmetry_cell_setting 'triclinic'
loop_
_space_group_symop_operation_xyz
x,y,z
-x,-y,-z
loop_
_atom_site_type_symbol
_atom_site_label
_atom_site_fract_x
_atom_site_fract_y
_atom_site_fract_z
Si Si1 0.263501 0.817870 0.490419
Si Si2 0.689297 0.492945 0.744769
Si Si3 0.889676 0.137383 0.917991
Si Si4 0.817814 0.367261 0.100922
Si Si5 0.234285 0.055821 0.765566
Si Si6 0.694684 0.499336 0.127896
Si Si7 0.454883 0.652967 0.653662
O O1 0.152792 0.738874 0.309486
O O2 0.265854 0.846202 0.667106
O O3 0.239847 0.570714 0.655353
O O4 0.396584 0.124130 0.327255
O O5 0.577052 0.280515 0.628880
O O6 0.770144 0.818086 0.525165
O O7 0.783948 0.502318 0.856940
O O8 0.635104 0.394495 0.944278
O O9 0.033864 0.373138 0.862568
O O10 0.877391 0.086149 0.149323
O O11 0.803166 0.841882 0.970731
O O12 0.783930 0.177267 0.081934
O O13 0.371503 0.324674 0.821540
O O14 0.582608 0.323678 0.254254
#
# Coordination Sequence:
#
# PCOD8020083 Si02
#       7
#     2   2   2   2   2   2   2
#     4  11  24  41  63  94 125 166 205 259 314 368
#     4   9  22  42  63  94 124 161 210 253 311 369
#     4  11  24  40  62  95 127 165 214 248 311 378
#     4  11  23  40  65  92 123 172 207 253 314 364
#     4   9  22  41  61  94 124 165 205 263 307 358
#     4  10  22  42  65  93 124 169 200 262 314 357
#     4   9  22  45  61  97 126 157 213 254 316 369
#
# _framework density 22.020053000000001
#
# number of rings (size 3 to 8) (size 9 to 14) (size 15 to 20)
#    0.857    1.143    0.000    2.143    2.000    9.143 
#    5.143    0.000    0.000    0.000    0.000    0.000 
#    0.000    0.000    0.000    0.000    0.000    0.000 
#
# Total GULP energy -173525.682563 kJ/mol
# GULP energy per Si atom -12394.691612 kJ/mol
# Density = 2.196993 g / cm^3
# Si number density = 22.020053 Si / 1000 Ang^3
#
#
#
# Elastic Constant Matrix: (Units=GPa)
#
#
# Indices 1 2 3 4 5 6 
#
# 1 108.8791 28.8991 30.0963 -1.5094 -13.4203 -8.1449
# 2 28.8991 7.3266 14.4043 -5.3850 -7.0264 -1.4587
# 3 30.0963 14.4043 87.0420 -0.4106 -6.5269 -5.9470
# 4 -1.5094 -5.3850 -0.4106 27.1039 -5.7455 -0.1870
# 5 -13.4203 -7.0264 -6.5269 -5.7455 37.0711 1.5006
# 6 -8.1449 -1.4587 -5.9470 -0.1870 1.5006 29.3935
#
#
#
# Elastic Compliance Matrix: (Units=1/GPa)
#
#
# Indices 1 2 3 4 5 6 
#
# 1 -0.011186 0.096102 -0.010841 0.021617 0.015655 -0.001186
# 2 0.096102 -0.422171 0.033173 -0.089331 -0.053822 0.014570
# 3 -0.010841 0.033173 0.010210 0.007261 0.005266 0.000485
# 4 0.021617 -0.089331 0.007261 0.019434 -0.004953 0.003402
# 5 0.015655 -0.053822 0.005266 -0.004953 0.022538 0.001550
# 6 -0.001186 0.014570 0.000485 0.003402 0.001550 0.034456
#
#
# Mechanical properties :
#
#
# Convention : Reuss Voigt Hill
#
# Bulk Modulus (GPa) = -5.36828 38.89413 16.76293
# Shear Modulus (GPa) = -7.74377 27.37021 9.81322
#
# Velocity S-wave (km/s) = -1.87732 3.52940 2.11333
# Velocity P-wave (km/s) = 2.67251 5.85750 3.68565
#
# Compressibility (1/GPa) = -0.18627928
#
# Stress axis : x y z
#
# Youngs Moduli (GPa) = -89.39804 -2.36871 97.94552
#
# Poissons Ratio (x) = 0.22764 1.06183
# Poissons Ratio (y) = 8.59133 -3.24916
# Poissons Ratio (z) = -0.96917 0.07858
#
# Static dielectric constant tensor:
#      x y z
#    x 4.008700 -0.057210 -0.079430 
#    y -0.057210 3.524320 -0.097140 
#    z -0.079430 -0.097140 4.028830 
# 
# 
# High freq. dielectric constant tensor:
#      x y z
#    x 1.875840 -0.005980 -0.007610 
#    y -0.005980 1.834410 -0.008620 
#    z -0.007610 -0.008620 1.877960 
# 
# From -- ./inp_files/344978.got.cif
#   From: 2010.06.25/outbox.cif.g09.slc.cpg/sg2_173_cif.got.tgz:344978.got - 2010.06.27 13:26:56.
