data_PCOD8020011
_publ_section_title
;
Structure prediction by ZEFSAII (Michael W. Deem and Ramdas Pophale) SiO2 
 PCOD8020011
Probable space group: P -1
;
_chemical_formula_sum "Si O2"
_cell_formula_units_Z 16
_cell_length_a 8.446078
_cell_length_b 26.230023
_cell_length_c 7.674941
_cell_angle_alpha 56.818554
_cell_angle_beta 121.060168
_cell_angle_gamma 149.013700
_cell_volume 728.314750
_symmetry_space_group_name_H-M "P -1"
_symmetry_group_IT_number 2
_symmetry_cell_setting 'triclinic'
loop_
_space_group_symop_operation_xyz
x,y,z
-x,-y,-z
loop_
_atom_site_type_symbol
_atom_site_label
_atom_site_fract_x
_atom_site_fract_y
_atom_site_fract_z
Si Si1 0.683352 0.988124 0.673829
Si Si2 0.318030 0.455657 0.155932
Si Si3 0.553345 0.145043 0.509499
Si Si4 0.667001 0.173757 0.914531
Si Si5 0.344842 0.338710 0.921616
Si Si6 0.649139 0.793969 0.237737
Si Si7 0.607256 0.284032 0.131464
Si Si8 0.778324 0.697773 0.477275
O O1 0.714618 0.956288 0.572101
O O2 0.500000 0.000000 0.500000
O O3 0.526510 0.911182 0.888937
O O4 0.024976 0.092259 0.735737
O O5 0.457794 0.547600 0.174347
O O6 0.390915 0.408860 0.365788
O O7 0.954218 0.371951 0.087650
O O8 0.500000 0.500000 0.000000
O O9 0.560530 0.123431 0.753961
O O10 0.537623 0.214518 0.367916
O O11 0.856647 0.206026 0.453962
O O12 0.617046 0.233627 0.782080
O O13 0.029615 0.258709 0.005570
O O14 0.231952 0.299554 0.738159
O O15 0.549285 0.333811 0.100313
O O16 0.617399 0.715519 0.436289
O O17 0.626621 0.788328 0.025822
#
# Coordination Sequence:
#
# PCOD8020011 Si02
#       8
#     2   2   2   2   2   2   2   2
#     4  12  25  43  69  93 135 174 215 273 328 382
#     4  11  22  37  67  96 126 173 217 262 331 395
#     4  10  22  43  64  96 131 173 212 269 324 376
#     4  11  25  42  67  99 132 169 228 262 319 400
#     4  10  22  42  64  95 127 176 214 268 324 386
#     4  11  22  43  65  93 131 175 212 276 328 375
#     4  10  22  42  66  91 140 166 215 274 324 381
#     4   9  21  41  62  90 132 166 212 273 319 380
#
# _framework density 21.968523999999999
#
# number of rings (size 3 to 8) (size 9 to 14) (size 15 to 20)
#    0.000    1.500    2.500    1.875    1.750    3.000 
#    0.000    6.875    0.000    0.000    0.000    0.000 
#    0.000    0.000    0.000    0.000    0.000    0.000 
#
# Total GULP energy -198308.149614 kJ/mol
# GULP energy per Si atom -12394.259351 kJ/mol
# Density = 2.191852 g / cm^3
# Si number density = 21.968524 Si / 1000 Ang^3
#
#
#
# Elastic Constant Matrix: (Units=GPa)
#
#
# Indices 1 2 3 4 5 6 
#
# 1 133.2887 33.3929 48.8314 -12.7574 33.3113 -2.2032
# 2 33.3929 102.7702 24.2363 -1.5139 11.9864 -13.6298
# 3 48.8314 24.2363 95.3924 -5.0167 20.5865 -9.3611
# 4 -12.7574 -1.5139 -5.0167 24.5664 -8.5066 6.9709
# 5 33.3113 11.9864 20.5865 -8.5066 40.3825 3.5363
# 6 -2.2032 -13.6298 -9.3611 6.9709 3.5363 29.8705
#
#
#
# Elastic Compliance Matrix: (Units=1/GPa)
#
#
# Indices 1 2 3 4 5 6 
#
# 1 0.011224 -0.002199 -0.003911 0.003315 -0.005784 -0.001490
# 2 -0.002199 0.011669 -0.000919 -0.003089 -0.002346 0.005873
# 3 -0.003911 -0.000919 0.014047 -0.002127 -0.004524 0.004726
# 4 0.003315 -0.003089 -0.002127 0.049821 0.011055 -0.014767
# 5 -0.005784 -0.002346 -0.004524 0.011055 0.035717 -0.009723
# 6 -0.001490 0.005873 0.004726 -0.014767 -0.009723 0.042126
#
#
# Mechanical properties :
#
#
# Convention : Reuss Voigt Hill
#
# Bulk Modulus (GPa) = 43.70139 60.48585 52.09362
# Shear Modulus (GPa) = 26.84013 33.96326 30.40169
#
# Velocity S-wave (km/s) = 3.49915 3.93618 3.72408
# Velocity P-wave (km/s) = 6.02174 6.94628 6.50047
#
# Compressibility (1/GPa) = 0.02288257
#
# Stress axis : x y z
#
# Youngs Moduli (GPa) = 89.09284 85.69937 71.19155
#
# Poissons Ratio (x) = 0.18845 0.27841
# Poissons Ratio (y) = 0.19592 0.06541
# Poissons Ratio (z) = 0.34842 0.07874
#
# Static dielectric constant tensor:
#      x y z
#    x 4.163010 0.402100 0.192870 
#    y 0.402100 3.299600 0.676060 
#    z 0.192870 0.676060 3.584200 
# 
# 
# High freq. dielectric constant tensor:
#      x y z
#    x 1.869350 -0.010580 0.019520 
#    y -0.010580 1.862470 0.008680 
#    z 0.019520 0.008680 1.861710 
# 
# From -- ./inp_files/227407.got.cif
#   From: 2010.06.25/outbox.cif.g09.slc.cpg/sg2_114_cif.got.tgz:227407.got - 2010.06.27 13:26:56.
