data_PCOD8020666
_publ_section_title
;
Structure prediction by ZEFSAII (Michael W. Deem and Ramdas Pophale) SiO2 
 PCOD8020666
Probable space group: P -1
;
_chemical_formula_sum "Si O2"
_cell_formula_units_Z 12
_cell_length_a 11.557358
_cell_length_b 8.973451
_cell_length_c 9.396727
_cell_angle_alpha 77.454228
_cell_angle_beta 118.805732
_cell_angle_gamma 142.239614
_cell_volume 497.985594
_symmetry_space_group_name_H-M "P -1"
_symmetry_group_IT_number 2
_symmetry_cell_setting 'triclinic'
loop_
_space_group_symop_operation_xyz
x,y,z
-x,-y,-z
loop_
_atom_site_type_symbol
_atom_site_label
_atom_site_fract_x
_atom_site_fract_y
_atom_site_fract_z
Si Si1 0.146315 0.645830 0.694755
Si Si2 0.668090 0.475820 0.057405
Si Si3 0.049100 0.294979 0.216768
Si Si4 0.481754 0.181526 0.731269
Si Si5 0.724948 0.794429 0.598329
Si Si6 0.728969 0.851797 0.915227
O O1 0.152976 0.490353 0.811963
O O2 0.000000 0.500000 0.500000
O O3 0.054432 0.693762 0.729694
O O4 0.400144 0.929988 0.747864
O O5 0.525615 0.373800 0.136131
O O6 0.493212 0.268638 0.874905
O O7 0.808707 0.754042 0.030223
O O8 0.278631 0.587009 0.246231
O O9 0.084301 0.154910 0.326306
O O10 0.886040 0.127462 0.019084
O O11 0.279442 0.072728 0.545736
O O12 0.500000 0.500000 0.500000
O O13 0.732271 0.872094 0.744085
#
# Coordination Sequence:
#
# PCOD8020666 Si02
#       6
#     2   2   2   2   2   2
#     4  12  30  48  69 107 147 192 237 293 367 427
#     4  11  25  47  72 106 148 184 240 294 355 430
#     4  11  25  45  76 105 141 191 237 294 359 421
#     4  11  25  48  72 106 144 186 239 299 348 428
#     4  10  22  42  71 111 139 178 242 292 348 413
#     4  11  23  45  79 106 141 191 236 300 353 420
#
# _framework density 24.097080999999999
#
# number of rings (size 3 to 8) (size 9 to 14) (size 15 to 20)
#    0.000    1.000    5.000    1.000    7.000    2.000 
#    0.000    0.000    0.000    0.000    0.000    0.000 
#    0.000    0.000    0.000    0.000    0.000    0.000 
#
# Total GULP energy -148776.578969 kJ/mol
# GULP energy per Si atom -12398.048247 kJ/mol
# Density = 2.404223 g / cm^3
# Si number density = 24.097081 Si / 1000 Ang^3
#
#
#
# Elastic Constant Matrix: (Units=GPa)
#
#
# Indices 1 2 3 4 5 6 
#
# 1 94.2744 6.9027 83.9180 -2.8447 -17.1705 -14.4850
# 2 6.9027 93.9125 38.0417 13.9763 -7.5752 -9.3781
# 3 83.9180 38.0417 174.0799 0.0261 -20.7368 -15.1606
# 4 -2.8447 13.9763 0.0261 43.9878 -9.3856 1.8840
# 5 -17.1705 -7.5752 -20.7368 -9.3856 30.4198 6.8926
# 6 -14.4850 -9.3781 -15.1606 1.8840 6.8926 24.2377
#
#
#
# Elastic Compliance Matrix: (Units=1/GPa)
#
#
# Indices 1 2 3 4 5 6 
#
# 1 0.020804 0.003210 -0.009604 0.001121 0.004942 0.006175
# 2 0.003210 0.013134 -0.003999 -0.004176 -0.000027 0.004831
# 3 -0.009604 -0.003999 0.011403 0.001073 0.001861 -0.000767
# 4 0.001121 -0.004176 0.001073 0.026401 0.009617 -0.005061
# 5 0.004942 -0.000027 0.001861 0.009617 0.041826 -0.008534
# 6 0.006175 0.004831 -0.000767 -0.005061 -0.008534 0.049158
#
#
# Mechanical properties :
#
#
# Convention : Reuss Voigt Hill
#
# Bulk Modulus (GPa) = 40.72721 68.88795 54.80758
# Shear Modulus (GPa) = 26.08276 35.28935 30.68606
#
# Velocity S-wave (km/s) = 3.29356 3.83099 3.57239
# Velocity P-wave (km/s) = 5.60369 6.94394 6.30950
#
# Compressibility (1/GPa) = 0.02455361
#
# Stress axis : x y z
#
# Youngs Moduli (GPa) = 48.06767 76.13827 87.69657
#
# Poissons Ratio (x) = -0.24437 0.84224
# Poissons Ratio (y) = -0.15428 0.35072
# Poissons Ratio (z) = 0.46164 0.30450
#
# Static dielectric constant tensor:
#      x y z
#    x 6.000090 -1.732460 4.713790 
#    y -1.732460 5.967870 -4.253340 
#    z 4.713790 -4.253340 16.818860 
# 
# 
# High freq. dielectric constant tensor:
#      x y z
#    x 1.946740 -0.002670 -0.004200 
#    y -0.002670 1.962470 0.008890 
#    z -0.004200 0.008890 1.964210 
# 
# From -- ./inp_files/173552.got.cif
#   From: 2010.06.25/outbox.cif.g09.slc.cpg/sg2_87_cif.got.tgz:173552.got - 2010.06.27 13:26:56.
