data_PCOD8020816
_publ_section_title
;
Structure prediction by ZEFSAII (Michael W. Deem and Ramdas Pophale) SiO2 
 PCOD8020816
Probable space group: P -1
;
_chemical_formula_sum "Si O2"
_cell_formula_units_Z 16
_cell_length_a 11.488242
_cell_length_b 6.002518
_cell_length_c 12.455090
_cell_angle_alpha 104.171328
_cell_angle_beta 105.072075
_cell_angle_gamma 62.092802
_cell_volume 725.222225
_symmetry_space_group_name_H-M "P -1"
_symmetry_group_IT_number 2
_symmetry_cell_setting 'triclinic'
loop_
_space_group_symop_operation_xyz
x,y,z
-x,-y,-z
loop_
_atom_site_type_symbol
_atom_site_label
_atom_site_fract_x
_atom_site_fract_y
_atom_site_fract_z
Si Si1 0.529426 0.534745 0.332729
Si Si2 0.946704 0.574952 0.239099
Si Si3 0.470092 0.372720 0.080725
Si Si4 0.635063 0.155663 0.495910
Si Si5 0.717611 0.856682 0.050685
Si Si6 0.943308 0.782178 0.955918
Si Si7 0.895308 0.232577 0.569774
Si Si8 0.783568 0.588344 0.401803
O O1 0.452626 0.531379 0.204718
O O2 0.535552 0.329361 0.399426
O O3 0.448119 0.805906 0.407644
O O4 0.681896 0.468882 0.330418
O O5 0.818495 0.749252 0.160252
O O6 0.896881 0.512400 0.331114
O O7 0.038859 0.304293 0.173656
O O8 0.035084 0.730313 0.300681
O O9 0.592655 0.098551 0.094731
O O10 0.500000 0.500000 0.000000
O O11 0.331670 0.351899 0.026068
O O12 0.760991 0.210632 0.563819
O O13 0.690005 0.881880 0.426080
O O14 0.790247 0.927253 0.976660
O O15 0.000000 0.500000 0.000000
O O16 0.000000 0.000000 0.000000
O O17 0.857084 0.484113 0.518904
O O18 0.000000 0.000000 0.500000
#
# Coordination Sequence:
#
# PCOD8020816 Si02
#       8
#     2   2   2   2   2   2   2   2
#     4  10  23  40  70  89 129 173 217 288 337 407
#     4  11  23  43  70  93 132 182 217 286 351 411
#     4  11  24  43  67  98 127 178 234 288 348 412
#     4  10  22  43  63  95 133 166 225 273 347 410
#     4  10  25  45  64  94 135 172 233 286 342 419
#     4  10  25  45  70 101 135 181 237 285 346 424
#     4  11  24  40  62 101 131 172 223 279 337 426
#     4  11  22  40  64  98 127 170 223 273 347 414
#
# _framework density 22.062201999999999
#
# number of rings (size 3 to 8) (size 9 to 14) (size 15 to 20)
#    0.000    1.500    1.250    2.250    8.750    2.000 
#    2.250    0.000    0.000    0.000    0.000    0.000 
#    0.000    0.000    0.000    0.000    0.000    0.000 
#
# Total GULP energy -198256.082274 kJ/mol
# GULP energy per Si atom -12391.005142 kJ/mol
# Density = 2.201199 g / cm^3
# Si number density = 22.062202 Si / 1000 Ang^3
#
#
#
# Elastic Constant Matrix: (Units=GPa)
#
#
# Indices 1 2 3 4 5 6 
#
# 1 105.6453 1.2147 33.0459 -2.9490 1.2257 14.4559
# 2 1.2147 48.5608 22.8919 5.7494 0.2914 12.8658
# 3 33.0459 22.8919 137.5918 10.9714 13.0438 5.9028
# 4 -2.9490 5.7494 10.9714 32.4270 -9.5690 -0.1684
# 5 1.2257 0.2914 13.0438 -9.5690 44.8918 3.9397
# 6 14.4559 12.8658 5.9028 -0.1684 3.9397 30.3350
#
#
#
# Elastic Compliance Matrix: (Units=1/GPa)
#
#
# Indices 1 2 3 4 5 6 
#
# 1 0.011305 0.002571 -0.003200 0.002090 0.001581 -0.006049
# 2 0.002571 0.025952 -0.004383 -0.002496 0.001520 -0.011590
# 3 -0.003200 -0.004383 0.009312 -0.003703 -0.003556 0.002013
# 4 0.002090 -0.002496 -0.003703 0.035250 0.008560 -0.000133
# 5 0.001581 0.001520 -0.003556 0.008560 0.025428 -0.003961
# 6 -0.006049 -0.011590 0.002013 -0.000133 -0.003961 0.040885
#
#
# Mechanical properties :
#
#
# Convention : Reuss Voigt Hill
#
# Bulk Modulus (GPa) = 27.36367 45.12254 36.24310
# Shear Modulus (GPa) = 29.35367 37.17380 33.26373
#
# Velocity S-wave (km/s) = 3.65155 4.10927 3.88716
# Velocity P-wave (km/s) = 5.49621 6.55833 6.05062
#
# Compressibility (1/GPa) = 0.03654481
#
# Stress axis : x y z
#
# Youngs Moduli (GPa) = 88.45896 38.53286 107.39206
#
# Poissons Ratio (x) = -0.09908 0.34364
# Poissons Ratio (y) = -0.22746 0.47072
# Poissons Ratio (z) = 0.28306 0.16890
#
# Static dielectric constant tensor:
#      x y z
#    x 3.448350 0.193160 -0.192610 
#    y 0.193160 4.006370 0.127430 
#    z -0.192610 0.127430 4.090710 
# 
# 
# High freq. dielectric constant tensor:
#      x y z
#    x 1.885310 -0.003070 -0.004140 
#    y -0.003070 1.858460 0.010530 
#    z -0.004140 0.010530 1.866430 
# 
# From -- ./inp_files/69716.got.cif
#   From: 2010.06.25/outbox.cif.g09.slc.cpg/sg2_35_cif.got.tgz:69716.got - 2010.06.27 13:26:56.
