data_PCOD8020892
_publ_section_title
;
Structure prediction by ZEFSAII (Michael W. Deem and Ramdas Pophale) SiO2 
 PCOD8020892
Probable space group: P -1
;
_chemical_formula_sum "Si O2"
_cell_formula_units_Z 14
_cell_length_a 14.003342
_cell_length_b 10.080788
_cell_length_c 19.648756
_cell_angle_alpha 54.099331
_cell_angle_beta 17.356778
_cell_angle_gamma 51.521471
_cell_volume 647.431972
_symmetry_space_group_name_H-M "P -1"
_symmetry_group_IT_number 2
_symmetry_cell_setting 'triclinic'
loop_
_space_group_symop_operation_xyz
x,y,z
-x,-y,-z
loop_
_atom_site_type_symbol
_atom_site_label
_atom_site_fract_x
_atom_site_fract_y
_atom_site_fract_z
Si Si1 0.341218 0.500851 0.903600
Si Si2 0.165446 0.975579 0.566326
Si Si3 0.258804 0.474694 0.497923
Si Si4 0.906497 0.860363 0.060249
Si Si5 0.700893 0.133847 0.342316
Si Si6 0.155102 0.665098 0.287936
Si Si7 0.187010 0.263976 0.179607
O O1 0.473939 0.461715 0.748450
O O2 0.671692 0.485651 0.731451
O O3 0.150913 0.365356 0.101038
O O4 0.093991 0.685009 0.020979
O O5 0.514700 0.884681 0.321949
O O6 0.135596 0.913139 0.681942
O O7 0.886083 0.917751 0.729252
O O8 0.109169 0.179588 0.541575
O O9 0.448990 0.319747 0.462227
O O10 0.001747 0.408860 0.645752
O O11 0.077110 0.631566 0.619251
O O12 0.016083 0.870483 0.904863
O O13 0.000000 0.000000 0.000000
O O14 0.500000 0.000000 0.500000
O O15 0.443036 0.752734 0.037926
#
# Coordination Sequence:
#
# PCOD8020892 Si02
#       7
#     2   2   2   2   2   2   2
#     4   9  23  39  61  94 125 158 211 254 313 359
#     4  12  23  44  63  93 130 163 207 258 312 368
#     4  11  20  42  65  93 121 163 213 259 303 372
#     4  11  22  39  66  95 124 161 211 258 309 370
#     4  11  22  38  65  94 121 158 208 258 309 364
#     4  10  22  43  65  88 129 166 209 258 301 370
#     4  10  25  39  64  92 127 168 205 254 314 368
#
# _framework density 21.623892999999999
#
# number of rings (size 3 to 8) (size 9 to 14) (size 15 to 20)
#    0.857    0.571    2.857    3.000    0.000    3.429 
#    2.571    3.571    0.000    0.000    0.000    0.000 
#    0.000    0.000    0.000    0.000    0.000    0.000 
#
# Total GULP energy -173533.063426 kJ/mol
# GULP energy per Si atom -12395.218816 kJ/mol
# Density = 2.157468 g / cm^3
# Si number density = 21.623893 Si / 1000 Ang^3
#
#
#
# Elastic Constant Matrix: (Units=GPa)
#
#
# Indices 1 2 3 4 5 6 
#
# 1 54.4738 27.5004 25.6662 5.7588 5.3313 -0.0759
# 2 27.5004 73.0299 20.8728 9.9053 0.9551 0.6660
# 3 25.6662 20.8728 86.1063 14.8567 9.5468 2.3319
# 4 5.7588 9.9053 14.8567 37.8436 1.1897 -7.2095
# 5 5.3313 0.9551 9.5468 1.1897 27.9201 0.4704
# 6 -0.0759 0.6660 2.3319 -7.2095 0.4704 38.0295
#
#
#
# Elastic Compliance Matrix: (Units=1/GPa)
#
#
# Indices 1 2 3 4 5 6 
#
# 1 0.025119 -0.007974 -0.005372 0.000585 -0.002723 0.000664
# 2 -0.007974 0.017518 -0.001508 -0.002985 0.001580 -0.000816
# 3 -0.005372 -0.001508 0.014883 -0.004849 -0.003775 -0.001770
# 4 0.000585 -0.002985 -0.004849 0.030168 0.000261 0.006067
# 5 -0.002723 0.001580 -0.003775 0.000261 0.037566 -0.000217
# 6 0.000664 -0.000816 -0.001770 0.006067 -0.000217 0.027572
#
#
# Mechanical properties :
#
#
# Convention : Reuss Voigt Hill
#
# Bulk Modulus (GPa) = 35.95214 40.18764 38.06989
# Shear Modulus (GPa) = 26.06815 30.06334 28.06575
#
# Velocity S-wave (km/s) = 3.47583 3.73270 3.60655
# Velocity P-wave (km/s) = 5.72458 6.09939 5.91495
#
# Compressibility (1/GPa) = 0.02781475
#
# Stress axis : x y z
#
# Youngs Moduli (GPa) = 39.81005 57.08361 67.18878
#
# Poissons Ratio (x) = 0.45516 0.36092
# Poissons Ratio (y) = 0.31743 0.10131
# Poissons Ratio (z) = 0.21385 0.08607
#
# Static dielectric constant tensor:
#      x y z
#    x 3.845310 -0.179150 0.086780 
#    y -0.179150 3.922800 0.218020 
#    z 0.086780 0.218020 4.503960 
# 
# 
# High freq. dielectric constant tensor:
#      x y z
#    x 1.830510 -0.005610 0.003160 
#    y -0.005610 1.849690 0.008710 
#    z 0.003160 0.008710 1.859170 
# 
# From -- ./inp_files/422332.got.cif
#   From: 2010.06.25/outbox.cif.g09.slc.cpg/sg2_212_cif.got.tgz:422332.got - 2010.06.27 13:26:56.
