data_PCOD8020327
_publ_section_title
;
Structure prediction by ZEFSAII (Michael W. Deem and Ramdas Pophale) SiO2 
 PCOD8020327
Probable space group: P -1
;
_chemical_formula_sum "Si O2"
_cell_formula_units_Z 14
_cell_length_a 8.814478
_cell_length_b 14.963194
_cell_length_c 8.931472
_cell_angle_alpha 121.012734
_cell_angle_beta 98.357864
_cell_angle_gamma 43.304063
_cell_volume 637.457472
_symmetry_space_group_name_H-M "P -1"
_symmetry_group_IT_number 2
_symmetry_cell_setting 'triclinic'
loop_
_space_group_symop_operation_xyz
x,y,z
-x,-y,-z
loop_
_atom_site_type_symbol
_atom_site_label
_atom_site_fract_x
_atom_site_fract_y
_atom_site_fract_z
Si Si1 0.336882 0.184952 0.092855
Si Si2 0.299184 0.914798 0.748427
Si Si3 0.087520 0.805644 0.553018
Si Si4 0.395876 0.941960 0.467280
Si Si5 0.053384 0.757291 0.839033
Si Si6 0.447384 0.484494 0.142404
Si Si7 0.280636 0.343658 0.933111
O O1 0.445584 0.220361 0.242555
O O2 0.063798 0.293928 0.182840
O O3 0.344921 0.217725 0.950688
O O4 0.500000 0.000000 0.000000
O O5 0.242936 0.827429 0.618428
O O6 0.326276 0.972977 0.657357
O O7 0.086468 0.073271 0.957137
O O8 0.043273 0.771058 0.671864
O O9 0.219006 0.662189 0.331054
O O10 0.832413 0.968047 0.587757
O O11 0.597718 0.750785 0.288694
O O12 0.500000 0.000000 0.500000
O O13 0.326823 0.613454 0.804344
O O14 0.500000 0.500000 0.000000
O O15 0.389570 0.393201 0.052268
O O16 0.000000 0.500000 0.000000
#
# Coordination Sequence:
#
# PCOD8020327 Si02
#       7
#     2   2   2   2   2   2   2
#     4  10  22  42  67  95 129 171 216 266 324 388
#     4  11  22  40  65  94 125 169 219 270 322 388
#     4  12  24  41  64  94 128 174 221 266 323 394
#     4  12  23  41  66  96 128 170 220 270 325 393
#     4  11  22  41  64  92 127 168 216 274 326 383
#     4  12  25  43  63  94 135 176 217 272 329 388
#     4  12  25  44  68  99 134 174 217 272 332 388
#
# _framework density 21.962250000000001
#
# number of rings (size 3 to 8) (size 9 to 14) (size 15 to 20)
#    0.000    0.571    0.000   10.714    0.000    0.000 
#    0.000    2.143    0.000    0.000    0.000    0.000 
#    0.000    0.000    0.000    0.000    0.000    0.000 
#
# Total GULP energy -173653.803349 kJ/mol
# GULP energy per Si atom -12403.843096 kJ/mol
# Density = 2.191226 g / cm^3
# Si number density = 21.962250 Si / 1000 Ang^3
#
#
#
# Elastic Constant Matrix: (Units=GPa)
#
#
# Indices 1 2 3 4 5 6 
#
# 1 125.4925 15.3852 24.8528 4.0233 5.2297 -6.0607
# 2 15.3852 98.1012 26.5487 -8.0394 -12.5900 -12.7429
# 3 24.8528 26.5487 133.3649 3.2579 -14.8241 7.0198
# 4 4.0233 -8.0394 3.2579 41.7154 6.3669 -5.9804
# 5 5.2297 -12.5900 -14.8241 6.3669 40.4855 -7.8371
# 6 -6.0607 -12.7429 7.0198 -5.9804 -7.8371 50.5260
#
#
#
# Elastic Compliance Matrix: (Units=1/GPa)
#
#
# Indices 1 2 3 4 5 6 
#
# 1 0.008543 -0.001107 -0.001594 -0.000545 -0.001826 0.000619
# 2 -0.001107 0.012134 -0.002098 0.002657 0.003520 0.004079
# 3 -0.001594 -0.002098 0.008633 -0.001570 0.002633 -0.001697
# 4 -0.000545 0.002657 -0.001570 0.025610 -0.003051 0.003381
# 5 -0.001826 0.003520 0.002633 -0.003051 0.028314 0.004334
# 6 0.000619 0.004079 -0.001697 0.003381 0.004334 0.022203
#
#
# Mechanical properties :
#
#
# Convention : Reuss Voigt Hill
#
# Bulk Modulus (GPa) = 50.72607 54.50355 52.61481
# Shear Modulus (GPa) = 41.11657 45.89018 43.50337
#
# Velocity S-wave (km/s) = 4.33153 4.57607 4.45547
# Velocity P-wave (km/s) = 6.93997 7.26576 7.10474
#
# Compressibility (1/GPa) = 0.01971373
#
# Stress axis : x y z
#
# Youngs Moduli (GPa) = 117.04834 82.41149 115.83235
#
# Poissons Ratio (x) = 0.09124 0.18463
# Poissons Ratio (y) = 0.12958 0.24296
# Poissons Ratio (z) = 0.18657 0.17286
#
# Static dielectric constant tensor:
#      x y z
#    x 4.470670 -0.247550 -0.054210 
#    y -0.247550 4.065500 -0.167100 
#    z -0.054210 -0.167100 4.038290 
# 
# 
# High freq. dielectric constant tensor:
#      x y z
#    x 1.890000 -0.009690 -0.002720 
#    y -0.009690 1.865110 -0.015730 
#    z -0.002720 -0.015730 1.865620 
# 
# From -- ./inp_files/153891.got.cif
#   From: 2010.06.25/outbox.cif.g09.slc.cpg/sg2_77_cif.got.tgz:153891.got - 2010.06.27 13:26:56.
