data_PCOD8020759
_publ_section_title
;
Structure prediction by ZEFSAII (Michael W. Deem and Ramdas Pophale) SiO2 
 PCOD8020759
Probable space group: P -1
;
_chemical_formula_sum "Si O2"
_cell_formula_units_Z 16
_cell_length_a 11.522516
_cell_length_b 9.113290
_cell_length_c 16.813016
_cell_angle_alpha 30.344805
_cell_angle_beta 131.383244
_cell_angle_gamma 123.924112
_cell_volume 668.863774
_symmetry_space_group_name_H-M "P -1"
_symmetry_group_IT_number 2
_symmetry_cell_setting 'triclinic'
loop_
_space_group_symop_operation_xyz
x,y,z
-x,-y,-z
loop_
_atom_site_type_symbol
_atom_site_label
_atom_site_fract_x
_atom_site_fract_y
_atom_site_fract_z
Si Si1 0.573022 0.287294 0.436400
Si Si2 0.051860 0.910428 0.682023
Si Si3 0.304005 0.479062 0.045513
Si Si4 0.363289 0.388646 0.843178
Si Si5 0.656902 0.242422 0.816713
Si Si6 0.147599 0.421079 0.154717
Si Si7 0.768746 0.115203 0.757746
Si Si8 0.968862 0.464526 0.307435
O O1 0.649997 0.490558 0.309081
O O2 0.447710 0.475361 0.341387
O O3 0.701398 0.201050 0.601139
O O4 0.500000 0.000000 0.500000
O O5 0.017837 0.713330 0.683501
O O6 0.899150 0.876902 0.684126
O O7 0.215292 0.792110 0.848421
O O8 0.058961 0.253114 0.510537
O O9 0.485556 0.482216 0.105420
O O10 0.295337 0.387698 0.178234
O O11 0.219532 0.237538 0.067113
O O12 0.210855 0.479186 0.780718
O O13 0.392010 0.041374 0.023819
O O14 0.826333 0.325036 0.887610
O O15 0.658741 0.210699 0.737020
O O16 0.000000 0.500000 0.000000
O O17 0.940136 0.236779 0.790570
#
# Coordination Sequence:
#
# PCOD8020759 Si02
#       8
#     2   2   2   2   2   2   2   2
#     4  12  27  51  74 110 151 197 243 312 381 443
#     4  10  24  46  73 105 151 198 247 299 377 437
#     4  11  25  48  76 106 150 201 243 302 377 448
#     4  12  28  46  77 111 153 193 253 307 372 442
#     4  12  26  47  76 110 148 196 253 306 365 453
#     4  10  22  42  75 102 140 195 242 299 365 437
#     4  12  27  47  76 111 147 197 251 309 372 438
#     4  11  27  44  72 111 152 190 247 315 365 441
#
# _framework density 23.921163
#
# number of rings (size 3 to 8) (size 9 to 14) (size 15 to 20)
#    0.000    0.750    3.750    1.500    8.750    4.500 
#    2.250    0.000    0.000    0.000    0.000    0.000 
#    0.000    0.000    0.000    0.000    0.000    0.000 
#
# Total GULP energy -198283.929358 kJ/mol
# GULP energy per Si atom -12392.745585 kJ/mol
# Density = 2.386672 g / cm^3
# Si number density = 23.921163 Si / 1000 Ang^3
#
#
#
# Elastic Constant Matrix: (Units=GPa)
#
#
# Indices 1 2 3 4 5 6 
#
# 1 104.5623 20.9470 31.6269 -6.0171 -2.7816 16.5852
# 2 20.9470 83.6942 11.2805 -3.8131 1.8746 12.9042
# 3 31.6269 11.2805 96.2519 -9.2580 4.6113 10.8064
# 4 -6.0171 -3.8131 -9.2580 32.2579 -5.8251 0.4428
# 5 -2.7816 1.8746 4.6113 -5.8251 37.3017 4.7857
# 6 16.5852 12.9042 10.8064 0.4428 4.7857 39.4527
#
#
#
# Elastic Compliance Matrix: (Units=1/GPa)
#
#
# Indices 1 2 3 4 5 6 
#
# 1 0.011614 -0.001898 -0.003140 0.001461 0.002048 -0.003666
# 2 -0.001898 0.013049 -0.000418 0.001088 -0.000146 -0.003350
# 3 -0.003140 -0.000418 0.011967 0.002632 -0.001061 -0.001722
# 4 0.001461 0.001088 0.002632 0.033142 0.005251 -0.002700
# 5 0.002048 -0.000146 -0.001061 0.005251 0.028437 -0.004031
# 6 -0.003666 -0.003350 -0.001722 -0.002700 -0.004031 0.028975
#
#
# Mechanical properties :
#
#
# Convention : Reuss Voigt Hill
#
# Bulk Modulus (GPa) = 38.88092 45.80193 42.34143
# Shear Modulus (GPa) = 34.09089 36.51272 35.30180
#
# Velocity S-wave (km/s) = 3.77919 3.91113 3.84572
# Velocity P-wave (km/s) = 5.94408 6.29162 6.12032
#
# Compressibility (1/GPa) = 0.02571956
#
# Stress axis : x y z
#
# Youngs Moduli (GPa) = 86.10635 76.63472 83.56083
#
# Poissons Ratio (x) = 0.14541 0.26235
# Poissons Ratio (y) = 0.16339 0.03493
# Poissons Ratio (z) = 0.27034 0.03203
#
# Static dielectric constant tensor:
#      x y z
#    x 5.148830 -0.127030 -0.219700 
#    y -0.127030 4.386980 -0.027690 
#    z -0.219700 -0.027690 4.737490 
# 
# 
# High freq. dielectric constant tensor:
#      x y z
#    x 1.952320 -0.001520 -0.010450 
#    y -0.001520 1.948670 0.005490 
#    z -0.010450 0.005490 1.959780 
# 
# From -- ./inp_files/566383.got.cif
#   From: 2010.06.25/outbox.cif.g09.slc.cpg/sg2_284_cif.got.tgz:566383.got - 2010.06.27 13:26:56.
