data_PCOD8020502
_publ_section_title
;
Structure prediction by ZEFSAII (Michael W. Deem and Ramdas Pophale) SiO2 
 PCOD8020502
Probable space group: P -1
;
_chemical_formula_sum "Si O2"
_cell_formula_units_Z 16
_cell_length_a 8.187664
_cell_length_b 22.987067
_cell_length_c 8.910171
_cell_angle_alpha 142.301351
_cell_angle_beta 45.519913
_cell_angle_gamma 135.965066
_cell_volume 677.667377
_symmetry_space_group_name_H-M "P -1"
_symmetry_group_IT_number 2
_symmetry_cell_setting 'triclinic'
loop_
_space_group_symop_operation_xyz
x,y,z
-x,-y,-z
loop_
_atom_site_type_symbol
_atom_site_label
_atom_site_fract_x
_atom_site_fract_y
_atom_site_fract_z
Si Si1 0.305960 0.352446 0.365705
Si Si2 0.111864 0.080451 0.465523
Si Si3 0.816556 0.215367 0.526448
Si Si4 0.828664 0.488702 0.376674
Si Si5 0.568668 0.710671 0.169025
Si Si6 0.258496 0.826888 0.178721
Si Si7 0.104930 0.379444 0.106605
Si Si8 0.746729 0.988722 0.060833
O O1 0.563371 0.394081 0.376427
O O2 0.202047 0.445576 0.611030
O O3 0.111505 0.260806 0.401218
O O4 0.339994 0.311388 0.096741
O O5 0.895201 0.100026 0.554444
O O6 0.282940 0.175533 0.643229
O O7 0.000000 0.000000 0.500000
O O8 0.261267 0.041587 0.170052
O O9 0.709950 0.291551 0.660043
O O10 0.739836 0.223268 0.762930
O O11 0.702295 0.095456 0.309140
O O12 0.908225 0.561734 0.616255
O O13 0.042941 0.439538 0.126338
O O14 0.627821 0.634310 0.096415
O O15 0.532121 0.895251 0.089455
O O16 0.113832 0.733731 0.968331
O O17 0.000000 0.000000 0.000000
#
# Coordination Sequence:
#
# PCOD8020502 Si02
#       8
#     2   2   2   2   2   2   2   2
#     4  10  22  42  69 102 135 180 223 282 349 397
#     4  11  24  42  65  97 136 175 228 282 332 400
#     4  12  25  41  69  99 138 181 230 279 337 414
#     4   9  19  41  71  97 133 175 228 282 343 410
#     4  10  23  40  64  98 136 173 227 278 336 403
#     4  11  25  43  67  98 135 179 230 277 338 408
#     4   9  20  41  66  94 133 179 218 285 338 394
#     4  12  27  43  69 100 135 185 225 276 346 403
#
# _framework density 23.610405
#
# number of rings (size 3 to 8) (size 9 to 14) (size 15 to 20)
#    0.000    1.500    1.250    2.625    5.250    5.000 
#    0.000   16.250    0.000    0.000    0.000    0.000 
#    0.000    0.000    0.000    0.000    0.000    0.000 
#
# Total GULP energy -198210.611780 kJ/mol
# GULP energy per Si atom -12388.163236 kJ/mol
# Density = 2.355667 g / cm^3
# Si number density = 23.610405 Si / 1000 Ang^3
#
#
#
# Elastic Constant Matrix: (Units=GPa)
#
#
# Indices 1 2 3 4 5 6 
#
# 1 118.2937 39.8705 54.2307 18.5487 -33.1919 -1.0556
# 2 39.8705 63.4007 43.4161 -4.9897 23.8266 23.1860
# 3 54.2307 43.4161 105.9700 9.2061 6.5798 7.8897
# 4 18.5487 -4.9897 9.2061 30.8031 0.5588 -3.2057
# 5 -33.1919 23.8266 6.5798 0.5588 33.6536 11.5326
# 6 -1.0556 23.1860 7.8897 -3.2057 11.5326 36.4130
#
#
#
# Elastic Compliance Matrix: (Units=1/GPa)
#
#
# Indices 1 2 3 4 5 6 
#
# 1 -0.036790 0.060701 -0.003342 0.033059 -0.074923 -0.012354
# 2 0.060701 -0.060515 -0.009204 -0.044895 0.103337 0.005606
# 3 -0.003342 -0.009204 0.015100 -0.003743 -0.000461 0.002309
# 4 0.033059 -0.044895 -0.003743 0.006503 0.061041 0.011596
# 5 -0.074923 0.103337 -0.000461 0.061041 -0.108640 -0.028090
# 6 -0.012354 0.005606 0.002309 0.011596 -0.028090 0.032952
#
#
# Mechanical properties :
#
#
# Convention : Reuss Voigt Hill
#
# Bulk Modulus (GPa) = 70.90216 62.52210 66.71213
# Shear Modulus (GPa) = -20.57619 30.18376 4.80379
#
# Velocity S-wave (km/s) = -2.95530 3.57936 1.42794
# Velocity P-wave (km/s) = 4.29537 6.60460 5.57095
#
# Compressibility (1/GPa) = 0.01410394
#
# Stress axis : x y z
#
# Youngs Moduli (GPa) = -27.18134 -16.52470 66.22647
#
# Poissons Ratio (x) = 1.00306 0.22133
# Poissons Ratio (y) = 1.64993 0.60955
# Poissons Ratio (z) = -0.09084 -0.15209
#
# Static dielectric constant tensor:
#      x y z
#    x 4.789400 -0.073810 -0.445470 
#    y -0.073810 4.034130 0.496100 
#    z -0.445470 0.496100 4.374900 
# 
# 
# High freq. dielectric constant tensor:
#      x y z
#    x 1.956940 0.008580 -0.012480 
#    y 0.008580 1.915660 0.039840 
#    z -0.012480 0.039840 1.931000 
# 
# From -- ./inp_files/226595.got.cif
#   From: 2010.06.25/outbox.cif.g09.slc.cpg/sg2_114_cif.got.tgz:226595.got - 2010.06.27 13:26:56.
