data_PCOD8020216
_publ_section_title
;
Structure prediction by ZEFSAII (Michael W. Deem and Ramdas Pophale) SiO2 
 PCOD8020216
Probable space group: P -1
;
_chemical_formula_sum "Si O2"
_cell_formula_units_Z 16
_cell_length_a 8.938981
_cell_length_b 8.519787
_cell_length_c 11.733048
_cell_angle_alpha 110.074565
_cell_angle_beta 114.716585
_cell_angle_gamma 72.460827
_cell_volume 749.232622
_symmetry_space_group_name_H-M "P -1"
_symmetry_group_IT_number 2
_symmetry_cell_setting 'triclinic'
loop_
_space_group_symop_operation_xyz
x,y,z
-x,-y,-z
loop_
_atom_site_type_symbol
_atom_site_label
_atom_site_fract_x
_atom_site_fract_y
_atom_site_fract_z
Si Si1 0.770472 0.844783 0.112723
Si Si2 0.659597 0.813260 0.609879
Si Si3 0.356195 0.302834 0.173190
Si Si4 0.890073 0.374125 0.758676
Si Si5 0.294032 0.769685 0.836268
Si Si6 0.996462 0.583024 0.641529
Si Si7 0.406054 0.789648 0.340416
Si Si8 0.519276 0.310042 0.913476
O O1 0.649447 0.767279 0.141297
O O2 0.956681 0.734917 0.150842
O O3 0.767937 0.042937 0.191329
O O4 0.706312 0.837895 0.960645
O O5 0.606397 0.758346 0.702318
O O6 0.856095 0.751991 0.639785
O O7 0.560732 0.728616 0.460063
O O8 0.615715 0.013086 0.640041
O O9 0.212131 0.471125 0.160460
O O10 0.534325 0.331171 0.189762
O O11 0.957186 0.441407 0.680809
O O12 0.758585 0.251059 0.659439
O O13 0.166328 0.643217 0.744231
O O14 0.327104 0.794003 0.988184
O O15 0.000000 0.500000 0.500000
O O16 0.436487 0.693517 0.206029
O O17 0.500000 0.500000 0.000000
#
# Coordination Sequence:
#
# PCOD8020216 Si02
#       8
#     2   2   2   2   2   2   2   2
#     4  11  22  41  67 100 130 167 216 270 321 381
#     4  10  24  42  65  93 134 172 214 262 331 380
#     4  10  22  42  66  96 130 169 214 261 321 391
#     4  11  25  40  64  93 130 167 217 265 328 376
#     4  11  23  42  68  95 130 173 217 268 325 377
#     4  11  27  44  64  92 130 171 220 271 322 391
#     4  11  23  42  65  98 130 173 214 265 320 398
#     4  11  23  40  69 101 134 172 216 266 322 382
#
# _framework density 21.355183
#
# number of rings (size 3 to 8) (size 9 to 14) (size 15 to 20)
#    0.000    1.250    0.000    6.375    7.000    3.000 
#    0.000    5.625    0.000    0.000    0.000    0.000 
#    0.000    0.000    0.000    0.000    0.000    0.000 
#
# Total GULP energy -198388.865689 kJ/mol
# GULP energy per Si atom -12399.304106 kJ/mol
# Density = 2.130658 g / cm^3
# Si number density = 21.355183 Si / 1000 Ang^3
#
#
#
# Elastic Constant Matrix: (Units=GPa)
#
#
# Indices 1 2 3 4 5 6 
#
# 1 137.6656 48.9246 75.2144 -5.4932 12.1963 3.4313
# 2 48.9246 100.7534 37.6530 -8.3109 3.5783 1.6751
# 3 75.2144 37.6530 122.9167 -2.4924 -3.9883 5.8101
# 4 -5.4932 -8.3109 -2.4924 22.1323 1.2912 4.1504
# 5 12.1963 3.5783 -3.9883 1.2912 41.2983 1.5966
# 6 3.4313 1.6751 5.8101 4.1504 1.5966 30.6103
#
#
#
# Elastic Compliance Matrix: (Units=1/GPa)
#
#
# Indices 1 2 3 4 5 6 
#
# 1 0.012564 -0.003310 -0.006785 0.001334 -0.004124 0.000095
# 2 -0.003310 0.012509 -0.001719 0.003794 -0.000372 -0.000482
# 3 -0.006785 -0.001719 0.012992 -0.000753 0.003496 -0.001692
# 4 0.001334 0.003794 -0.000753 0.048220 -0.002046 -0.006646
# 5 -0.004124 -0.000372 0.003496 -0.002046 0.025914 -0.001255
# 6 0.000095 -0.000482 -0.001692 -0.006646 -0.001255 0.033972
#
#
# Mechanical properties :
#
#
# Convention : Reuss Voigt Hill
#
# Bulk Modulus (GPa) = 69.26685 76.10217 72.68451
# Shear Modulus (GPa) = 28.63499 32.11110 30.37305
#
# Velocity S-wave (km/s) = 3.66579 3.88192 3.77540
# Velocity P-wave (km/s) = 7.10094 7.47035 7.28799
#
# Compressibility (1/GPa) = 0.01443692
#
# Stress axis : x y z
#
# Youngs Moduli (GPa) = 79.59429 79.94167 76.96948
#
# Poissons Ratio (x) = 0.26462 0.52225
# Poissons Ratio (y) = 0.26347 0.13229
# Poissons Ratio (z) = 0.54006 0.13740
#
# Static dielectric constant tensor:
#      x y z
#    x 4.312270 0.226020 -0.393650 
#    y 0.226020 4.243750 -0.508920 
#    z -0.393650 -0.508920 4.552070 
# 
# 
# High freq. dielectric constant tensor:
#      x y z
#    x 1.842050 0.001620 0.004500 
#    y 0.001620 1.853210 -0.004550 
#    z 0.004500 -0.004550 1.835020 
# 
# From -- ./inp_files/243202.got.cif
#   From: 2010.06.25/outbox.cif.g09.slc.cpg/sg2_122_cif.got.tgz:243202.got - 2010.06.27 13:26:56.
