data_PCOD8020348
_publ_section_title
;
Structure prediction by ZEFSAII (Michael W. Deem and Ramdas Pophale) SiO2 
 PCOD8020348
Probable space group: P -1
;
_chemical_formula_sum "Si O2"
_cell_formula_units_Z 16
_cell_length_a 19.063011
_cell_length_b 18.660110
_cell_length_c 5.116575
_cell_angle_alpha 75.166324
_cell_angle_beta 90.076546
_cell_angle_gamma 153.490560
_cell_volume 666.974084
_symmetry_space_group_name_H-M "P -1"
_symmetry_group_IT_number 2
_symmetry_cell_setting 'triclinic'
loop_
_space_group_symop_operation_xyz
x,y,z
-x,-y,-z
loop_
_atom_site_type_symbol
_atom_site_label
_atom_site_fract_x
_atom_site_fract_y
_atom_site_fract_z
Si Si1 0.124023 0.976991 0.182644
Si Si2 0.859995 0.297437 0.635546
Si Si3 0.505085 0.703433 0.320752
Si Si4 0.786636 0.806137 0.698735
Si Si5 0.251329 0.316295 0.681848
Si Si6 0.600669 0.310628 0.166410
Si Si7 0.008881 0.709001 0.634772
Si Si8 0.313775 0.917292 0.656136
O O1 0.968014 0.877159 0.145968
O O2 0.019905 0.803648 0.451976
O O3 0.233811 0.127890 0.275965
O O4 0.278281 0.106857 0.847549
O O5 0.976731 0.334931 0.567600
O O6 0.000000 0.500000 0.500000
O O7 0.741574 0.196188 0.464432
O O8 0.709503 0.144548 0.008229
O O9 0.374423 0.507071 0.432953
O O10 0.448067 0.676813 0.627649
O O11 0.479527 0.741927 0.064568
O O12 0.697838 0.698079 0.518854
O O13 0.697809 0.665555 0.050702
O O14 0.000000 0.000000 0.500000
O O15 0.518097 0.149417 0.394426
O O16 0.818796 0.512119 0.970487
O O17 0.175289 0.853228 0.701348
#
# Coordination Sequence:
#
# PCOD8020348 Si02
#       8
#     2   2   2   2   2   2   2   2
#     4  11  22  44  65  94 125 172 216 270 326 380
#     4  10  22  45  71  99 136 169 208 258 317 380
#     4  12  26  38  66  93 130 169 215 273 325 375
#     4  10  23  42  64  88 124 171 215 269 329 389
#     4  11  24  44  62  91 128 167 217 272 328 385
#     4  12  24  42  61 101 132 165 218 267 313 379
#     4  10  24  40  70  95 128 172 216 261 322 373
#     4  10  22  42  67  96 133 166 213 254 318 371
#
# _framework density 23.988937
#
# number of rings (size 3 to 8) (size 9 to 14) (size 15 to 20)
#    0.750    0.500    2.500    4.125    3.500    5.000 
#    2.250    1.250    0.000    0.000    0.000    0.000 
#    0.000    0.000    0.000    0.000    0.000    0.000 
#
# Total GULP energy -198369.461376 kJ/mol
# GULP energy per Si atom -12398.091336 kJ/mol
# Density = 2.393434 g / cm^3
# Si number density = 23.988937 Si / 1000 Ang^3
#
#
#
# Elastic Constant Matrix: (Units=GPa)
#
#
# Indices 1 2 3 4 5 6 
#
# 1 27.7233 1.2625 8.5809 2.0194 0.5200 -8.5774
# 2 1.2625 82.6009 40.3238 -4.7619 -6.2965 -30.0663
# 3 8.5809 40.3238 150.0599 -1.5767 -2.3308 -6.4778
# 4 2.0194 -4.7619 -1.5767 51.1510 0.5578 2.3764
# 5 0.5200 -6.2965 -2.3308 0.5578 32.5891 -10.5683
# 6 -8.5774 -30.0663 -6.4778 2.3764 -10.5683 38.6046
#
#
#
# Elastic Compliance Matrix: (Units=1/GPa)
#
#
# Indices 1 2 3 4 5 6 
#
# 1 0.041845 0.007279 -0.003587 -0.001893 0.005718 0.016047
# 2 0.007279 0.023722 -0.005652 0.000593 0.011248 0.022187
# 3 -0.003587 -0.005652 0.008173 0.000089 -0.001860 -0.004342
# 4 -0.001893 0.000593 0.000089 0.019751 -0.000618 -0.001328
# 5 0.005718 0.011248 -0.001860 -0.000618 0.039297 0.020514
# 6 0.016047 0.022187 -0.004342 -0.001328 0.020514 0.051718
#
#
# Mechanical properties :
#
#
# Convention : Reuss Voigt Hill
#
# Bulk Modulus (GPa) = 14.32267 40.07985 27.20126
# Shear Modulus (GPa) = 23.61850 38.48340 31.05095
#
# Velocity S-wave (km/s) = 3.14117 4.00961 3.60166
# Velocity P-wave (km/s) = 4.37486 6.17899 5.35347
#
# Compressibility (1/GPa) = 0.06981938
#
# Stress axis : x y z
#
# Youngs Moduli (GPa) = 23.89774 42.15529 122.36100
#
# Poissons Ratio (x) = -0.30686 0.43894
# Poissons Ratio (y) = -0.17396 0.69159
# Poissons Ratio (z) = 0.08573 0.23826
#
# Static dielectric constant tensor:
#      x y z
#    x 4.118310 -0.373060 -0.128080 
#    y -0.373060 4.681980 0.006800 
#    z -0.128080 0.006800 4.443640 
# 
# 
# High freq. dielectric constant tensor:
#      x y z
#    x 1.923780 -0.013740 -0.005570 
#    y -0.013740 1.951090 -0.007640 
#    z -0.005570 -0.007640 1.969330 
# 
# From -- ./inp_files/119877.got.cif
#   From: 2010.06.25/outbox.cif.g09.slc.cpg/sg2_60_cif.got.tgz:119877.got - 2010.06.27 13:26:56.
