data_PCOD8020514
_publ_section_title
;
Structure prediction by ZEFSAII (Michael W. Deem and Ramdas Pophale) SiO2 
 PCOD8020514
Probable space group: P -1
;
_chemical_formula_sum "Si O2"
_cell_formula_units_Z 16
_cell_length_a 11.287374
_cell_length_b 11.829321
_cell_length_c 9.142611
_cell_angle_alpha 128.488631
_cell_angle_beta 130.034428
_cell_angle_gamma 61.765018
_cell_volume 726.183616
_symmetry_space_group_name_H-M "P -1"
_symmetry_group_IT_number 2
_symmetry_cell_setting 'triclinic'
loop_
_space_group_symop_operation_xyz
x,y,z
-x,-y,-z
loop_
_atom_site_type_symbol
_atom_site_label
_atom_site_fract_x
_atom_site_fract_y
_atom_site_fract_z
Si Si1 0.399571 0.811968 0.299159
Si Si2 0.129023 0.304394 0.140774
Si Si3 0.307157 0.150117 0.927235
Si Si4 0.783441 0.448417 0.020296
Si Si5 0.284252 0.249207 0.668086
Si Si6 0.614327 0.163293 0.350073
Si Si7 0.159339 0.065035 0.207894
Si Si8 0.316905 0.532832 0.364634
O O1 0.337002 0.657366 0.105577
O O2 0.575163 0.789303 0.364383
O O3 0.393332 0.863607 0.504067
O O4 0.299347 0.933516 0.219154
O O5 0.196300 0.178773 0.204573
O O6 0.225530 0.444954 0.339470
O O7 0.146431 0.230068 0.932715
O O8 0.951217 0.355858 0.074799
O O9 0.341477 0.199494 0.832639
O O10 0.303830 0.976923 0.783992
O O11 0.439626 0.201564 0.180214
O O12 0.736911 0.513880 0.876367
O O13 0.779140 0.579553 0.239177
O O14 0.148988 0.157023 0.426546
O O15 0.720219 0.292533 0.504454
O O16 0.000000 0.000000 0.000000
O O17 0.500000 0.500000 0.500000
#
# Coordination Sequence:
#
# PCOD8020514 Si02
#       8
#     2   2   2   2   2   2   2   2
#     4  11  24  47  73 102 140 191 231 297 346 416
#     4  12  25  47  72  95 153 184 227 294 355 416
#     4  11  23  41  71 111 135 182 234 295 350 414
#     4  11  25  47  70 103 141 186 237 284 357 417
#     4  12  25  44  75 103 142 181 245 289 345 420
#     4  10  22  42  69 106 138 175 244 284 347 413
#     4  12  27  50  68 103 145 192 231 287 360 420
#     4  11  22  42  71 103 137 184 231 290 348 414
#
# _framework density 22.032995
#
# number of rings (size 3 to 8) (size 9 to 14) (size 15 to 20)
#    0.000    0.750    5.000    1.875    5.250    0.500 
#    4.500    3.125    0.000    0.000    0.000    0.000 
#    0.000    0.000    0.000    0.000    0.000    0.000 
#
# Total GULP energy -198399.345512 kJ/mol
# GULP energy per Si atom -12399.959094 kJ/mol
# Density = 2.198285 g / cm^3
# Si number density = 22.032995 Si / 1000 Ang^3
#
#
#
# Elastic Constant Matrix: (Units=GPa)
#
#
# Indices 1 2 3 4 5 6 
#
# 1 80.7150 45.2395 41.2935 3.0289 1.6500 2.0325
# 2 45.2395 111.9842 52.3368 2.5794 -2.9163 13.2852
# 3 41.2935 52.3368 135.4705 18.7074 3.6950 -3.9265
# 4 3.0289 2.5794 18.7074 42.7549 -1.4627 -2.9511
# 5 1.6500 -2.9163 3.6950 -1.4627 26.3101 7.8289
# 6 2.0325 13.2852 -3.9265 -2.9511 7.8289 45.1972
#
#
#
# Elastic Compliance Matrix: (Units=1/GPa)
#
#
# Indices 1 2 3 4 5 6 
#
# 1 0.017095 -0.005653 -0.003022 0.000464 -0.001524 0.000925
# 2 -0.005653 0.013704 -0.003969 0.001118 0.003898 -0.004721
# 3 -0.003022 -0.003969 0.010543 -0.004085 -0.002677 0.002415
# 4 0.000464 0.001118 -0.004085 0.025183 0.001886 0.000613
# 5 -0.001524 0.003898 -0.002677 0.001886 0.041509 -0.008377
# 6 0.000925 -0.004721 0.002415 0.000613 -0.008377 0.025172
#
#
# Mechanical properties :
#
#
# Convention : Reuss Voigt Hill
#
# Bulk Modulus (GPa) = 62.29267 67.32327 64.80797
# Shear Modulus (GPa) = 30.51635 35.47241 32.99438
#
# Velocity S-wave (km/s) = 3.72564 4.01679 3.87395
# Velocity P-wave (km/s) = 6.84405 7.22045 7.03476
#
# Compressibility (1/GPa) = 0.01605325
#
# Stress axis : x y z
#
# Youngs Moduli (GPa) = 58.49797 72.96942 94.84763
#
# Poissons Ratio (x) = 0.41253 0.28666
# Poissons Ratio (y) = 0.33072 0.37642
# Poissons Ratio (z) = 0.17680 0.28959
#
# Static dielectric constant tensor:
#      x y z
#    x 3.671270 0.133980 0.027490 
#    y 0.133980 4.449000 0.337550 
#    z 0.027490 0.337550 4.299580 
# 
# 
# High freq. dielectric constant tensor:
#      x y z
#    x 1.840360 0.008070 0.002980 
#    y 0.008070 1.892990 0.014860 
#    z 0.002980 0.014860 1.873830 
# 
# From -- ./inp_files/263623.got.cif
#   From: 2010.06.25/outbox.cif.g09.slc.cpg/sg2_132_cif.got.tgz:263623.got - 2010.06.27 13:26:56.
