data_PCOD8020571
_publ_section_title
;
Structure prediction by ZEFSAII (Michael W. Deem and Ramdas Pophale) SiO2 
 PCOD8020571
Probable space group: P -1
;
_chemical_formula_sum "Si O2"
_cell_formula_units_Z 14
_cell_length_a 9.349985
_cell_length_b 11.910182
_cell_length_c 17.060638
_cell_angle_alpha 149.875956
_cell_angle_beta 49.466395
_cell_angle_gamma 140.744593
_cell_volume 602.171190
_symmetry_space_group_name_H-M "P -1"
_symmetry_group_IT_number 2
_symmetry_cell_setting 'triclinic'
loop_
_space_group_symop_operation_xyz
x,y,z
-x,-y,-z
loop_
_atom_site_type_symbol
_atom_site_label
_atom_site_fract_x
_atom_site_fract_y
_atom_site_fract_z
Si Si1 0.642555 0.044142 0.808480
Si Si2 0.423668 0.177721 0.596341
Si Si3 0.977398 0.938788 0.696461
Si Si4 0.632130 0.726637 0.929231
Si Si5 0.909019 0.992778 0.126925
Si Si6 0.845368 0.434540 0.348731
Si Si7 0.853741 0.123504 0.618063
O O1 0.796001 0.019000 0.802694
O O2 0.414459 0.751521 0.699247
O O3 0.788261 0.180587 0.760101
O O4 0.579112 0.245342 0.987995
O O5 0.601247 0.484455 0.742188
O O6 0.500000 0.000000 0.500000
O O7 0.390348 0.106322 0.472813
O O8 0.178140 0.105956 0.664941
O O9 0.854587 0.624969 0.529821
O O10 0.107256 0.026682 0.786006
O O11 0.862811 0.987870 0.969521
O O12 0.689752 0.730496 0.004506
O O13 0.928432 0.260999 0.252978
O O14 0.009338 0.606870 0.321140
O O15 0.000000 0.000000 0.500000
#
# Coordination Sequence:
#
# PCOD8020571 Si02
#       7
#     2   2   2   2   2   2   2
#     4  11  24  44  69 103 136 181 220 279 346 395
#     4  11  25  43  67 102 132 178 226 278 340 402
#     4  11  23  41  67 103 132 174 231 273 339 402
#     4  10  24  45  64  96 136 178 227 273 345 399
#     4  10  23  44  65  96 136 177 228 280 331 404
#     4  10  22  42  69  99 137 176 225 281 333 397
#     4  11  23  44  69 104 136 172 230 277 332 414
#
# _framework density 23.249202
#
# number of rings (size 3 to 8) (size 9 to 14) (size 15 to 20)
#    0.000    1.429    2.857    2.571    6.000    1.714 
#    7.714    0.000    0.000    0.000    0.000    0.000 
#    0.000    0.000    0.000    0.000    0.000    0.000 
#
# Total GULP energy -173504.151334 kJ/mol
# GULP energy per Si atom -12393.153667 kJ/mol
# Density = 2.319629 g / cm^3
# Si number density = 23.249202 Si / 1000 Ang^3
#
#
#
# Elastic Constant Matrix: (Units=GPa)
#
#
# Indices 1 2 3 4 5 6 
#
# 1 112.9168 14.6060 20.5237 6.1988 -5.9919 0.9897
# 2 14.6060 48.5916 -3.8221 -2.4952 -5.5489 3.3452
# 3 20.5237 -3.8221 67.4181 2.6873 -4.0753 -1.7065
# 4 6.1988 -2.4952 2.6873 27.0779 16.9052 0.7447
# 5 -5.9919 -5.5489 -4.0753 16.9052 40.2151 -9.2675
# 6 0.9897 3.3452 -1.7065 0.7447 -9.2675 38.5698
#
#
#
# Elastic Compliance Matrix: (Units=1/GPa)
#
#
# Indices 1 2 3 4 5 6 
#
# 1 0.010158 -0.003235 -0.002949 -0.003946 0.002561 0.000581
# 2 -0.003235 0.022110 0.002265 0.001396 0.001912 -0.001302
# 3 -0.002949 0.002265 0.016171 -0.002569 0.002901 0.001341
# 4 -0.003946 0.001396 -0.002569 0.054042 -0.025031 -0.007191
# 5 0.002561 0.001912 0.002901 -0.025031 0.038550 0.009643
# 6 0.000581 -0.001302 0.001341 -0.007191 0.009643 0.028540
#
#
# Mechanical properties :
#
#
# Convention : Reuss Voigt Hill
#
# Bulk Modulus (GPa) = 24.63023 32.39351 28.51187
# Shear Modulus (GPa) = 26.18589 34.34714 30.26651
#
# Velocity S-wave (km/s) = 3.35970 3.84780 3.61200
# Velocity P-wave (km/s) = 5.06627 5.80553 5.44845
#
# Compressibility (1/GPa) = 0.04060051
#
# Stress axis : x y z
#
# Youngs Moduli (GPa) = 98.44456 45.22836 61.84025
#
# Poissons Ratio (x) = 0.14634 0.18237
# Poissons Ratio (y) = 0.31852 -0.14009
# Poissons Ratio (z) = 0.29031 -0.10246
#
# Static dielectric constant tensor:
#      x y z
#    x 4.529370 0.138270 0.393650 
#    y 0.138270 4.106680 -0.156540 
#    z 0.393650 -0.156540 4.529210 
# 
# 
# High freq. dielectric constant tensor:
#      x y z
#    x 1.931620 0.018960 0.005230 
#    y 0.018960 1.899960 -0.012120 
#    z 0.005230 -0.012120 1.922600 
# 
# From -- ./inp_files/244376.got.cif
#   From: 2010.06.25/outbox.cif.g09.slc.cpg/sg2_123_cif.got.tgz:244376.got - 2010.06.27 13:26:56.
