data_PCOD8020780
_publ_section_title
;
Structure prediction by ZEFSAII (Michael W. Deem and Ramdas Pophale) SiO2 
 PCOD8020780
Probable space group: P -1
;
_chemical_formula_sum "Si O2"
_cell_formula_units_Z 16
_cell_length_a 11.069304
_cell_length_b 13.026325
_cell_length_c 10.825469
_cell_angle_alpha 77.227321
_cell_angle_beta 46.586393
_cell_angle_gamma 113.647406
_cell_volume 691.095327
_symmetry_space_group_name_H-M "P -1"
_symmetry_group_IT_number 2
_symmetry_cell_setting 'triclinic'
loop_
_space_group_symop_operation_xyz
x,y,z
-x,-y,-z
loop_
_atom_site_type_symbol
_atom_site_label
_atom_site_fract_x
_atom_site_fract_y
_atom_site_fract_z
Si Si1 0.291980 0.672681 0.206265
Si Si2 0.123113 0.454827 0.188272
Si Si3 0.414888 0.500345 0.740112
Si Si4 0.763827 0.803919 0.960215
Si Si5 0.929993 0.150022 0.485495
Si Si6 0.935782 0.537003 0.154084
Si Si7 0.665154 0.137265 0.058988
Si Si8 0.002818 0.872872 0.274106
O O1 0.000000 0.500000 0.500000
O O2 0.355015 0.629372 0.054006
O O3 0.512961 0.757658 0.129640
O O4 0.291888 0.792078 0.127003
O O5 0.999212 0.307687 0.406259
O O6 0.893635 0.428436 0.320202
O O7 0.251279 0.468477 0.974831
O O8 0.314669 0.508185 0.681892
O O9 0.725632 0.676888 0.491562
O O10 0.333971 0.336100 0.839141
O O11 0.859536 0.802608 0.763988
O O12 0.988971 0.997601 0.802377
O O13 0.934067 0.100055 0.630646
O O14 0.646108 0.007784 0.653912
O O15 0.000000 0.500000 0.000000
O O16 0.185843 0.732613 0.966540
O O17 0.774393 0.073312 0.981125
#
# Coordination Sequence:
#
# PCOD8020780 Si02
#       8
#     2   2   2   2   2   2   2   2
#     4  11  21  36  61  91 128 164 204 252 316 378
#     4   9  20  37  64  91 116 168 208 255 312 367
#     4  10  22  43  62  88 124 167 219 254 305 371
#     4  11  24  38  62  97 126 170 208 249 319 374
#     4  11  22  39  62  97 131 158 206 258 312 389
#     4   9  21  43  66  85 120 167 217 262 302 365
#     4  11  24  39  62  94 125 163 210 255 319 368
#     4  12  24  39  65  94 134 165 195 268 318 370
#
# _framework density 23.151654000000001
#
# number of rings (size 3 to 8) (size 9 to 14) (size 15 to 20)
#    0.000    1.500    1.250    3.750    7.000    2.500 
#    2.250    2.500    0.000    0.000    0.000    0.000 
#    0.000    0.000    0.000    0.000    0.000    0.000 
#
# Total GULP energy -198229.389939 kJ/mol
# GULP energy per Si atom -12389.336871 kJ/mol
# Density = 2.309896 g / cm^3
# Si number density = 23.151654 Si / 1000 Ang^3
#
#
#
# Elastic Constant Matrix: (Units=GPa)
#
#
# Indices 1 2 3 4 5 6 
#
# 1 83.6851 33.3018 24.2709 -6.3828 -18.7511 -17.7625
# 2 33.3018 105.7897 19.4450 -23.0503 1.8889 -21.5619
# 3 24.2709 19.4450 75.4240 -16.4536 -14.2919 -4.7512
# 4 -6.3828 -23.0503 -16.4536 28.7976 0.0916 7.6751
# 5 -18.7511 1.8889 -14.2919 0.0916 30.1785 -9.4707
# 6 -17.7625 -21.5619 -4.7512 7.6751 -9.4707 36.2050
#
#
#
# Elastic Compliance Matrix: (Units=1/GPa)
#
#
# Indices 1 2 3 4 5 6 
#
# 1 0.020083 -0.004603 -0.002487 -0.003787 0.015232 0.011572
# 2 -0.004603 0.013591 -0.000479 0.008758 -0.002980 0.003136
# 3 -0.002487 -0.000479 0.017475 0.008831 0.006965 0.000738
# 4 -0.003787 0.008758 0.008831 0.047467 -0.000657 -0.005718
# 5 0.015232 -0.002980 0.006965 -0.000657 0.052518 0.020490
# 6 0.011572 0.003136 0.000738 -0.005718 0.020490 0.041835
#
#
# Mechanical properties :
#
#
# Convention : Reuss Voigt Hill
#
# Bulk Modulus (GPa) = 27.76970 46.54826 37.15898
# Shear Modulus (GPa) = 22.71590 31.56162 27.13876
#
# Velocity S-wave (km/s) = 3.13577 3.69623 3.42748
# Velocity P-wave (km/s) = 5.01313 6.19400 5.63459
#
# Compressibility (1/GPa) = 0.03601048
#
# Stress axis : x y z
#
# Youngs Moduli (GPa) = 49.79311 73.58046 57.22506
#
# Poissons Ratio (x) = 0.33872 0.14230
# Poissons Ratio (y) = 0.22922 0.02741
# Poissons Ratio (z) = 0.12382 0.03525
#
# Static dielectric constant tensor:
#      x y z
#    x 4.639000 -0.179950 -0.009190 
#    y -0.179950 4.657910 -0.161140 
#    z -0.009190 -0.161140 3.922770 
# 
# 
# High freq. dielectric constant tensor:
#      x y z
#    x 1.904030 -0.015680 -0.007110 
#    y -0.015680 1.935330 -0.002850 
#    z -0.007110 -0.002850 1.895990 
# 
# From -- ./inp_files/181673.got.cif
#   From: 2010.06.25/outbox.cif.g09.slc.cpg/sg2_91_cif.got.tgz:181673.got - 2010.06.27 13:26:56.
