data_PCOD8020909
_publ_section_title
;
Structure prediction by ZEFSAII (Michael W. Deem and Ramdas Pophale) SiO2 
 PCOD8020909
Probable space group: P -1
;
_chemical_formula_sum "Si O2"
_cell_formula_units_Z 16
_cell_length_a 9.521495
_cell_length_b 9.101784
_cell_length_c 14.430905
_cell_angle_alpha 38.467801
_cell_angle_beta 105.811786
_cell_angle_gamma 115.492362
_cell_volume 697.588640
_symmetry_space_group_name_H-M "P -1"
_symmetry_group_IT_number 2
_symmetry_cell_setting 'triclinic'
loop_
_space_group_symop_operation_xyz
x,y,z
-x,-y,-z
loop_
_atom_site_type_symbol
_atom_site_label
_atom_site_fract_x
_atom_site_fract_y
_atom_site_fract_z
Si Si1 0.748608 0.964251 0.398385
Si Si2 0.521045 0.570311 0.676812
Si Si3 0.981012 0.855701 0.369455
Si Si4 0.069160 0.744453 0.954858
Si Si5 0.196672 0.581973 0.572238
Si Si6 0.859648 0.548393 0.176786
Si Si7 0.558647 0.634648 0.040508
Si Si8 0.585588 0.955623 0.185961
O O1 0.680825 0.776601 0.565176
O O2 0.911128 0.937673 0.408517
O O3 0.624305 0.887595 0.329560
O O4 0.778072 0.249525 0.290993
O O5 0.382110 0.672711 0.576400
O O6 0.535221 0.543545 0.803146
O O7 0.489381 0.298502 0.759958
O O8 0.854642 0.585915 0.446369
O O9 0.146434 0.827712 0.435314
O O10 0.007526 0.059478 0.192573
O O11 0.256212 0.860786 0.926058
O O12 0.000000 0.500000 0.000000
O O13 0.020239 0.673622 0.087341
O O14 0.105185 0.410853 0.727849
O O15 0.742214 0.688014 0.057015
O O16 0.500000 0.500000 0.000000
O O17 0.537708 0.904107 0.904312
#
# Coordination Sequence:
#
# PCOD8020909 Si02
#       8
#     2   2   2   2   2   2   2   2
#     4  11  22  43  66  92 129 168 210 257 319 376
#     4  11  24  43  67  92 129 171 209 262 315 376
#     4  10  22  43  65  93 126 166 214 256 316 379
#     4  11  20  42  68  88 126 171 206 259 313 372
#     4  10  23  42  63  95 128 160 213 265 312 377
#     4  11  24  43  63  94 129 166 209 263 317 372
#     4  11  23  44  64  96 129 162 218 263 315 375
#     4  11  22  43  66  93 127 167 217 255 316 382
#
# _framework density 22.936152
#
# number of rings (size 3 to 8) (size 9 to 14) (size 15 to 20)
#    0.000    1.250    6.250    0.750    0.000    5.000 
#    9.000    0.000    0.000    0.000    0.000    0.000 
#    0.000    0.000    0.000    0.000    0.000    0.000 
#
# Total GULP energy -198437.645909 kJ/mol
# GULP energy per Si atom -12402.352869 kJ/mol
# Density = 2.288395 g / cm^3
# Si number density = 22.936152 Si / 1000 Ang^3
#
#
#
# Elastic Constant Matrix: (Units=GPa)
#
#
# Indices 1 2 3 4 5 6 
#
# 1 80.9063 37.5101 43.4207 -20.3579 17.0358 -28.6993
# 2 37.5101 66.2300 37.0602 6.2947 6.5531 -13.8232
# 3 43.4207 37.0602 84.1756 -14.5689 -1.4642 -10.5429
# 4 -20.3579 6.2947 -14.5689 33.9561 -9.9694 -1.7831
# 5 17.0358 6.5531 -1.4642 -9.9694 61.7455 1.0105
# 6 -28.6993 -13.8232 -10.5429 -1.7831 1.0105 25.0820
#
#
#
# Elastic Compliance Matrix: (Units=1/GPa)
#
#
# Indices 1 2 3 4 5 6 
#
# 1 0.050192 -0.016109 -0.007808 0.029799 -0.008293 0.047723
# 2 -0.016109 0.030129 -0.009395 -0.020275 -0.002133 -0.007132
# 3 -0.007808 -0.009395 0.020722 0.007115 0.004875 -0.005092
# 4 0.029799 -0.020275 0.007115 0.056495 0.002732 0.029820
# 5 -0.008293 -0.002133 0.004875 0.002732 0.019417 -0.009204
# 6 0.047723 -0.007132 -0.005092 0.029820 -0.009204 0.090895
#
#
# Mechanical properties :
#
#
# Convention : Reuss Voigt Hill
#
# Bulk Modulus (GPa) = 29.05286 51.92154 40.48720
# Shear Modulus (GPa) = 14.45310 31.71144 23.08227
#
# Velocity S-wave (km/s) = 2.51299 3.72236 3.17578
# Velocity P-wave (km/s) = 4.59505 6.41570 5.58013
#
# Compressibility (1/GPa) = 0.03442002
#
# Stress axis : x y z
#
# Youngs Moduli (GPa) = 19.92364 33.19086 48.25721
#
# Poissons Ratio (x) = 0.53466 0.37678
# Poissons Ratio (y) = 0.32095 0.45337
# Poissons Ratio (z) = 0.15556 0.31182
#
# Static dielectric constant tensor:
#      x y z
#    x 4.113540 -0.349170 0.075840 
#    y -0.349170 4.087180 0.131550 
#    z 0.075840 0.131550 4.391310 
# 
# 
# High freq. dielectric constant tensor:
#      x y z
#    x 1.902060 -0.027020 0.013610 
#    y -0.027020 1.903460 0.006760 
#    z 0.013610 0.006760 1.906670 
# 
# From -- ./inp_files/477494.got.cif
#   From: 2010.06.25/outbox.cif.g09.slc.cpg/sg2_239_cif.got.tgz:477494.got - 2010.06.27 13:26:56.
