data_PCOD8020194
_publ_section_title
;
Structure prediction by ZEFSAII (Michael W. Deem and Ramdas Pophale) SiO2 
 PCOD8020194
Probable space group: P -1
;
_chemical_formula_sum "Si O2"
_cell_formula_units_Z 14
_cell_length_a 8.667767
_cell_length_b 20.735684
_cell_length_c 7.788088
_cell_angle_alpha 121.985392
_cell_angle_beta 35.060674
_cell_angle_gamma 124.934233
_cell_volume 653.650755
_symmetry_space_group_name_H-M "P -1"
_symmetry_group_IT_number 2
_symmetry_cell_setting 'triclinic'
loop_
_space_group_symop_operation_xyz
x,y,z
-x,-y,-z
loop_
_atom_site_type_symbol
_atom_site_label
_atom_site_fract_x
_atom_site_fract_y
_atom_site_fract_z
Si Si1 0.605548 0.064045 0.349795
Si Si2 0.483005 0.676366 0.977776
Si Si3 0.635314 0.322891 0.300286
Si Si4 0.905009 0.219786 0.479768
Si Si5 0.035111 0.219366 0.743885
Si Si6 0.034088 0.063874 0.704817
Si Si7 0.693750 0.443936 0.723616
O O1 0.836533 0.143229 0.315195
O O2 0.344210 0.085213 0.530624
O O3 0.500000 0.000000 0.500000
O O4 0.784018 0.023773 0.006555
O O5 0.386498 0.645016 0.828404
O O6 0.819823 0.711051 0.734493
O O7 0.363245 0.748093 0.238843
O O8 0.353053 0.606452 0.130342
O O9 0.368410 0.250512 0.483425
O O10 0.636204 0.391439 0.530480
O O11 0.902554 0.288467 0.028678
O O12 0.933803 0.191478 0.606222
O O13 0.956552 0.142860 0.826980
O O14 0.000000 0.000000 0.500000
O O15 0.000000 0.500000 0.500000
O O16 0.500000 0.500000 0.000000
#
# Coordination Sequence:
#
# PCOD8020194 Si02
#       7
#     2   2   2   2   2   2   2
#     4  12  26  42  65  97 135 180 223 279 339 395
#     4  10  23  42  67  96 131 172 220 271 334 397
#     4  10  23  42  67  96 131 172 220 271 334 397
#     4  10  22  42  66  94 127 171 221 277 324 393
#     4  10  22  42  66  94 127 171 221 277 324 393
#     4  12  26  42  65  97 135 180 223 279 339 395
#     4  12  26  42  66 100 134 172 218 276 332 406
#
# _framework density 21.418163
#
# number of rings (size 3 to 8) (size 9 to 14) (size 15 to 20)
#    0.000    1.143    0.000    5.143    6.000    4.571 
#    0.000    0.000    0.000    0.000    0.000    0.000 
#    0.000    0.000    0.000    0.000    0.000    0.000 
#
# Total GULP energy -173610.042365 kJ/mol
# GULP energy per Si atom -12400.717312 kJ/mol
# Density = 2.136941 g / cm^3
# Si number density = 21.418163 Si / 1000 Ang^3
#
#
#
# Elastic Constant Matrix: (Units=GPa)
#
#
# Indices 1 2 3 4 5 6 
#
# 1 107.5398 65.4682 60.2422 17.9533 10.2735 -0.6322
# 2 65.4682 94.4006 42.7041 16.4498 17.8408 -4.4435
# 3 60.2422 42.7041 153.6232 1.2754 12.5784 3.0154
# 4 17.9533 16.4498 1.2754 16.1682 5.4711 4.2225
# 5 10.2735 17.8408 12.5784 5.4711 42.1472 -5.8818
# 6 -0.6322 -4.4435 3.0154 4.2225 -5.8818 14.2804
#
#
#
# Elastic Compliance Matrix: (Units=1/GPa)
#
#
# Indices 1 2 3 4 5 6 
#
# 1 0.020383 -0.009340 -0.005643 -0.015129 0.003336 0.005035
# 2 -0.009340 0.021140 -0.002020 -0.012191 -0.003250 0.008857
# 3 -0.005643 -0.002020 0.009584 0.010469 -0.002998 -0.007232
# 4 -0.015129 -0.012191 0.010469 0.106555 -0.014256 -0.044051
# 5 0.003336 -0.003250 -0.002998 -0.014256 0.029273 0.016041
# 6 0.005035 0.008857 -0.007232 -0.044051 0.016041 0.094164
#
#
# Mechanical properties :
#
#
# Convention : Reuss Voigt Hill
#
# Bulk Modulus (GPa) = 58.47833 76.93253 67.70543
# Shear Modulus (GPa) = 15.58573 26.99576 21.29074
#
# Velocity S-wave (km/s) = 2.70050 3.55408 3.15628
# Velocity P-wave (km/s) = 6.08983 7.26906 6.70542
#
# Compressibility (1/GPa) = 0.01710035
#
# Stress axis : x y z
#
# Youngs Moduli (GPa) = 49.06120 47.30331 104.33634
#
# Poissons Ratio (x) = 0.44182 0.58876
# Poissons Ratio (y) = 0.45824 0.21079
# Poissons Ratio (z) = 0.27685 0.09557
#
# Static dielectric constant tensor:
#      x y z
#    x 5.720830 -0.025410 -0.258700 
#    y -0.025410 3.774670 -0.045850 
#    z -0.258700 -0.045850 4.129720 
# 
# 
# High freq. dielectric constant tensor:
#      x y z
#    x 1.851550 -0.000920 0.003320 
#    y -0.000920 1.831620 -0.006840 
#    z 0.003320 -0.006840 1.868170 
# 
# From -- ./inp_files/223310.got.cif
#   From: 2010.06.25/outbox.cif.g09.slc.cpg/sg2_112_cif.got.tgz:223310.got - 2010.06.27 13:26:56.
