data_PCOD8020624
_publ_section_title
;
Structure prediction by ZEFSAII (Michael W. Deem and Ramdas Pophale) SiO2 
 PCOD8020624
Probable space group: P -1
;
_chemical_formula_sum "Si O2"
_cell_formula_units_Z 14
_cell_length_a 8.544254
_cell_length_b 15.026993
_cell_length_c 11.364077
_cell_angle_alpha 49.903116
_cell_angle_beta 145.168371
_cell_angle_gamma 119.483549
_cell_volume 635.270046
_symmetry_space_group_name_H-M "P -1"
_symmetry_group_IT_number 2
_symmetry_cell_setting 'triclinic'
loop_
_space_group_symop_operation_xyz
x,y,z
-x,-y,-z
loop_
_atom_site_type_symbol
_atom_site_label
_atom_site_fract_x
_atom_site_fract_y
_atom_site_fract_z
Si Si1 0.288181 0.177822 0.478872
Si Si2 0.315845 0.956269 0.528048
Si Si3 0.722511 0.893278 0.208001
Si Si4 0.812116 0.310607 0.671064
Si Si5 0.028909 0.630922 0.024521
Si Si6 0.623977 0.757329 0.035314
Si Si7 0.429842 0.521159 0.187617
O O1 0.233182 0.179259 0.582734
O O2 0.579698 0.222135 0.588668
O O3 0.281338 0.048438 0.534179
O O4 0.046096 0.264289 0.202232
O O5 0.013529 0.936515 0.308599
O O6 0.500000 0.000000 0.500000
O O7 0.460581 0.836813 0.770176
O O8 0.600516 0.811243 0.105058
O O9 0.500000 0.000000 0.000000
O O10 0.707858 0.440513 0.454237
O O11 0.907628 0.311072 0.863560
O O12 0.056525 0.258753 0.784682
O O13 0.292825 0.554558 0.201005
O O14 0.779581 0.549025 0.958775
O O15 0.499281 0.632697 0.061064
#
# Coordination Sequence:
#
# PCOD8020624 Si02
#       7
#     2   2   2   2   2   2   2
#     4  11  24  42  69  99 134 175 229 270 337 399
#     4  12  27  44  68 100 138 176 224 277 344 397
#     4  12  27  44  70  99 135 181 228 277 327 404
#     4  11  24  42  69 100 136 180 220 281 333 402
#     4  10  22  42  70  96 135 174 224 281 333 395
#     4  12  26  43  68  98 141 177 223 279 341 394
#     4  10  23  42  65 100 132 176 229 272 331 404
#
# _framework density 22.037873999999999
#
# number of rings (size 3 to 8) (size 9 to 14) (size 15 to 20)
#    0.000    0.857    1.429    4.714    6.000    6.286 
#    0.000    0.000    0.000    0.000    0.000    0.000 
#    0.000    0.000    0.000    0.000    0.000    0.000 
#
# Total GULP energy -173717.473462 kJ/mol
# GULP energy per Si atom -12408.390962 kJ/mol
# Density = 2.198771 g / cm^3
# Si number density = 22.037874 Si / 1000 Ang^3
#
#
#
# Elastic Constant Matrix: (Units=GPa)
#
#
# Indices 1 2 3 4 5 6 
#
# 1 56.2715 -1.7555 30.2205 -10.4018 5.8298 8.6293
# 2 -1.7555 71.5001 39.1645 -17.8031 -3.7525 13.4176
# 3 30.2205 39.1645 127.6879 -17.5974 5.4951 7.7297
# 4 -10.4018 -17.8031 -17.5974 31.6251 1.2497 -1.5230
# 5 5.8298 -3.7525 5.4951 1.2497 44.8386 -1.8878
# 6 8.6293 13.4176 7.7297 -1.5230 -1.8878 43.6983
#
#
#
# Elastic Compliance Matrix: (Units=1/GPa)
#
#
# Indices 1 2 3 4 5 6 
#
# 1 0.023931 0.006963 -0.006245 0.008135 -0.002225 -0.005572
# 2 0.006963 0.021586 -0.006483 0.010479 0.001132 -0.006442
# 3 -0.006245 -0.006483 0.011373 0.000725 -0.001095 0.001190
# 4 0.008135 0.010479 0.000725 0.040486 -0.001550 -0.003608
# 5 -0.002225 0.001132 -0.001095 -0.001550 0.022915 0.001221
# 6 -0.005572 -0.006442 0.001190 -0.003608 0.001221 0.025679
#
#
# Mechanical properties :
#
#
# Convention : Reuss Voigt Hill
#
# Bulk Modulus (GPa) = 22.04658 43.41315 32.72987
# Shear Modulus (GPa) = 28.96516 36.55440 32.75978
#
# Velocity S-wave (km/s) = 3.62931 4.07714 3.85973
# Velocity P-wave (km/s) = 5.25245 6.47350 5.89468
#
# Compressibility (1/GPa) = 0.04535851
#
# Stress axis : x y z
#
# Youngs Moduli (GPa) = 41.78694 46.32675 87.92552
#
# Poissons Ratio (x) = -0.32257 0.54912
# Poissons Ratio (y) = -0.29096 0.57005
# Poissons Ratio (z) = 0.26097 0.30035
#
# Static dielectric constant tensor:
#      x y z
#    x 3.903610 0.049090 0.128940 
#    y 0.049090 4.048780 -0.042820 
#    z 0.128940 -0.042820 4.102270 
# 
# 
# High freq. dielectric constant tensor:
#      x y z
#    x 1.867340 0.004220 0.009780 
#    y 0.004220 1.877760 -0.003370 
#    z 0.009780 -0.003370 1.878880 
# 
# From -- ./inp_files/27175.got.cif
#   From: 2010.06.25/outbox.cif.g09.slc.cpg/sg2_14_cif.got.tgz:27175.got - 2010.06.27 13:26:56.
