data_PCOD8020879
_publ_section_title
;
Structure prediction by ZEFSAII (Michael W. Deem and Ramdas Pophale) SiO2 
 PCOD8020879
Probable space group: P -1
;
_chemical_formula_sum "Si O2"
_cell_formula_units_Z 14
_cell_length_a 8.734648
_cell_length_b 11.468435
_cell_length_c 8.403632
_cell_angle_alpha 83.654518
_cell_angle_beta 54.637874
_cell_angle_gamma 108.995435
_cell_volume 598.373764
_symmetry_space_group_name_H-M "P -1"
_symmetry_group_IT_number 2
_symmetry_cell_setting 'triclinic'
loop_
_space_group_symop_operation_xyz
x,y,z
-x,-y,-z
loop_
_atom_site_type_symbol
_atom_site_label
_atom_site_fract_x
_atom_site_fract_y
_atom_site_fract_z
Si Si1 0.183000 0.170556 0.701538
Si Si2 0.308879 0.377899 0.321094
Si Si3 0.917655 0.284885 0.348302
Si Si4 0.824128 0.181750 0.087385
Si Si5 0.453519 0.751515 0.953224
Si Si6 0.346753 0.018477 0.423770
Si Si7 0.570730 0.337325 0.673065
O O1 0.188643 0.264389 0.540762
O O2 0.216230 0.048511 0.635979
O O3 0.366079 0.257620 0.701371
O O4 0.953773 0.114928 0.935691
O O5 0.502548 0.365040 0.124214
O O6 0.411866 0.521477 0.318262
O O7 0.143155 0.366137 0.286288
O O8 0.959580 0.278083 0.136189
O O9 0.782332 0.362406 0.445700
O O10 0.781807 0.135295 0.523781
O O11 0.773636 0.269401 0.975835
O O12 0.596965 0.066254 0.316785
O O13 0.641013 0.895827 0.755376
O O14 0.450273 0.750062 0.144822
#
# Coordination Sequence:
#
# PCOD8020879 Si02
#       7
#     2   2   2   2   2   2   2
#     4  11  23  43  70  94 128 173 212 268 326 372
#     4  11  24  43  63  97 131 171 219 262 317 383
#     4  12  23  42  67  94 135 169 210 270 320 381
#     4  10  22  43  65 101 126 167 212 263 329 379
#     4   9  22  42  64  94 133 162 217 269 314 382
#     4   9  23  45  65  96 135 158 220 265 323 381
#     4  12  23  42  66  95 132 173 215 264 317 385
#
# _framework density 23.396746
#
# number of rings (size 3 to 8) (size 9 to 14) (size 15 to 20)
#    0.857    0.571    1.429    3.429    0.000    3.429 
#    2.571    2.143    0.000    0.000    0.000    0.000 
#    0.000    0.000    0.000    0.000    0.000    0.000 
#
# Total GULP energy -173618.341090 kJ/mol
# GULP energy per Si atom -12401.310078 kJ/mol
# Density = 2.334349 g / cm^3
# Si number density = 23.396746 Si / 1000 Ang^3
#
#
#
# Elastic Constant Matrix: (Units=GPa)
#
#
# Indices 1 2 3 4 5 6 
#
# 1 94.1810 -1.8685 27.7754 10.8621 -18.6149 0.3553
# 2 -1.8685 55.3902 -11.7926 14.2450 -18.9109 -1.1261
# 3 27.7754 -11.7926 113.5518 26.9900 -16.5564 -8.9307
# 4 10.8621 14.2450 26.9900 26.2813 -11.9480 -4.1006
# 5 -18.6149 -18.9109 -16.5564 -11.9480 30.7432 16.2847
# 6 0.3553 -1.1261 -8.9307 -4.1006 16.2847 25.9433
#
#
#
# Elastic Compliance Matrix: (Units=1/GPa)
#
#
# Indices 1 2 3 4 5 6 
#
# 1 0.014967 0.007354 -0.000377 -0.003239 0.018583 -0.012192
# 2 0.007354 0.038376 0.011062 -0.021794 0.036741 -0.021134
# 3 -0.000377 0.011062 0.015440 -0.017818 0.009566 -0.003021
# 4 -0.003239 -0.021794 -0.017818 0.070229 0.000265 0.003898
# 5 0.018583 0.036741 0.009566 0.000265 0.103606 -0.060359
# 6 -0.012192 -0.021134 -0.003021 0.003898 -0.060359 0.075259
#
#
# Mechanical properties :
#
#
# Convention : Reuss Voigt Hill
#
# Bulk Modulus (GPa) = 9.53644 32.37241 20.95442
# Shear Modulus (GPa) = 15.78514 33.19413 24.48964
#
# Velocity S-wave (km/s) = 2.60026 3.77072 3.23880
# Velocity P-wave (km/s) = 3.61939 5.72923 4.79187
#
# Compressibility (1/GPa) = 0.10486096
#
# Stress axis : x y z
#
# Youngs Moduli (GPa) = 66.81215 26.05812 64.76709
#
# Poissons Ratio (x) = -0.19164 0.02440
# Poissons Ratio (y) = -0.49135 -0.71642
# Poissons Ratio (z) = 0.02518 -0.28824
#
# Static dielectric constant tensor:
#      x y z
#    x 4.260020 -0.266130 0.034330 
#    y -0.266130 3.850140 0.233910 
#    z 0.034330 0.233910 4.277580 
# 
# 
# High freq. dielectric constant tensor:
#      x y z
#    x 1.936750 -0.017270 0.005840 
#    y -0.017270 1.906970 0.017380 
#    z 0.005840 0.017380 1.933180 
# 
# From -- ./inp_files/179818.got.cif
#   From: 2010.06.25/outbox.cif.g09.slc.cpg/sg2_90_cif.got.tgz:179818.got - 2010.06.27 13:26:56.
