data_PCOD8020334
_publ_section_title
;
Structure prediction by ZEFSAII (Michael W. Deem and Ramdas Pophale) SiO2 
 PCOD8020334
Probable space group: P -1
;
_chemical_formula_sum "Si O2"
_cell_formula_units_Z 16
_cell_length_a 15.930951
_cell_length_b 18.646750
_cell_length_c 5.862956
_cell_angle_alpha 110.935057
_cell_angle_beta 120.462968
_cell_angle_gamma 29.375443
_cell_volume 721.547646
_symmetry_space_group_name_H-M "P -1"
_symmetry_group_IT_number 2
_symmetry_cell_setting 'triclinic'
loop_
_space_group_symop_operation_xyz
x,y,z
-x,-y,-z
loop_
_atom_site_type_symbol
_atom_site_label
_atom_site_fract_x
_atom_site_fract_y
_atom_site_fract_z
Si Si1 0.227910 0.175484 0.628659
Si Si2 0.644452 0.379868 0.254449
Si Si3 0.542499 0.069976 0.976970
Si Si4 0.558967 0.740126 0.606946
Si Si5 0.108286 0.849206 0.016317
Si Si6 0.506565 0.380884 0.450447
Si Si7 0.949470 0.495311 0.674414
Si Si8 0.777613 0.973438 0.809136
O O1 0.391549 0.120518 0.685309
O O2 0.180511 0.141472 0.344702
O O3 0.040816 0.349253 0.629376
O O4 0.308721 0.085642 0.870496
O O5 0.848814 0.221156 0.248174
O O6 0.563610 0.357625 0.240697
O O7 0.655452 0.446216 0.513268
O O8 0.500000 0.500000 0.000000
O O9 0.661850 0.048355 0.967233
O O10 0.411120 0.209816 0.120876
O O11 0.574815 0.648751 0.658297
O O12 0.722261 0.636686 0.523218
O O13 0.348746 0.891572 0.386733
O O14 0.976240 0.881776 0.019350
O O15 0.304574 0.732764 0.274820
O O16 0.000000 0.000000 0.000000
O O17 0.000000 0.500000 0.500000
O O18 0.000000 0.500000 0.000000
#
# Coordination Sequence:
#
# PCOD8020334 Si02
#       8
#     2   2   2   2   2   2   2   2
#     4  10  23  43  66  96 134 173 227 285 344 417
#     4   9  22  43  63  88 128 177 223 276 342 398
#     4  10  22  42  67  95 133 171 227 275 354 412
#     4  11  24  41  68  99 131 178 229 281 356 415
#     4  11  23  41  63  96 134 168 232 278 339 407
#     4  10  22  43  66  92 134 179 222 285 341 414
#     4  12  27  48  72 105 143 184 236 293 357 423
#     4  11  24  41  67  97 130 184 223 284 345 421
#
# _framework density 22.174555999999999
#
# number of rings (size 3 to 8) (size 9 to 14) (size 15 to 20)
#    0.000    1.500    2.500    1.125    5.250    2.500 
#    4.500    0.000    0.000    0.000    0.000    0.000 
#    0.000    0.000    0.000    0.000    0.000    0.000 
#
# Total GULP energy -198288.000834 kJ/mol
# GULP energy per Si atom -12393.000052 kJ/mol
# Density = 2.212409 g / cm^3
# Si number density = 22.174556 Si / 1000 Ang^3
#
#
#
# Elastic Constant Matrix: (Units=GPa)
#
#
# Indices 1 2 3 4 5 6 
#
# 1 150.7421 54.9726 21.5053 8.2463 -9.6321 -1.2320
# 2 54.9726 161.7995 20.4944 13.7691 -3.6967 3.6434
# 3 21.5053 20.4944 47.4336 4.3672 -7.2913 -0.7890
# 4 8.2463 13.7691 4.3672 14.8432 -5.6886 -3.1654
# 5 -9.6321 -3.6967 -7.2913 -5.6886 37.2668 0.1293
# 6 -1.2320 3.6434 -0.7890 -3.1654 0.1293 37.9852
#
#
#
# Elastic Compliance Matrix: (Units=1/GPa)
#
#
# Indices 1 2 3 4 5 6 
#
# 1 0.007939 -0.002293 -0.002319 -0.001067 0.001207 0.000336
# 2 -0.002293 0.007724 -0.001937 -0.006040 -0.001123 -0.001355
# 3 -0.002319 -0.001937 0.023740 -0.002487 0.003472 0.000385
# 4 -0.001067 -0.006040 -0.002487 0.079964 0.010820 0.007120
# 5 0.001207 -0.001123 0.003472 0.010820 0.029361 0.001021
# 6 0.000336 -0.001355 0.000385 0.007120 0.001021 0.027065
#
#
# Mechanical properties :
#
#
# Convention : Reuss Voigt Hill
#
# Bulk Modulus (GPa) = 38.01611 61.54667 49.78139
# Shear Modulus (GPa) = 25.29620 35.55257 30.42438
#
# Velocity S-wave (km/s) = 3.38120 4.00847 3.70812
# Velocity P-wave (km/s) = 5.69426 7.01709 6.39000
#
# Compressibility (1/GPa) = 0.02630464
#
# Stress axis : x y z
#
# Youngs Moduli (GPa) = 125.95881 129.47213 42.12382
#
# Poissons Ratio (x) = 0.29685 0.09770
# Poissons Ratio (y) = 0.28879 0.08158
# Poissons Ratio (z) = 0.29216 0.25074
#
# Static dielectric constant tensor:
#      x y z
#    x 4.340330 0.050710 -0.447030 
#    y 0.050710 4.902070 0.130420 
#    z -0.447030 0.130420 4.162660 
# 
# 
# High freq. dielectric constant tensor:
#      x y z
#    x 1.875540 0.004510 -0.009140 
#    y 0.004510 1.893960 0.005530 
#    z -0.009140 0.005530 1.847260 
# 
# From -- ./inp_files/37949.got.cif
#   From: 2010.06.25/outbox.cif.g09.slc.cpg/sg2_19_cif.got.tgz:37949.got - 2010.06.27 13:26:56.
