data_PCOD8020136
_publ_section_title
;
Structure prediction by ZEFSAII (Michael W. Deem and Ramdas Pophale) SiO2 
 PCOD8020136
Probable space group: P -1
;
_chemical_formula_sum "Si O2"
_cell_formula_units_Z 12
_cell_length_a 9.019507
_cell_length_b 22.684688
_cell_length_c 8.284550
_cell_angle_alpha 139.032136
_cell_angle_beta 50.234228
_cell_angle_gamma 150.898407
_cell_volume 539.435727
_symmetry_space_group_name_H-M "P -1"
_symmetry_group_IT_number 2
_symmetry_cell_setting 'triclinic'
loop_
_space_group_symop_operation_xyz
x,y,z
-x,-y,-z
loop_
_atom_site_type_symbol
_atom_site_label
_atom_site_fract_x
_atom_site_fract_y
_atom_site_fract_z
Si Si1 0.292874 0.964303 0.434425
Si Si2 0.815333 0.508324 0.792463
Si Si3 0.763035 0.294944 0.369906
Si Si4 0.130399 0.829337 0.741770
Si Si5 0.067706 0.001372 0.271424
Si Si6 0.207775 0.324750 0.677141
O O1 0.181469 0.023529 0.692667
O O2 0.997341 0.792610 0.276971
O O3 0.500000 0.000000 0.500000
O O4 0.500081 0.037498 0.277794
O O5 0.838033 0.416212 0.660427
O O6 0.545373 0.408154 0.638617
O O7 0.114438 0.650045 0.783180
O O8 0.765524 0.557996 0.077871
O O9 0.926671 0.274037 0.311514
O O10 0.405459 0.151057 0.297341
O O11 0.929140 0.745782 0.548537
O O12 0.015393 0.878550 0.009947
O O13 0.000000 0.000000 0.500000
#
# Coordination Sequence:
#
# PCOD8020136 Si02
#       6
#     2   2   2   2   2   2
#     4  10  22  42  66 100 126 165 210 273 324 375
#     4  10  23  42  67  90 129 177 217 257 315 386
#     4  11  23  42  64  97 128 174 217 261 319 388
#     4  11  25  42  66 101 131 164 216 272 324 376
#     4  12  24  41  68  98 129 169 211 271 327 378
#     4  10  22  43  65  93 129 172 214 265 318 384
#
# _framework density 22.245469
#
# number of rings (size 3 to 8) (size 9 to 14) (size 15 to 20)
#    0.000    1.333    3.333    1.500    2.333    4.000 
#   12.000    0.000    0.000    0.000    0.000    0.000 
#    0.000    0.000    0.000    0.000    0.000    0.000 
#
# Total GULP energy -148713.355133 kJ/mol
# GULP energy per Si atom -12392.779594 kJ/mol
# Density = 2.219484 g / cm^3
# Si number density = 22.245469 Si / 1000 Ang^3
#
#
#
# Elastic Constant Matrix: (Units=GPa)
#
#
# Indices 1 2 3 4 5 6 
#
# 1 129.1270 42.5856 77.0251 5.2300 -37.1157 -2.9864
# 2 42.5856 86.6631 33.9715 5.5903 -7.3527 7.0339
# 3 77.0251 33.9715 169.1984 3.4256 -34.1885 -0.6636
# 4 5.2300 5.5903 3.4256 19.5228 1.2330 -11.2441
# 5 -37.1157 -7.3527 -34.1885 1.2330 47.8894 5.3614
# 6 -2.9864 7.0339 -0.6636 -11.2441 5.3614 34.4020
#
#
#
# Elastic Compliance Matrix: (Units=1/GPa)
#
#
# Indices 1 2 3 4 5 6 
#
# 1 0.013661 -0.004496 -0.003821 -0.002010 0.007193 0.000253
# 2 -0.004496 0.014856 -0.001096 -0.005729 -0.001265 -0.005124
# 3 -0.003821 -0.001096 0.008493 -0.000718 0.003025 -0.000650
# 4 -0.002010 -0.005729 -0.000718 0.068037 -0.007431 0.024379
# 5 0.007193 -0.001265 0.003025 -0.007431 0.029290 -0.006052
# 6 0.000253 -0.005124 -0.000650 0.024379 -0.006052 0.039036
#
#
# Mechanical properties :
#
#
# Convention : Reuss Voigt Hill
#
# Bulk Modulus (GPa) = 54.99223 76.90587 65.94905
# Shear Modulus (GPa) = 25.21934 35.78994 30.50464
#
# Velocity S-wave (km/s) = 3.37068 4.01542 3.70709
# Velocity P-wave (km/s) = 6.31846 7.49297 6.93064
#
# Compressibility (1/GPa) = 0.01818439
#
# Stress axis : x y z
#
# Youngs Moduli (GPa) = 73.20004 67.31397 117.74459
#
# Poissons Ratio (x) = 0.30262 0.44994
# Poissons Ratio (y) = 0.32909 0.12902
# Poissons Ratio (z) = 0.27972 0.07376
#
# Static dielectric constant tensor:
#      x y z
#    x 6.367030 0.843150 -3.415440 
#    y 0.843150 5.554880 -1.329580 
#    z -3.415440 -1.329580 7.907960 
# 
# 
# High freq. dielectric constant tensor:
#      x y z
#    x 1.875340 0.002550 -0.032720 
#    y 0.002550 1.883180 -0.000040 
#    z -0.032720 -0.000040 1.869620 
# 
# From -- ./inp_files/224653.got.cif
#   From: 2010.06.25/outbox.cif.g09.slc.cpg/sg2_113_cif.got.tgz:224653.got - 2010.06.27 13:26:56.
