data_PCOD8020801
_publ_section_title
;
Structure prediction by ZEFSAII (Michael W. Deem and Ramdas Pophale) SiO2 
 PCOD8020801
Probable space group: P -1
;
_chemical_formula_sum "Si O2"
_cell_formula_units_Z 16
_cell_length_a 8.649356
_cell_length_b 12.269272
_cell_length_c 11.781819
_cell_angle_alpha 116.654978
_cell_angle_beta 125.070692
_cell_angle_gamma 48.410236
_cell_volume 760.717162
_symmetry_space_group_name_H-M "P -1"
_symmetry_group_IT_number 2
_symmetry_cell_setting 'triclinic'
loop_
_space_group_symop_operation_xyz
x,y,z
-x,-y,-z
loop_
_atom_site_type_symbol
_atom_site_label
_atom_site_fract_x
_atom_site_fract_y
_atom_site_fract_z
Si Si1 0.038595 0.403796 0.768861
Si Si2 0.319500 0.900681 0.614789
Si Si3 0.076508 0.694028 0.107593
Si Si4 0.068883 0.950916 0.318157
Si Si5 0.568308 0.588267 0.996036
Si Si6 0.166429 0.267202 0.196915
Si Si7 0.724870 0.362695 0.475170
Si Si8 0.138613 0.755333 0.762513
O O1 0.055008 0.324736 0.855848
O O2 0.861507 0.579886 0.771745
O O3 0.957271 0.341934 0.607530
O O4 0.294868 0.364350 0.844787
O O5 0.572204 0.855907 0.724345
O O6 0.277949 0.773041 0.549181
O O7 0.150681 0.021398 0.691915
O O8 0.248434 0.953515 0.479224
O O9 0.273394 0.525892 0.087564
O O10 0.173924 0.792743 0.229071
O O11 0.912658 0.776880 0.969217
O O12 0.002811 0.075924 0.255962
O O13 0.346291 0.730557 0.915608
O O14 0.500000 0.500000 0.000000
O O15 0.019156 0.280287 0.249832
O O16 0.500000 0.500000 0.500000
O O17 0.745448 0.361478 0.346904
#
# Coordination Sequence:
#
# PCOD8020801 Si02
#       8
#     2   2   2   2   2   2   2   2
#     4  11  22  39  65  99 124 164 216 265 311 373
#     4  10  22  43  63  91 130 167 216 269 313 376
#     4  11  23  41  68  96 125 170 218 261 313 387
#     4  10  24  43  65  90 127 173 219 260 317 379
#     4  11  22  43  63  95 137 163 204 264 324 375
#     4  11  23  41  63  98 133 164 212 266 326 378
#     4  11  21  39  68  95 124 167 219 264 311 375
#     4  11  25  43  64  96 135 171 204 268 326 380
#
# _framework density 21.032785000000001
#
# number of rings (size 3 to 8) (size 9 to 14) (size 15 to 20)
#    0.000    1.250    5.000    2.250    5.250    2.000 
#    2.250    0.000    0.000    0.000    0.000    0.000 
#    0.000    0.000    0.000    0.000    0.000    0.000 
#
# Total GULP energy -198297.768822 kJ/mol
# GULP energy per Si atom -12393.610551 kJ/mol
# Density = 2.098491 g / cm^3
# Si number density = 21.032785 Si / 1000 Ang^3
#
#
#
# Elastic Constant Matrix: (Units=GPa)
#
#
# Indices 1 2 3 4 5 6 
#
# 1 81.5565 14.3974 38.1338 -13.9941 7.6574 9.6962
# 2 14.3974 63.8060 19.9918 -17.3254 1.5122 9.3146
# 3 38.1338 19.9918 98.2427 -21.9385 11.1155 4.3401
# 4 -13.9941 -17.3254 -21.9385 44.4614 0.5224 3.1955
# 5 7.6574 1.5122 11.1155 0.5224 23.4040 -9.4537
# 6 9.6962 9.3146 4.3401 3.1955 -9.4537 30.6168
#
#
#
# Elastic Compliance Matrix: (Units=1/GPa)
#
#
# Indices 1 2 3 4 5 6 
#
# 1 0.016370 -0.000239 -0.004599 0.003336 -0.005910 -0.006633
# 2 -0.000239 0.019357 -0.001463 0.007329 -0.003673 -0.007505
# 3 -0.004599 -0.001463 0.014281 0.005294 -0.006369 -0.002642
# 4 0.003336 0.007329 0.005294 0.029819 -0.008720 -0.009841
# 5 -0.005910 -0.003673 -0.006369 -0.008720 0.057191 0.022461
# 6 -0.006633 -0.007505 -0.002642 -0.009841 0.022461 0.045383
#
#
# Mechanical properties :
#
#
# Convention : Reuss Voigt Hill
#
# Bulk Modulus (GPa) = 26.73227 43.18346 34.95786
# Shear Modulus (GPa) = 24.09977 31.10194 27.60085
#
# Velocity S-wave (km/s) = 3.38867 3.84961 3.62647
# Velocity P-wave (km/s) = 5.29605 6.35101 5.84737
#
# Compressibility (1/GPa) = 0.03740798
#
# Stress axis : x y z
#
# Youngs Moduli (GPa) = 61.08810 51.66006 70.02260
#
# Poissons Ratio (x) = 0.01232 0.32202
# Poissons Ratio (y) = 0.01457 0.10243
# Poissons Ratio (z) = 0.28093 0.07557
#
# Static dielectric constant tensor:
#      x y z
#    x 3.573760 -0.087410 -0.265550 
#    y -0.087410 4.212060 0.206640 
#    z -0.265550 0.206640 4.190270 
# 
# 
# High freq. dielectric constant tensor:
#      x y z
#    x 1.810140 0.009380 0.000340 
#    y 0.009380 1.818510 -0.015300 
#    z 0.000340 -0.015300 1.833380 
# 
# From -- ./inp_files/223696.got.cif
#   From: 2010.06.25/outbox.cif.g09.slc.cpg/sg2_112_cif.got.tgz:223696.got - 2010.06.27 13:26:56.
