data_PCOD8020966
_publ_section_title
;
Structure prediction by ZEFSAII (Michael W. Deem and Ramdas Pophale) SiO2 
 PCOD8020966
Probable space group: P -1
;
_chemical_formula_sum "Si O2"
_cell_formula_units_Z 14
_cell_length_a 12.544820
_cell_length_b 9.758092
_cell_length_c 9.342306
_cell_angle_alpha 46.929326
_cell_angle_beta 55.507847
_cell_angle_gamma 54.831096
_cell_volume 653.660307
_symmetry_space_group_name_H-M "P -1"
_symmetry_group_IT_number 2
_symmetry_cell_setting 'triclinic'
loop_
_space_group_symop_operation_xyz
x,y,z
-x,-y,-z
loop_
_atom_site_type_symbol
_atom_site_label
_atom_site_fract_x
_atom_site_fract_y
_atom_site_fract_z
Si Si1 0.359540 0.251669 0.305525
Si Si2 0.030598 0.123684 0.515803
Si Si3 0.664556 0.092438 0.233609
Si Si4 0.873754 0.225069 0.124294
Si Si5 0.789636 0.668870 0.915339
Si Si6 0.177556 0.207476 0.884001
Si Si7 0.131493 0.525633 0.459866
O O1 0.512976 0.244844 0.228152
O O2 0.341572 0.252584 0.144886
O O3 0.256741 0.456046 0.302619
O O4 0.327345 0.063689 0.532811
O O5 0.087566 0.295000 0.293622
O O6 0.902696 0.244028 0.628748
O O7 0.140979 0.953607 0.640111
O O8 0.000000 0.000000 0.500000
O O9 0.767663 0.222122 0.081462
O O10 0.704308 0.976751 0.137269
O O11 0.826917 0.436566 0.087291
O O12 0.031635 0.172552 0.998197
O O13 0.776466 0.780855 0.995751
O O14 0.173483 0.401516 0.661681
O O15 0.000000 0.500000 0.500000
#
# Coordination Sequence:
#
# PCOD8020966 Si02
#       7
#     2   2   2   2   2   2   2
#     4  10  22  43  66  88 131 168 212 254 316 368
#     4  12  22  38  64  97 129 163 201 260 322 367
#     4  10  23  41  66  92 124 172 213 255 306 383
#     4  12  22  38  67  95 125 160 215 256 311 370
#     4  12  23  41  63  96 132 161 204 268 312 368
#     4  11  22  38  64  98 127 160 211 263 312 367
#     4  11  20  40  66  91 126 168 207 260 311 366
#
# _framework density 21.417852
#
# number of rings (size 3 to 8) (size 9 to 14) (size 15 to 20)
#    0.000    0.857    5.714    2.571    0.000    2.286 
#    0.000    0.000    3.143    3.429    0.000    0.000 
#    0.000    0.000    0.000    0.000    0.000    0.000 
#
# Total GULP energy -173483.405001 kJ/mol
# GULP energy per Si atom -12391.671786 kJ/mol
# Density = 2.136910 g / cm^3
# Si number density = 21.417852 Si / 1000 Ang^3
#
#
#
# Elastic Constant Matrix: (Units=GPa)
#
#
# Indices 1 2 3 4 5 6 
#
# 1 123.7527 78.9031 43.6780 7.8693 4.7142 1.0875
# 2 78.9031 156.5424 39.4367 0.2823 -5.8826 0.1885
# 3 43.6780 39.4367 65.0772 6.9294 13.6575 7.9826
# 4 7.8693 0.2823 6.9294 26.9428 6.1873 -0.6603
# 5 4.7142 -5.8826 13.6575 6.1873 26.0102 0.8712
# 6 1.0875 0.1885 7.9826 -0.6603 0.8712 27.3417
#
#
#
# Elastic Compliance Matrix: (Units=1/GPa)
#
#
# Indices 1 2 3 4 5 6 
#
# 1 0.013762 -0.005492 -0.005751 -0.002414 -0.000180 0.001117
# 2 -0.005492 0.010327 -0.003915 0.001378 0.005020 0.001164
# 3 -0.005751 -0.003915 0.025251 -0.002097 -0.012376 -0.006773
# 4 -0.002414 0.001378 -0.002097 0.040177 -0.007771 0.001917
# 5 -0.000180 0.005020 -0.012376 -0.007771 0.047899 0.001872
# 6 0.001117 0.001164 -0.006773 0.001917 0.001872 0.038486
#
#
# Mechanical properties :
#
#
# Convention : Reuss Voigt Hill
#
# Bulk Modulus (GPa) = 52.56676 74.37865 63.47271
# Shear Modulus (GPa) = 23.52275 28.28257 25.90266
#
# Velocity S-wave (km/s) = 3.31762 3.63783 3.48141
# Velocity P-wave (km/s) = 6.26675 7.24209 6.77200
#
# Compressibility (1/GPa) = 0.01902343
#
# Stress axis : x y z
#
# Youngs Moduli (GPa) = 72.66129 96.83158 39.60296
#
# Poissons Ratio (x) = 0.53177 0.22777
# Poissons Ratio (y) = 0.39903 0.15507
# Poissons Ratio (z) = 0.41790 0.37914
#
# Static dielectric constant tensor:
#      x y z
#    x 3.889140 0.164960 -0.097220 
#    y 0.164960 3.729240 0.120880 
#    z -0.097220 0.120880 3.726990 
# 
# 
# High freq. dielectric constant tensor:
#      x y z
#    x 1.830910 0.008320 0.018560 
#    y 0.008320 1.838800 -0.012880 
#    z 0.018560 -0.012880 1.837620 
# 
# From -- ./inp_files/202908.got.cif
#   From: 2010.06.25/outbox.cif.g09.slc.cpg/sg2_102_cif.got.tgz:202908.got - 2010.06.27 13:26:56.
