data_PCOD8020708
_publ_section_title
;
Structure prediction by ZEFSAII (Michael W. Deem and Ramdas Pophale) SiO2 
 PCOD8020708
Probable space group: P -1
;
_chemical_formula_sum "Si O2"
_cell_formula_units_Z 14
_cell_length_a 5.541798
_cell_length_b 19.283782
_cell_length_c 5.220402
_cell_angle_alpha 103.748345
_cell_angle_beta 85.537238
_cell_angle_gamma 92.818607
_cell_volume 539.989492
_symmetry_space_group_name_H-M "P -1"
_symmetry_group_IT_number 2
_symmetry_cell_setting 'triclinic'
loop_
_space_group_symop_operation_xyz
x,y,z
-x,-y,-z
loop_
_atom_site_type_symbol
_atom_site_label
_atom_site_fract_x
_atom_site_fract_y
_atom_site_fract_z
Si Si1 0.155065 0.721883 0.439430
Si Si2 0.386599 0.781683 0.990993
Si Si3 0.256783 0.324440 0.247468
Si Si4 0.486796 0.918820 0.838478
Si Si5 0.582021 0.414713 0.640052
Si Si6 0.179276 0.453736 0.104180
Si Si7 0.000746 0.951936 0.705924
O O1 0.300976 0.757767 0.694488
O O2 0.235619 0.642011 0.305437
O O3 0.872815 0.715929 0.538495
O O4 0.187157 0.768974 0.218953
O O5 0.625341 0.735942 0.994917
O O6 0.452240 0.866087 0.039136
O O7 0.466585 0.381386 0.364621
O O8 0.070154 0.377894 0.164634
O O9 0.250814 0.907431 0.658872
O O10 0.750028 0.902817 0.674049
O O11 0.500000 0.000000 0.000000
O O12 0.722304 0.490528 0.633276
O O13 0.391075 0.427488 0.886596
O O14 0.000000 0.500000 0.000000
O O15 0.000000 0.000000 0.500000
O O16 0.000000 0.000000 0.000000
#
# Coordination Sequence:
#
# PCOD8020708 Si02
#       7
#     2   2   2   2   2   2   2
#     4  11  26  45  74 100 147 192 245 299 373 448
#     4  11  27  47  71 107 145 193 248 301 372 453
#     4  11  25  45  70  96 146 191 241 300 375 440
#     4  10  24  48  76 114 151 197 250 318 375 451
#     4  10  23  42  63 100 137 181 241 298 362 434
#     4  11  23  39  71 100 137 183 243 306 366 431
#     4  10  22  42  72 107 147 187 234 300 371 439
#
# _framework density 25.926428000000001
#
# number of rings (size 3 to 8) (size 9 to 14) (size 15 to 20)
#    0.000    1.429    1.429    1.714    6.000    8.000 
#    0.000    0.000    0.000    0.000    0.000    0.000 
#    0.000    0.000    0.000    0.000    0.000    0.000 
#
# Total GULP energy -173458.623710 kJ/mol
# GULP energy per Si atom -12389.901694 kJ/mol
# Density = 2.586742 g / cm^3
# Si number density = 25.926428 Si / 1000 Ang^3
#
#
#
# Elastic Constant Matrix: (Units=GPa)
#
#
# Indices 1 2 3 4 5 6 
#
# 1 148.0234 34.6523 15.2249 -20.6424 -6.9145 6.7923
# 2 34.6523 185.5166 39.7140 -34.5843 -10.6395 -0.6149
# 3 15.2249 39.7140 91.2344 -25.4134 -7.6372 1.0599
# 4 -20.6424 -34.5843 -25.4134 50.2693 4.7077 -6.4901
# 5 -6.9145 -10.6395 -7.6372 4.7077 20.5227 -18.2484
# 6 6.7923 -0.6149 1.0599 -6.4901 -18.2484 28.2426
#
#
#
# Elastic Compliance Matrix: (Units=1/GPa)
#
#
# Indices 1 2 3 4 5 6 
#
# 1 0.007354 -0.000899 -0.000169 0.002142 0.000731 -0.000818
# 2 -0.000899 0.006998 -0.001265 0.003900 0.007348 0.006060
# 3 -0.000169 -0.001265 0.013927 0.006124 0.009080 0.006765
# 4 0.002142 0.003900 0.006124 0.027182 0.008824 0.011288
# 5 0.000731 0.007348 0.009080 0.008824 0.130733 0.086142
# 6 -0.000818 0.006060 0.006765 0.011288 0.086142 0.093735
#
#
# Mechanical properties :
#
#
# Convention : Reuss Voigt Hill
#
# Bulk Modulus (GPa) = 42.34904 67.10631 54.72768
# Shear Modulus (GPa) = 17.09601 42.15247 29.62424
#
# Velocity S-wave (km/s) = 2.57067 4.03656 3.38394
# Velocity P-wave (km/s) = 5.01806 6.90396 6.03513
#
# Compressibility (1/GPa) = 0.02361329
#
# Stress axis : x y z
#
# Youngs Moduli (GPa) = 135.98333 142.90658 71.80299
#
# Poissons Ratio (x) = 0.12848 0.01210
# Poissons Ratio (y) = 0.12225 0.09083
# Poissons Ratio (z) = 0.02292 0.18078
#
# Static dielectric constant tensor:
#      x y z
#    x 5.580950 0.052410 -0.184180 
#    y 0.052410 5.021050 -0.049690 
#    z -0.184180 -0.049690 4.415830 
# 
# 
# High freq. dielectric constant tensor:
#      x y z
#    x 2.041130 -0.003490 -0.008200 
#    y -0.003490 2.047150 -0.005800 
#    z -0.008200 -0.005800 2.015240 
# 
# From -- ./inp_files/8089.got.cif
#   From: 2010.06.25/outbox.cif.g09.slc.cpg/sg2_5_cif.got.tgz:8089.got - 2010.06.27 13:26:56.
