data_PCOD8020851
_publ_section_title
;
Structure prediction by ZEFSAII (Michael W. Deem and Ramdas Pophale) SiO2 
 PCOD8020851
Probable space group: P -1
;
_chemical_formula_sum "Si O2"
_cell_formula_units_Z 16
_cell_length_a 15.722861
_cell_length_b 8.697656
_cell_length_c 9.597920
_cell_angle_alpha 41.579318
_cell_angle_beta 65.923626
_cell_angle_gamma 79.825289
_cell_volume 777.196769
_symmetry_space_group_name_H-M "P -1"
_symmetry_group_IT_number 2
_symmetry_cell_setting 'triclinic'
loop_
_space_group_symop_operation_xyz
x,y,z
-x,-y,-z
loop_
_atom_site_type_symbol
_atom_site_label
_atom_site_fract_x
_atom_site_fract_y
_atom_site_fract_z
Si Si1 0.448595 0.862709 0.497541
Si Si2 0.232978 0.848251 0.670934
Si Si3 0.879254 0.772253 0.590100
Si Si4 0.953779 0.032526 0.861353
Si Si5 0.209758 0.749044 0.067155
Si Si6 0.523888 0.622451 0.253787
Si Si7 0.594896 0.085100 0.016017
Si Si8 0.091140 0.386407 0.024141
O O1 0.343639 0.910727 0.518099
O O2 0.440989 0.579993 0.722443
O O3 0.500000 0.000000 0.500000
O O4 0.506407 0.968046 0.251829
O O5 0.181589 0.027109 0.503781
O O6 0.215522 0.877751 0.827019
O O7 0.188178 0.584558 0.825254
O O8 0.810100 0.530965 0.751113
O O9 0.918307 0.763133 0.726032
O O10 0.968146 0.825724 0.390962
O O11 0.906790 0.777340 0.000864
O O12 0.872405 0.181182 0.832372
O O13 0.000000 0.000000 0.000000
O O14 0.309224 0.828156 0.024108
O O15 0.500000 0.500000 0.500000
O O16 0.603576 0.869201 0.050130
O O17 0.430210 0.690055 0.200232
O O18 0.000000 0.500000 0.000000
#
# Coordination Sequence:
#
# PCOD8020851 Si02
#       8
#     2   2   2   2   2   2   2   2
#     4  11  23  40  69  93 131 171 216 271 326 384
#     4  11  24  44  64 100 132 173 220 266 332 396
#     4  11  24  45  66  95 137 171 217 272 333 391
#     4  12  23  45  69  96 131 173 215 272 333 391
#     4  11  24  40  67  96 128 169 224 269 321 397
#     4   9  22  43  61  88 130 170 216 271 325 380
#     4  10  22  43  64  93 130 173 218 269 327 382
#     4  11  24  45  70  96 135 174 219 274 326 399
#
# _framework density 20.586807
#
# number of rings (size 3 to 8) (size 9 to 14) (size 15 to 20)
#    0.000    1.250    3.750    1.500    3.500    2.500 
#    4.500    0.000    0.000    0.000    0.000    0.000 
#    0.000    0.000    0.000    0.000    0.000    0.000 
#
# Total GULP energy -198411.769678 kJ/mol
# GULP energy per Si atom -12400.735605 kJ/mol
# Density = 2.053995 g / cm^3
# Si number density = 20.586807 Si / 1000 Ang^3
#
#
#
# Elastic Constant Matrix: (Units=GPa)
#
#
# Indices 1 2 3 4 5 6 
#
# 1 147.7823 52.6820 66.2812 2.7634 5.7419 8.1288
# 2 52.6820 127.2981 45.6313 -7.1729 8.9774 12.1408
# 3 66.2812 45.6313 100.9859 -5.4865 16.6406 -5.3775
# 4 2.7634 -7.1729 -5.4865 23.1684 -5.1448 0.9909
# 5 5.7419 8.9774 16.6406 -5.1448 42.3794 1.1822
# 6 8.1288 12.1408 -5.3775 0.9909 1.1822 42.7252
#
#
#
# Elastic Compliance Matrix: (Units=1/GPa)
#
#
# Indices 1 2 3 4 5 6 
#
# 1 0.010540 -0.002100 -0.006457 -0.003067 0.001241 -0.002185
# 2 -0.002100 0.010358 -0.003279 0.002765 -0.000202 -0.003015
# 3 -0.006457 -0.003279 0.016786 0.002468 -0.004843 0.004350
# 4 -0.003067 0.002765 0.002468 0.046009 0.004476 -0.001082
# 5 0.001241 -0.000202 -0.004843 0.004476 0.025961 -0.001610
# 6 -0.002185 -0.003015 0.004350 -0.001082 -0.001610 0.025295
#
#
# Mechanical properties :
#
#
# Convention : Reuss Voigt Hill
#
# Bulk Modulus (GPa) = 71.36379 78.36171 74.86275
# Shear Modulus (GPa) = 30.62027 35.75270 33.18648
#
# Velocity S-wave (km/s) = 3.86083 4.17187 4.01936
# Velocity P-wave (km/s) = 7.39018 7.83280 7.61470
#
# Compressibility (1/GPa) = 0.01401271
#
# Stress axis : x y z
#
# Youngs Moduli (GPa) = 94.87302 96.54839 59.57445
#
# Poissons Ratio (x) = 0.20271 0.38466
# Poissons Ratio (y) = 0.19919 0.19535
# Poissons Ratio (z) = 0.61257 0.31659
#
# Static dielectric constant tensor:
#      x y z
#    x 3.943690 -0.158020 -0.099960 
#    y -0.158020 3.981540 -0.170440 
#    z -0.099960 -0.170440 3.931600 
# 
# 
# High freq. dielectric constant tensor:
#      x y z
#    x 1.813720 0.011110 0.009200 
#    y 0.011110 1.817200 -0.010570 
#    z 0.009200 -0.010570 1.803780 
# 
# From -- ./inp_files/38876.got.cif
#   From: 2010.06.25/outbox.cif.g09.slc.cpg/sg2_20_cif.got.tgz:38876.got - 2010.06.27 13:26:56.
