data_PCOD8020388
_publ_section_title
;
Structure prediction by ZEFSAII (Michael W. Deem and Ramdas Pophale) SiO2 
 PCOD8020388
Probable space group: P -1
;
_chemical_formula_sum "Si O2"
_cell_formula_units_Z 16
_cell_length_a 14.574580
_cell_length_b 8.779770
_cell_length_c 9.037506
_cell_angle_alpha 125.320215
_cell_angle_beta 88.247638
_cell_angle_gamma 58.231596
_cell_volume 702.498882
_symmetry_space_group_name_H-M "P -1"
_symmetry_group_IT_number 2
_symmetry_cell_setting 'triclinic'
loop_
_space_group_symop_operation_xyz
x,y,z
-x,-y,-z
loop_
_atom_site_type_symbol
_atom_site_label
_atom_site_fract_x
_atom_site_fract_y
_atom_site_fract_z
Si Si1 0.995759 0.017095 0.225227
Si Si2 0.629284 0.673062 0.927058
Si Si3 0.849533 0.838728 0.600936
Si Si4 0.630201 0.228556 0.363634
Si Si5 0.640430 0.021660 0.946616
Si Si6 0.372878 0.125993 0.651673
Si Si7 0.191311 0.854624 0.483456
Si Si8 0.873103 0.428938 0.245070
O O1 0.084723 0.075889 0.274289
O O2 0.944861 0.025898 0.392788
O O3 0.883457 0.242112 0.253561
O O4 0.055124 0.746431 0.001922
O O5 0.642737 0.798926 0.860464
O O6 0.746659 0.380925 0.757092
O O7 0.640331 0.743402 0.125372
O O8 0.500188 0.735853 0.954242
O O9 0.731193 0.943412 0.763704
O O10 0.928114 0.541726 0.390894
O O11 0.811629 0.951416 0.500655
O O12 0.500000 0.500000 0.500000
O O13 0.730628 0.239004 0.420975
O O14 0.623796 0.092880 0.423559
O O15 0.680419 0.079502 0.123261
O O16 0.266230 0.328335 0.655055
O O17 0.500000 0.000000 0.500000
#
# Coordination Sequence:
#
# PCOD8020388 Si02
#       8
#     2   2   2   2   2   2   2   2
#     4  11  28  46  73 101 145 193 237 296 349 417
#     4  10  22  42  68 100 139 184 225 291 357 419
#     4  12  25  47  72 103 137 187 246 292 349 418
#     4  11  24  42  67 105 143 183 226 288 361 422
#     4  10  23  42  69 100 140 182 233 284 356 426
#     4  11  24  43  71 103 143 181 230 295 356 422
#     4  12  25  45  68 103 143 183 238 292 352 418
#     4  11  25  48  69 108 138 186 243 289 357 417
#
# _framework density 22.775836999999999
#
# number of rings (size 3 to 8) (size 9 to 14) (size 15 to 20)
#    0.000    1.000    2.500    3.000    5.250    2.000 
#    2.250    0.000    0.000    0.000    0.000    0.000 
#    0.000    0.000    0.000    0.000    0.000    0.000 
#
# Total GULP energy -198276.363293 kJ/mol
# GULP energy per Si atom -12392.272706 kJ/mol
# Density = 2.272400 g / cm^3
# Si number density = 22.775837 Si / 1000 Ang^3
#
#
#
# Elastic Constant Matrix: (Units=GPa)
#
#
# Indices 1 2 3 4 5 6 
#
# 1 87.0683 21.7574 63.2297 -12.2523 -11.6933 17.2624
# 2 21.7574 94.8937 43.4091 2.8093 -13.1064 6.1587
# 3 63.2297 43.4091 131.0217 12.8772 -9.2378 26.7669
# 4 -12.2523 2.8093 12.8772 39.0764 2.1329 5.3977
# 5 -11.6933 -13.1064 -9.2378 2.1329 38.7769 -6.9041
# 6 17.2624 6.1587 26.7669 5.3977 -6.9041 23.9290
#
#
#
# Elastic Compliance Matrix: (Units=1/GPa)
#
#
# Indices 1 2 3 4 5 6 
#
# 1 0.022079 0.000086 -0.010333 0.011034 0.002523 -0.006152
# 2 0.000086 0.012995 -0.004677 0.000021 0.003823 0.002923
# 3 -0.010333 -0.004677 0.016519 -0.007027 -0.001941 -0.008795
# 4 0.011034 0.000021 -0.007027 0.032538 -0.001533 -0.007888
# 5 0.002523 0.003823 -0.001941 -0.001533 0.028897 0.008050
# 6 -0.006152 0.002923 -0.008795 -0.007888 0.008050 0.059416
#
#
# Mechanical properties :
#
#
# Convention : Reuss Voigt Hill
#
# Bulk Modulus (GPa) = 45.98683 63.30845 54.64764
# Shear Modulus (GPa) = 23.86161 32.66231 28.26196
#
# Velocity S-wave (km/s) = 3.24029 3.79103 3.52643
# Velocity P-wave (km/s) = 5.85100 6.85706 6.37391
#
# Compressibility (1/GPa) = 0.02174536
#
# Stress axis : x y z
#
# Youngs Moduli (GPa) = 45.29123 76.94971 60.53625
#
# Poissons Ratio (x) = -0.00660 0.62554
# Poissons Ratio (y) = -0.00388 0.28310
# Poissons Ratio (z) = 0.46801 0.35986
#
# Static dielectric constant tensor:
#      x y z
#    x 4.058800 -0.006790 0.245810 
#    y -0.006790 4.261120 -0.004490 
#    z 0.245810 -0.004490 4.105700 
# 
# 
# High freq. dielectric constant tensor:
#      x y z
#    x 1.895270 -0.004930 0.016670 
#    y -0.004930 1.910110 -0.006260 
#    z 0.016670 -0.006260 1.907630 
# 
# From -- ./inp_files/299494.got.cif
#   From: 2010.06.25/outbox.cif.g09.slc.cpg/sg2_150_cif.got.tgz:299494.got - 2010.06.27 13:26:56.
