data_PCOD8020974
_publ_section_title
;
Structure prediction by ZEFSAII (Michael W. Deem and Ramdas Pophale) SiO2 
 PCOD8020974
Probable space group: P -1
;
_chemical_formula_sum "Si O2"
_cell_formula_units_Z 16
_cell_length_a 13.871923
_cell_length_b 8.350164
_cell_length_c 6.418632
_cell_angle_alpha 81.607860
_cell_angle_beta 85.011569
_cell_angle_gamma 101.672664
_cell_volume 715.091096
_symmetry_space_group_name_H-M "P -1"
_symmetry_group_IT_number 2
_symmetry_cell_setting 'triclinic'
loop_
_space_group_symop_operation_xyz
x,y,z
-x,-y,-z
loop_
_atom_site_type_symbol
_atom_site_label
_atom_site_fract_x
_atom_site_fract_y
_atom_site_fract_z
Si Si1 0.797990 0.786139 0.921429
Si Si2 0.464253 0.621728 0.649454
Si Si3 0.413513 0.809120 0.254282
Si Si4 0.884545 0.334757 0.222502
Si Si5 0.593684 0.836059 0.913426
Si Si6 0.287029 0.577004 0.000403
Si Si7 0.963661 0.700901 0.141755
Si Si8 0.087207 0.924447 0.410830
O O1 0.691954 0.809730 0.015996
O O2 0.829642 0.918688 0.706843
O O3 0.782357 0.596625 0.877808
O O4 0.879277 0.806561 0.087889
O O5 0.500000 0.500000 0.500000
O O6 0.425834 0.761463 0.500117
O O7 0.557285 0.700238 0.764530
O O8 0.372584 0.540728 0.833622
O O9 0.383334 0.984315 0.231341
O O10 0.516219 0.821673 0.114863
O O11 0.330277 0.672929 0.181287
O O12 0.783083 0.314354 0.114902
O O13 0.911646 0.520776 0.281948
O O14 0.863841 0.185577 0.419980
O O15 0.981147 0.317858 0.079552
O O16 0.045568 0.801330 0.256920
O O17 0.000000 0.000000 0.500000
#
# Coordination Sequence:
#
# PCOD8020974 Si02
#       8
#     2   2   2   2   2   2   2   2
#     4  11  23  43  62  94 130 166 212 258 317 377
#     4  11  22  41  66  93 131 167 212 258 316 378
#     4  10  22  43  66  91 132 166 208 264 318 371
#     4  10  23  44  66  93 124 170 215 259 316 380
#     4  10  23  41  62  97 127 167 209 265 314 376
#     4  10  24  42  66  95 128 168 214 256 316 381
#     4  10  23  45  66  88 130 168 210 266 319 373
#     4  12  25  42  64  96 130 166 212 267 318 372
#
# _framework density 22.374772
#
# number of rings (size 3 to 8) (size 9 to 14) (size 15 to 20)
#    0.000    1.500    1.250    2.625    3.500    2.000 
#   11.250    0.000    0.000    0.000    0.000    0.000 
#    0.000    0.000    0.000    0.000    0.000    0.000 
#
# Total GULP energy -198373.541964 kJ/mol
# GULP energy per Si atom -12398.346373 kJ/mol
# Density = 2.232385 g / cm^3
# Si number density = 22.374772 Si / 1000 Ang^3
#
#
#
# Elastic Constant Matrix: (Units=GPa)
#
#
# Indices 1 2 3 4 5 6 
#
# 1 117.5926 18.6093 15.9328 -4.5777 25.0431 -8.9914
# 2 18.6093 86.9608 32.4069 -23.1643 0.2971 -4.5264
# 3 15.9328 32.4069 70.1551 -20.3178 12.7692 -1.5433
# 4 -4.5777 -23.1643 -20.3178 41.6159 -9.1625 0.2496
# 5 25.0431 0.2971 12.7692 -9.1625 22.2807 -4.9160
# 6 -8.9914 -4.5264 -1.5433 0.2496 -4.9160 29.2226
#
#
#
# Elastic Compliance Matrix: (Units=1/GPa)
#
#
# Indices 1 2 3 4 5 6 
#
# 1 0.012220 -0.003825 0.000716 -0.003861 -0.015545 0.000623
# 2 -0.003825 0.017227 -0.006762 0.008520 0.012133 0.003103
# 3 0.000716 -0.006762 0.020305 0.003780 -0.011165 -0.001665
# 4 -0.003861 0.008520 0.003780 0.033830 0.016597 0.002834
# 5 -0.015545 0.012133 -0.011165 0.016597 0.077491 0.009401
# 6 0.000623 0.003103 -0.001665 0.002834 0.009401 0.036362
#
#
# Mechanical properties :
#
#
# Convention : Reuss Voigt Hill
#
# Bulk Modulus (GPa) = 33.32014 45.40069 39.36041
# Shear Modulus (GPa) = 22.00895 32.47445 27.24170
#
# Velocity S-wave (km/s) = 3.13972 3.81384 3.49308
# Velocity P-wave (km/s) = 5.29792 6.30309 5.82224
#
# Compressibility (1/GPa) = 0.03001188
#
# Stress axis : x y z
#
# Youngs Moduli (GPa) = 81.83219 58.04706 49.24814
#
# Poissons Ratio (x) = 0.22204 -0.03529
# Poissons Ratio (y) = 0.31302 0.33301
# Poissons Ratio (z) = -0.05863 0.39251
#
# Static dielectric constant tensor:
#      x y z
#    x 4.056350 -0.168310 0.125360 
#    y -0.168310 4.011170 -0.291060 
#    z 0.125360 -0.291060 3.871100 
# 
# 
# High freq. dielectric constant tensor:
#      x y z
#    x 1.895850 -0.001780 0.012030 
#    y -0.001780 1.892800 -0.019470 
#    z 0.012030 -0.019470 1.859950 
# 
# From -- ./inp_files/90014.got.cif
#   From: 2010.06.25/outbox.cif.g09.slc.cpg/sg2_46_cif.got.tgz:90014.got - 2010.06.27 13:26:56.
