data_PCOD8020912
_publ_section_title
;
Structure prediction by ZEFSAII (Michael W. Deem and Ramdas Pophale) SiO2 
 PCOD8020912
Probable space group: P -1
;
_chemical_formula_sum "Si O2"
_cell_formula_units_Z 12
_cell_length_a 8.479312
_cell_length_b 11.667281
_cell_length_c 11.553842
_cell_angle_alpha 37.929683
_cell_angle_beta 66.053158
_cell_angle_gamma 47.743565
_cell_volume 500.177777
_symmetry_space_group_name_H-M "P -1"
_symmetry_group_IT_number 2
_symmetry_cell_setting 'triclinic'
loop_
_space_group_symop_operation_xyz
x,y,z
-x,-y,-z
loop_
_atom_site_type_symbol
_atom_site_label
_atom_site_fract_x
_atom_site_fract_y
_atom_site_fract_z
Si Si1 0.105772 0.621929 0.275546
Si Si2 0.164293 0.568330 0.777432
Si Si3 0.239782 0.705927 0.409476
Si Si4 0.323671 0.128023 0.686726
Si Si5 0.193554 0.131947 0.165049
Si Si6 0.414085 0.658299 0.012174
O O1 0.143264 0.675922 0.349694
O O2 0.225718 0.339998 0.453314
O O3 0.196224 0.698492 0.090001
O O4 0.838590 0.778279 0.226125
O O5 0.132278 0.685110 0.571009
O O6 0.402594 0.459138 0.848019
O O7 0.970848 0.776167 0.750978
O O8 0.142576 0.359285 0.932430
O O9 0.500000 0.500000 0.500000
O O10 0.167378 0.972813 0.215188
O O11 0.557384 0.046636 0.721848
O O12 0.346761 0.911269 0.792006
O O13 0.500000 0.500000 0.000000
#
# Coordination Sequence:
#
# PCOD8020912 Si02
#       6
#     2   2   2   2   2   2
#     4  11  24  44  64  96 127 164 212 257 317 373
#     4  10  23  43  64  95 128 164 214 256 314 369
#     4  12  22  40  69  94 125 167 209 262 310 372
#     4  10  23  45  63  92 130 165 209 261 310 372
#     4  10  22  43  65  93 129 166 209 260 309 374
#     4  11  24  43  66  92 127 169 210 258 313 375
#
# _framework density 23.99147
#
# number of rings (size 3 to 8) (size 9 to 14) (size 15 to 20)
#    0.000    1.333    3.333    1.000    2.333    2.667 
#   18.000    0.000    0.000    0.000    0.000    0.000 
#    0.000    0.000    0.000    0.000    0.000    0.000 
#
# Total GULP energy -148828.175387 kJ/mol
# GULP energy per Si atom -12402.347949 kJ/mol
# Density = 2.393686 g / cm^3
# Si number density = 23.991470 Si / 1000 Ang^3
#
#
#
# Elastic Constant Matrix: (Units=GPa)
#
#
# Indices 1 2 3 4 5 6 
#
# 1 17.2740 21.7194 24.5524 -15.5276 -26.8653 -9.3079
# 2 21.7194 106.8885 32.4949 -19.0170 -13.4960 -7.0482
# 3 24.5524 32.4949 77.1324 -19.0941 -30.0821 19.2592
# 4 -15.5276 -19.0170 -19.0941 44.0398 -0.4695 -7.2785
# 5 -26.8653 -13.4960 -30.0821 -0.4695 34.2238 -9.6488
# 6 -9.3079 -7.0482 19.2592 -7.2785 -9.6488 54.2119
#
#
#
# Elastic Compliance Matrix: (Units=1/GPa)
#
#
# Indices 1 2 3 4 5 6 
#
# 1 -0.057423 -0.000124 -0.004427 -0.026401 -0.055504 -0.021726
# 2 -0.000124 0.011862 -0.004133 0.003953 0.002100 0.003894
# 3 -0.004427 -0.004133 0.025523 0.006781 0.015537 -0.006689
# 4 -0.026401 0.003953 0.006781 0.016757 -0.014902 -0.006830
# 5 -0.055504 0.002100 0.015537 -0.014902 -0.005054 -0.017676
# 6 -0.021726 0.003894 -0.006689 -0.006830 -0.017676 0.013535
#
#
# Mechanical properties :
#
#
# Convention : Reuss Voigt Hill
#
# Bulk Modulus (GPa) = -26.73470 39.86980 6.56755
# Shear Modulus (GPa) = 495.04694 34.66364 264.85529
#
# Velocity S-wave (km/s) = 14.38022 3.80522 10.51833
# Velocity P-wave (km/s) = 16.26510 5.99672 12.25794
#
# Compressibility (1/GPa) = -0.03740457
#
# Stress axis : x y z
#
# Youngs Moduli (GPa) = -17.41476 84.30132 39.18024
#
# Poissons Ratio (x) = 0.01044 0.17345
# Poissons Ratio (y) = -0.00216 0.16192
# Poissons Ratio (z) = -0.07710 0.34839
#
# Static dielectric constant tensor:
#      x y z
#    x 4.615800 -0.300240 -0.322080 
#    y -0.300240 4.493760 -0.298260 
#    z -0.322080 -0.298260 4.311460 
# 
# 
# High freq. dielectric constant tensor:
#      x y z
#    x 1.958340 -0.015790 -0.023460 
#    y -0.015790 1.961140 -0.019140 
#    z -0.023460 -0.019140 1.949930 
# 
# From -- ./inp_files/174213.got.cif
#   From: 2010.06.25/outbox.cif.g09.slc.cpg/sg2_88_cif.got.tgz:174213.got - 2010.06.27 13:26:56.
