data_PCOD8020623
_publ_section_title
;
Structure prediction by ZEFSAII (Michael W. Deem and Ramdas Pophale) SiO2 
 PCOD8020623
Probable space group: P -1
;
_chemical_formula_sum "Si O2"
_cell_formula_units_Z 14
_cell_length_a 8.933416
_cell_length_b 23.367517
_cell_length_c 5.017717
_cell_angle_alpha 79.719529
_cell_angle_beta 81.874773
_cell_angle_gamma 141.053635
_cell_volume 577.591629
_symmetry_space_group_name_H-M "P -1"
_symmetry_group_IT_number 2
_symmetry_cell_setting 'triclinic'
loop_
_space_group_symop_operation_xyz
x,y,z
-x,-y,-z
loop_
_atom_site_type_symbol
_atom_site_label
_atom_site_fract_x
_atom_site_fract_y
_atom_site_fract_z
Si Si1 0.294974 0.760055 0.344524
Si Si2 0.426939 0.065941 0.547755
Si Si3 0.423040 0.185494 0.288249
Si Si4 0.236910 0.450982 0.529091
Si Si5 0.873676 0.143497 0.075749
Si Si6 0.790492 0.759514 0.604528
Si Si7 0.772130 0.474975 0.048452
O O1 0.399948 0.859109 0.296329
O O2 0.328511 0.732746 0.630422
O O3 0.985645 0.665981 0.413859
O O4 0.464552 0.777859 0.069001
O O5 0.276542 0.076331 0.466935
O O6 0.620964 0.105007 0.227821
O O7 0.212854 0.950752 0.781400
O O8 0.225604 0.175958 0.403026
O O9 0.500000 0.500000 0.500000
O O10 0.141248 0.449017 0.827460
O O11 0.267429 0.510307 0.246938
O O12 0.105962 0.234307 0.149224
O O13 0.987587 0.185561 0.716706
O O14 0.507434 0.642598 0.696722
O O15 0.000000 0.500000 0.000000
#
# Coordination Sequence:
#
# PCOD8020623 Si02
#       7
#     2   2   2   2   2   2   2
#     4  10  22  42  70  96 134 180 233 284 348 426
#     4   9  26  44  72  95 141 186 228 278 363 423
#     4  10  23  42  70  94 137 183 227 277 356 417
#     4  12  26  44  73 105 138 184 247 295 354 418
#     4  11  26  43  70 103 138 179 232 290 352 420
#     4  12  26  44  68 105 140 175 236 295 343 414
#     4  12  27  48  72 102 147 193 233 292 365 427
#
# _framework density 24.238578
#
# number of rings (size 3 to 8) (size 9 to 14) (size 15 to 20)
#    0.857    0.286    0.000    5.143    6.000    3.429 
#    0.000    0.000    0.000    0.000    0.000    0.000 
#    0.000    0.000    0.000    0.000    0.000    0.000 
#
# Total GULP energy -173514.000489 kJ/mol
# GULP energy per Si atom -12393.857178 kJ/mol
# Density = 2.418341 g / cm^3
# Si number density = 24.238578 Si / 1000 Ang^3
#
#
#
# Elastic Constant Matrix: (Units=GPa)
#
#
# Indices 1 2 3 4 5 6 
#
# 1 89.1329 4.0044 18.1952 14.3845 2.8413 14.1889
# 2 4.0044 93.6283 27.9937 7.4038 -6.6599 1.0500
# 3 18.1952 27.9937 107.6641 26.3325 -12.2624 4.5116
# 4 14.3845 7.4038 26.3325 39.7412 2.3635 0.3039
# 5 2.8413 -6.6599 -12.2624 2.3635 27.7952 0.8378
# 6 14.1889 1.0500 4.5116 0.3039 0.8378 25.6386
#
#
#
# Elastic Compliance Matrix: (Units=1/GPa)
#
#
# Indices 1 2 3 4 5 6 
#
# 1 0.013245 0.000074 -0.001154 -0.003912 -0.001300 -0.007041
# 2 0.000074 0.011650 -0.002736 -0.000480 0.001620 -0.000084
# 3 -0.001154 -0.002736 0.012871 -0.007938 0.005864 -0.001612
# 4 -0.003912 -0.000480 -0.007938 0.032262 -0.006063 0.003397
# 5 -0.001300 0.001620 0.005864 -0.006063 0.039650 -0.001602
# 6 -0.007041 -0.000084 -0.001612 0.003397 -0.001602 0.043200
#
#
# Mechanical properties :
#
#
# Convention : Reuss Voigt Hill
#
# Bulk Modulus (GPa) = 33.18441 43.42354 38.30398
# Shear Modulus (GPa) = 29.31626 34.65048 31.98337
#
# Velocity S-wave (km/s) = 3.48154 3.78505 3.63647
# Velocity P-wave (km/s) = 5.46644 6.08737 5.78524
#
# Compressibility (1/GPa) = 0.03013463
#
# Stress axis : x y z
#
# Youngs Moduli (GPa) = 75.49957 85.84021 77.69136
#
# Poissons Ratio (x) = -0.00638 0.08965
# Poissons Ratio (y) = -0.00561 0.21258
# Poissons Ratio (z) = 0.08712 0.23487
#
# Static dielectric constant tensor:
#      x y z
#    x 4.173070 -0.092350 0.076450 
#    y -0.092350 4.477330 0.192150 
#    z 0.076450 0.192150 4.181320 
# 
# 
# High freq. dielectric constant tensor:
#      x y z
#    x 1.962760 -0.000970 -0.000630 
#    y -0.000970 1.969730 0.017570 
#    z -0.000630 0.017570 1.960960 
# 
# From -- ./inp_files/54908.got.cif
#   From: 2010.06.25/outbox.cif.g09.slc.cpg/sg2_28_cif.got.tgz:54908.got - 2010.06.27 13:26:56.
