data_PCOD8020113
_publ_section_title
;
Structure prediction by ZEFSAII (Michael W. Deem and Ramdas Pophale) SiO2 
 PCOD8020113
Probable space group: P -1
;
_chemical_formula_sum "Si O2"
_cell_formula_units_Z 16
_cell_length_a 8.959302
_cell_length_b 9.097033
_cell_length_c 13.022394
_cell_angle_alpha 52.526377
_cell_angle_beta 84.086423
_cell_angle_gamma 116.142800
_cell_volume 645.485938
_symmetry_space_group_name_H-M "P -1"
_symmetry_group_IT_number 2
_symmetry_cell_setting 'triclinic'
loop_
_space_group_symop_operation_xyz
x,y,z
-x,-y,-z
loop_
_atom_site_type_symbol
_atom_site_label
_atom_site_fract_x
_atom_site_fract_y
_atom_site_fract_z
Si Si1 0.662001 0.297761 0.639450
Si Si2 0.688772 0.962605 0.880789
Si Si3 0.098247 0.847787 0.815925
Si Si4 0.301698 0.177411 0.831167
Si Si5 0.271053 0.886432 0.483401
Si Si6 0.647596 0.382790 0.289884
Si Si7 0.703077 0.359892 0.074838
Si Si8 0.985088 0.849143 0.380278
O O1 0.475529 0.263330 0.704419
O O2 0.627659 0.128806 0.617868
O O3 0.831477 0.571259 0.478161
O O4 0.726320 0.213820 0.764604
O O5 0.473496 0.745625 0.945239
O O6 0.853266 0.991494 0.788406
O O7 0.689687 0.906711 0.022558
O O8 0.275748 0.839719 0.807919
O O9 0.104709 0.951269 0.885086
O O10 0.120070 0.032028 0.651950
O O11 0.900835 0.585432 0.912495
O O12 0.304384 0.401049 0.737960
O O13 0.212544 0.675820 0.656172
O O14 0.085421 0.863438 0.473424
O O15 0.423630 0.141590 0.420933
O O16 0.678176 0.461623 0.135914
#
# Coordination Sequence:
#
# PCOD8020113 Si02
#       8
#     2   2   2   2   2   2   2   2
#     4  11  23  45  69 102 140 187 222 292 348 413
#     4  11  23  46  76  99 142 186 233 282 354 413
#     4  11  26  44  69 106 138 185 234 290 344 414
#     4  12  26  42  72 108 139 180 242 287 343 412
#     4  10  22  42  65  95 141 183 227 274 358 408
#     4  11  23  41  69 100 135 187 231 285 341 424
#     4  11  24  47  72  96 148 186 229 286 357 408
#     4  11  24  43  73 103 137 181 236 285 346 414
#
# _framework density 24.787527999999998
#
# number of rings (size 3 to 8) (size 9 to 14) (size 15 to 20)
#    0.000    1.000    3.750    3.375    1.750    9.000 
#    2.250    1.250    0.000    0.000    0.000    0.000 
#    0.000    0.000    0.000    0.000    0.000    0.000 
#
# Total GULP energy -198303.751898 kJ/mol
# GULP energy per Si atom -12393.984494 kJ/mol
# Density = 2.473111 g / cm^3
# Si number density = 24.787528 Si / 1000 Ang^3
#
#
#
# Elastic Constant Matrix: (Units=GPa)
#
#
# Indices 1 2 3 4 5 6 
#
# 1 84.0139 24.8880 26.2867 -11.3377 21.1344 23.4788
# 2 24.8880 81.7029 29.6755 -17.6751 7.1646 13.4778
# 3 26.2867 29.6755 80.6254 -9.4174 9.4404 19.4634
# 4 -11.3377 -17.6751 -9.4174 39.8973 1.6883 11.4625
# 5 21.1344 7.1646 9.4404 1.6883 42.2083 0.1690
# 6 23.4788 13.4778 19.4634 11.4625 0.1690 36.0341
#
#
#
# Elastic Compliance Matrix: (Units=1/GPa)
#
#
# Indices 1 2 3 4 5 6 
#
# 1 0.021008 -0.000162 -0.000070 0.011260 -0.010858 -0.017121
# 2 -0.000162 0.016719 -0.003017 0.008855 -0.002407 -0.007324
# 3 -0.000070 -0.003017 0.016940 0.005584 -0.003426 -0.009736
# 4 0.011260 0.008855 0.005584 0.041645 -0.009948 -0.026866
# 5 -0.010858 -0.002407 -0.003426 -0.009948 0.030650 0.012846
# 6 -0.017121 -0.007324 -0.009736 -0.026866 0.012846 0.055391
#
#
# Mechanical properties :
#
#
# Convention : Reuss Voigt Hill
#
# Bulk Modulus (GPa) = 20.75968 45.33807 33.04888
# Shear Modulus (GPa) = 24.40121 34.66074 29.53098
#
# Velocity S-wave (km/s) = 3.14094 3.74346 3.45536
# Velocity P-wave (km/s) = 4.64190 6.08400 5.41121
#
# Compressibility (1/GPa) = 0.04817029
#
# Stress axis : x y z
#
# Youngs Moduli (GPa) = 47.60024 59.81067 59.03150
#
# Poissons Ratio (x) = 0.00966 0.00415
# Poissons Ratio (y) = 0.00769 0.17809
# Poissons Ratio (z) = 0.00335 0.18044
#
# Static dielectric constant tensor:
#      x y z
#    x 4.551350 0.077760 0.254210 
#    y 0.077760 4.438570 -0.186840 
#    z 0.254210 -0.186840 4.324510 
# 
# 
# High freq. dielectric constant tensor:
#      x y z
#    x 1.991180 0.008850 0.017560 
#    y 0.008850 1.980590 -0.016800 
#    z 0.017560 -0.016800 1.982850 
# 
# From -- ./inp_files/494387.got.cif
#   From: 2010.06.25/outbox.cif.g09.slc.cpg/sg2_248_cif.got.tgz:494387.got - 2010.06.27 13:26:56.
