data_PCOD8020730
_publ_section_title
;
Structure prediction by ZEFSAII (Michael W. Deem and Ramdas Pophale) SiO2 
 PCOD8020730
Probable space group: P -1
;
_chemical_formula_sum "Si O2"
_cell_formula_units_Z 16
_cell_length_a 12.056678
_cell_length_b 15.152163
_cell_length_c 8.023827
_cell_angle_alpha 104.168000
_cell_angle_beta 126.573123
_cell_angle_gamma 39.550909
_cell_volume 680.357239
_symmetry_space_group_name_H-M "P -1"
_symmetry_group_IT_number 2
_symmetry_cell_setting 'triclinic'
loop_
_space_group_symop_operation_xyz
x,y,z
-x,-y,-z
loop_
_atom_site_type_symbol
_atom_site_label
_atom_site_fract_x
_atom_site_fract_y
_atom_site_fract_z
Si Si1 0.354706 0.974517 0.957089
Si Si2 0.046886 0.674754 0.775914
Si Si3 0.994037 0.960128 0.158490
Si Si4 0.183877 0.038327 0.465925
Si Si5 0.752187 0.514903 0.444917
Si Si6 0.350572 0.616395 0.269231
Si Si7 0.198419 0.249173 0.921050
Si Si8 0.672515 0.752096 0.632402
O O1 0.252698 0.032462 0.707002
O O2 0.281824 0.112003 0.026220
O O3 0.260488 0.942914 0.974017
O O4 0.632867 0.816607 0.116020
O O5 0.162069 0.540067 0.693445
O O6 0.002862 0.793122 0.697469
O O7 0.803607 0.763782 0.660988
O O8 0.221656 0.601887 0.052174
O O9 0.165132 0.785133 0.253890
O O10 0.065446 0.002517 0.366685
O O11 0.000000 0.000000 0.000000
O O12 0.399947 0.918238 0.476562
O O13 0.518797 0.579963 0.276755
O O14 0.704652 0.644135 0.505546
O O15 0.939768 0.377171 0.680923
O O16 0.500000 0.500000 0.500000
O O17 0.222158 0.313899 0.115790
#
# Coordination Sequence:
#
# PCOD8020730 Si02
#       8
#     2   2   2   2   2   2   2   2
#     4  10  22  43  68 107 141 186 243 297 353 424
#     4  12  25  45  71 105 140 194 241 301 358 429
#     4  12  24  44  73 106 144 188 244 303 356 428
#     4  11  23  44  71 102 143 188 244 295 357 426
#     4  12  24  46  66 103 148 182 242 295 363 433
#     4  12  27  48  73 100 147 196 236 295 370 441
#     4  10  22  42  73 101 141 194 238 293 357 431
#     4  11  24  43  69 105 144 188 239 296 361 429
#
# _framework density 23.517057999999999
#
# number of rings (size 3 to 8) (size 9 to 14) (size 15 to 20)
#    0.000    0.750    3.750    4.125    0.000    1.000 
#    2.250    0.000    0.000    0.000    0.000    0.000 
#    0.000    0.000    0.000    0.000    0.000    0.000 
#
# Total GULP energy -198451.141713 kJ/mol
# GULP energy per Si atom -12403.196357 kJ/mol
# Density = 2.346353 g / cm^3
# Si number density = 23.517058 Si / 1000 Ang^3
#
#
#
# Elastic Constant Matrix: (Units=GPa)
#
#
# Indices 1 2 3 4 5 6 
#
# 1 134.2741 25.9951 15.6325 7.7670 28.1600 -5.7406
# 2 25.9951 112.2213 33.3245 21.8288 -1.3743 -0.8913
# 3 15.6325 33.3245 74.5297 16.4806 4.5549 10.5406
# 4 7.7670 21.8288 16.4806 30.8909 -1.4323 2.2812
# 5 28.1600 -1.3743 4.5549 -1.4323 44.4054 -4.2552
# 6 -5.7406 -0.8913 10.5406 2.2812 -4.2552 27.6412
#
#
#
# Elastic Compliance Matrix: (Units=1/GPa)
#
#
# Indices 1 2 3 4 5 6 
#
# 1 0.009191 -0.001765 -0.000753 -0.001026 -0.005710 0.001345
# 2 -0.001765 0.011674 -0.004026 -0.005739 0.001930 0.002316
# 3 -0.000753 -0.004026 0.017846 -0.006082 -0.002340 -0.006950
# 4 -0.001026 -0.005739 -0.006082 0.040113 0.002291 -0.001036
# 5 -0.005710 0.001930 -0.002340 0.002291 0.026871 0.003716
# 6 0.001345 0.002316 -0.006950 -0.001036 0.003716 0.039840
#
#
# Mechanical properties :
#
#
# Convention : Reuss Voigt Hill
#
# Bulk Modulus (GPa) = 39.02680 52.32549 45.67614
# Shear Modulus (GPa) = 29.91075 36.99237 33.45156
#
# Velocity S-wave (km/s) = 3.57020 3.97041 3.77561
# Velocity P-wave (km/s) = 5.79882 6.58158 6.20256
#
# Compressibility (1/GPa) = 0.02562342
#
# Stress axis : x y z
#
# Youngs Moduli (GPa) = 108.79902 85.66261 56.03382
#
# Poissons Ratio (x) = 0.15121 0.04219
# Poissons Ratio (y) = 0.19205 0.22559
# Poissons Ratio (z) = 0.08191 0.34487
#
# Static dielectric constant tensor:
#      x y z
#    x 4.256210 -0.218430 0.445880 
#    y -0.218430 4.352120 0.247890 
#    z 0.445880 0.247890 4.437970 
# 
# 
# High freq. dielectric constant tensor:
#      x y z
#    x 1.928270 -0.013050 0.017270 
#    y -0.013050 1.931050 0.014360 
#    z 0.017270 0.014360 1.940120 
# 
# From -- ./inp_files/273901.got.cif
#   From: 2010.06.25/outbox.cif.g09.slc.cpg/sg2_137_cif.got.tgz:273901.got - 2010.06.27 13:26:56.
