data_PCOD8020220
_publ_section_title
;
Structure prediction by ZEFSAII (Michael W. Deem and Ramdas Pophale) SiO2 
 PCOD8020220
Probable space group: P -1
;
_chemical_formula_sum "Si O2"
_cell_formula_units_Z 16
_cell_length_a 14.555960
_cell_length_b 15.450557
_cell_length_c 9.495422
_cell_angle_alpha 49.150656
_cell_angle_beta 79.437729
_cell_angle_gamma 39.138538
_cell_volume 748.901186
_symmetry_space_group_name_H-M "P -1"
_symmetry_group_IT_number 2
_symmetry_cell_setting 'triclinic'
loop_
_space_group_symop_operation_xyz
x,y,z
-x,-y,-z
loop_
_atom_site_type_symbol
_atom_site_label
_atom_site_fract_x
_atom_site_fract_y
_atom_site_fract_z
Si Si1 0.620149 0.799504 0.067920
Si Si2 0.491995 0.073400 0.574750
Si Si3 0.492069 0.687985 0.779997
Si Si4 0.824023 0.152742 0.286348
Si Si5 0.870044 0.198966 0.638983
Si Si6 0.473571 0.728175 0.069782
Si Si7 0.079952 0.081204 0.947818
Si Si8 0.873526 0.526490 0.539273
O O1 0.486117 0.839474 0.014075
O O2 0.807250 0.556848 0.366537
O O3 0.500000 0.000000 0.000000
O O4 0.665584 0.830199 0.884158
O O5 0.518604 0.181420 0.441460
O O6 0.290316 0.268409 0.513488
O O7 0.500000 0.000000 0.500000
O O8 0.321441 0.785092 0.669922
O O9 0.701516 0.397216 0.009848
O O10 0.460647 0.753701 0.880075
O O11 0.000000 0.000000 0.500000
O O12 0.934354 0.972416 0.317813
O O13 0.668349 0.447359 0.353618
O O14 0.894491 0.229338 0.753095
O O15 0.871762 0.058746 0.791957
O O16 0.279765 0.874521 0.022029
O O17 0.012245 0.275071 0.826358
O O18 0.000000 0.500000 0.500000
#
# Coordination Sequence:
#
# PCOD8020220 Si02
#       8
#     2   2   2   2   2   2   2   2
#     4  10  22  42  66  96 133 176 221 276 339 400
#     4  11  23  44  69 103 137 173 232 283 336 414
#     4  11  24  41  68  96 135 184 218 281 346 400
#     4  11  23  44  63  92 137 178 222 273 340 406
#     4  11  23  40  63  97 127 170 225 275 325 403
#     4  12  21  42  68  94 135 174 223 280 344 402
#     4  11  23  40  65  94 131 168 224 276 329 398
#     4  11  24  45  68  97 138 179 225 279 342 404
#
# _framework density 21.364633000000001
#
# number of rings (size 3 to 8) (size 9 to 14) (size 15 to 20)
#    0.000    1.000    5.000    2.625    0.000    0.000 
#    9.000    0.625    0.000    0.000    0.000    0.000 
#    0.000    0.000    0.000    0.000    0.000    0.000 
#
# Total GULP energy -198271.830844 kJ/mol
# GULP energy per Si atom -12391.989428 kJ/mol
# Density = 2.131601 g / cm^3
# Si number density = 21.364633 Si / 1000 Ang^3
#
#
#
# Elastic Constant Matrix: (Units=GPa)
#
#
# Indices 1 2 3 4 5 6 
#
# 1 123.4476 21.7269 57.8944 -0.7946 -9.6513 -2.6295
# 2 21.7269 95.5333 36.1980 -2.1660 1.7806 -2.0446
# 3 57.8944 36.1980 114.3193 -0.3391 -18.5514 -10.9780
# 4 -0.7946 -2.1660 -0.3391 34.4902 3.5338 -1.4651
# 5 -9.6513 1.7806 -18.5514 3.5338 44.1172 0.1502
# 6 -2.6295 -2.0446 -10.9780 -1.4651 0.1502 31.1678
#
#
#
# Elastic Compliance Matrix: (Units=1/GPa)
#
#
# Indices 1 2 3 4 5 6 
#
# 1 0.010671 -0.000420 -0.005352 0.000114 0.000095 -0.001008
# 2 -0.000420 0.012161 -0.004079 0.000930 -0.002370 -0.000619
# 3 -0.005352 -0.004079 0.013939 -0.000567 0.004886 0.004140
# 4 0.000114 0.000930 -0.000567 0.029370 -0.002608 0.001264
# 5 0.000095 -0.002370 0.004886 -0.002608 0.025042 0.001330
# 6 -0.001008 -0.000619 0.004140 0.001264 0.001330 0.033470
#
#
# Mechanical properties :
#
#
# Convention : Reuss Voigt Hill
#
# Bulk Modulus (GPa) = 58.59024 62.77099 60.68061
# Shear Modulus (GPa) = 33.32329 36.45378 34.88853
#
# Velocity S-wave (km/s) = 3.95364 4.13518 4.04543
# Velocity P-wave (km/s) = 6.95163 7.22801 7.09117
#
# Compressibility (1/GPa) = 0.01706769
#
# Stress axis : x y z
#
# Youngs Moduli (GPa) = 93.70917 82.23191 71.74353
#
# Poissons Ratio (x) = 0.03451 0.38400
# Poissons Ratio (y) = 0.03933 0.29267
# Poissons Ratio (z) = 0.50157 0.33546
#
# Static dielectric constant tensor:
#      x y z
#    x 3.823620 -0.138810 -0.181220 
#    y -0.138810 4.764300 0.286960 
#    z -0.181220 0.286960 4.442120 
# 
# 
# High freq. dielectric constant tensor:
#      x y z
#    x 1.841050 0.008510 -0.010690 
#    y 0.008510 1.833740 -0.003170 
#    z -0.010690 -0.003170 1.847850 
# 
# From -- ./inp_files/314657.got.cif
#   From: 2010.06.25/outbox.cif.g09.slc.cpg/sg2_158_cif.got.tgz:314657.got - 2010.06.27 13:26:56.
