data_PCOD8020815
_publ_section_title
;
Structure prediction by ZEFSAII (Michael W. Deem and Ramdas Pophale) SiO2 
 PCOD8020815
Probable space group: P -1
;
_chemical_formula_sum "Si O2"
_cell_formula_units_Z 16
_cell_length_a 12.778291
_cell_length_b 6.669953
_cell_length_c 13.911454
_cell_angle_alpha 96.972766
_cell_angle_beta 45.124194
_cell_angle_gamma 112.601729
_cell_volume 755.088477
_symmetry_space_group_name_H-M "P -1"
_symmetry_group_IT_number 2
_symmetry_cell_setting 'triclinic'
loop_
_space_group_symop_operation_xyz
x,y,z
-x,-y,-z
loop_
_atom_site_type_symbol
_atom_site_label
_atom_site_fract_x
_atom_site_fract_y
_atom_site_fract_z
Si Si1 0.721993 0.852106 0.550164
Si Si2 0.115976 0.987634 0.069831
Si Si3 0.270698 0.790785 0.578953
Si Si4 0.519908 0.595646 0.386604
Si Si5 0.013082 0.310593 0.683283
Si Si6 0.187204 0.978608 0.814367
Si Si7 0.311083 0.910955 0.225060
Si Si8 0.430110 0.249573 0.996470
O O1 0.561788 0.615675 0.643931
O O2 0.883278 0.807693 0.440306
O O3 0.723511 0.988124 0.461786
O O4 0.722558 0.998654 0.648407
O O5 0.039575 0.781491 0.180285
O O6 0.170656 0.903927 0.931989
O O7 0.986962 0.082655 0.127113
O O8 0.270987 0.187630 0.029833
O O9 0.430095 0.758463 0.447193
O O10 0.267967 0.837309 0.697677
O O11 0.111531 0.574900 0.638878
O O12 0.500000 0.500000 0.500000
O O13 0.706119 0.751072 0.246191
O O14 0.859023 0.272054 0.714982
O O15 0.433670 0.794475 0.154827
O O16 0.388372 0.111364 0.112943
O O17 0.500000 0.500000 0.000000
#
# Coordination Sequence:
#
# PCOD8020815 Si02
#       8
#     2   2   2   2   2   2   2   2
#     4  11  23  40  65  94 132 163 214 270 314 388
#     4  10  23  42  62  91 129 163 217 259 317 380
#     4  11  23  38  67  92 128 171 209 263 326 378
#     4  11  23  40  62  95 131 166 212 268 319 375
#     4  10  22  43  63  95 131 166 214 269 317 380
#     4  11  22  40  65  93 124 172 210 258 321 383
#     4  10  24  41  64  97 124 171 216 261 325 376
#     4  10  24  43  66  91 130 170 213 267 315 384
#
# _framework density 21.18957
#
# number of rings (size 3 to 8) (size 9 to 14) (size 15 to 20)
#    0.000    1.500    2.500    1.500    5.250    2.000 
#    0.000    0.000    0.000    0.000    0.000    0.000 
#    0.000    0.000    0.000    0.000    0.000    0.000 
#
# Total GULP energy -198430.205892 kJ/mol
# GULP energy per Si atom -12401.887868 kJ/mol
# Density = 2.114134 g / cm^3
# Si number density = 21.189570 Si / 1000 Ang^3
#
#
#
# Elastic Constant Matrix: (Units=GPa)
#
#
# Indices 1 2 3 4 5 6 
#
# 1 91.4637 34.1161 38.3711 -5.2374 -15.1253 15.7105
# 2 34.1161 115.3365 48.2683 4.5408 -13.3088 11.2282
# 3 38.3711 48.2683 106.1472 9.7516 -1.2547 16.4138
# 4 -5.2374 4.5408 9.7516 17.8307 19.5734 3.1887
# 5 -15.1253 -13.3088 -1.2547 19.5734 34.1397 0.8277
# 6 15.7105 11.2282 16.4138 3.1887 0.8277 23.4596
#
#
#
# Elastic Compliance Matrix: (Units=1/GPa)
#
#
# Indices 1 2 3 4 5 6 
#
# 1 0.015427 -0.002020 -0.003932 0.004974 0.003231 -0.007403
# 2 -0.002020 0.013034 -0.003325 -0.017403 0.014059 -0.000690
# 3 -0.003932 -0.003325 0.014219 -0.012647 0.004837 -0.004175
# 4 0.004974 -0.017403 -0.012647 0.204799 -0.122229 -0.009677
# 5 0.003231 0.014059 0.004837 -0.122229 0.106445 0.000582
# 6 -0.007403 -0.000690 -0.004175 -0.009677 0.000582 0.052131
#
#
# Mechanical properties :
#
#
# Convention : Reuss Voigt Hill
#
# Bulk Modulus (GPa) = 41.44964 61.60648 51.52806
# Shear Modulus (GPa) = 11.55667 27.89878 19.72773
#
# Velocity S-wave (km/s) = 2.33790 3.63247 3.05456
# Velocity P-wave (km/s) = 5.18570 6.83595 6.06720
#
# Compressibility (1/GPa) = 0.02412566
#
# Stress axis : x y z
#
# Youngs Moduli (GPa) = 64.82094 76.72327 70.32841
#
# Poissons Ratio (x) = 0.15498 0.27654
# Poissons Ratio (y) = 0.13094 0.23385
# Poissons Ratio (z) = 0.25488 0.25511
#
# Static dielectric constant tensor:
#      x y z
#    x 4.086710 0.156160 -0.303280 
#    y 0.156160 3.713400 -0.040130 
#    z -0.303280 -0.040130 4.183880 
# 
# 
# High freq. dielectric constant tensor:
#      x y z
#    x 1.834410 0.014570 -0.008130 
#    y 0.014570 1.825760 -0.001460 
#    z -0.008130 -0.001460 1.838620 
# 
# From -- ./inp_files/71407.got.cif
#   From: 2010.06.25/outbox.cif.g09.slc.cpg/sg2_36_cif.got.tgz:71407.got - 2010.06.27 13:26:56.
