data_PCOD8020733
_publ_section_title
;
Structure prediction by ZEFSAII (Michael W. Deem and Ramdas Pophale) SiO2 
 PCOD8020733
Probable space group: P -1
;
_chemical_formula_sum "Si O2"
_cell_formula_units_Z 14
_cell_length_a 12.242256
_cell_length_b 8.936398
_cell_length_c 9.123046
_cell_angle_alpha 60.484179
_cell_angle_beta 132.335649
_cell_angle_gamma 100.187244
_cell_volume 623.140342
_symmetry_space_group_name_H-M "P -1"
_symmetry_group_IT_number 2
_symmetry_cell_setting 'triclinic'
loop_
_space_group_symop_operation_xyz
x,y,z
-x,-y,-z
loop_
_atom_site_type_symbol
_atom_site_label
_atom_site_fract_x
_atom_site_fract_y
_atom_site_fract_z
Si Si1 0.878629 0.381506 0.933882
Si Si2 0.340581 0.045395 0.529733
Si Si3 0.698943 0.639761 0.436937
Si Si4 0.114789 0.312440 0.687374
Si Si5 0.624836 0.799809 0.806495
Si Si6 0.966190 0.004994 0.639165
Si Si7 0.567028 0.491981 0.728512
O O1 0.793358 0.443481 0.672180
O O2 0.749511 0.411089 0.931377
O O3 0.964166 0.176659 0.122008
O O4 0.000000 0.500000 0.000000
O O5 0.509098 0.917247 0.763280
O O6 0.316153 0.078001 0.317618
O O7 0.330017 0.232430 0.509622
O O8 0.215608 0.949270 0.526310
O O9 0.795765 0.718137 0.370238
O O10 0.535764 0.626199 0.226489
O O11 0.000000 0.500000 0.500000
O O12 0.028904 0.156541 0.701903
O O13 0.229739 0.312109 0.923783
O O14 0.535025 0.676293 0.697325
O O15 0.000000 0.000000 0.500000
O O16 0.500000 0.500000 0.500000
#
# Coordination Sequence:
#
# PCOD8020733 Si02
#       7
#     2   2   2   2   2   2   2
#     4  11  21  41  77 104 137 188 248 295 354 439
#     4  11  24  46  75 105 149 186 252 294 371 438
#     4  11  24  47  72 104 145 202 238 298 363 452
#     4  12  31  48  69 110 156 187 249 308 368 424
#     4  11  26  45  72 110 148 190 239 317 355 436
#     4  12  26  46  74 106 141 199 245 301 367 438
#     4  10  22  42  73 102 136 192 241 286 366 435
#
# _framework density 22.466849
#
# number of rings (size 3 to 8) (size 9 to 14) (size 15 to 20)
#    0.000    0.857    5.714    0.000   10.000    4.000 
#    0.000    0.000    0.000    0.000    0.000    0.000 
#    0.000    0.000    0.000    0.000    0.000    0.000 
#
# Total GULP energy -173542.964152 kJ/mol
# GULP energy per Si atom -12395.926011 kJ/mol
# Density = 2.241571 g / cm^3
# Si number density = 22.466849 Si / 1000 Ang^3
#
#
#
# Elastic Constant Matrix: (Units=GPa)
#
#
# Indices 1 2 3 4 5 6 
#
# 1 149.4805 53.7701 37.9406 2.6726 21.1482 23.4222
# 2 53.7701 142.3764 55.4114 -5.8803 9.8744 15.8581
# 3 37.9406 55.4114 105.1271 -0.6572 17.9139 5.1734
# 4 2.6726 -5.8803 -0.6572 30.5578 -0.6775 0.0263
# 5 21.1482 9.8744 17.9139 -0.6775 32.5636 3.1360
# 6 23.4222 15.8581 5.1734 0.0263 3.1360 43.5991
#
#
#
# Elastic Compliance Matrix: (Units=1/GPa)
#
#
# Indices 1 2 3 4 5 6 
#
# 1 0.008987 -0.002320 -0.001140 -0.001347 -0.004192 -0.003546
# 2 -0.002320 0.009843 -0.004448 0.002029 0.001194 -0.001893
# 3 -0.001140 -0.004448 0.013105 -0.000591 -0.005234 0.001052
# 4 -0.001347 0.002029 -0.000591 0.033249 0.001282 -0.000057
# 5 -0.004192 0.001194 -0.005234 0.001282 0.035990 -0.000151
# 6 -0.003546 -0.001893 0.001052 -0.000057 -0.000151 0.025416
#
#
# Mechanical properties :
#
#
# Convention : Reuss Voigt Hill
#
# Bulk Modulus (GPa) = 62.04447 76.80313 69.42380
# Shear Modulus (GPa) = 33.83441 38.00155 35.91798
#
# Velocity S-wave (km/s) = 3.88489 4.11719 4.00273
# Velocity P-wave (km/s) = 6.91369 7.54062 7.23395
#
# Compressibility (1/GPa) = 0.01611747
#
# Stress axis : x y z
#
# Youngs Moduli (GPa) = 111.27685 101.59500 76.30830
#
# Poissons Ratio (x) = 0.23572 0.08698
# Poissons Ratio (y) = 0.25818 0.33945
# Poissons Ratio (z) = 0.12684 0.45193
#
# Static dielectric constant tensor:
#      x y z
#    x 4.724340 0.436200 0.273780 
#    y 0.436200 4.204120 -0.037390 
#    z 0.273780 -0.037390 3.961540 
# 
# 
# High freq. dielectric constant tensor:
#      x y z
#    x 1.907350 0.014630 0.012820 
#    y 0.014630 1.879280 -0.000660 
#    z 0.012820 -0.000660 1.869320 
# 
# From -- ./inp_files/256518.got.cif
#   From: 2010.06.25/outbox.cif.g09.slc.cpg/sg2_129_cif.got.tgz:256518.got - 2010.06.27 13:26:56.
