data_PCOD8020241
_publ_section_title
;
Structure prediction by ZEFSAII (Michael W. Deem and Ramdas Pophale) SiO2 
 PCOD8020241
Probable space group: P -1
;
_chemical_formula_sum "Si O2"
_cell_formula_units_Z 14
_cell_length_a 10.590314
_cell_length_b 9.290304
_cell_length_c 7.209144
_cell_angle_alpha 76.423360
_cell_angle_beta 99.083635
_cell_angle_gamma 135.553451
_cell_volume 482.746394
_symmetry_space_group_name_H-M "P -1"
_symmetry_group_IT_number 2
_symmetry_cell_setting 'triclinic'
loop_
_space_group_symop_operation_xyz
x,y,z
-x,-y,-z
loop_
_atom_site_type_symbol
_atom_site_label
_atom_site_fract_x
_atom_site_fract_y
_atom_site_fract_z
Si Si1 0.184191 0.466189 0.066152
Si Si2 0.768400 0.734043 0.378793
Si Si3 0.338925 0.679866 0.521099
Si Si4 0.940158 0.401552 0.301011
Si Si5 0.849184 0.875851 0.759676
Si Si6 0.358407 0.051815 0.771019
Si Si7 0.546742 0.828271 0.876275
O O1 0.099304 0.232985 0.085380
O O2 0.136884 0.487792 0.263997
O O3 0.089984 0.493032 0.884940
O O4 0.396158 0.622663 0.032022
O O5 0.664826 0.497936 0.377984
O O6 0.753941 0.743733 0.591310
O O7 0.675503 0.800638 0.246882
O O8 0.974091 0.882817 0.312095
O O9 0.134316 0.590226 0.514204
O O10 0.450335 0.815636 0.326763
O O11 0.449563 0.835067 0.681921
O O12 0.806631 0.153382 0.316365
O O13 0.704713 0.851971 0.842105
O O14 0.369068 0.991241 0.001817
#
# Coordination Sequence:
#
# PCOD8020241 Si02
#       7
#     2   2   2   2   2   2   2
#     4  10  22  42  66  98 136 182 226 277 331 416
#     4  11  25  43  73 104 138 178 233 285 348 403
#     4  11  25  46  69 105 140 180 227 287 342 408
#     4  10  24  45  68  96 146 185 224 277 349 406
#     4  11  23  45  70 106 138 177 231 293 339 407
#     4  12  24  46  71 104 139 183 227 286 339 416
#     4  11  26  39  74 103 137 177 234 278 349 397
#
# _framework density 29.000734999999999
#
# number of rings (size 3 to 8) (size 9 to 14) (size 15 to 20)
#    0.000    1.143    2.857    2.143    6.000    6.286 
#    0.000    4.286    0.000    0.000    0.000    0.000 
#    0.000    0.000    0.000    0.000    0.000    0.000 
#
# Total GULP energy -173501.208989 kJ/mol
# GULP energy per Si atom -12392.943499 kJ/mol
# Density = 2.893473 g / cm^3
# Si number density = 29.000735 Si / 1000 Ang^3
#
#
#
# Elastic Constant Matrix: (Units=GPa)
#
#
# Indices 1 2 3 4 5 6 
#
# 1 176.2133 35.3601 76.2023 -13.6150 -55.9525 11.0773
# 2 35.3601 51.6373 6.8407 -19.2204 -22.7634 6.5275
# 3 76.2023 6.8407 153.9195 1.2078 -59.3110 13.2816
# 4 -13.6150 -19.2204 1.2078 22.0916 -1.7277 1.8898
# 5 -55.9525 -22.7634 -59.3110 -1.7277 59.3770 -15.1832
# 6 11.0773 6.5275 13.2816 1.8898 -15.1832 36.8781
#
#
#
# Elastic Compliance Matrix: (Units=1/GPa)
#
#
# Indices 1 2 3 4 5 6 
#
# 1 0.009258 -0.001554 -0.002208 0.004909 0.006218 0.000598
# 2 -0.001554 0.045595 0.008162 0.040406 0.024721 -0.002436
# 3 -0.002208 0.008162 0.012441 0.006124 0.013667 0.000051
# 4 0.004909 0.040406 0.006124 0.085606 0.027756 -0.003792
# 5 0.006218 0.024721 0.013667 0.027756 0.048527 0.007392
# 6 0.000598 -0.002436 0.000051 -0.003792 0.007392 0.030587
#
#
# Mechanical properties :
#
#
# Convention : Reuss Voigt Hill
#
# Bulk Modulus (GPa) = 13.14188 68.73068 40.93628
# Shear Modulus (GPa) = 20.11423 41.22716 30.67069
#
# Velocity S-wave (km/s) = 2.63644 3.77449 3.25558
# Velocity P-wave (km/s) = 3.71607 6.53810 5.31770
#
# Compressibility (1/GPa) = 0.07609261
#
# Stress axis : x y z
#
# Youngs Moduli (GPa) = 108.01551 21.93240 80.37678
#
# Poissons Ratio (x) = 0.03409 0.17751
# Poissons Ratio (y) = 0.16789 -0.65605
# Poissons Ratio (z) = 0.23855 -0.17902
#
# Static dielectric constant tensor:
#      x y z
#    x 5.761930 0.008640 -0.390510 
#    y 0.008640 5.349190 0.223290 
#    z -0.390510 0.223290 5.889080 
# 
# 
# High freq. dielectric constant tensor:
#      x y z
#    x 2.204730 0.008360 -0.023880 
#    y 0.008360 2.172980 0.013010 
#    z -0.023880 0.013010 2.206550 
# 
# From -- ./inp_files/239059.got.cif
#   From: 2010.06.25/outbox.cif.g09.slc.cpg/sg2_120_cif.got.tgz:239059.got - 2010.06.27 13:26:56.
