data_PCOD8020513
_publ_section_title
;
Structure prediction by ZEFSAII (Michael W. Deem and Ramdas Pophale) SiO2 
 PCOD8020513
Probable space group: P -1
;
_chemical_formula_sum "Si O2"
_cell_formula_units_Z 16
_cell_length_a 8.971988
_cell_length_b 9.135494
_cell_length_c 12.257070
_cell_angle_alpha 57.135955
_cell_angle_beta 64.717563
_cell_angle_gamma 61.169877
_cell_volume 720.340410
_symmetry_space_group_name_H-M "P -1"
_symmetry_group_IT_number 2
_symmetry_cell_setting 'triclinic'
loop_
_space_group_symop_operation_xyz
x,y,z
-x,-y,-z
loop_
_atom_site_type_symbol
_atom_site_label
_atom_site_fract_x
_atom_site_fract_y
_atom_site_fract_z
Si Si1 0.189676 0.479354 0.984251
Si Si2 0.629876 0.450484 0.687548
Si Si3 0.440247 0.077177 0.678128
Si Si4 0.151856 0.427614 0.571349
Si Si5 0.674935 0.224777 0.265485
Si Si6 0.181310 0.013226 0.485372
Si Si7 0.446398 0.179884 0.874761
Si Si8 0.847397 0.583597 0.732492
O O1 0.224053 0.675956 0.886671
O O2 0.303792 0.335815 0.921382
O O3 0.218973 0.397112 0.130629
O O4 0.000000 0.500000 0.000000
O O5 0.721808 0.452038 0.540966
O O6 0.448175 0.618902 0.680422
O O7 0.610892 0.250013 0.780017
O O8 0.743366 0.470834 0.747137
O O9 0.281467 0.217068 0.600743
O O10 0.382205 0.132890 0.797444
O O11 0.438948 0.870984 0.733303
O O12 0.632004 0.093999 0.589062
O O13 0.000000 0.500000 0.500000
O O14 0.056903 0.467068 0.703460
O O15 0.808823 0.069403 0.362232
O O16 0.174166 0.224222 0.398625
O O17 0.000000 0.000000 0.500000
O O18 0.500000 0.000000 0.000000
#
# Coordination Sequence:
#
# PCOD8020513 Si02
#       8
#     2   2   2   2   2   2   2   2
#     4  11  25  48  67  98 143 187 238 285 357 430
#     4  10  22  43  70 101 135 184 231 291 350 425
#     4  12  24  45  72 105 143 185 241 295 351 424
#     4  10  22  42  69 106 136 173 234 296 350 413
#     4  11  23  44  76 101 137 189 236 286 355 429
#     4  12  25  42  73 110 144 184 235 297 356 422
#     4  11  27  43  67 102 143 183 240 296 351 411
#     4  11  23  43  73  99 140 187 237 284 358 427
#
# _framework density 22.211721000000001
#
# number of rings (size 3 to 8) (size 9 to 14) (size 15 to 20)
#    0.000    1.000    2.500    4.125    3.500    2.500 
#    4.500    1.250    0.000    0.000    0.000    0.000 
#    0.000    0.000    0.000    0.000    0.000    0.000 
#
# Total GULP energy -198216.818772 kJ/mol
# GULP energy per Si atom -12388.551173 kJ/mol
# Density = 2.216117 g / cm^3
# Si number density = 22.211721 Si / 1000 Ang^3
#
#
#
# Elastic Constant Matrix: (Units=GPa)
#
#
# Indices 1 2 3 4 5 6 
#
# 1 124.4663 42.5592 51.4874 -11.4421 -11.9855 3.1513
# 2 42.5592 86.6726 44.8394 -12.2944 -9.4074 1.3401
# 3 51.4874 44.8394 128.4502 -15.0249 -12.5686 10.1501
# 4 -11.4421 -12.2944 -15.0249 43.6282 3.5021 -3.9786
# 5 -11.9855 -9.4074 -12.5686 3.5021 38.5840 1.4745
# 6 3.1513 1.3401 10.1501 -3.9786 1.4745 40.5447
#
#
#
# Elastic Compliance Matrix: (Units=1/GPa)
#
#
# Indices 1 2 3 4 5 6 
#
# 1 0.010593 -0.003493 -0.002801 0.000713 0.001461 0.000010
# 2 -0.003493 0.015622 -0.003742 0.002174 0.001275 0.000859
# 3 -0.002801 -0.003742 0.010738 0.001570 0.001659 -0.002253
# 4 0.000713 0.002174 0.001570 0.024520 -0.001036 0.001923
# 5 0.001461 0.001275 0.001659 -0.001036 0.027381 -0.001668
# 6 0.000010 0.000859 -0.002253 0.001923 -0.001668 0.025448
#
#
# Mechanical properties :
#
#
# Convention : Reuss Voigt Hill
#
# Bulk Modulus (GPa) = 59.23788 68.59569 63.91679
# Shear Modulus (GPa) = 35.71357 37.93157 36.82257
#
# Velocity S-wave (km/s) = 4.01418 4.13695 4.07602
# Velocity P-wave (km/s) = 6.94351 7.33272 7.14077
#
# Compressibility (1/GPa) = 0.01688109
#
# Stress axis : x y z
#
# Youngs Moduli (GPa) = 94.39775 64.01138 93.12394
#
# Poissons Ratio (x) = 0.22359 0.26087
# Poissons Ratio (y) = 0.32972 0.34849
# Poissons Ratio (z) = 0.26444 0.23954
#
# Static dielectric constant tensor:
#      x y z
#    x 3.820530 -0.209010 -0.162380 
#    y -0.209010 4.541530 0.071340 
#    z -0.162380 0.071340 4.529570 
# 
# 
# High freq. dielectric constant tensor:
#      x y z
#    x 1.875900 -0.008620 -0.011740 
#    y -0.008620 1.874310 -0.001170 
#    z -0.011740 -0.001170 1.880270 
# 
# From -- ./inp_files/381303.got.cif
#   From: 2010.06.25/outbox.cif.g09.slc.cpg/sg2_191_cif.got.tgz:381303.got - 2010.06.27 13:26:56.
