data_PCOD8020876
_publ_section_title
;
Structure prediction by ZEFSAII (Michael W. Deem and Ramdas Pophale) SiO2 
 PCOD8020876
Probable space group: P -1
;
_chemical_formula_sum "Si O2"
_cell_formula_units_Z 14
_cell_length_a 14.105502
_cell_length_b 11.736855
_cell_length_c 11.850201
_cell_angle_alpha 125.794579
_cell_angle_beta 44.170557
_cell_angle_gamma 152.176470
_cell_volume 630.629636
_symmetry_space_group_name_H-M "P -1"
_symmetry_group_IT_number 2
_symmetry_cell_setting 'triclinic'
loop_
_space_group_symop_operation_xyz
x,y,z
-x,-y,-z
loop_
_atom_site_type_symbol
_atom_site_label
_atom_site_fract_x
_atom_site_fract_y
_atom_site_fract_z
Si Si1 0.246912 0.862749 0.145494
Si Si2 0.953409 0.223671 0.961614
Si Si3 0.067281 0.482496 0.222587
Si Si4 0.296217 0.259180 0.666125
Si Si5 0.644403 0.975735 0.415122
Si Si6 0.457180 0.844481 0.276904
Si Si7 0.726607 0.808169 0.607574
O O1 0.080490 0.716480 0.090381
O O2 0.090794 0.665338 0.268165
O O3 0.318598 0.082862 0.232944
O O4 0.500000 0.000000 0.000000
O O5 0.069403 0.170169 0.808523
O O6 0.123254 0.446945 0.036785
O O7 0.693231 0.985516 0.098782
O O8 0.247574 0.603251 0.240195
O O9 0.814070 0.222065 0.337506
O O10 0.234992 0.068806 0.681169
O O11 0.540852 0.538730 0.665552
O O12 0.345579 0.242842 0.490421
O O13 0.435667 0.767120 0.379532
O O14 0.558191 0.995623 0.608010
O O15 0.000000 0.000000 0.500000
#
# Coordination Sequence:
#
# PCOD8020876 Si02
#       7
#     2   2   2   2   2   2   2
#     4  12  23  43  71 100 137 174 225 285 338 394
#     4  11  24  42  66 102 134 176 224 280 339 397
#     4  11  23  40  69 100 133 175 226 279 338 390
#     4  11  25  45  66  99 140 175 224 274 338 404
#     4  10  24  44  68  97 135 177 226 280 329 407
#     4  10  22  43  65 100 130 178 231 271 340 390
#     4  11  25  44  67 100 136 179 220 270 340 404
#
# _framework density 22.200035
#
# number of rings (size 3 to 8) (size 9 to 14) (size 15 to 20)
#    0.000    1.143    2.857    2.571    0.000    6.857 
#    0.000    1.429    0.000    0.000    0.000    0.000 
#    0.000    0.000    0.000    0.000    0.000    0.000 
#
# Total GULP energy -173454.411310 kJ/mol
# GULP energy per Si atom -12389.600808 kJ/mol
# Density = 2.214951 g / cm^3
# Si number density = 22.200035 Si / 1000 Ang^3
#
#
#
# Elastic Constant Matrix: (Units=GPa)
#
#
# Indices 1 2 3 4 5 6 
#
# 1 138.7769 47.4391 45.9475 8.3261 -10.6983 6.0303
# 2 47.4391 88.1749 35.7470 6.0057 1.2406 -3.2176
# 3 45.9475 35.7470 102.6313 6.2789 -13.2933 5.2675
# 4 8.3261 6.0057 6.2789 32.2658 6.5236 12.3525
# 5 -10.6983 1.2406 -13.2933 6.5236 44.6648 8.3526
# 6 6.0303 -3.2176 5.2675 12.3525 8.3526 41.8009
#
#
#
# Elastic Compliance Matrix: (Units=1/GPa)
#
#
# Indices 1 2 3 4 5 6 
#
# 1 0.009784 -0.004278 -0.002462 -0.001100 0.002178 -0.001541
# 2 -0.004278 0.015531 -0.003957 -0.001716 -0.003023 0.003422
# 3 -0.002462 -0.003957 0.012904 -0.001158 0.003907 -0.002014
# 4 -0.001100 -0.001716 -0.001158 0.036379 -0.004047 -0.009769
# 5 0.002178 -0.003023 0.003907 -0.004047 0.025679 -0.004974
# 6 -0.001541 0.003422 -0.002014 -0.009769 -0.004974 0.028543
#
#
# Mechanical properties :
#
#
# Convention : Reuss Voigt Hill
#
# Bulk Modulus (GPa) = 59.42914 65.31669 62.37291
# Shear Modulus (GPa) = 32.08796 37.10963 34.59879
#
# Velocity S-wave (km/s) = 3.80597 4.09296 3.95207
# Velocity P-wave (km/s) = 6.79278 7.19876 6.99871
#
# Compressibility (1/GPa) = 0.01682676
#
# Stress axis : x y z
#
# Youngs Moduli (GPa) = 102.20676 64.38757 77.49522
#
# Poissons Ratio (x) = 0.27544 0.19077
# Poissons Ratio (y) = 0.43723 0.30661
# Poissons Ratio (z) = 0.25161 0.25475
#
# Static dielectric constant tensor:
#      x y z
#    x 6.108090 -0.448670 -1.006460 
#    y -0.448670 4.383020 0.760340 
#    z -1.006460 0.760340 4.924670 
# 
# 
# High freq. dielectric constant tensor:
#      x y z
#    x 1.877100 0.020910 0.007170 
#    y 0.020910 1.864840 0.009330 
#    z 0.007170 0.009330 1.878250 
# 
# From -- ./inp_files/451756.got.cif
#   From: 2010.06.25/outbox.cif.g09.slc.cpg/sg2_226_cif.got.tgz:451756.got - 2010.06.27 13:26:56.
