data_PCOD8020004
_publ_section_title
;
Structure prediction by ZEFSAII (Michael W. Deem and Ramdas Pophale) SiO2 
 PCOD8020004
Probable space group: P -1
;
_chemical_formula_sum "Si O2"
_cell_formula_units_Z 14
_cell_length_a 12.312732
_cell_length_b 14.762202
_cell_length_c 5.426366
_cell_angle_alpha 89.740362
_cell_angle_beta 126.436257
_cell_angle_gamma 121.488829
_cell_volume 605.767437
_symmetry_space_group_name_H-M "P -1"
_symmetry_group_IT_number 2
_symmetry_cell_setting 'triclinic'
loop_
_space_group_symop_operation_xyz
x,y,z
-x,-y,-z
loop_
_atom_site_type_symbol
_atom_site_label
_atom_site_fract_x
_atom_site_fract_y
_atom_site_fract_z
Si Si1 0.982511 0.726814 0.353590
Si Si2 0.110426 0.462902 0.393937
Si Si3 0.678576 0.584438 0.595932
Si Si4 0.592301 0.820830 0.760893
Si Si5 0.792324 0.307566 0.615913
Si Si6 0.688638 0.767923 0.405806
Si Si7 0.947587 0.061496 0.263628
O O1 0.895817 0.602862 0.375646
O O2 0.154473 0.763780 0.439726
O O3 0.045457 0.837164 0.601206
O O4 0.831246 0.696724 0.967814
O O5 0.257030 0.485715 0.404812
O O6 0.179663 0.595189 0.538328
O O7 0.915725 0.380530 0.015752
O O8 0.500000 0.500000 0.500000
O O9 0.652362 0.644168 0.334476
O O10 0.406677 0.790425 0.553067
O O11 0.579146 0.754804 0.496316
O O12 0.632577 0.784159 0.067396
O O13 0.745816 0.961095 0.904100
O O14 0.900069 0.874044 0.741954
O O15 0.000000 0.000000 0.500000
#
# Coordination Sequence:
#
# PCOD8020004 Si02
#       7
#     2   2   2   2   2   2   2
#     4  11  23  42  67  93 136 179 221 278 342 403
#     4  10  22  42  64  93 133 180 220 282 339 401
#     4  11  23  37  65 101 134 172 226 280 343 408
#     4  11  25  42  71  99 136 182 230 280 328 404
#     4  10  24  42  65  95 133 178 234 270 338 400
#     4  11  23  43  66 102 139 174 224 283 345 398
#     4  10  22  44  69  97 135 177 223 280 346 398
#
# _framework density 23.111176
#
# number of rings (size 3 to 8) (size 9 to 14) (size 15 to 20)
#    0.000    1.429    1.429    3.429    4.000    2.286 
#    0.000    0.714    0.000    0.000    0.000    0.000 
#    0.000    0.000    0.000    0.000    0.000    0.000 
#
# Total GULP energy -173509.078675 kJ/mol
# GULP energy per Si atom -12393.505620 kJ/mol
# Density = 2.305857 g / cm^3
# Si number density = 23.111176 Si / 1000 Ang^3
#
#
#
# Elastic Constant Matrix: (Units=GPa)
#
#
# Indices 1 2 3 4 5 6 
#
# 1 136.3477 35.0327 56.6360 5.0088 32.7211 11.9079
# 2 35.0327 75.0071 6.7785 -5.0872 13.3338 6.6201
# 3 56.6360 6.7785 51.6422 -0.2895 18.6198 8.1130
# 4 5.0088 -5.0872 -0.2895 27.0011 15.5300 -1.9589
# 5 32.7211 13.3338 18.6198 15.5300 46.2706 8.8786
# 6 11.9079 6.6201 8.1130 -1.9589 8.8786 38.5662
#
#
#
# Elastic Compliance Matrix: (Units=1/GPa)
#
#
# Indices 1 2 3 4 5 6 
#
# 1 0.016266 -0.005929 -0.016256 -0.003076 -0.002174 -0.000241
# 2 -0.005929 0.017130 0.006503 0.007673 -0.005791 -0.000755
# 3 -0.016256 0.006503 0.040120 0.010022 -0.009535 -0.001833
# 4 -0.003076 0.007673 0.010022 0.052662 -0.022789 0.005445
# 5 -0.002174 -0.005791 -0.009535 -0.022789 0.037477 -0.006114
# 6 -0.000241 -0.000755 -0.001833 0.005445 -0.006114 0.028203
#
#
# Mechanical properties :
#
#
# Convention : Reuss Voigt Hill
#
# Bulk Modulus (GPa) = 23.72303 51.09905 37.41104
# Shear Modulus (GPa) = 21.07289 33.33757 27.20523
#
# Velocity S-wave (km/s) = 3.02289 3.80213 3.43468
# Velocity P-wave (km/s) = 4.74034 6.43685 5.65260
#
# Compressibility (1/GPa) = 0.04215312
#
# Stress axis : x y z
#
# Youngs Moduli (GPa) = 61.47958 58.37721 24.92504
#
# Poissons Ratio (x) = 0.34611 0.40518
# Poissons Ratio (y) = 0.36450 -0.16209
# Poissons Ratio (z) = 0.99940 -0.37964
#
# Static dielectric constant tensor:
#      x y z
#    x 4.330540 0.093870 0.269500 
#    y 0.093870 4.544990 0.098540 
#    z 0.269500 0.098540 4.131210 
# 
# 
# High freq. dielectric constant tensor:
#      x y z
#    x 1.926970 0.006210 0.015100 
#    y 0.006210 1.914120 -0.002420 
#    z 0.015100 -0.002420 1.893520 
# 
# From -- ./inp_files/72190.got.cif
#   From: 2010.06.25/outbox.cif.g09.slc.cpg/sg2_37_cif.got.tgz:72190.got - 2010.06.27 13:26:56.
