data_PCOD8020430
_publ_section_title
;
Structure prediction by ZEFSAII (Michael W. Deem and Ramdas Pophale) SiO2 
 PCOD8020430
Probable space group: P -1
;
_chemical_formula_sum "Si O2"
_cell_formula_units_Z 14
_cell_length_a 12.926485
_cell_length_b 11.706196
_cell_length_c 8.952032
_cell_angle_alpha 128.861923
_cell_angle_beta 126.183529
_cell_angle_gamma 37.568734
_cell_volume 630.646544
_symmetry_space_group_name_H-M "P -1"
_symmetry_group_IT_number 2
_symmetry_cell_setting 'triclinic'
loop_
_space_group_symop_operation_xyz
x,y,z
-x,-y,-z
loop_
_atom_site_type_symbol
_atom_site_label
_atom_site_fract_x
_atom_site_fract_y
_atom_site_fract_z
Si Si1 0.826754 0.199863 0.585286
Si Si2 0.733550 0.016992 0.877487
Si Si3 0.983924 0.584368 0.715217
Si Si4 0.659375 0.791777 0.779227
Si Si5 0.392616 0.650702 0.768305
Si Si6 0.733633 0.565096 0.939676
Si Si7 0.588054 0.218574 0.610694
O O1 0.673709 0.314129 0.427394
O O2 0.852397 0.349599 0.780693
O O3 0.761552 0.153329 0.631647
O O4 0.000000 0.000000 0.500000
O O5 0.629563 0.107827 0.709752
O O6 0.922506 0.802743 0.828295
O O7 0.632165 0.986174 0.882098
O O8 0.749987 0.162915 0.092263
O O9 0.835742 0.605031 0.691731
O O10 0.000000 0.500000 0.500000
O O11 0.164055 0.442158 0.840700
O O12 0.685880 0.736982 0.931283
O O13 0.490171 0.839585 0.616132
O O14 0.562059 0.620509 0.897815
O O15 0.442159 0.453612 0.711825
#
# Coordination Sequence:
#
# PCOD8020430 Si02
#       7
#     2   2   2   2   2   2   2
#     4  11  23  42  71  99 132 171 226 281 328 397
#     4  10  25  40  63 103 135 175 220 269 334 398
#     4  10  25  43  64  97 139 174 219 274 337 391
#     4  10  22  42  68  93 138 170 229 263 335 393
#     4  11  22  43  69  97 133 175 228 270 333 394
#     4  11  21  44  68  96 132 180 222 276 329 392
#     4  11  21  45  67  98 134 179 220 276 331 396
#
# _framework density 22.199439999999999
#
# number of rings (size 3 to 8) (size 9 to 14) (size 15 to 20)
#    0.857    0.571    2.857    3.000    2.000    1.714 
#    2.571    3.571    0.000    0.000    0.000    0.000 
#    0.000    0.000    0.000    0.000    0.000    0.000 
#
# Total GULP energy -173556.684779 kJ/mol
# GULP energy per Si atom -12396.906056 kJ/mol
# Density = 2.214891 g / cm^3
# Si number density = 22.199440 Si / 1000 Ang^3
#
#
#
# Elastic Constant Matrix: (Units=GPa)
#
#
# Indices 1 2 3 4 5 6 
#
# 1 42.0270 16.9762 12.4948 -13.0758 4.0649 9.6131
# 2 16.9762 109.3247 35.6070 -9.0594 -9.1984 26.0715
# 3 12.4948 35.6070 118.7013 -19.4541 -12.4425 8.9799
# 4 -13.0758 -9.0594 -19.4541 47.3649 -2.1467 -12.2599
# 5 4.0649 -9.1984 -12.4425 -2.1467 26.1379 -0.7258
# 6 9.6131 26.0715 8.9799 -12.2599 -0.7258 32.9774
#
#
#
# Elastic Compliance Matrix: (Units=1/GPa)
#
#
# Indices 1 2 3 4 5 6 
#
# 1 0.028606 -0.003150 -0.001522 0.005489 -0.005929 -0.003524
# 2 -0.003150 0.012829 -0.002774 -0.001748 0.003289 -0.009046
# 3 -0.001522 -0.002774 0.010433 0.003890 0.004584 0.001343
# 4 0.005489 -0.001748 0.003890 0.026226 0.002774 0.008533
# 5 -0.005929 0.003289 0.004584 0.002774 0.042744 -0.000149
# 6 -0.003524 -0.009046 0.001343 0.008533 -0.000149 0.041306
#
#
# Mechanical properties :
#
#
# Convention : Reuss Voigt Hill
#
# Bulk Modulus (GPa) = 27.04368 44.46767 35.75567
# Shear Modulus (GPa) = 26.40454 34.96103 30.68279
#
# Velocity S-wave (km/s) = 3.45254 3.97276 3.72175
# Velocity P-wave (km/s) = 5.30113 6.41235 5.88304
#
# Compressibility (1/GPa) = 0.03697722
#
# Stress axis : x y z
#
# Youngs Moduli (GPa) = 34.95743 77.94873 95.84779
#
# Poissons Ratio (x) = 0.24554 0.14583
# Poissons Ratio (y) = 0.11012 0.26588
# Poissons Ratio (z) = 0.05319 0.21623
#
# Static dielectric constant tensor:
#      x y z
#    x 3.736430 0.091740 0.015860 
#    y 0.091740 4.104710 0.103640 
#    z 0.015860 0.103640 3.904640 
# 
# 
# High freq. dielectric constant tensor:
#      x y z
#    x 1.853270 0.005240 -0.005470 
#    y 0.005240 1.882060 -0.001000 
#    z -0.005470 -0.001000 1.874670 
# 
# From -- ./inp_files/308597.got.cif
#   From: 2010.06.25/outbox.cif.g09.slc.cpg/sg2_155_cif.got.tgz:308597.got - 2010.06.27 13:26:56.
