data_PCOD8020538
_publ_section_title
;
Structure prediction by ZEFSAII (Michael W. Deem and Ramdas Pophale) SiO2 
 PCOD8020538
Probable space group: P -1
;
_chemical_formula_sum "Si O2"
_cell_formula_units_Z 16
_cell_length_a 9.980137
_cell_length_b 21.379476
_cell_length_c 9.879706
_cell_angle_alpha 27.063290
_cell_angle_beta 55.270281
_cell_angle_gamma 55.071368
_cell_volume 776.149647
_symmetry_space_group_name_H-M "P -1"
_symmetry_group_IT_number 2
_symmetry_cell_setting 'triclinic'
loop_
_space_group_symop_operation_xyz
x,y,z
-x,-y,-z
loop_
_atom_site_type_symbol
_atom_site_label
_atom_site_fract_x
_atom_site_fract_y
_atom_site_fract_z
Si Si1 0.823483 0.452337 0.200301
Si Si2 0.279251 0.750651 0.145088
Si Si3 0.194133 0.320185 0.780318
Si Si4 0.360438 0.628092 0.790173
Si Si5 0.337419 0.297836 0.024670
Si Si6 0.642580 0.985405 0.336148
Si Si7 0.509759 0.885268 0.099541
Si Si8 0.814528 0.366569 0.856030
O O1 0.826685 0.316244 0.554095
O O2 0.767126 0.429704 0.124554
O O3 0.685402 0.565176 0.135082
O O4 0.000000 0.500000 0.000000
O O5 0.248710 0.703124 0.104325
O O6 0.479202 0.722039 0.109571
O O7 0.225484 0.918362 0.874426
O O8 0.302118 0.185215 0.907382
O O9 0.248477 0.466502 0.426590
O O10 0.010268 0.322283 0.831010
O O11 0.205834 0.309518 0.956224
O O12 0.422599 0.756064 0.436578
O O13 0.500000 0.500000 0.000000
O O14 0.263449 0.694142 0.851395
O O15 0.288041 0.179621 0.381969
O O16 0.500000 0.000000 0.500000
O O17 0.578333 0.031660 0.136237
O O18 0.500000 0.000000 0.000000
#
# Coordination Sequence:
#
# PCOD8020538 Si02
#       8
#     2   2   2   2   2   2   2   2
#     4  12  25  41  65  99 137 169 219 280 334 377
#     4  11  22  43  68  98 122 176 229 268 312 405
#     4  11  22  44  65 101 134 170 219 273 330 398
#     4  12  25  42  66 102 135 171 224 277 329 394
#     4  11  22  41  75  92 126 179 227 266 319 394
#     4  10  22  42  69  95 128 169 232 263 317 397
#     4  12  26  44  68 100 137 171 222 282 333 389
#     4  11  25  39  70  98 136 172 213 274 338 387
#
# _framework density 20.614581999999999
#
# number of rings (size 3 to 8) (size 9 to 14) (size 15 to 20)
#    0.000    0.750    6.250    1.875    7.000    0.000 
#    0.000    4.375    0.000    0.000    0.000    0.000 
#    0.000    0.000    0.000    0.000    0.000    0.000 
#
# Total GULP energy -198360.085062 kJ/mol
# GULP energy per Si atom -12397.505316 kJ/mol
# Density = 2.056766 g / cm^3
# Si number density = 20.614582 Si / 1000 Ang^3
#
#
#
# Elastic Constant Matrix: (Units=GPa)
#
#
# Indices 1 2 3 4 5 6 
#
# 1 101.3003 36.3274 43.7044 0.8682 1.2328 26.4394
# 2 36.3274 78.2361 23.7084 5.5835 4.8215 18.0490
# 3 43.7044 23.7084 142.7532 11.4805 0.4220 0.4609
# 4 0.8682 5.5835 11.4805 32.9683 5.2026 6.1686
# 5 1.2328 4.8215 0.4220 5.2026 34.9414 5.2530
# 6 26.4394 18.0490 0.4609 6.1686 5.2530 28.7101
#
#
#
# Elastic Compliance Matrix: (Units=1/GPa)
#
#
# Indices 1 2 3 4 5 6 
#
# 1 0.016992 -0.003421 -0.004942 0.004355 0.001482 -0.014626
# 2 -0.003421 0.016567 -0.001623 -0.000700 -0.001003 -0.006905
# 3 -0.004942 -0.001623 0.009083 -0.003922 -0.000072 0.006281
# 4 0.004355 -0.000700 -0.003922 0.034172 -0.003565 -0.010197
# 5 0.001482 -0.001003 -0.000072 -0.003565 0.030059 -0.005467
# 6 -0.014626 -0.006905 0.006281 -0.010197 -0.005467 0.055731
#
#
# Mechanical properties :
#
#
# Convention : Reuss Voigt Hill
#
# Bulk Modulus (GPa) = 44.10712 58.86333 51.48522
# Shear Modulus (GPa) = 26.29771 33.89391 30.09581
#
# Velocity S-wave (km/s) = 3.57555 4.05924 3.82505
# Velocity P-wave (km/s) = 6.20392 7.11239 6.67363
#
# Compressibility (1/GPa) = 0.02267208
#
# Stress axis : x y z
#
# Youngs Moduli (GPa) = 58.85063 60.36274 110.09852
#
# Poissons Ratio (x) = 0.20648 0.54406
# Poissons Ratio (y) = 0.20130 0.17864
# Poissons Ratio (z) = 0.29081 0.09794
#
# Static dielectric constant tensor:
#      x y z
#    x 3.648190 0.261380 0.023110 
#    y 0.261380 4.013150 -0.163900 
#    z 0.023110 -0.163900 4.286830 
# 
# 
# High freq. dielectric constant tensor:
#      x y z
#    x 1.800380 0.019570 0.001770 
#    y 0.019570 1.802950 0.001660 
#    z 0.001770 0.001660 1.823420 
# 
# From -- ./inp_files/222837.got.cif
#   From: 2010.06.25/outbox.cif.g09.slc.cpg/sg2_112_cif.got.tgz:222837.got - 2010.06.27 13:26:56.
