data_PCOD8020505
_publ_section_title
;
Structure prediction by ZEFSAII (Michael W. Deem and Ramdas Pophale) SiO2 
 PCOD8020505
Probable space group: P -1
;
_chemical_formula_sum "Si O2"
_cell_formula_units_Z 12
_cell_length_a 16.506930
_cell_length_b 4.930505
_cell_length_c 7.933828
_cell_angle_alpha 96.342016
_cell_angle_beta 58.880991
_cell_angle_gamma 120.992792
_cell_volume 463.089596
_symmetry_space_group_name_H-M "P -1"
_symmetry_group_IT_number 2
_symmetry_cell_setting 'triclinic'
loop_
_space_group_symop_operation_xyz
x,y,z
-x,-y,-z
loop_
_atom_site_type_symbol
_atom_site_label
_atom_site_fract_x
_atom_site_fract_y
_atom_site_fract_z
Si Si1 0.311300 0.404297 0.559159
Si Si2 0.928938 0.355748 0.817960
Si Si3 0.507483 0.780360 0.115257
Si Si4 0.824356 0.340294 0.383585
Si Si5 0.846541 0.713512 0.722438
Si Si6 0.300931 0.178265 0.902666
O O1 0.410170 0.653247 0.348505
O O2 0.234143 0.553426 0.684134
O O3 0.360927 0.392263 0.686910
O O4 0.242674 0.041695 0.530247
O O5 0.914002 0.626383 0.771906
O O6 0.047494 0.525036 0.798764
O O7 0.923251 0.111103 0.658192
O O8 0.823017 0.132864 0.043422
O O9 0.625373 0.948141 0.102289
O O10 0.500000 0.500000 0.000000
O O11 0.500000 0.000000 0.000000
O O12 0.820672 0.525101 0.565246
O O13 0.724223 0.618076 0.921528
#
# Coordination Sequence:
#
# PCOD8020505 Si02
#       6
#     2   2   2   2   2   2
#     4  12  28  44  73 108 148 184 232 300 357 424
#     4  10  23  41  75 100 149 188 239 283 348 418
#     4  12  28  50  77 102 134 188 245 299 350 426
#     4  12  24  44  70 111 146 189 241 282 351 424
#     4  10  22  42  69 103 138 197 234 285 341 415
#     4  10  28  46  74 104 148 185 236 291 368 411
#
# _framework density 25.91291
#
# number of rings (size 3 to 8) (size 9 to 14) (size 15 to 20)
#    1.000    0.000    0.000    5.500    9.333    1.333 
#    0.000    3.333    0.000    0.000    0.000    0.000 
#    0.000    0.000    0.000    0.000    0.000    0.000 
#
# Total GULP energy -148734.858185 kJ/mol
# GULP energy per Si atom -12394.571515 kJ/mol
# Density = 2.585393 g / cm^3
# Si number density = 25.912910 Si / 1000 Ang^3
#
#
#
# Elastic Constant Matrix: (Units=GPa)
#
#
# Indices 1 2 3 4 5 6 
#
# 1 213.5949 35.6069 75.7794 -28.2697 -16.5469 -32.9473
# 2 35.6069 96.7870 25.8381 -17.8420 -20.2223 -26.9454
# 3 75.7794 25.8381 137.6871 -26.1193 0.2729 -12.2286
# 4 -28.2697 -17.8420 -26.1193 25.8647 -4.5713 -2.3471
# 5 -16.5469 -20.2223 0.2729 -4.5713 35.5426 -2.9478
# 6 -32.9473 -26.9454 -12.2286 -2.3471 -2.9478 43.2050
#
#
#
# Elastic Compliance Matrix: (Units=1/GPa)
#
#
# Indices 1 2 3 4 5 6 
#
# 1 0.008722 0.004498 -0.002335 0.012809 0.009124 0.010114
# 2 0.004498 0.023993 0.000020 0.027132 0.021001 0.021306
# 3 -0.002335 0.000020 0.010174 0.007874 -0.000014 0.001538
# 4 0.012809 0.027132 0.007874 0.088938 0.035780 0.036190
# 5 0.009124 0.021001 -0.000014 0.035780 0.051047 0.025478
# 6 0.010114 0.021306 0.001538 0.036190 0.025478 0.048286
#
#
# Mechanical properties :
#
#
# Convention : Reuss Voigt Hill
#
# Bulk Modulus (GPa) = 21.16159 80.27976 50.72067
# Shear Modulus (GPa) = 20.61459 41.64544 31.13001
#
# Velocity S-wave (km/s) = 2.82358 4.01325 3.46978
# Velocity P-wave (km/s) = 4.33755 7.24726 5.97231
#
# Compressibility (1/GPa) = 0.04725542
#
# Stress axis : x y z
#
# Youngs Moduli (GPa) = 114.64629 41.67858 98.28640
#
# Poissons Ratio (x) = -0.18746 0.22946
# Poissons Ratio (y) = -0.51564 -0.00193
# Poissons Ratio (z) = 0.26765 -0.00082
#
# Static dielectric constant tensor:
#      x y z
#    x 5.324700 -0.270120 -0.342630 
#    y -0.270120 4.661720 0.101920 
#    z -0.342630 0.101920 4.562820 
# 
# 
# High freq. dielectric constant tensor:
#      x y z
#    x 2.047650 -0.013560 -0.008630 
#    y -0.013560 2.040810 0.009530 
#    z -0.008630 0.009530 2.035440 
# 
# From -- ./inp_files/286289.got.cif
#   From: 2010.06.25/outbox.cif.g09.slc.cpg/sg2_144_cif.got.tgz:286289.got - 2010.06.27 13:26:56.
