data_PCOD8020246
_publ_section_title
;
Structure prediction by ZEFSAII (Michael W. Deem and Ramdas Pophale) SiO2 
 PCOD8020246
Probable space group: P -1
;
_chemical_formula_sum "Si O2"
_cell_formula_units_Z 16
_cell_length_a 18.738171
_cell_length_b 15.523746
_cell_length_c 10.556600
_cell_angle_alpha 144.990121
_cell_angle_beta 45.234133
_cell_angle_gamma 155.835018
_cell_volume 708.972528
_symmetry_space_group_name_H-M "P -1"
_symmetry_group_IT_number 2
_symmetry_cell_setting 'triclinic'
loop_
_space_group_symop_operation_xyz
x,y,z
-x,-y,-z
loop_
_atom_site_type_symbol
_atom_site_label
_atom_site_fract_x
_atom_site_fract_y
_atom_site_fract_z
Si Si1 0.241376 0.014121 0.246320
Si Si2 0.966783 0.456607 0.828919
Si Si3 0.674964 0.518901 0.650032
Si Si4 0.378788 0.229648 0.053291
Si Si5 0.745201 0.588885 0.941913
Si Si6 0.044714 0.906306 0.572297
Si Si7 0.976478 0.324861 0.236811
Si Si8 0.576895 0.964328 0.778711
O O1 0.138369 0.024766 0.458389
O O2 0.318434 0.155869 0.186488
O O3 0.403797 0.162023 0.310811
O O4 0.102464 0.698164 0.055111
O O5 0.985497 0.302083 0.594191
O O6 0.041788 0.645916 0.848285
O O7 0.762789 0.252995 0.842595
O O8 0.566069 0.536787 0.781032
O O9 0.728219 0.561994 0.780209
O O10 0.552215 0.229461 0.411249
O O11 0.852150 0.746001 0.615214
O O12 0.550144 0.334694 0.943928
O O13 0.216881 0.984843 0.867445
O O14 0.865064 0.597639 0.847394
O O15 0.834177 0.855501 0.192183
O O16 0.000000 0.500000 0.500000
O O17 0.500000 0.000000 0.000000
#
# Coordination Sequence:
#
# PCOD8020246 Si02
#       8
#     2   2   2   2   2   2   2   2
#     4  10  23  44  66 101 140 178 230 288 344 410
#     4  10  22  42  66  99 136 177 230 277 346 407
#     4  12  25  43  69 102 138 181 235 288 340 416
#     4  11  26  45  69 105 138 178 237 282 349 410
#     4  12  27  46  72 101 140 184 235 286 344 416
#     4  11  22  44  74  95 139 188 226 287 346 409
#     4  11  26  45  69 100 140 185 221 291 348 410
#     4  11  23  39  68  98 131 181 225 283 344 409
#
# _framework density 22.567869999999999
#
# number of rings (size 3 to 8) (size 9 to 14) (size 15 to 20)
#    0.000    1.000    1.250    6.000    5.250    4.000 
#    0.000    0.000    0.000    0.000    0.000    0.000 
#    0.000    0.000    0.000    0.000    0.000    0.000 
#
# Total GULP energy -198361.976854 kJ/mol
# GULP energy per Si atom -12397.623553 kJ/mol
# Density = 2.251650 g / cm^3
# Si number density = 22.567870 Si / 1000 Ang^3
#
#
#
# Elastic Constant Matrix: (Units=GPa)
#
#
# Indices 1 2 3 4 5 6 
#
# 1 69.4801 24.2468 34.5883 -1.5566 1.5153 13.6130
# 2 24.2468 128.5823 43.5964 -7.5780 7.2006 26.8018
# 3 34.5883 43.5964 155.5964 1.4311 14.9646 13.9208
# 4 -1.5566 -7.5780 1.4311 34.6641 6.5542 -0.9165
# 5 1.5153 7.2006 14.9646 6.5542 35.0600 0.3252
# 6 13.6130 26.8018 13.9208 -0.9165 0.3252 36.0122
#
#
#
# Elastic Compliance Matrix: (Units=1/GPa)
#
#
# Indices 1 2 3 4 5 6 
#
# 1 0.017263 -0.001306 -0.003169 0.000345 0.000850 -0.004327
# 2 -0.001306 0.010203 -0.001870 0.002391 -0.001629 -0.006301
# 3 -0.003169 -0.001870 0.007971 -0.000362 -0.002809 -0.000475
# 4 0.000345 0.002391 -0.000362 0.030520 -0.006048 -0.000939
# 5 0.000850 -0.001629 -0.002809 -0.006048 0.031136 0.001542
# 6 -0.004327 -0.006301 -0.000475 -0.000939 0.001542 0.034240
#
#
# Mechanical properties :
#
#
# Convention : Reuss Voigt Hill
#
# Bulk Modulus (GPa) = 43.96198 62.05797 53.00997
# Shear Modulus (GPa) = 32.98010 37.89576 35.43793
#
# Velocity S-wave (km/s) = 3.82694 4.10224 3.96698
# Velocity P-wave (km/s) = 6.24896 7.07078 6.67253
#
# Compressibility (1/GPa) = 0.02274693
#
# Stress axis : x y z
#
# Youngs Moduli (GPa) = 57.92666 98.01024 125.44803
#
# Poissons Ratio (x) = 0.12800 0.39760
# Poissons Ratio (y) = 0.07565 0.23458
# Poissons Ratio (z) = 0.18359 0.18328
#
# Static dielectric constant tensor:
#      x y z
#    x 3.982420 0.282150 0.145770 
#    y 0.282150 4.251770 0.117290 
#    z 0.145770 0.117290 4.231310 
# 
# 
# High freq. dielectric constant tensor:
#      x y z
#    x 1.881890 0.008780 0.012800 
#    y 0.008780 1.902800 0.001350 
#    z 0.012800 0.001350 1.903720 
# 
# From -- ./inp_files/472492.got.cif
#   From: 2010.06.25/outbox.cif.g09.slc.cpg/sg2_237_cif.got.tgz:472492.got - 2010.06.27 13:26:56.
