data_PCOD8020314
_publ_section_title
;
Structure prediction by ZEFSAII (Michael W. Deem and Ramdas Pophale) SiO2 
 PCOD8020314
Probable space group: P -1
;
_chemical_formula_sum "Si O2"
_cell_formula_units_Z 16
_cell_length_a 11.110778
_cell_length_b 8.408485
_cell_length_c 13.463714
_cell_angle_alpha 109.257578
_cell_angle_beta 36.171336
_cell_angle_gamma 99.232849
_cell_volume 688.092159
_symmetry_space_group_name_H-M "P -1"
_symmetry_group_IT_number 2
_symmetry_cell_setting 'triclinic'
loop_
_space_group_symop_operation_xyz
x,y,z
-x,-y,-z
loop_
_atom_site_type_symbol
_atom_site_label
_atom_site_fract_x
_atom_site_fract_y
_atom_site_fract_z
Si Si1 0.390305 0.100258 0.996489
Si Si2 0.293668 0.318861 0.533652
Si Si3 0.216061 0.059429 0.385116
Si Si4 0.492796 0.517038 0.273829
Si Si5 0.010600 0.996313 0.111829
Si Si6 0.787820 0.623839 0.690955
Si Si7 0.957633 0.374726 0.919041
Si Si8 0.579730 0.175978 0.484243
O O1 0.264013 0.292254 0.147461
O O2 0.229957 0.010389 0.020418
O O3 0.500000 0.000000 0.000000
O O4 0.590388 0.100441 0.792210
O O5 0.240098 0.137365 0.494100
O O6 0.364351 0.436120 0.426495
O O7 0.483083 0.287824 0.478076
O O8 0.079837 0.416291 0.747498
O O9 0.233955 0.211049 0.329635
O O10 0.000000 0.000000 0.500000
O O11 0.374574 0.500782 0.246761
O O12 0.494758 0.713356 0.343666
O O13 0.712635 0.402981 0.076631
O O14 0.950560 0.818565 0.149271
O O15 0.829398 0.146538 0.304499
O O16 0.000000 0.000000 0.000000
O O17 0.000000 0.500000 0.500000
O O18 0.000000 0.500000 0.000000
O O19 0.500000 0.000000 0.500000
#
# Coordination Sequence:
#
# PCOD8020314 Si02
#       8
#     2   2   2   2   2   2   2   2
#     4  10  22  43  69  96 129 184 230 261 340 414
#     4  11  24  42  67  95 137 175 230 268 348 409
#     4  10  23  40  67  95 127 174 229 281 322 403
#     4  11  24  43  66  94 134 179 221 276 338 412
#     4  12  25  41  68  99 138 171 223 288 341 393
#     4  10  22  42  67  94 129 174 221 274 350 391
#     4  12  24  42  66  98 129 181 226 271 337 421
#     4  12  23  41  64  99 131 172 213 280 337 394
#
# _framework density 23.252697000000001
#
# number of rings (size 3 to 8) (size 9 to 14) (size 15 to 20)
#    0.000    1.000    2.500    4.875    7.000    1.000 
#    0.000    1.875    0.000    0.000    0.000    0.000 
#    0.000    0.000    0.000    0.000    0.000    0.000 
#
# Total GULP energy -198218.007275 kJ/mol
# GULP energy per Si atom -12388.625455 kJ/mol
# Density = 2.319977 g / cm^3
# Si number density = 23.252697 Si / 1000 Ang^3
#
#
#
# Elastic Constant Matrix: (Units=GPa)
#
#
# Indices 1 2 3 4 5 6 
#
# 1 117.0673 18.1066 45.6072 7.4358 -17.2803 34.5655
# 2 18.1066 68.0108 34.0845 13.8258 -3.3157 24.2744
# 3 45.6072 34.0845 211.6277 21.3337 -8.6679 14.7648
# 4 7.4358 13.8258 21.3337 42.9738 9.4024 4.9189
# 5 -17.2803 -3.3157 -8.6679 9.4024 34.5364 0.6852
# 6 34.5655 24.2744 14.7648 4.9189 0.6852 37.3155
#
#
#
# Elastic Compliance Matrix: (Units=1/GPa)
#
#
# Indices 1 2 3 4 5 6 
#
# 1 0.014480 0.003290 -0.002038 -0.002650 0.008059 -0.014545
# 2 0.003290 0.022081 -0.002371 -0.005795 0.005062 -0.015802
# 3 -0.002038 -0.002371 0.005679 -0.002021 0.000699 0.001437
# 4 -0.002650 -0.005795 -0.002021 0.028431 -0.010199 0.003464
# 5 0.008059 0.005062 0.000699 -0.010199 0.036631 -0.010363
# 6 -0.014545 -0.015802 0.001437 0.003464 -0.010363 0.049716
#
#
# Mechanical properties :
#
#
# Convention : Reuss Voigt Hill
#
# Bulk Modulus (GPa) = 25.00040 65.81138 45.40589
# Shear Modulus (GPa) = 28.97027 42.89231 35.93129
#
# Velocity S-wave (km/s) = 3.53354 4.29956 3.93523
# Velocity P-wave (km/s) = 5.23668 7.28096 6.34174
#
# Compressibility (1/GPa) = 0.03999936
#
# Stress axis : x y z
#
# Youngs Moduli (GPa) = 69.06130 45.28779 176.10112
#
# Poissons Ratio (x) = -0.14898 0.35894
# Poissons Ratio (y) = -0.22718 0.41759
# Poissons Ratio (z) = 0.14077 0.10739
#
# Static dielectric constant tensor:
#      x y z
#    x 4.523270 0.566530 0.538240 
#    y 0.566530 4.117320 0.367970 
#    z 0.538240 0.367970 4.235840 
# 
# 
# High freq. dielectric constant tensor:
#      x y z
#    x 1.923730 0.026970 -0.003950 
#    y 0.026970 1.897690 0.016050 
#    z -0.003950 0.016050 1.944960 
# 
# From -- ./inp_files/515829.got.cif
#   From: 2010.06.25/outbox.cif.g09.slc.cpg/sg2_258_cif.got.tgz:515829.got - 2010.06.27 13:26:56.
