data_PCOD8020229
_publ_section_title
;
Structure prediction by ZEFSAII (Michael W. Deem and Ramdas Pophale) SiO2 
 PCOD8020229
Probable space group: P -1
;
_chemical_formula_sum "Si O2"
_cell_formula_units_Z 14
_cell_length_a 14.372197
_cell_length_b 8.165227
_cell_length_c 9.458697
_cell_angle_alpha 90.854121
_cell_angle_beta 35.614448
_cell_angle_gamma 72.825389
_cell_volume 548.898717
_symmetry_space_group_name_H-M "P -1"
_symmetry_group_IT_number 2
_symmetry_cell_setting 'triclinic'
loop_
_space_group_symop_operation_xyz
x,y,z
-x,-y,-z
loop_
_atom_site_type_symbol
_atom_site_label
_atom_site_fract_x
_atom_site_fract_y
_atom_site_fract_z
Si Si1 0.510289 0.355432 0.328712
Si Si2 0.519617 0.143958 0.578023
Si Si3 0.269902 0.938216 0.167296
Si Si4 0.134984 0.330623 0.212844
Si Si5 0.860642 0.304772 0.787339
Si Si6 0.780940 0.915080 0.487073
Si Si7 0.128078 0.483251 0.710456
O O1 0.523987 0.304120 0.476791
O O2 0.294543 0.515856 0.555731
O O3 0.576023 0.160275 0.148792
O O4 0.651816 0.428994 0.120378
O O5 0.715982 0.032691 0.421837
O O6 0.500000 0.000000 0.500000
O O7 0.347883 0.236051 0.899100
O O8 0.151714 0.831605 0.318018
O O9 0.352272 0.935228 0.221341
O O10 0.129032 0.173289 0.320590
O O11 0.091604 0.538567 0.336449
O O12 0.001749 0.362473 0.244691
O O13 0.001322 0.169232 0.737985
O O14 0.762205 0.730322 0.493722
O O15 0.000000 0.500000 0.000000
#
# Coordination Sequence:
#
# PCOD8020229 Si02
#       7
#     2   2   2   2   2   2   2
#     4  10  22  42  66  97 145 168 219 290 332 384
#     4  12  20  40  68 103 131 179 225 279 330 405
#     4  10  23  46  70  99 137 176 228 280 334 401
#     4  11  22  41  71  96 137 182 224 272 345 398
#     4   9  24  44  65 104 139 170 224 290 326 405
#     4  11  23  42  73  95 138 183 224 274 347 397
#     4  11  21  38  66  98 134 177 221 277 332 400
#
# _framework density 25.505617000000001
#
# number of rings (size 3 to 8) (size 9 to 14) (size 15 to 20)
#    0.857    0.571    4.286    0.429    0.000    5.714 
#    2.571    0.714    0.000    0.000    0.000    0.000 
#    0.000    0.000    0.000    0.000    0.000    0.000 
#
# Total GULP energy -173456.340054 kJ/mol
# GULP energy per Si atom -12389.738575 kJ/mol
# Density = 2.544756 g / cm^3
# Si number density = 25.505617 Si / 1000 Ang^3
#
#
#
# Elastic Constant Matrix: (Units=GPa)
#
#
# Indices 1 2 3 4 5 6 
#
# 1 143.8076 47.5990 38.0805 -6.6331 0.3044 -29.4130
# 2 47.5990 111.4481 25.8681 -20.8221 -2.6478 -5.0715
# 3 38.0805 25.8681 96.1312 -3.0114 -9.6855 9.0183
# 4 -6.6331 -20.8221 -3.0114 36.7388 2.8296 1.7224
# 5 0.3044 -2.6478 -9.6855 2.8296 52.2699 8.8526
# 6 -29.4130 -5.0715 9.0183 1.7224 8.8526 43.2040
#
#
#
# Elastic Compliance Matrix: (Units=1/GPa)
#
#
# Indices 1 2 3 4 5 6 
#
# 1 0.011018 -0.003426 -0.004515 -0.000532 -0.002498 0.008574
# 2 -0.003426 0.011885 -0.001553 0.006019 0.000158 -0.000886
# 3 -0.004515 -0.001553 0.013600 -0.000542 0.003652 -0.006822
# 4 -0.000532 0.006019 -0.000542 0.030618 -0.001368 -0.000483
# 5 -0.002498 0.000158 0.003652 -0.001368 0.021040 -0.006701
# 6 0.008574 -0.000886 -0.006822 -0.000483 -0.006701 0.031696
#
#
# Mechanical properties :
#
#
# Convention : Reuss Voigt Hill
#
# Bulk Modulus (GPa) = 57.10008 63.83133 60.46570
# Shear Modulus (GPa) = 34.55830 42.43183 38.49507
#
# Velocity S-wave (km/s) = 3.68493 4.08318 3.88916
# Velocity P-wave (km/s) = 6.36717 6.87827 6.62764
#
# Compressibility (1/GPa) = 0.01751311
#
# Stress axis : x y z
#
# Youngs Moduli (GPa) = 90.76170 84.14183 73.52942
#
# Poissons Ratio (x) = 0.28829 0.33200
# Poissons Ratio (y) = 0.31098 0.11421
# Poissons Ratio (z) = 0.40981 0.13069
#
# Static dielectric constant tensor:
#      x y z
#    x 4.796560 0.066920 0.050270 
#    y 0.066920 4.490490 0.227560 
#    z 0.050270 0.227560 4.796670 
# 
# 
# High freq. dielectric constant tensor:
#      x y z
#    x 2.023450 0.010410 0.004610 
#    y 0.010410 2.001600 0.017110 
#    z 0.004610 0.017110 2.048920 
# 
# From -- ./inp_files/298079.got.cif
#   From: 2010.06.25/outbox.cif.g09.slc.cpg/sg2_150_cif.got.tgz:298079.got - 2010.06.27 13:26:56.
