data_PCOD8020537
_publ_section_title
;
Structure prediction by ZEFSAII (Michael W. Deem and Ramdas Pophale) SiO2 
 PCOD8020537
Probable space group: P -1
;
_chemical_formula_sum "Si O2"
_cell_formula_units_Z 14
_cell_length_a 8.872899
_cell_length_b 19.477331
_cell_length_c 15.132245
_cell_angle_alpha 149.248049
_cell_angle_beta 148.101624
_cell_angle_gamma 30.573957
_cell_volume 617.456383
_symmetry_space_group_name_H-M "P -1"
_symmetry_group_IT_number 2
_symmetry_cell_setting 'triclinic'
loop_
_space_group_symop_operation_xyz
x,y,z
-x,-y,-z
loop_
_atom_site_type_symbol
_atom_site_label
_atom_site_fract_x
_atom_site_fract_y
_atom_site_fract_z
Si Si1 0.718790 0.579631 0.213279
Si Si2 0.520975 0.046613 0.161709
Si Si3 0.762282 0.079508 0.643769
Si Si4 0.218140 0.404510 0.420944
Si Si5 0.287811 0.965676 0.234276
Si Si6 0.659943 0.173000 0.069996
Si Si7 0.689068 0.492627 0.673907
O O1 0.480562 0.748156 0.318262
O O2 0.000573 0.475962 0.305903
O O3 0.916622 0.595456 0.243235
O O4 0.500000 0.500000 0.000000
O O5 0.311299 0.227608 0.275861
O O6 0.895387 0.986990 0.308490
O O7 0.500000 0.000000 0.000000
O O8 0.397852 0.964081 0.076546
O O9 0.829504 0.074314 0.776874
O O10 0.619485 0.969035 0.422109
O O11 0.554222 0.416811 0.595760
O O12 0.000000 0.500000 0.500000
O O13 0.341391 0.833192 0.044093
O O14 0.012189 0.131769 0.241942
O O15 0.388930 0.338264 0.148362
O O16 0.500000 0.500000 0.500000
#
# Coordination Sequence:
#
# PCOD8020537 Si02
#       7
#     2   2   2   2   2   2   2
#     4  11  24  43  69  98 137 177 222 281 345 407
#     4  12  24  43  72 101 134 183 233 276 338 420
#     4  11  24  43  68  97 138 174 226 280 347 402
#     4  11  27  45  68 100 141 178 227 282 347 404
#     4  10  24  39  69  95 133 171 233 280 333 392
#     4  11  23  42  70  99 131 180 238 277 328 417
#     4  10  22  42  69  94 136 183 222 266 352 413
#
# _framework density 22.673667999999999
#
# number of rings (size 3 to 8) (size 9 to 14) (size 15 to 20)
#    0.000    1.143    1.429    5.143   10.000    0.571 
#    2.571    1.429    0.000    0.000    0.000    0.000 
#    0.000    0.000    0.000    0.000    0.000    0.000 
#
# Total GULP energy -173564.339915 kJ/mol
# GULP energy per Si atom -12397.452851 kJ/mol
# Density = 2.262206 g / cm^3
# Si number density = 22.673668 Si / 1000 Ang^3
#
#
#
# Elastic Constant Matrix: (Units=GPa)
#
#
# Indices 1 2 3 4 5 6 
#
# 1 91.7369 9.7199 47.6877 -2.9331 12.7750 -13.9875
# 2 9.7199 99.1256 37.3266 19.2771 -2.0640 -14.9012
# 3 47.6877 37.3266 95.5046 7.0328 8.3406 -7.2152
# 4 -2.9331 19.2771 7.0328 46.0640 -3.7806 4.2319
# 5 12.7750 -2.0640 8.3406 -3.7806 35.7838 0.8078
# 6 -13.9875 -14.9012 -7.2152 4.2319 0.8078 38.1752
#
#
#
# Elastic Compliance Matrix: (Units=1/GPa)
#
#
# Indices 1 2 3 4 5 6 
#
# 1 0.016348 0.002112 -0.008303 0.000627 -0.003832 0.005257
# 2 0.002112 0.013946 -0.005746 -0.005291 0.000702 0.005703
# 3 -0.008303 -0.005746 0.016873 -0.000625 -0.001321 -0.001999
# 4 0.000627 -0.005291 -0.000625 0.024685 0.002331 -0.004739
# 5 -0.003832 0.000702 -0.001321 0.002331 0.029960 -0.002272
# 6 0.005257 0.005703 -0.001999 -0.004739 -0.002272 0.030543
#
#
# Mechanical properties :
#
#
# Convention : Reuss Voigt Hill
#
# Bulk Modulus (GPa) = 42.93184 52.87059 47.90122
# Shear Modulus (GPa) = 30.48938 36.78012 33.63475
#
# Velocity S-wave (km/s) = 3.67100 4.03196 3.85571
# Velocity P-wave (km/s) = 6.07817 6.71151 6.40267
#
# Compressibility (1/GPa) = 0.02329273
#
# Stress axis : x y z
#
# Youngs Moduli (GPa) = 61.16869 71.70754 59.26784
#
# Poissons Ratio (x) = -0.15144 0.49209
# Poissons Ratio (y) = -0.12918 0.34054
# Poissons Ratio (z) = 0.50788 0.41202
#
# Static dielectric constant tensor:
#      x y z
#    x 4.599920 -0.204380 0.259520 
#    y -0.204380 4.089620 -0.211290 
#    z 0.259520 -0.211290 4.237470 
# 
# 
# High freq. dielectric constant tensor:
#      x y z
#    x 1.897930 -0.017820 0.013920 
#    y -0.017820 1.889350 0.000440 
#    z 0.013920 0.000440 1.898370 
# 
# From -- ./inp_files/244468.got.cif
#   From: 2010.06.25/outbox.cif.g09.slc.cpg/sg2_123_cif.got.tgz:244468.got - 2010.06.27 13:26:56.
