data_PCOD8020121
_publ_section_title
;
Structure prediction by ZEFSAII (Michael W. Deem and Ramdas Pophale) SiO2 
 PCOD8020121
Probable space group: P -1
;
_chemical_formula_sum "Si O2"
_cell_formula_units_Z 14
_cell_length_a 17.046517
_cell_length_b 11.276551
_cell_length_c 5.278544
_cell_angle_alpha 127.595396
_cell_angle_beta 50.011446
_cell_angle_gamma 133.884497
_cell_volume 534.841674
_symmetry_space_group_name_H-M "P -1"
_symmetry_group_IT_number 2
_symmetry_cell_setting 'triclinic'
loop_
_space_group_symop_operation_xyz
x,y,z
-x,-y,-z
loop_
_atom_site_type_symbol
_atom_site_label
_atom_site_fract_x
_atom_site_fract_y
_atom_site_fract_z
Si Si1 0.418549 0.250355 0.805635
Si Si2 0.039737 0.300950 0.263194
Si Si3 0.208366 0.899697 0.255399
Si Si4 0.088278 0.636495 0.798159
Si Si5 0.562922 0.369111 0.139707
Si Si6 0.385717 0.915125 0.302200
Si Si7 0.254415 0.251310 0.781552
O O1 0.481927 0.296785 0.459063
O O2 0.293811 0.240348 0.977545
O O3 0.397399 0.058733 0.672369
O O4 0.489464 0.378179 0.056551
O O5 0.116916 0.510996 0.404028
O O6 0.933505 0.196797 0.545424
O O7 0.977592 0.272970 0.083963
O O8 0.121764 0.215168 0.006050
O O9 0.267492 0.853008 0.301511
O O10 0.262382 0.107158 0.396867
O O11 0.212635 0.797815 0.859231
O O12 0.000000 0.500000 0.000000
O O13 0.660544 0.560777 0.262854
O O14 0.620727 0.254349 0.781707
O O15 0.500000 0.000000 0.000000
#
# Coordination Sequence:
#
# PCOD8020121 Si02
#       7
#     2   2   2   2   2   2   2
#     4  10  23  47  64 100 139 178 226 286 338 405
#     4  10  22  42  65  97 128 174 227 271 340 402
#     4  10  22  45  62  96 137 170 222 280 337 403
#     4   9  21  41  66  90 133 169 223 280 327 395
#     4  11  23  43  68 100 136 179 230 282 338 404
#     4   9  21  41  68  97 130 177 232 277 340 403
#     4  11  24  41  66  98 135 176 219 277 347 406
#
# _framework density 26.175971000000001
#
# number of rings (size 3 to 8) (size 9 to 14) (size 15 to 20)
#    0.000    2.000    0.000    1.714    6.000    2.857 
#   25.714    0.000    0.000    0.000    0.000    0.000 
#    0.000    0.000    0.000    0.000    0.000    0.000 
#
# Total GULP energy -173460.313171 kJ/mol
# GULP energy per Si atom -12390.022369 kJ/mol
# Density = 2.611639 g / cm^3
# Si number density = 26.175971 Si / 1000 Ang^3
#
#
#
# Elastic Constant Matrix: (Units=GPa)
#
#
# Indices 1 2 3 4 5 6 
#
# 1 120.5347 21.6424 43.0232 20.6396 -9.6937 7.3742
# 2 21.6424 104.3156 13.3816 33.7604 3.7630 14.2471
# 3 43.0232 13.3816 71.3013 37.2543 -2.7190 10.6882
# 4 20.6396 33.7604 37.2543 37.1083 0.9657 5.6663
# 5 -9.6937 3.7630 -2.7190 0.9657 54.1023 8.7393
# 6 7.3742 14.2471 10.6882 5.6663 8.7393 44.4579
#
#
#
# Elastic Compliance Matrix: (Units=1/GPa)
#
#
# Indices 1 2 3 4 5 6 
#
# 1 0.011261 -0.003083 -0.009138 0.005631 0.001627 0.000280
# 2 -0.003083 0.018178 0.013803 -0.027904 0.000201 -0.005115
# 3 -0.009138 0.013803 0.045170 -0.051720 0.001812 -0.007531
# 4 0.005631 -0.027904 -0.051720 0.099939 -0.002766 0.008248
# 5 0.001627 0.000201 0.001812 -0.002766 0.019591 -0.004269
# 6 0.000280 -0.005115 -0.007531 0.008248 -0.004269 0.025685
#
#
# Mechanical properties :
#
#
# Convention : Reuss Voigt Hill
#
# Bulk Modulus (GPa) = 12.85819 50.24955 31.55387
# Shear Modulus (GPa) = 20.61142 41.67399 31.14271
#
# Velocity S-wave (km/s) = 2.80914 3.99440 3.45301
# Velocity P-wave (km/s) = 3.92996 6.36492 5.28946
#
# Compressibility (1/GPa) = 0.07777146
#
# Stress axis : x y z
#
# Youngs Moduli (GPa) = 88.79906 55.01279 22.13875
#
# Poissons Ratio (x) = 0.16963 0.20231
# Poissons Ratio (y) = 0.27380 -0.30559
# Poissons Ratio (z) = 0.81148 -0.75935
#
# Static dielectric constant tensor:
#      x y z
#    x 4.963250 -0.003610 -0.248020 
#    y -0.003610 5.106960 0.682650 
#    z -0.248020 0.682650 5.265890 
# 
# 
# High freq. dielectric constant tensor:
#      x y z
#    x 2.045900 0.005490 -0.002680 
#    y 0.005490 2.065440 0.021900 
#    z -0.002680 0.021900 2.042680 
# 
# From -- ./inp_files/95597.got.cif
#   From: 2010.06.25/outbox.cif.g09.slc.cpg/sg2_48_cif.got.tgz:95597.got - 2010.06.27 13:26:56.
