data_PCOD8020829
_publ_section_title
;
Structure prediction by ZEFSAII (Michael W. Deem and Ramdas Pophale) SiO2 
 PCOD8020829
Probable space group: P -1
;
_chemical_formula_sum "Si O2"
_cell_formula_units_Z 14
_cell_length_a 5.085562
_cell_length_b 9.337414
_cell_length_c 18.448985
_cell_angle_alpha 53.908550
_cell_angle_beta 59.117275
_cell_angle_gamma 82.233560
_cell_volume 589.633030
_symmetry_space_group_name_H-M "P -1"
_symmetry_group_IT_number 2
_symmetry_cell_setting 'triclinic'
loop_
_space_group_symop_operation_xyz
x,y,z
-x,-y,-z
loop_
_atom_site_type_symbol
_atom_site_label
_atom_site_fract_x
_atom_site_fract_y
_atom_site_fract_z
Si Si1 0.077190 0.853492 0.701244
Si Si2 0.751701 0.795142 0.348743
Si Si3 0.299373 0.807936 0.017503
Si Si4 0.981102 0.993249 0.888357
Si Si5 0.134278 0.458784 0.069857
Si Si6 0.912968 0.432657 0.452508
Si Si7 0.765626 0.812437 0.609620
O O1 0.417654 0.830840 0.634292
O O2 0.007706 0.742947 0.819592
O O3 0.819132 0.776211 0.698394
O O4 0.071683 0.064942 0.655194
O O5 0.880946 0.618748 0.362709
O O6 0.400771 0.729074 0.450074
O O7 0.782866 0.914034 0.236111
O O8 0.683214 0.826822 0.954946
O O9 0.194343 0.861697 0.094962
O O10 0.085808 0.605193 0.093489
O O11 0.217900 0.936767 0.927861
O O12 0.500000 0.500000 0.000000
O O13 0.000000 0.500000 0.000000
O O14 0.000000 0.500000 0.500000
O O15 0.176681 0.356096 0.396136
O O16 0.000000 0.000000 0.500000
#
# Coordination Sequence:
#
# PCOD8020829 Si02
#       7
#     2   2   2   2   2   2   2
#     4  12  27  45  76 103 138 193 231 281 363 412
#     4  11  25  44  69 101 134 180 235 278 351 407
#     4  10  22  43  64 100 133 173 224 275 340 396
#     4  10  23  41  71  94 135 176 218 281 336 408
#     4  12  25  44  70 101 143 177 233 286 339 413
#     4  11  27  44  70 100 139 180 232 293 342 409
#     4  12  26  48  71 102 144 182 235 292 345 419
#
# _framework density 23.743583000000001
#
# number of rings (size 3 to 8) (size 9 to 14) (size 15 to 20)
#    0.000    0.857    1.429    4.714    8.000    0.000 
#    2.571    0.000    0.000    0.000    0.000    0.000 
#    0.000    0.000    0.000    0.000    0.000    0.000 
#
# Total GULP energy -173545.189724 kJ/mol
# GULP energy per Si atom -12396.084980 kJ/mol
# Density = 2.368954 g / cm^3
# Si number density = 23.743583 Si / 1000 Ang^3
#
#
#
# Elastic Constant Matrix: (Units=GPa)
#
#
# Indices 1 2 3 4 5 6 
#
# 1 87.8812 8.6205 6.7737 2.9851 6.2906 7.2681
# 2 8.6205 123.7040 23.9694 -4.7020 -11.2879 13.6711
# 3 6.7737 23.9694 91.1577 -7.6365 1.9134 4.7815
# 4 2.9851 -4.7020 -7.6365 30.8832 6.6330 -2.9033
# 5 6.2906 -11.2879 1.9134 6.6330 32.4790 7.1416
# 6 7.2681 13.6711 4.7815 -2.9033 7.1416 43.7267
#
#
#
# Elastic Compliance Matrix: (Units=1/GPa)
#
#
# Indices 1 2 3 4 5 6 
#
# 1 0.011800 -0.000763 -0.000656 -0.001127 -0.001973 -0.001404
# 2 -0.000763 0.009333 -0.002343 -0.000317 0.004311 -0.003260
# 3 -0.000656 -0.002343 0.011934 0.003103 -0.002041 0.000076
# 4 -0.001127 -0.000317 0.003103 0.035281 -0.008073 0.003608
# 5 -0.001973 0.004311 -0.002041 -0.008073 0.036025 -0.007216
# 6 -0.001404 -0.003260 0.000076 0.003608 -0.007216 0.025532
#
#
# Mechanical properties :
#
#
# Convention : Reuss Voigt Hill
#
# Bulk Modulus (GPa) = 39.15055 42.38556 40.76805
# Shear Modulus (GPa) = 34.26007 38.97639 36.61823
#
# Velocity S-wave (km/s) = 3.80270 4.05601 3.93139
# Velocity P-wave (km/s) = 5.98376 6.31071 6.14941
#
# Compressibility (1/GPa) = 0.02554243
#
# Stress axis : x y z
#
# Youngs Moduli (GPa) = 84.74585 107.15108 83.79657
#
# Poissons Ratio (x) = 0.08176 0.05493
# Poissons Ratio (y) = 0.06466 0.19636
# Poissons Ratio (z) = 0.05556 0.25109
#
# Static dielectric constant tensor:
#      x y z
#    x 3.897570 -0.184020 0.007550 
#    y -0.184020 4.285310 0.289440 
#    z 0.007550 0.289440 3.855050 
# 
# 
# High freq. dielectric constant tensor:
#      x y z
#    x 1.936520 0.004730 0.003370 
#    y 0.004730 1.968010 -0.000580 
#    z 0.003370 -0.000580 1.932740 
# 
# From -- ./inp_files/99427.got.cif
#   From: 2010.06.25/outbox.cif.g09.slc.cpg/sg2_50_cif.got.tgz:99427.got - 2010.06.27 13:26:56.
