data_PCOD8020995
_publ_section_title
;
Structure prediction by ZEFSAII (Michael W. Deem and Ramdas Pophale) SiO2 
 PCOD8020995
Probable space group: P -1
;
_chemical_formula_sum "Si O2"
_cell_formula_units_Z 16
_cell_length_a 17.676925
_cell_length_b 5.452041
_cell_length_c 8.363567
_cell_angle_alpha 117.545346
_cell_angle_beta 63.887476
_cell_angle_gamma 96.410462
_cell_volume 637.438324
_symmetry_space_group_name_H-M "P -1"
_symmetry_group_IT_number 2
_symmetry_cell_setting 'triclinic'
loop_
_space_group_symop_operation_xyz
x,y,z
-x,-y,-z
loop_
_atom_site_type_symbol
_atom_site_label
_atom_site_fract_x
_atom_site_fract_y
_atom_site_fract_z
Si Si1 0.856473 0.372546 0.044631
Si Si2 0.632777 0.105334 0.340589
Si Si3 0.862233 0.500100 0.581532
Si Si4 0.508312 0.682433 0.293247
Si Si5 0.427145 0.852153 0.103893
Si Si6 0.268898 0.971600 0.099045
Si Si7 0.008436 0.691337 0.338361
Si Si8 0.809486 0.033535 0.293060
O O1 0.849811 0.172354 0.142663
O O2 0.833960 0.703029 0.193225
O O3 0.796071 0.265221 0.926208
O O4 0.954552 0.323088 0.880418
O O5 0.562888 0.379451 0.523344
O O6 0.709266 0.095376 0.390081
O O7 0.577833 0.855989 0.358187
O O8 0.664398 0.084017 0.124258
O O9 0.924028 0.502902 0.675915
O O10 0.835250 0.193567 0.477094
O O11 0.915709 0.584713 0.400869
O O12 0.782048 0.721364 0.762504
O O13 0.444523 0.848264 0.273560
O O14 0.564903 0.443651 0.078259
O O15 0.328087 0.969193 0.200593
O O16 0.500000 0.000000 0.000000
O O17 0.000000 0.000000 0.500000
#
# Coordination Sequence:
#
# PCOD8020995 Si02
#       8
#     2   2   2   2   2   2   2   2
#     4  11  25  47  72 104 148 190 236 297 367 428
#     4  10  22  43  66  94 140 179 237 288 360 414
#     4  11  27  45  75 108 142 187 243 297 358 435
#     4  10  23  42  64  98 132 187 233 294 349 419
#     4  11  23  40  66  98 135 179 236 293 345 411
#     4  11  23  46  72  99 142 190 239 293 353 429
#     4  11  24  48  75 104 142 190 236 290 367 439
#     4  11  27  45  71 111 145 189 238 305 358 429
#
# _framework density 25.100469
#
# number of rings (size 3 to 8) (size 9 to 14) (size 15 to 20)
#    0.000    1.250    2.500    2.250    5.250    3.500 
#    2.250    0.000    0.000    0.000    0.000    0.000 
#    0.000    0.000    0.000    0.000    0.000    0.000 
#
# Total GULP energy -198236.792215 kJ/mol
# GULP energy per Si atom -12389.799513 kJ/mol
# Density = 2.504334 g / cm^3
# Si number density = 25.100469 Si / 1000 Ang^3
#
#
#
# Elastic Constant Matrix: (Units=GPa)
#
#
# Indices 1 2 3 4 5 6 
#
# 1 81.9336 7.1842 18.9620 6.7023 6.3044 2.9575
# 2 7.1842 85.3007 15.6795 13.7452 -0.7630 5.4555
# 3 18.9620 15.6795 94.1439 1.9388 -13.8607 12.3425
# 4 6.7023 13.7452 1.9388 39.3745 20.2576 -2.8202
# 5 6.3044 -0.7630 -13.8607 20.2576 28.7708 6.4266
# 6 2.9575 5.4555 12.3425 -2.8202 6.4266 39.6115
#
#
#
# Elastic Compliance Matrix: (Units=1/GPa)
#
#
# Indices 1 2 3 4 5 6 
#
# 1 0.013420 -0.000812 -0.003641 0.001330 -0.005944 0.001303
# 2 -0.000812 0.013505 -0.000437 -0.008398 0.006997 -0.003396
# 3 -0.003641 -0.000437 0.014881 -0.008534 0.015628 -0.007448
# 4 0.001330 -0.008398 -0.008534 0.052781 -0.045092 0.014790
# 5 -0.005944 0.006997 0.015628 -0.045092 0.080357 -0.021637
# 6 0.001303 -0.003396 -0.007448 0.014790 -0.021637 0.032500
#
#
# Mechanical properties :
#
#
# Convention : Reuss Voigt Hill
#
# Bulk Modulus (GPa) = 31.22475 38.33663 34.78069
# Shear Modulus (GPa) = 21.93939 36.18821 29.06380
#
# Velocity S-wave (km/s) = 2.95966 3.80114 3.40648
# Velocity P-wave (km/s) = 4.91390 5.87974 5.41838
#
# Compressibility (1/GPa) = 0.03202588
#
# Stress axis : x y z
#
# Youngs Moduli (GPa) = 74.51333 74.04683 67.19826
#
# Poissons Ratio (x) = 0.06011 0.24468
# Poissons Ratio (y) = 0.06049 0.02940
# Poissons Ratio (z) = 0.27132 0.03239
#
# Static dielectric constant tensor:
#      x y z
#    x 4.937850 0.235410 0.005530 
#    y 0.235410 4.269540 -0.500300 
#    z 0.005530 -0.500300 4.278070 
# 
# 
# High freq. dielectric constant tensor:
#      x y z
#    x 2.013190 0.014660 -0.007140 
#    y 0.014660 1.983160 -0.000410 
#    z -0.007140 -0.000410 2.019340 
# 
# From -- ./inp_files/324075.got.cif
#   From: 2010.06.25/outbox.cif.g09.slc.cpg/sg2_163_cif.got.tgz:324075.got - 2010.06.27 13:26:56.
