data_PCOD8020846
_publ_section_title
;
Structure prediction by ZEFSAII (Michael W. Deem and Ramdas Pophale) SiO2 
 PCOD8020846
Probable space group: P -1
;
_chemical_formula_sum "Si O2"
_cell_formula_units_Z 16
_cell_length_a 23.107812
_cell_length_b 6.759230
_cell_length_c 5.147739
_cell_angle_alpha 104.305360
_cell_angle_beta 119.136259
_cell_angle_gamma 74.374442
_cell_volume 669.881313
_symmetry_space_group_name_H-M "P -1"
_symmetry_group_IT_number 2
_symmetry_cell_setting 'triclinic'
loop_
_space_group_symop_operation_xyz
x,y,z
-x,-y,-z
loop_
_atom_site_type_symbol
_atom_site_label
_atom_site_fract_x
_atom_site_fract_y
_atom_site_fract_z
Si Si1 0.221451 0.487567 0.403236
Si Si2 0.006604 0.326027 0.675080
Si Si3 0.061655 0.962420 0.322734
Si Si4 0.206492 0.752409 0.944576
Si Si5 0.359006 0.754074 0.315540
Si Si6 0.866795 0.848019 0.865653
Si Si7 0.544364 0.935890 0.326055
Si Si8 0.626317 0.505357 0.236138
O O1 0.200566 0.590730 0.112110
O O2 0.195297 0.272053 0.317623
O O3 0.301413 0.423969 0.593771
O O4 0.190098 0.649638 0.606903
O O5 0.000000 0.500000 0.500000
O O6 0.937453 0.275790 0.638976
O O7 0.045894 0.113894 0.576471
O O8 0.065465 0.337581 0.021812
O O9 0.127559 0.016762 0.339863
O O10 0.000000 0.000000 0.000000
O O11 0.279556 0.816688 0.116978
O O12 0.151123 0.964247 0.900325
O O13 0.373961 0.669298 0.608096
O O14 0.390340 0.960683 0.451448
O O15 0.390817 0.587210 0.110805
O O16 0.569124 0.692118 0.262404
O O17 0.500000 0.000000 0.500000
O O18 0.500000 0.000000 0.000000
#
# Coordination Sequence:
#
# PCOD8020846 Si02
#       8
#     2   2   2   2   2   2   2   2
#     4  10  24  42  69 100 129 174 221 272 340 394
#     4  10  23  43  65  91 127 173 213 262 337 400
#     4   9  22  42  60  90 123 166 209 258 328 392
#     4  10  24  43  67  99 132 170 221 274 337 399
#     4  10  22  43  65  90 134 178 212 276 336 381
#     4  11  24  41  68  96 130 166 219 284 327 398
#     4  12  25  38  63 100 129 176 229 270 320 388
#     4  10  22  43  64  92 135 175 219 270 330 397
#
# _framework density 23.884824999999999
#
# number of rings (size 3 to 8) (size 9 to 14) (size 15 to 20)
#    0.000    1.750    0.000    2.250    3.500    9.000 
#    0.000    7.500    0.000    0.000    0.000    0.000 
#    0.000    0.000    0.000    0.000    0.000    0.000 
#
# Total GULP energy -198234.854883 kJ/mol
# GULP energy per Si atom -12389.678430 kJ/mol
# Density = 2.383046 g / cm^3
# Si number density = 23.884825 Si / 1000 Ang^3
#
#
#
# Elastic Constant Matrix: (Units=GPa)
#
#
# Indices 1 2 3 4 5 6 
#
# 1 102.9916 47.2964 24.7895 -6.3766 -14.9389 25.0925
# 2 47.2964 103.3606 19.6977 -1.6668 2.8415 16.8397
# 3 24.7895 19.6977 66.4321 -11.0256 -16.0320 18.4767
# 4 -6.3766 -1.6668 -11.0256 33.0321 -0.9640 3.6993
# 5 -14.9389 2.8415 -16.0320 -0.9640 31.8748 -11.4190
# 6 25.0925 16.8397 18.4767 3.6993 -11.4190 35.1639
#
#
#
# Elastic Compliance Matrix: (Units=1/GPa)
#
#
# Indices 1 2 3 4 5 6 
#
# 1 0.014990 -0.005855 -0.000249 0.003387 0.005224 -0.006422
# 2 -0.005855 0.013490 -0.002799 -0.001262 -0.006378 -0.002750
# 3 -0.000249 -0.002799 0.021558 0.008141 0.008375 -0.007946
# 4 0.003387 -0.001262 0.008141 0.034644 0.003796 -0.008502
# 5 0.005224 -0.006378 0.008375 0.003796 0.041595 0.008034
# 6 -0.006422 -0.002750 -0.007946 -0.008502 0.008034 0.042017
#
#
# Mechanical properties :
#
#
# Convention : Reuss Voigt Hill
#
# Bulk Modulus (GPa) = 31.02291 50.70576 40.86433
# Shear Modulus (GPa) = 25.40090 32.08086 28.74088
#
# Velocity S-wave (km/s) = 3.26463 3.66887 3.47264
# Velocity P-wave (km/s) = 5.21797 6.26282 5.76412
#
# Compressibility (1/GPa) = 0.03223424
#
# Stress axis : x y z
#
# Youngs Moduli (GPa) = 66.71076 74.12742 46.38616
#
# Poissons Ratio (x) = 0.43398 0.01153
# Poissons Ratio (y) = 0.39056 0.12983
# Poissons Ratio (z) = 0.01659 0.20748
#
# Static dielectric constant tensor:
#      x y z
#    x 5.265020 0.125420 0.547260 
#    y 0.125420 3.776050 0.894900 
#    z 0.547260 0.894900 3.467210 
# 
# 
# High freq. dielectric constant tensor:
#      x y z
#    x 1.961060 0.007380 -0.007470 
#    y 0.007380 1.943570 0.005020 
#    z -0.007470 0.005020 1.959560 
# 
# From -- ./inp_files/14729.got.cif
#   From: 2010.06.25/outbox.cif.g09.slc.cpg/sg2_8_cif.got.tgz:14729.got - 2010.06.27 13:26:56.
