data_PCOD8020225
_publ_section_title
;
Structure prediction by ZEFSAII (Michael W. Deem and Ramdas Pophale) SiO2 
 PCOD8020225
Probable space group: P -1
;
_chemical_formula_sum "Si O2"
_cell_formula_units_Z 14
_cell_length_a 19.866047
_cell_length_b 11.316757
_cell_length_c 9.429163
_cell_angle_alpha 38.183711
_cell_angle_beta 141.008860
_cell_angle_gamma 150.275797
_cell_volume 618.016500
_symmetry_space_group_name_H-M "P -1"
_symmetry_group_IT_number 2
_symmetry_cell_setting 'triclinic'
loop_
_space_group_symop_operation_xyz
x,y,z
-x,-y,-z
loop_
_atom_site_type_symbol
_atom_site_label
_atom_site_fract_x
_atom_site_fract_y
_atom_site_fract_z
Si Si1 0.366490 0.872355 0.064626
Si Si2 0.693656 0.645664 0.068634
Si Si3 0.783649 0.786504 0.593141
Si Si4 0.359166 0.604357 0.049321
Si Si5 0.970399 0.201251 0.089490
Si Si6 0.917134 0.278676 0.228505
Si Si7 0.428388 0.582820 0.622712
O O1 0.319145 0.736507 0.959374
O O2 0.439961 0.796669 0.354254
O O3 0.227747 0.786465 0.999150
O O4 0.474134 0.176209 0.926829
O O5 0.627951 0.454636 0.274312
O O6 0.835235 0.928307 0.069720
O O7 0.727398 0.522732 0.120700
O O8 0.581982 0.663934 0.801223
O O9 0.678918 0.633890 0.699770
O O10 0.686022 0.689285 0.385018
O O11 0.886425 0.725151 0.804446
O O12 0.878427 0.092239 0.472342
O O13 0.975401 0.214252 0.257273
O O14 0.969095 0.422240 0.824926
#
# Coordination Sequence:
#
# PCOD8020225 Si02
#       7
#     2   2   2   2   2   2   2
#     4  10  22  43  67  99 124 178 229 254 316 406
#     4  11  24  41  63 101 136 166 209 283 337 363
#     4  11  22  45  71  94 127 182 221 256 322 403
#     4  10  23  41  66  95 137 169 213 275 323 386
#     4  11  24  42  67 100 130 167 227 267 322 385
#     4  11  22  41  73  94 127 175 227 266 304 402
#     4  10  22  42  66  97 130 167 225 267 319 382
#
# _framework density 22.653117000000002
#
# number of rings (size 3 to 8) (size 9 to 14) (size 15 to 20)
#    0.000    1.429    4.286    1.286    2.000    7.429 
#    2.571    0.714    0.000    0.000    0.000    0.000 
#    0.000    0.000    0.000    0.000    0.000    0.000 
#
# Total GULP energy -173465.620001 kJ/mol
# GULP energy per Si atom -12390.401429 kJ/mol
# Density = 2.260156 g / cm^3
# Si number density = 22.653117 Si / 1000 Ang^3
#
#
#
# Elastic Constant Matrix: (Units=GPa)
#
#
# Indices 1 2 3 4 5 6 
#
# 1 78.0787 38.3022 45.8548 1.4915 -17.5148 0.0710
# 2 38.3022 133.4767 30.6796 -23.3559 -15.4394 -4.8469
# 3 45.8548 30.6796 75.7444 -17.6207 -11.0398 -0.1456
# 4 1.4915 -23.3559 -17.6207 48.6129 8.2479 -4.9330
# 5 -17.5148 -15.4394 -11.0398 8.2479 32.9317 2.9278
# 6 0.0710 -4.8469 -0.1456 -4.9330 2.9278 35.6265
#
#
#
# Elastic Compliance Matrix: (Units=1/GPa)
#
#
# Indices 1 2 3 4 5 6 
#
# 1 0.026473 -0.004986 -0.015081 -0.010616 0.009617 -0.003053
# 2 -0.004986 0.009895 0.000295 0.005112 0.000627 0.002014
# 3 -0.015081 0.000295 0.024179 0.009957 -0.002426 0.001747
# 4 -0.010616 0.005112 0.009957 0.028796 -0.007601 0.005369
# 5 0.009617 0.000627 -0.002426 -0.007601 0.037225 -0.004055
# 6 -0.003053 0.002014 0.001747 0.005369 -0.004055 0.029433
#
#
# Mechanical properties :
#
#
# Convention : Reuss Voigt Hill
#
# Bulk Modulus (GPa) = 47.61170 57.44142 52.52656
# Shear Modulus (GPa) = 24.68576 34.93176 29.80876
#
# Velocity S-wave (km/s) = 3.30469 3.93113 3.63144
# Velocity P-wave (km/s) = 5.96864 6.78359 6.38912
#
# Compressibility (1/GPa) = 0.02100324
#
# Stress axis : x y z
#
# Youngs Moduli (GPa) = 37.77401 101.06009 41.35894
#
# Poissons Ratio (x) = 0.50393 0.62372
# Poissons Ratio (y) = 0.18836 -0.01221
# Poissons Ratio (z) = 0.56966 -0.02984
#
# Static dielectric constant tensor:
#      x y z
#    x 4.200380 0.103090 -0.133880 
#    y 0.103090 4.320940 -0.260820 
#    z -0.133880 -0.260820 3.786120 
# 
# 
# High freq. dielectric constant tensor:
#      x y z
#    x 1.897660 0.012770 -0.005710 
#    y 0.012770 1.902780 -0.032660 
#    z -0.005710 -0.032660 1.860540 
# 
# From -- ./inp_files/345009.got.cif
#   From: 2010.06.25/outbox.cif.g09.slc.cpg/sg2_173_cif.got.tgz:345009.got - 2010.06.27 13:26:56.
