data_PCOD8020565
_publ_section_title
;
Structure prediction by ZEFSAII (Michael W. Deem and Ramdas Pophale) SiO2 
 PCOD8020565
Probable space group: P -1
;
_chemical_formula_sum "Si O2"
_cell_formula_units_Z 16
_cell_length_a 9.073585
_cell_length_b 16.472733
_cell_length_c 10.591419
_cell_angle_alpha 58.059236
_cell_angle_beta 114.475901
_cell_angle_gamma 148.568585
_cell_volume 698.076771
_symmetry_space_group_name_H-M "P -1"
_symmetry_group_IT_number 2
_symmetry_cell_setting 'triclinic'
loop_
_space_group_symop_operation_xyz
x,y,z
-x,-y,-z
loop_
_atom_site_type_symbol
_atom_site_label
_atom_site_fract_x
_atom_site_fract_y
_atom_site_fract_z
Si Si1 0.085467 0.963128 0.871955
Si Si2 0.977541 0.676198 0.435030
Si Si3 0.216932 0.520034 0.061025
Si Si4 0.485257 0.387250 0.140868
Si Si5 0.465950 0.329760 0.455476
Si Si6 0.961433 0.223101 0.360577
Si Si7 0.463945 0.109868 0.666488
Si Si8 0.815336 0.795986 0.172327
O O1 0.365739 0.056146 0.823928
O O2 0.098384 0.084756 0.788728
O O3 0.829727 0.809788 0.815330
O O4 0.039879 0.901098 0.048696
O O5 0.726416 0.475200 0.525348
O O6 0.817969 0.694549 0.319653
O O7 0.121637 0.759512 0.555438
O O8 0.204677 0.751872 0.348814
O O9 0.502218 0.674585 0.115866
O O10 0.079112 0.352794 0.190089
O O11 0.296632 0.564864 0.905779
O O12 0.000000 0.500000 0.000000
O O13 0.587206 0.430614 0.284134
O O14 0.500000 0.500000 0.000000
O O15 0.392053 0.182664 0.537569
O O16 0.188708 0.254023 0.457556
O O17 0.691031 0.040982 0.354600
#
# Coordination Sequence:
#
# PCOD8020565 Si02
#       8
#     2   2   2   2   2   2   2   2
#     4  10  22  42  69  98 134 174 234 275 347 399
#     4  12  27  44  68 101 145 178 232 278 346 406
#     4  11  25  43  71 100 132 178 231 281 340 410
#     4  11  21  43  67  96 132 177 234 276 342 407
#     4  12  24  44  71  96 137 188 227 282 345 406
#     4  12  25  46  70 101 138 189 225 283 347 404
#     4  12  27  42  68 106 139 180 233 285 334 406
#     4  10  23  45  70 100 135 184 219 289 346 410
#
# _framework density 22.920114000000002
#
# number of rings (size 3 to 8) (size 9 to 14) (size 15 to 20)
#    0.000    0.750    3.750    3.000    5.250    4.500 
#    0.000    0.000    0.000    0.000    0.000    0.000 
#    0.000    0.000    0.000    0.000    0.000    0.000 
#
# Total GULP energy -198371.612248 kJ/mol
# GULP energy per Si atom -12398.225766 kJ/mol
# Density = 2.286795 g / cm^3
# Si number density = 22.920114 Si / 1000 Ang^3
#
#
#
# Elastic Constant Matrix: (Units=GPa)
#
#
# Indices 1 2 3 4 5 6 
#
# 1 76.3510 18.2510 6.2207 3.7924 -7.7338 5.6061
# 2 18.2510 78.5810 3.8868 -12.6866 10.3745 -9.9843
# 3 6.2207 3.8868 58.3414 -2.6158 0.5747 -5.4283
# 4 3.7924 -12.6866 -2.6158 29.5433 -7.1532 0.2476
# 5 -7.7338 10.3745 0.5747 -7.1532 45.5819 -3.3124
# 6 5.6061 -9.9843 -5.4283 0.2476 -3.3124 46.2770
#
#
#
# Elastic Compliance Matrix: (Units=1/GPa)
#
#
# Indices 1 2 3 4 5 6 
#
# 1 0.015027 -0.004689 -0.001731 -0.003369 0.002906 -0.002809
# 2 -0.004689 0.015754 0.000123 0.006602 -0.003076 0.003726
# 3 -0.001731 0.000123 0.017611 0.001792 -0.000097 0.002286
# 4 -0.003369 0.006602 0.001792 0.038240 0.004059 0.002129
# 5 0.002906 -0.003076 -0.000097 0.004059 0.023818 0.000656
# 6 -0.002809 0.003726 0.002286 0.002129 0.000656 0.023057
#
#
# Mechanical properties :
#
#
# Convention : Reuss Voigt Hill
#
# Bulk Modulus (GPa) = 27.93377 29.99896 28.96637
# Shear Modulus (GPa) = 31.63911 36.60808 34.12359
#
# Velocity S-wave (km/s) = 3.71941 4.00084 3.86269
# Velocity P-wave (km/s) = 5.53708 5.87019 5.70607
#
# Compressibility (1/GPa) = 0.03579896
#
# Stress axis : x y z
#
# Youngs Moduli (GPa) = 66.54590 63.47574 56.78336
#
# Poissons Ratio (x) = 0.29764 0.09829
# Poissons Ratio (y) = 0.31203 -0.00701
# Poissons Ratio (z) = 0.11519 -0.00783
#
# Static dielectric constant tensor:
#      x y z
#    x 5.904890 -1.772870 -4.083700 
#    y -1.772870 5.650070 3.671270 
#    z -4.083700 3.671270 13.707180 
# 
# 
# High freq. dielectric constant tensor:
#      x y z
#    x 1.916230 -0.016830 -0.019110 
#    y -0.016830 1.901710 -0.021190 
#    z -0.019110 -0.021190 1.902960 
# 
# From -- ./inp_files/403036.got.cif
#   From: 2010.06.25/outbox.cif.g09.slc.cpg/sg2_202_cif.got.tgz:403036.got - 2010.06.27 13:26:56.
