data_PCOD8020568
_publ_section_title
;
Structure prediction by ZEFSAII (Michael W. Deem and Ramdas Pophale) SiO2 
 PCOD8020568
Probable space group: P -1
;
_chemical_formula_sum "Si O2"
_cell_formula_units_Z 14
_cell_length_a 8.769967
_cell_length_b 15.258239
_cell_length_c 8.378431
_cell_angle_alpha 140.349448
_cell_angle_beta 115.805468
_cell_angle_gamma 82.711676
_cell_volume 600.233795
_symmetry_space_group_name_H-M "P -1"
_symmetry_group_IT_number 2
_symmetry_cell_setting 'triclinic'
loop_
_space_group_symop_operation_xyz
x,y,z
-x,-y,-z
loop_
_atom_site_type_symbol
_atom_site_label
_atom_site_fract_x
_atom_site_fract_y
_atom_site_fract_z
Si Si1 0.265701 0.133410 0.343738
Si Si2 0.952812 0.406958 0.144932
Si Si3 0.372054 0.685257 0.353759
Si Si4 0.016647 0.296908 0.323861
Si Si5 0.227696 0.854878 0.738054
Si Si6 0.678008 0.557184 0.770999
Si Si7 0.089102 0.120901 0.572484
O O1 0.465665 0.258885 0.623581
O O2 0.136235 0.199641 0.281827
O O3 0.182159 0.068824 0.388726
O O4 0.295116 0.013424 0.073724
O O5 0.879519 0.525894 0.361771
O O6 0.946443 0.274108 0.077063
O O7 0.159602 0.483760 0.287782
O O8 0.820263 0.336550 0.841761
O O9 0.389869 0.811501 0.673855
O O10 0.375159 0.532782 0.213686
O O11 0.850384 0.260281 0.317159
O O12 0.072881 0.835517 0.508232
O O13 0.500000 0.500000 0.500000
O O14 0.751934 0.734289 0.081232
O O15 0.000000 0.000000 0.500000
#
# Coordination Sequence:
#
# PCOD8020568 Si02
#       7
#     2   2   2   2   2   2   2
#     4  11  26  44  70 106 147 190 240 296 351 433
#     4  11  23  42  72 102 139 189 232 303 355 423
#     4  12  24  45  71 105 147 181 246 295 360 415
#     4  10  22  42  69  98 137 185 243 285 359 420
#     4  11  23  44  71  99 143 196 232 291 358 421
#     4  12  26  44  76 107 142 186 240 300 353 429
#     4  11  26  46  76 105 141 192 242 291 364 426
#
# _framework density 23.324245999999999
#
# number of rings (size 3 to 8) (size 9 to 14) (size 15 to 20)
#    0.000    0.857    2.857    5.143    6.000    4.571 
#    0.000    1.429    0.000    0.000    0.000    0.000 
#    0.000    0.000    0.000    0.000    0.000    0.000 
#
# Total GULP energy -173462.903607 kJ/mol
# GULP energy per Si atom -12390.207400 kJ/mol
# Density = 2.327116 g / cm^3
# Si number density = 23.324246 Si / 1000 Ang^3
#
#
#
# Elastic Constant Matrix: (Units=GPa)
#
#
# Indices 1 2 3 4 5 6 
#
# 1 97.8558 52.6721 30.9607 6.1383 18.5388 23.1854
# 2 52.6721 128.9331 54.3450 2.7861 19.5897 26.7668
# 3 30.9607 54.3450 111.5175 0.9915 9.1673 0.0198
# 4 6.1383 2.7861 0.9915 36.8868 -9.7052 2.5973
# 5 18.5388 19.5897 9.1673 -9.7052 36.6028 9.4381
# 6 23.1854 26.7668 0.0198 2.5973 9.4381 28.8001
#
#
#
# Elastic Compliance Matrix: (Units=1/GPa)
#
#
# Indices 1 2 3 4 5 6 
#
# 1 0.015482 -0.002850 -0.002525 -0.002864 -0.004346 -0.008130
# 2 -0.002850 0.013641 -0.005688 -0.000245 -0.001995 -0.009703
# 3 -0.002525 -0.005688 0.012510 -0.000242 -0.000835 0.007606
# 4 -0.002864 -0.000245 -0.000242 0.030706 0.010753 -0.003760
# 5 -0.004346 -0.001995 -0.000835 0.010753 0.035521 -0.007256
# 6 -0.008130 -0.009703 0.007606 -0.003760 -0.007256 0.052997
#
#
# Mechanical properties :
#
#
# Convention : Reuss Voigt Hill
#
# Bulk Modulus (GPa) = 51.26849 68.25134 59.75992
# Shear Modulus (GPa) = 26.38737 33.81318 30.10028
#
# Velocity S-wave (km/s) = 3.36717 3.81162 3.59627
# Velocity P-wave (km/s) = 6.09472 6.97831 6.55143
#
# Compressibility (1/GPa) = 0.01950516
#
# Stress axis : x y z
#
# Youngs Moduli (GPa) = 64.59309 73.30946 79.93798
#
# Poissons Ratio (x) = 0.20895 0.20184
# Poissons Ratio (y) = 0.18410 0.45471
# Poissons Ratio (z) = 0.16310 0.41700
#
# Static dielectric constant tensor:
#      x y z
#    x 4.188550 0.256510 -0.097310 
#    y 0.256510 4.283490 0.077310 
#    z -0.097310 0.077310 4.119630 
# 
# 
# High freq. dielectric constant tensor:
#      x y z
#    x 1.924230 0.011200 -0.013930 
#    y 0.011200 1.924820 0.010470 
#    z -0.013930 0.010470 1.919960 
# 
# From -- ./inp_files/209573.got.cif
#   From: 2010.06.25/outbox.cif.g09.slc.cpg/sg2_105_cif.got.tgz:209573.got - 2010.06.27 13:26:56.
