data_PCOD8020258
_publ_section_title
;
Structure prediction by ZEFSAII (Michael W. Deem and Ramdas Pophale) SiO2 
 PCOD8020258
Probable space group: P -1
;
_chemical_formula_sum "Si O2"
_cell_formula_units_Z 16
_cell_length_a 13.512583
_cell_length_b 15.167706
_cell_length_c 16.227221
_cell_angle_alpha 153.692719
_cell_angle_beta 34.860070
_cell_angle_gamma 127.984092
_cell_volume 741.730636
_symmetry_space_group_name_H-M "P -1"
_symmetry_group_IT_number 2
_symmetry_cell_setting 'triclinic'
loop_
_space_group_symop_operation_xyz
x,y,z
-x,-y,-z
loop_
_atom_site_type_symbol
_atom_site_label
_atom_site_fract_x
_atom_site_fract_y
_atom_site_fract_z
Si Si1 0.227210 0.939102 0.801179
Si Si2 0.840999 0.498957 0.859852
Si Si3 0.286568 0.705803 0.729810
Si Si4 0.548058 0.202165 0.147722
Si Si5 0.844289 0.581310 0.747115
Si Si6 0.127240 0.107001 0.750396
Si Si7 0.393208 0.682758 0.312296
Si Si8 0.962931 0.995948 0.618398
O O1 0.325733 0.777037 0.674387
O O2 0.357564 0.821404 0.535323
O O3 0.265176 0.151297 0.962335
O O4 0.000000 0.000000 0.000000
O O5 0.940900 0.509293 0.712867
O O6 0.973978 0.258799 0.609696
O O7 0.816441 0.694925 0.104779
O O8 0.625001 0.534797 0.012578
O O9 0.359610 0.438035 0.450429
O O10 0.408896 0.773591 0.766314
O O11 0.058610 0.843403 0.023854
O O12 0.500000 0.000000 0.000000
O O13 0.732210 0.156223 0.925555
O O14 0.692627 0.488127 0.758029
O O15 0.000000 0.500000 0.500000
O O16 0.296972 0.859280 0.451155
O O17 0.079176 0.098313 0.679090
O O18 0.000000 0.000000 0.500000
#
# Coordination Sequence:
#
# PCOD8020258 Si02
#       8
#     2   2   2   2   2   2   2   2
#     4  12  23  40  65 104 140 170 224 271 338 413
#     4  12  26  44  70  99 143 182 220 277 340 406
#     4  10  22  42  67 101 132 173 224 284 328 401
#     4  10  23  45  71  93 128 176 232 283 337 379
#     4  12  24  40  69 101 138 180 220 271 336 406
#     4  11  22  45  73  92 140 178 219 278 343 401
#     4  12  25  42  66 106 141 180 219 271 342 416
#     4  11  27  47  68  97 133 179 234 280 334 399
#
# _framework density 21.571172000000001
#
# number of rings (size 3 to 8) (size 9 to 14) (size 15 to 20)
#    0.000    0.750    5.000    1.500    3.500    1.500 
#    2.250    0.000    0.000    0.000    0.000    0.000 
#    0.000    0.000    0.000    0.000    0.000    0.000 
#
# Total GULP energy -198420.904785 kJ/mol
# GULP energy per Si atom -12401.306549 kJ/mol
# Density = 2.152208 g / cm^3
# Si number density = 21.571172 Si / 1000 Ang^3
#
#
#
# Elastic Constant Matrix: (Units=GPa)
#
#
# Indices 1 2 3 4 5 6 
#
# 1 111.0219 56.2560 39.1426 2.9050 20.8845 -10.0464
# 2 56.2560 88.6547 31.5606 17.1076 14.8723 -0.8942
# 3 39.1426 31.5606 99.6055 10.5516 19.1747 -9.9570
# 4 2.9050 17.1076 10.5516 43.9187 -1.9196 16.1291
# 5 20.8845 14.8723 19.1747 -1.9196 36.0013 4.7738
# 6 -10.0464 -0.8942 -9.9570 16.1291 4.7738 50.1684
#
#
#
# Elastic Compliance Matrix: (Units=1/GPa)
#
#
# Indices 1 2 3 4 5 6 
#
# 1 0.014998 -0.008280 -0.002445 0.001840 -0.004168 0.002176
# 2 -0.008280 0.018817 -0.001364 -0.006898 -0.002729 0.000884
# 3 -0.002445 -0.001364 0.013445 -0.004305 -0.005953 0.004105
# 4 0.001840 -0.006898 -0.004305 0.030795 0.007202 -0.011195
# 5 -0.004168 -0.002729 -0.005953 0.007202 0.035910 -0.007797
# 6 0.002176 0.000884 0.004105 -0.011195 -0.007797 0.025540
#
#
# Mechanical properties :
#
#
# Convention : Reuss Voigt Hill
#
# Bulk Modulus (GPa) = 43.32530 61.46675 52.39602
# Shear Modulus (GPa) = 29.17520 37.50586 33.34053
#
# Velocity S-wave (km/s) = 3.68164 4.17430 3.93568
# Velocity P-wave (km/s) = 6.18070 7.19651 6.70786
#
# Compressibility (1/GPa) = 0.02308120
#
# Stress axis : x y z
#
# Youngs Moduli (GPa) = 66.67664 53.14227 74.37671
#
# Poissons Ratio (x) = 0.44003 0.18187
# Poissons Ratio (y) = 0.55210 0.10145
# Poissons Ratio (z) = 0.16304 0.07249
#
# Static dielectric constant tensor:
#      x y z
#    x 4.103910 0.035030 0.148350 
#    y 0.035030 3.974230 0.018730 
#    z 0.148350 0.018730 3.841200 
# 
# 
# High freq. dielectric constant tensor:
#      x y z
#    x 1.855520 0.003980 0.019030 
#    y 0.003980 1.838910 0.008310 
#    z 0.019030 0.008310 1.862380 
# 
# From -- ./inp_files/522568.got.cif
#   From: 2010.06.25/outbox.cif.g09.slc.cpg/sg2_262_cif.got.tgz:522568.got - 2010.06.27 13:26:56.
