data_PCOD8020901
_publ_section_title
;
Structure prediction by ZEFSAII (Michael W. Deem and Ramdas Pophale) SiO2 
 PCOD8020901
Probable space group: P -1
;
_chemical_formula_sum "Si O2"
_cell_formula_units_Z 14
_cell_length_a 16.925023
_cell_length_b 20.332384
_cell_length_c 11.118148
_cell_angle_alpha 137.895846
_cell_angle_beta 149.090191
_cell_angle_gamma 21.391635
_cell_volume 682.950738
_symmetry_space_group_name_H-M "P -1"
_symmetry_group_IT_number 2
_symmetry_cell_setting 'triclinic'
loop_
_space_group_symop_operation_xyz
x,y,z
-x,-y,-z
loop_
_atom_site_type_symbol
_atom_site_label
_atom_site_fract_x
_atom_site_fract_y
_atom_site_fract_z
Si Si1 0.146903 0.990311 0.345813
Si Si2 0.510312 0.508139 0.382361
Si Si3 0.736266 0.665305 0.090217
Si Si4 0.987666 0.723491 0.450364
Si Si5 0.478968 0.323708 0.959110
Si Si6 0.311528 0.403988 0.590009
Si Si7 0.274693 0.836265 0.548071
O O1 0.170236 0.089443 0.464649
O O2 0.353677 0.808993 0.289601
O O3 0.244694 0.931898 0.533705
O O4 0.812744 0.135941 0.092426
O O5 0.500000 0.500000 0.500000
O O6 0.842323 0.354158 0.560457
O O7 0.285603 0.720937 0.349228
O O8 0.402021 0.468093 0.121334
O O9 0.557286 0.746963 0.091656
O O10 0.727941 0.782390 0.189207
O O11 0.082037 0.453282 0.289496
O O12 0.591017 0.677626 0.814119
O O13 0.237406 0.553654 0.644730
O O14 0.264681 0.429543 0.707376
O O15 0.000000 0.000000 0.500000
#
# Coordination Sequence:
#
# PCOD8020901 Si02
#       7
#     2   2   2   2   2   2   2
#     4  11  22  41  65  96 128 171 214 260 315 382
#     4  11  21  40  65  93 126 170 214 259 317 379
#     4  10  22  43  65  91 133 166 209 268 324 373
#     4   9  23  41  63  97 127 167 213 257 325 375
#     4  11  22  43  68  92 130 171 214 263 314 387
#     4  10  23  43  66  93 133 168 214 261 323 370
#     4  12  21  41  66  95 130 165 218 265 316 381
#
# _framework density 20.499283999999999
#
# number of rings (size 3 to 8) (size 9 to 14) (size 15 to 20)
#    0.857    0.571    4.286    1.714    0.000    5.143 
#    5.143    0.714    0.000    0.000    0.000    0.000 
#    0.000    0.000    0.000    0.000    0.000    0.000 
#
# Total GULP energy -173450.597275 kJ/mol
# GULP energy per Si atom -12389.328377 kJ/mol
# Density = 2.045263 g / cm^3
# Si number density = 20.499284 Si / 1000 Ang^3
#
#
#
# Elastic Constant Matrix: (Units=GPa)
#
#
# Indices 1 2 3 4 5 6 
#
# 1 121.1275 27.6259 43.0724 15.3864 -1.7004 14.1140
# 2 27.6259 111.0345 27.3083 5.8183 -1.8511 13.5047
# 3 43.0724 27.3083 85.7948 -5.5202 -6.3815 0.3626
# 4 15.3864 5.8183 -5.5202 17.5037 4.3938 -0.7707
# 5 -1.7004 -1.8511 -6.3815 4.3938 40.8067 2.2743
# 6 14.1140 13.5047 0.3626 -0.7707 2.2743 26.2780
#
#
#
# Elastic Compliance Matrix: (Units=1/GPa)
#
#
# Indices 1 2 3 4 5 6 
#
# 1 0.013978 0.000321 -0.007981 -0.015643 0.001488 -0.008150
# 2 0.000321 0.010923 -0.003912 -0.005619 0.000835 -0.005969
# 3 -0.007981 -0.003912 0.017819 0.014119 0.000398 0.006431
# 4 -0.015643 -0.005619 0.014119 0.079854 -0.008085 0.014137
# 5 0.001488 0.000835 0.000398 -0.008085 0.025745 -0.003699
# 6 -0.008150 -0.005969 0.006431 0.014137 -0.003699 0.046146
#
#
# Mechanical properties :
#
#
# Convention : Reuss Voigt Hill
#
# Bulk Modulus (GPa) = 51.08549 57.10779 54.09664
# Shear Modulus (GPa) = 22.30807 31.58103 26.94455
#
# Velocity S-wave (km/s) = 3.30242 3.92930 3.62942
# Velocity P-wave (km/s) = 6.28618 6.96453 6.63403
#
# Compressibility (1/GPa) = 0.01957503
#
# Stress axis : x y z
#
# Youngs Moduli (GPa) = 71.53906 91.55137 56.12092
#
# Poissons Ratio (x) = -0.02938 0.44792
# Poissons Ratio (y) = -0.02295 0.21955
# Poissons Ratio (z) = 0.57097 0.35815
#
# Static dielectric constant tensor:
#      x y z
#    x 3.967930 0.160930 0.044740 
#    y 0.160930 3.663490 0.009170 
#    z 0.044740 0.009170 3.568350 
# 
# 
# High freq. dielectric constant tensor:
#      x y z
#    x 1.820610 0.008580 -0.000010 
#    y 0.008580 1.784160 -0.003650 
#    z -0.000010 -0.003650 1.779070 
# 
# From -- ./inp_files/345538.got.cif
#   From: 2010.06.25/outbox.cif.g09.slc.cpg/sg2_173_cif.got.tgz:345538.got - 2010.06.27 13:26:56.
