data_PCOD8020911
_publ_section_title
;
Structure prediction by ZEFSAII (Michael W. Deem and Ramdas Pophale) SiO2 
 PCOD8020911
Probable space group: P -1
;
_chemical_formula_sum "Si O2"
_cell_formula_units_Z 16
_cell_length_a 15.111555
_cell_length_b 7.019359
_cell_length_c 9.321829
_cell_angle_alpha 55.984517
_cell_angle_beta 66.997964
_cell_angle_gamma 76.925256
_cell_volume 754.398183
_symmetry_space_group_name_H-M "P -1"
_symmetry_group_IT_number 2
_symmetry_cell_setting 'triclinic'
loop_
_space_group_symop_operation_xyz
x,y,z
-x,-y,-z
loop_
_atom_site_type_symbol
_atom_site_label
_atom_site_fract_x
_atom_site_fract_y
_atom_site_fract_z
Si Si1 0.773565 0.398852 0.714880
Si Si2 0.744798 0.510173 0.357738
Si Si3 0.935255 0.660499 0.649332
Si Si4 0.618657 0.227300 0.377263
Si Si5 0.954976 0.649445 0.089290
Si Si6 0.589414 0.340010 0.043628
Si Si7 0.071404 0.966215 0.254937
Si Si8 0.579504 0.857235 0.351376
O O1 0.758711 0.468294 0.532321
O O2 0.834188 0.593668 0.674618
O O3 0.825948 0.151022 0.793010
O O4 0.671222 0.390255 0.856863
O O5 0.711043 0.275824 0.398363
O O6 0.842413 0.596882 0.190637
O O7 0.660009 0.692335 0.302988
O O8 0.989868 0.425305 0.768221
O O9 0.999030 0.771236 0.436652
O O10 0.916521 0.839936 0.712911
O O11 0.624904 0.390152 0.163095
O O12 0.519442 0.278941 0.504189
O O13 0.617931 0.959965 0.437562
O O14 0.000000 0.500000 0.000000
O O15 0.966696 0.915915 0.919418
O O16 0.560470 0.070422 0.164594
O O17 0.500000 0.500000 0.000000
#
# Coordination Sequence:
#
# PCOD8020911 Si02
#       8
#     2   2   2   2   2   2   2   2
#     4  12  25  40  67  96 131 168 218 269 319 390
#     4  12  23  41  65  98 127 170 217 264 322 386
#     4  10  23  46  61  95 134 168 217 274 320 379
#     4   9  22  42  67  89 130 165 211 263 324 384
#     4  10  23  41  66  93 132 173 218 268 324 384
#     4  10  22  44  64  94 129 165 212 269 328 381
#     4  10  22  43  65  93 128 170 221 264 327 377
#     4   9  21  43  67  93 124 167 215 260 321 387
#
# _framework density 21.208960000000001
#
# number of rings (size 3 to 8) (size 9 to 14) (size 15 to 20)
#    0.750    1.000    1.250    2.250    3.500    1.500 
#    2.250    1.250    0.000    0.000    0.000    0.000 
#    0.000    0.000    0.000    0.000    0.000    0.000 
#
# Total GULP energy -198328.900199 kJ/mol
# GULP energy per Si atom -12395.556262 kJ/mol
# Density = 2.116069 g / cm^3
# Si number density = 21.208960 Si / 1000 Ang^3
#
#
#
# Elastic Constant Matrix: (Units=GPa)
#
#
# Indices 1 2 3 4 5 6 
#
# 1 57.1165 18.0265 42.6720 4.7098 7.6923 -5.7736
# 2 18.0265 61.7802 36.9149 -6.2674 -0.3388 -23.4342
# 3 42.6720 36.9149 146.1287 -6.7686 -4.4806 -13.5704
# 4 4.7098 -6.2674 -6.7686 34.5173 -13.9601 -0.7179
# 5 7.6923 -0.3388 -4.4806 -13.9601 29.2908 10.1741
# 6 -5.7736 -23.4342 -13.5704 -0.7179 10.1741 38.3284
#
#
#
# Elastic Compliance Matrix: (Units=1/GPa)
#
#
# Indices 1 2 3 4 5 6 
#
# 1 0.028075 -0.003516 -0.008067 -0.012293 -0.015595 0.003132
# 2 -0.003516 0.025374 -0.003969 0.003514 -0.002704 0.014362
# 3 -0.008067 -0.003969 0.010494 0.005100 0.006664 -0.001600
# 4 -0.012293 0.003514 0.005100 0.042607 0.025720 -0.003927
# 5 -0.015595 -0.002704 0.006664 0.025720 0.057155 -0.016333
# 6 0.003132 0.014362 -0.001600 -0.003927 -0.016333 0.039039
#
#
# Mechanical properties :
#
#
# Convention : Reuss Voigt Hill
#
# Bulk Modulus (GPa) = 30.45312 51.13912 40.79612
# Shear Modulus (GPa) = 20.42534 31.58810 26.00672
#
# Velocity S-wave (km/s) = 3.10668 3.86343 3.50553
# Velocity P-wave (km/s) = 5.22095 6.63821 5.97177
#
# Compressibility (1/GPa) = 0.03283735
#
# Stress axis : x y z
#
# Youngs Moduli (GPa) = 35.61868 39.41100 95.29588
#
# Poissons Ratio (x) = 0.13858 0.76873
# Poissons Ratio (y) = 0.12524 0.37828
# Poissons Ratio (z) = 0.28733 0.15644
#
# Static dielectric constant tensor:
#      x y z
#    x 3.665940 -0.158030 0.099350 
#    y -0.158030 3.873730 -0.053610 
#    z 0.099350 -0.053610 4.107190 
# 
# 
# High freq. dielectric constant tensor:
#      x y z
#    x 1.817090 -0.006390 -0.003730 
#    y -0.006390 1.832690 0.006200 
#    z -0.003730 0.006200 1.843510 
# 
# From -- ./inp_files/291488.got.cif
#   From: 2010.06.25/outbox.cif.g09.slc.cpg/sg2_146_cif.got.tgz:291488.got - 2010.06.27 13:26:56.
