data_PCOD8020653
_publ_section_title
;
Structure prediction by ZEFSAII (Michael W. Deem and Ramdas Pophale) SiO2 
 PCOD8020653
Probable space group: P -1
;
_chemical_formula_sum "Si O2"
_cell_formula_units_Z 14
_cell_length_a 14.596424
_cell_length_b 7.571871
_cell_length_c 11.696969
_cell_angle_alpha 92.275328
_cell_angle_beta 129.242197
_cell_angle_gamma 49.826624
_cell_volume 598.720273
_symmetry_space_group_name_H-M "P -1"
_symmetry_group_IT_number 2
_symmetry_cell_setting 'triclinic'
loop_
_space_group_symop_operation_xyz
x,y,z
-x,-y,-z
loop_
_atom_site_type_symbol
_atom_site_label
_atom_site_fract_x
_atom_site_fract_y
_atom_site_fract_z
Si Si1 0.263588 0.149213 0.991285
Si Si2 0.971081 0.199551 0.401685
Si Si3 0.649009 0.078068 0.362445
Si Si4 0.239407 0.543491 0.113672
Si Si5 0.538138 0.660211 0.019250
Si Si6 0.018559 0.134963 0.865546
Si Si7 0.919955 0.456473 0.588134
O O1 0.195340 0.067688 0.017823
O O2 0.097667 0.373530 0.767467
O O3 0.278131 0.310234 0.077776
O O4 0.468889 0.850605 0.082675
O O5 0.771424 0.415685 0.174702
O O6 0.949301 0.389204 0.476061
O O7 0.170887 0.997354 0.481208
O O8 0.000000 0.000000 0.500000
O O9 0.458036 0.369945 0.292338
O O10 0.716276 0.805687 0.455423
O O11 0.583513 0.131937 0.180554
O O12 0.150510 0.619093 0.169966
O O13 0.097716 0.841492 0.935605
O O14 0.500000 0.500000 0.000000
O O15 0.925910 0.269984 0.667543
#
# Coordination Sequence:
#
# PCOD8020653 Si02
#       7
#     2   2   2   2   2   2   2
#     4  10  22  42  71 100 140 183 233 287 351 407
#     4  12  25  41  67  99 144 178 223 290 338 417
#     4  12  25  42  65 106 133 182 235 273 356 413
#     4  11  23  42  75  99 138 192 232 294 340 421
#     4  12  24  43  68 104 142 186 226 280 354 421
#     4   9  23  45  69 101 141 180 246 284 353 403
#     4  10  24  42  62 100 143 175 231 292 340 417
#
# _framework density 23.383206999999999
#
# number of rings (size 3 to 8) (size 9 to 14) (size 15 to 20)
#    0.857    0.286    2.857    2.571    4.000    1.714 
#    0.000    0.000    0.000    2.571    0.000    0.000 
#    0.000    0.000    0.000    0.000    0.000    0.000 
#
# Total GULP energy -173501.787801 kJ/mol
# GULP energy per Si atom -12392.984843 kJ/mol
# Density = 2.332999 g / cm^3
# Si number density = 23.383207 Si / 1000 Ang^3
#
#
#
# Elastic Constant Matrix: (Units=GPa)
#
#
# Indices 1 2 3 4 5 6 
#
# 1 116.3180 25.1924 26.5225 -6.8574 22.9536 -15.4694
# 2 25.1924 90.3705 7.7681 -9.3409 18.6493 -5.7698
# 3 26.5225 7.7681 99.2872 -15.6466 19.4975 -2.5955
# 4 -6.8574 -9.3409 -15.6466 33.4732 2.6141 5.2393
# 5 22.9536 18.6493 19.4975 2.6141 40.5056 -14.7954
# 6 -15.4694 -5.7698 -2.5955 5.2393 -14.7954 42.3481
#
#
#
# Elastic Compliance Matrix: (Units=1/GPa)
#
#
# Indices 1 2 3 4 5 6 
#
# 1 0.010411 -0.001822 -0.001789 0.000723 -0.003463 0.002146
# 2 -0.001822 0.013215 0.001479 0.004796 -0.006697 -0.001708
# 3 -0.001789 0.001479 0.012963 0.007192 -0.007533 -0.003179
# 4 0.000723 0.004796 0.007192 0.036683 -0.011014 -0.007028
# 5 -0.003463 -0.006697 -0.007533 -0.011014 0.038520 0.012182
# 6 0.002146 -0.001708 -0.003179 -0.007028 0.012182 0.029096
#
#
# Mechanical properties :
#
#
# Convention : Reuss Voigt Hill
#
# Bulk Modulus (GPa) = 30.93476 47.21576 39.07526
# Shear Modulus (GPa) = 32.06642 39.69821 35.88232
#
# Velocity S-wave (km/s) = 3.70718 4.12481 3.92156
# Velocity P-wave (km/s) = 5.61983 6.55145 6.10344
#
# Compressibility (1/GPa) = 0.03232609
#
# Stress axis : x y z
#
# Youngs Moduli (GPa) = 96.05330 75.67077 77.14091
#
# Poissons Ratio (x) = 0.13789 0.13797
# Poissons Ratio (y) = 0.17503 -0.11410
# Poissons Ratio (z) = 0.17179 -0.11193
#
# Static dielectric constant tensor:
#      x y z
#    x 4.270380 -0.360760 -0.015000 
#    y -0.360760 3.877450 -0.374270 
#    z -0.015000 -0.374270 4.112450 
# 
# 
# High freq. dielectric constant tensor:
#      x y z
#    x 1.933870 0.010670 0.002990 
#    y 0.010670 1.917400 -0.025060 
#    z 0.002990 -0.025060 1.912730 
# 
# From -- ./inp_files/461408.got.cif
#   From: 2010.06.25/outbox.cif.g09.slc.cpg/sg2_231_cif.got.tgz:461408.got - 2010.06.27 13:26:56.
