data_PCOD8020066
_publ_section_title
;
Structure prediction by ZEFSAII (Michael W. Deem and Ramdas Pophale) SiO2 
 PCOD8020066
Probable space group: P -1
;
_chemical_formula_sum "Si O2"
_cell_formula_units_Z 14
_cell_length_a 14.651639
_cell_length_b 10.509893
_cell_length_c 13.320961
_cell_angle_alpha 33.391918
_cell_angle_beta 140.341291
_cell_angle_gamma 138.395226
_cell_volume 687.577101
_symmetry_space_group_name_H-M "P -1"
_symmetry_group_IT_number 2
_symmetry_cell_setting 'triclinic'
loop_
_space_group_symop_operation_xyz
x,y,z
-x,-y,-z
loop_
_atom_site_type_symbol
_atom_site_label
_atom_site_fract_x
_atom_site_fract_y
_atom_site_fract_z
Si Si1 0.864976 0.134445 0.893045
Si Si2 0.177750 0.050559 0.622156
Si Si3 0.691046 0.935866 0.072552
Si Si4 0.579242 0.929902 0.516411
Si Si5 0.363536 0.814101 0.805241
Si Si6 0.695242 0.485504 0.472430
Si Si7 0.803604 0.738943 0.940318
O O1 0.782532 0.090875 0.957804
O O2 0.834054 0.877586 0.980988
O O3 0.040084 0.265967 0.972099
O O4 0.802519 0.318188 0.653667
O O5 0.238982 0.940567 0.650769
O O6 0.232550 0.934734 0.844531
O O7 0.251993 0.343220 0.497389
O O8 0.000000 0.000000 0.500000
O O9 0.702108 0.658949 0.266488
O O10 0.517094 0.926064 0.923531
O O11 0.472990 0.683363 0.540161
O O12 0.734176 0.886449 0.706415
O O13 0.500000 0.000000 0.500000
O O14 0.608531 0.140864 0.319581
O O15 0.305908 0.527626 0.960076
#
# Coordination Sequence:
#
# PCOD8020066 Si02
#       7
#     2   2   2   2   2   2   2
#     4  11  23  43  63  97 129 170 211 267 329 376
#     4  10  24  43  64  94 131 171 215 265 320 376
#     4  10  23  41  69  89 128 170 211 267 318 373
#     4  12  24  41  68 101 127 169 218 261 322 387
#     4  12  24  43  66  96 131 171 214 265 317 382
#     4  10  22  42  65  90 132 161 219 265 311 380
#     4  11  25  39  65  98 132 164 216 264 324 387
#
# _framework density 20.361353000000001
#
# number of rings (size 3 to 8) (size 9 to 14) (size 15 to 20)
#    0.857    0.286    4.286    1.286    4.000    1.714 
#    2.571    4.286    0.000    0.000    0.000    0.000 
#    0.000    0.000    0.000    0.000    0.000    0.000 
#
# Total GULP energy -173556.785343 kJ/mol
# GULP energy per Si atom -12396.913239 kJ/mol
# Density = 2.031501 g / cm^3
# Si number density = 20.361353 Si / 1000 Ang^3
#
#
#
# Elastic Constant Matrix: (Units=GPa)
#
#
# Indices 1 2 3 4 5 6 
#
# 1 95.7986 31.9460 38.6232 8.6658 6.2785 9.6583
# 2 31.9460 88.1727 26.4729 14.1590 -7.9004 8.0912
# 3 38.6232 26.4729 106.6289 15.6759 2.3919 17.7605
# 4 8.6658 14.1590 15.6759 41.9650 4.7711 10.6300
# 5 6.2785 -7.9004 2.3919 4.7711 29.2902 1.2951
# 6 9.6583 8.0912 17.7605 10.6300 1.2951 30.2314
#
#
#
# Elastic Compliance Matrix: (Units=1/GPa)
#
#
# Indices 1 2 3 4 5 6 
#
# 1 0.013634 -0.004169 -0.003733 0.000705 -0.003807 -0.001132
# 2 -0.004169 0.014501 -0.001552 -0.003966 0.005599 -0.000482
# 3 -0.003733 -0.001552 0.012225 -0.002034 -0.000071 -0.004856
# 4 0.000705 -0.003966 -0.002034 0.028340 -0.005330 -0.007705
# 5 -0.003807 0.005599 -0.000071 -0.005330 0.037340 0.000034
# 6 -0.001132 -0.000482 -0.004856 -0.007705 0.000034 0.039129
#
#
# Mechanical properties :
#
#
# Convention : Reuss Voigt Hill
#
# Bulk Modulus (GPa) = 46.61831 53.85385 50.23608
# Shear Modulus (GPa) = 29.20076 33.20119 31.20098
#
# Velocity S-wave (km/s) = 3.79110 4.04245 3.91879
# Velocity P-wave (km/s) = 6.48910 6.94946 6.72322
#
# Compressibility (1/GPa) = 0.02145080
#
# Stress axis : x y z
#
# Youngs Moduli (GPa) = 73.34706 68.96142 81.79753
#
# Poissons Ratio (x) = 0.28753 0.30536
# Poissons Ratio (y) = 0.30581 0.12695
# Poissons Ratio (z) = 0.27381 0.10703
#
# Static dielectric constant tensor:
#      x y z
#    x 3.394640 0.095430 0.089730 
#    y 0.095430 3.807410 0.141920 
#    z 0.089730 0.141920 3.771730 
# 
# 
# High freq. dielectric constant tensor:
#      x y z
#    x 1.772040 0.009500 0.008540 
#    y 0.009500 1.804110 0.009340 
#    z 0.008540 0.009340 1.802630 
# 
# From -- ./inp_files/530900.got.cif
#   From: 2010.06.25/outbox.cif.g09.slc.cpg/sg2_266_cif.got.tgz:530900.got - 2010.06.27 13:26:56.
