data_PCOD8020379
_publ_section_title
;
Structure prediction by ZEFSAII (Michael W. Deem and Ramdas Pophale) SiO2 
 PCOD8020379
Probable space group: P -1
;
_chemical_formula_sum "Si O2"
_cell_formula_units_Z 14
_cell_length_a 9.289561
_cell_length_b 9.370895
_cell_length_c 8.784702
_cell_angle_alpha 87.895282
_cell_angle_beta 66.180783
_cell_angle_gamma 67.387408
_cell_volume 639.410262
_symmetry_space_group_name_H-M "P -1"
_symmetry_group_IT_number 2
_symmetry_cell_setting 'triclinic'
loop_
_space_group_symop_operation_xyz
x,y,z
-x,-y,-z
loop_
_atom_site_type_symbol
_atom_site_label
_atom_site_fract_x
_atom_site_fract_y
_atom_site_fract_z
Si Si1 0.506940 0.178660 0.285918
Si Si2 0.583824 0.622978 0.973730
Si Si3 0.920204 0.913189 0.643634
Si Si4 0.940986 0.408719 0.905660
Si Si5 0.456572 0.920952 0.164818
Si Si6 0.119424 0.845722 0.864919
Si Si7 0.867192 0.658643 0.474326
O O1 0.499249 0.243777 0.118430
O O2 0.693595 0.161461 0.266686
O O3 0.338610 0.305858 0.440825
O O4 0.501536 0.005411 0.289522
O O5 0.786546 0.533037 0.868875
O O6 0.500000 0.500000 0.000000
O O7 0.551198 0.730065 0.138140
O O8 0.884595 0.788266 0.566203
O O9 0.034173 0.830971 0.743625
O O10 0.742372 0.045576 0.768515
O O11 0.000000 0.000000 0.500000
O O12 0.088095 0.322902 0.721795
O O13 0.868053 0.296388 0.026550
O O14 0.000000 0.500000 0.000000
O O15 0.500000 0.000000 0.000000
O O16 0.000000 0.000000 0.000000
O O17 0.000000 0.500000 0.500000
#
# Coordination Sequence:
#
# PCOD8020379 Si02
#       7
#     2   2   2   2   2   2   2
#     4  10  22  42  67  99 134 182 220 277 337 396
#     4  11  21  40  66  99 135 176 226 271 337 402
#     4  11  25  45  68  98 131 182 221 277 347 398
#     4  12  27  43  68 104 133 178 227 281 338 400
#     4   9  21  39  67  93 130 177 223 268 332 403
#     4  12  25  44  70 101 139 173 233 279 327 409
#     4  11  23  45  69  95 142 177 221 275 344 402
#
# _framework density 21.895175999999999
#
# number of rings (size 3 to 8) (size 9 to 14) (size 15 to 20)
#    0.000    1.143    2.857    3.429    8.000    0.000 
#    2.571    3.571    0.000    0.000    0.000    0.000 
#    0.000    0.000    0.000    0.000    0.000    0.000 
#
# Total GULP energy -173447.798206 kJ/mol
# GULP energy per Si atom -12389.128443 kJ/mol
# Density = 2.184534 g / cm^3
# Si number density = 21.895176 Si / 1000 Ang^3
#
#
#
# Elastic Constant Matrix: (Units=GPa)
#
#
# Indices 1 2 3 4 5 6 
#
# 1 130.1127 26.5461 53.8442 15.1101 -28.5843 3.5974
# 2 26.5461 105.3665 25.9343 18.8547 -15.6718 14.7185
# 3 53.8442 25.9343 112.8439 15.0104 -20.7782 -2.3979
# 4 15.1101 18.8547 15.0104 33.5173 -3.0936 -2.7661
# 5 -28.5843 -15.6718 -20.7782 -3.0936 47.2944 3.9753
# 6 3.5974 14.7185 -2.3979 -2.7661 3.9753 29.0196
#
#
#
# Elastic Compliance Matrix: (Units=1/GPa)
#
#
# Indices 1 2 3 4 5 6 
#
# 1 0.010777 -0.000209 -0.003904 -0.002757 0.004756 -0.002467
# 2 -0.000209 0.012713 -0.001416 -0.006719 0.003671 -0.007682
# 3 -0.003904 -0.001416 0.011781 -0.002393 0.002051 0.001667
# 4 -0.002757 -0.006719 -0.002393 0.036249 -0.003199 0.007445
# 5 0.004756 0.003671 0.002051 -0.003199 0.026449 -0.006210
# 6 -0.002467 -0.007682 0.001667 0.007445 -0.006210 0.040360
#
#
# Mechanical properties :
#
#
# Convention : Reuss Voigt Hill
#
# Bulk Modulus (GPa) = 41.29859 62.33025 51.81442
# Shear Modulus (GPa) = 31.75447 38.09948 34.92698
#
# Velocity S-wave (km/s) = 3.81241 4.17596 3.99832
# Velocity P-wave (km/s) = 6.18726 7.19589 6.71055
#
# Compressibility (1/GPa) = 0.02421390
#
# Stress axis : x y z
#
# Youngs Moduli (GPa) = 92.78796 78.65880 84.87930
#
# Poissons Ratio (x) = 0.01643 0.33140
# Poissons Ratio (y) = 0.01938 0.12017
# Poissons Ratio (z) = 0.36228 0.11137
#
# Static dielectric constant tensor:
#      x y z
#    x 5.661110 1.239250 0.110770 
#    y 1.239250 4.224500 0.127400 
#    z 0.110770 0.127400 4.069320 
# 
# 
# High freq. dielectric constant tensor:
#      x y z
#    x 1.868950 0.003590 -0.015560 
#    y 0.003590 1.867360 0.014690 
#    z -0.015560 0.014690 1.855380 
# 
# From -- ./inp_files/158483.got.cif
#   From: 2010.06.25/outbox.cif.g09.slc.cpg/sg2_80_cif.got.tgz:158483.got - 2010.06.27 13:26:56.
