data_PCOD8020758
_publ_section_title
;
Structure prediction by ZEFSAII (Michael W. Deem and Ramdas Pophale) SiO2 
 PCOD8020758
Probable space group: P -1
;
_chemical_formula_sum "Si O2"
_cell_formula_units_Z 16
_cell_length_a 16.947019
_cell_length_b 22.126853
_cell_length_c 14.022428
_cell_angle_alpha 21.861300
_cell_angle_beta 30.135299
_cell_angle_gamma 19.687573
_cell_volume 657.916807
_symmetry_space_group_name_H-M "P -1"
_symmetry_group_IT_number 2
_symmetry_cell_setting 'triclinic'
loop_
_space_group_symop_operation_xyz
x,y,z
-x,-y,-z
loop_
_atom_site_type_symbol
_atom_site_label
_atom_site_fract_x
_atom_site_fract_y
_atom_site_fract_z
Si Si1 0.825561 0.598524 0.888008
Si Si2 0.209008 0.044380 0.279081
Si Si3 0.580956 0.093498 0.443685
Si Si4 0.971531 0.902627 0.812381
Si Si5 0.868641 0.564577 0.675502
Si Si6 0.367300 0.348442 0.479989
Si Si7 0.729076 0.239258 0.928912
Si Si8 0.407679 0.704169 0.225689
O O1 0.780787 0.654134 0.742607
O O2 0.804538 0.800099 0.654558
O O3 0.614374 0.673691 0.051159
O O4 0.067116 0.314107 0.068090
O O5 0.482920 0.861319 0.287436
O O6 0.114629 0.954810 0.561593
O O7 0.189481 0.030923 0.206091
O O8 0.328924 0.195961 0.534877
O O9 0.544817 0.221999 0.389873
O O10 0.608826 0.183172 0.190409
O O11 0.824805 0.040504 0.860129
O O12 0.140215 0.620998 0.070296
O O13 0.126204 0.442060 0.569697
O O14 0.318967 0.563275 0.251716
O O15 0.639389 0.328091 0.784013
O O16 0.000000 0.000000 0.000000
O O17 0.500000 0.500000 0.500000
#
# Coordination Sequence:
#
# PCOD8020758 Si02
#       8
#     2   2   2   2   2   2   2   2
#     4  11  24  44  75 105 140 193 241 301 356 434
#     4  10  23  45  71 107 146 182 249 298 358 428
#     4  12  26  47  74 104 150 194 242 293 368 444
#     4  10  22  42  75 101 136 193 240 297 360 434
#     4  11  24  45  71 102 146 192 241 298 358 438
#     4  12  27  45  71 106 148 195 241 303 364 429
#     4  12  29  46  73 113 152 187 241 314 367 432
#     4  12  24  44  75 109 140 193 248 294 361 443
#
# _framework density 24.319185000000001
#
# number of rings (size 3 to 8) (size 9 to 14) (size 15 to 20)
#    0.000    0.750    2.500    4.125    7.000    2.500 
#    0.000    3.750    0.000    0.000    0.000    0.000 
#    0.000    0.000    0.000    0.000    0.000    0.000 
#
# Total GULP energy -198305.838502 kJ/mol
# GULP energy per Si atom -12394.114906 kJ/mol
# Density = 2.426383 g / cm^3
# Si number density = 24.319185 Si / 1000 Ang^3
#
#
#
# Elastic Constant Matrix: (Units=GPa)
#
#
# Indices 1 2 3 4 5 6 
#
# 1 88.9161 35.4097 39.9595 -11.8541 -9.8461 18.4155
# 2 35.4097 89.9945 39.4823 -20.2116 -16.8300 16.5879
# 3 39.9595 39.4823 116.3267 -22.5395 -14.5650 15.1799
# 4 -11.8541 -20.2116 -22.5395 45.2539 15.1133 8.4208
# 5 -9.8461 -16.8300 -14.5650 15.1133 26.2120 -8.6488
# 6 18.4155 16.5879 15.1799 8.4208 -8.6488 56.4477
#
#
#
# Elastic Compliance Matrix: (Units=1/GPa)
#
#
# Indices 1 2 3 4 5 6 
#
# 1 0.014966 -0.003620 -0.003271 0.001400 -0.000385 -0.003207
# 2 -0.003620 0.015808 -0.002462 0.003991 0.004213 -0.002752
# 3 -0.003271 -0.002462 0.011650 0.003909 0.000817 -0.001800
# 4 0.001400 0.003991 0.003909 0.034121 -0.017881 -0.010510
# 5 -0.000385 0.004213 0.000817 -0.017881 0.054679 0.009714
# 6 -0.003207 -0.002752 -0.001800 -0.010510 0.009714 0.023111
#
#
# Mechanical properties :
#
#
# Convention : Reuss Voigt Hill
#
# Bulk Modulus (GPa) = 42.16169 58.32669 50.24419
# Shear Modulus (GPa) = 27.63237 37.60846 32.62041
#
# Velocity S-wave (km/s) = 3.37447 3.93676 3.66641
# Velocity P-wave (km/s) = 5.70589 6.68581 6.21519
#
# Compressibility (1/GPa) = 0.02371822
#
# Stress axis : x y z
#
# Youngs Moduli (GPa) = 66.81619 63.26033 85.83604
#
# Poissons Ratio (x) = 0.22902 0.28076
# Poissons Ratio (y) = 0.24190 0.21131
# Poissons Ratio (z) = 0.21855 0.15573
#
# Static dielectric constant tensor:
#      x y z
#    x 4.048230 -0.297000 -0.415810 
#    y -0.297000 3.877750 -0.773540 
#    z -0.415810 -0.773540 4.071950 
# 
# 
# High freq. dielectric constant tensor:
#      x y z
#    x 1.961900 0.014240 0.007270 
#    y 0.014240 1.981030 -0.011490 
#    z 0.007270 -0.011490 1.971270 
# 
# From -- ./inp_files/539271.got.cif
#   From: 2010.06.25/outbox.cif.g09.slc.cpg/sg2_270_cif.got.tgz:539271.got - 2010.06.27 13:26:56.
