data_PCOD8020009
_publ_section_title
;
Structure prediction by ZEFSAII (Michael W. Deem and Ramdas Pophale) SiO2 
 PCOD8020009
Probable space group: P -1
;
_chemical_formula_sum "Si O2"
_cell_formula_units_Z 14
_cell_length_a 9.297790
_cell_length_b 11.093008
_cell_length_c 11.098731
_cell_angle_alpha 146.137782
_cell_angle_beta 78.418087
_cell_angle_gamma 102.399941
_cell_volume 622.429997
_symmetry_space_group_name_H-M "P -1"
_symmetry_group_IT_number 2
_symmetry_cell_setting 'triclinic'
loop_
_space_group_symop_operation_xyz
x,y,z
-x,-y,-z
loop_
_atom_site_type_symbol
_atom_site_label
_atom_site_fract_x
_atom_site_fract_y
_atom_site_fract_z
Si Si1 0.222540 0.464439 0.448357
Si Si2 0.027243 0.760816 0.846183
Si Si3 0.479866 0.390908 0.177136
Si Si4 0.013800 0.526824 0.162318
Si Si5 0.343076 0.707012 0.304469
Si Si6 0.742027 0.696150 0.447062
Si Si7 0.487372 0.969976 0.290673
O O1 0.180591 0.691807 0.704904
O O2 0.385272 0.472320 0.372201
O O3 0.217900 0.280220 0.398965
O O4 0.106835 0.403314 0.312925
O O5 0.021696 0.700732 0.941979
O O6 0.000000 0.000000 0.000000
O O7 0.422598 0.497585 0.154759
O O8 0.647803 0.466295 0.244881
O O9 0.466995 0.133143 0.931219
O O10 0.170418 0.648356 0.270375
O O11 0.895075 0.698223 0.352825
O O12 0.000000 0.500000 0.000000
O O13 0.421804 0.775736 0.224465
O O14 0.372524 0.893679 0.558450
O O15 0.649542 0.888395 0.582638
#
# Coordination Sequence:
#
# PCOD8020009 Si02
#       7
#     2   2   2   2   2   2   2
#     4  10  22  42  64  96 132 173 218 276 325 388
#     4  10  23  44  67  97 136 176 219 270 336 401
#     4  11  21  42  66  93 130 177 222 267 330 394
#     4  11  23  44  70 100 136 174 217 285 338 383
#     4  10  22  42  64  94 133 176 221 273 328 394
#     4  10  24  41  63  99 138 166 215 283 326 389
#     4  10  23  41  65  96 132 179 218 269 329 402
#
# _framework density 22.492491000000001
#
# number of rings (size 3 to 8) (size 9 to 14) (size 15 to 20)
#    0.000    1.714    1.429    1.714    0.000    9.143 
#    2.571    1.429    0.000    0.000    0.000    0.000 
#    0.000    0.000    0.000    0.000    0.000    0.000 
#
# Total GULP energy -173438.814550 kJ/mol
# GULP energy per Si atom -12388.486754 kJ/mol
# Density = 2.244130 g / cm^3
# Si number density = 22.492491 Si / 1000 Ang^3
#
#
#
# Elastic Constant Matrix: (Units=GPa)
#
#
# Indices 1 2 3 4 5 6 
#
# 1 127.2928 33.0969 34.2431 -5.7686 -7.7229 1.8766
# 2 33.0969 125.0702 46.2046 -15.7929 -13.1360 -16.4939
# 3 34.2431 46.2046 98.1730 -4.7376 -14.6131 2.3695
# 4 -5.7686 -15.7929 -4.7376 27.4869 -1.4760 3.7561
# 5 -7.7229 -13.1360 -14.6131 -1.4760 26.7195 0.3148
# 6 1.8766 -16.4939 2.3695 3.7561 0.3148 32.3961
#
#
#
# Elastic Compliance Matrix: (Units=1/GPa)
#
#
# Indices 1 2 3 4 5 6 
#
# 1 0.008951 -0.001534 -0.002231 0.000818 0.000673 -0.001238
# 2 -0.001534 0.011770 -0.004435 0.005053 0.003129 0.005789
# 3 -0.002231 -0.004435 0.013844 0.000064 0.004788 -0.003195
# 4 0.000818 0.005053 0.000064 0.040032 0.004993 -0.002169
# 5 0.000673 0.003129 0.004788 0.004993 0.042050 0.000216
# 6 -0.001238 0.005789 -0.003195 -0.002169 0.000216 0.034370
#
#
# Mechanical properties :
#
#
# Convention : Reuss Voigt Hill
#
# Bulk Modulus (GPa) = 55.04597 64.18057 59.61327
# Shear Modulus (GPa) = 28.82335 33.11993 30.97164
#
# Velocity S-wave (km/s) = 3.58364 3.84146 3.71479
# Velocity P-wave (km/s) = 6.45364 6.94780 6.70528
#
# Compressibility (1/GPa) = 0.01816664
#
# Stress axis : x y z
#
# Youngs Moduli (GPa) = 111.72019 84.96311 72.23276
#
# Poissons Ratio (x) = 0.13032 0.16113
# Poissons Ratio (y) = 0.17136 0.32032
# Poissons Ratio (z) = 0.24922 0.37677
#
# Static dielectric constant tensor:
#      x y z
#    x 4.205140 -0.181270 -0.002220 
#    y -0.181270 4.175190 -0.156970 
#    z -0.002220 -0.156970 3.894770 
# 
# 
# High freq. dielectric constant tensor:
#      x y z
#    x 1.900550 -0.014090 -0.007690 
#    y -0.014090 1.888950 -0.014400 
#    z -0.007690 -0.014400 1.867930 
# 
# From -- ./inp_files/130665.got.cif
#   From: 2010.06.25/outbox.cif.g09.slc.cpg/sg2_66_cif.got.tgz:130665.got - 2010.06.27 13:26:56.
