data_PCOD8020679
_publ_section_title
;
Structure prediction by ZEFSAII (Michael W. Deem and Ramdas Pophale) SiO2 
 PCOD8020679
Probable space group: P -1
;
_chemical_formula_sum "Si O2"
_cell_formula_units_Z 16
_cell_length_a 14.895303
_cell_length_b 25.287220
_cell_length_c 9.698345
_cell_angle_alpha 151.509314
_cell_angle_beta 48.463312
_cell_angle_gamma 151.141504
_cell_volume 745.354215
_symmetry_space_group_name_H-M "P -1"
_symmetry_group_IT_number 2
_symmetry_cell_setting 'triclinic'
loop_
_space_group_symop_operation_xyz
x,y,z
-x,-y,-z
loop_
_atom_site_type_symbol
_atom_site_label
_atom_site_fract_x
_atom_site_fract_y
_atom_site_fract_z
Si Si1 0.384401 0.639199 0.127443
Si Si2 0.291893 0.551503 0.537188
Si Si3 0.008210 0.995361 0.145536
Si Si4 0.699391 0.965537 0.113942
Si Si5 0.602728 0.587938 0.743902
Si Si6 0.209086 0.956847 0.483565
Si Si7 0.087211 0.451102 0.243449
Si Si8 0.037536 0.400968 0.708712
O O1 0.260778 0.600798 0.291668
O O2 0.581994 0.868370 0.419397
O O3 0.479829 0.591448 0.959804
O O4 0.224046 0.498816 0.841478
O O5 0.411898 0.531845 0.420895
O O6 0.193659 0.460828 0.278846
O O7 0.100619 0.435436 0.565552
O O8 0.454374 0.779363 0.894558
O O9 0.979563 0.096149 0.471833
O O10 0.840118 0.793093 0.933016
O O11 0.216833 0.082128 0.159222
O O12 0.000000 0.000000 0.000000
O O13 0.712850 0.966146 0.265272
O O14 0.820598 0.169084 0.415208
O O15 0.500000 0.500000 0.500000
O O16 0.112114 0.763996 0.110326
O O17 0.000000 0.500000 0.500000
O O18 0.000000 0.500000 0.000000
#
# Coordination Sequence:
#
# PCOD8020679 Si02
#       8
#     2   2   2   2   2   2   2   2
#     4  11  23  45  70  97 133 186 223 280 345 399
#     4  12  26  42  68 109 134 176 231 288 341 398
#     4   9  18  34  64 102 132 167 217 278 341 399
#     4  11  21  40  70 103 133 172 227 287 339 401
#     4  11  19  39  69 103 140 163 226 293 338 402
#     4  10  22  42  71  97 131 183 227 273 344 408
#     4  12  29  48  65  96 146 188 228 274 341 412
#     4  12  24  41  69 101 135 179 235 282 327 405
#
# _framework density 21.466304999999998
#
# number of rings (size 3 to 8) (size 9 to 14) (size 15 to 20)
#    0.000    1.000    5.000    2.250    3.500    3.500 
#    0.000    1.250    0.000    0.000    0.000    0.000 
#    0.000    0.000    0.000    0.000    0.000    0.000 
#
# Total GULP energy -198280.151307 kJ/mol
# GULP energy per Si atom -12392.509457 kJ/mol
# Density = 2.141745 g / cm^3
# Si number density = 21.466305 Si / 1000 Ang^3
#
#
#
# Elastic Constant Matrix: (Units=GPa)
#
#
# Indices 1 2 3 4 5 6 
#
# 1 56.6655 22.9452 12.6249 5.2507 1.3110 1.7618
# 2 22.9452 154.1867 55.0881 3.9324 -11.0716 -5.6768
# 3 12.6249 55.0881 80.0130 5.1748 -13.7499 5.2524
# 4 5.2507 3.9324 5.1748 34.5210 -5.9539 -4.3673
# 5 1.3110 -11.0716 -13.7499 -5.9539 33.6059 -5.8031
# 6 1.7618 -5.6768 5.2524 -4.3673 -5.8031 19.7565
#
#
#
# Elastic Compliance Matrix: (Units=1/GPa)
#
#
# Indices 1 2 3 4 5 6 
#
# 1 0.019596 -0.002762 -0.001302 -0.003591 -0.003539 -0.004028
# 2 -0.002762 0.009393 -0.006152 0.001274 0.001844 0.005404
# 3 -0.001302 -0.006152 0.018141 -0.001821 0.004146 -0.005659
# 4 -0.003591 0.001274 -0.001821 0.032227 0.007328 0.010447
# 5 -0.003539 0.001844 0.004146 0.007328 0.035535 0.011801
# 6 -0.004028 0.005404 -0.005659 0.010447 0.011801 0.059808
#
#
# Mechanical properties :
#
#
# Convention : Reuss Voigt Hill
#
# Bulk Modulus (GPa) = 37.45482 52.46462 44.95972
# Shear Modulus (GPa) = 24.50609 30.92382 27.71496
#
# Velocity S-wave (km/s) = 3.38243 3.79961 3.59707
# Velocity P-wave (km/s) = 5.72194 6.61384 6.18399
#
# Compressibility (1/GPa) = 0.02669883
#
# Stress axis : x y z
#
# Youngs Moduli (GPa) = 51.03181 106.45721 55.12495
#
# Poissons Ratio (x) = 0.29401 0.07177
# Poissons Ratio (y) = 0.14094 0.33911
# Poissons Ratio (z) = 0.06644 0.65489
#
# Static dielectric constant tensor:
#      x y z
#    x 3.853600 0.168330 -0.169400 
#    y 0.168330 4.201980 0.033130 
#    z -0.169400 0.033130 3.733560 
# 
# 
# High freq. dielectric constant tensor:
#      x y z
#    x 1.820450 0.007070 -0.020670 
#    y 0.007070 1.865270 0.008430 
#    z -0.020670 0.008430 1.828450 
# 
# From -- ./inp_files/207177.got.cif
#   From: 2010.06.25/outbox.cif.g09.slc.cpg/sg2_104_cif.got.tgz:207177.got - 2010.06.27 13:26:56.
