data_PCOD8020670
_publ_section_title
;
Structure prediction by ZEFSAII (Michael W. Deem and Ramdas Pophale) SiO2 
 PCOD8020670
Probable space group: P -1
;
_chemical_formula_sum "Si O2"
_cell_formula_units_Z 16
_cell_length_a 10.326539
_cell_length_b 21.705795
_cell_length_c 17.167786
_cell_angle_alpha 16.447850
_cell_angle_beta 37.563025
_cell_angle_gamma 31.629472
_cell_volume 563.920336
_symmetry_space_group_name_H-M "P -1"
_symmetry_group_IT_number 2
_symmetry_cell_setting 'triclinic'
loop_
_space_group_symop_operation_xyz
x,y,z
-x,-y,-z
loop_
_atom_site_type_symbol
_atom_site_label
_atom_site_fract_x
_atom_site_fract_y
_atom_site_fract_z
Si Si1 0.120362 0.118179 0.475628
Si Si2 0.372071 0.707996 0.590518
Si Si3 0.870848 0.209348 0.715427
Si Si4 0.227641 0.231406 0.749582
Si Si5 0.511372 0.709705 0.689344
Si Si6 0.372110 0.768857 0.046051
Si Si7 0.986627 0.728457 0.040530
Si Si8 0.838757 0.575705 0.157048
O O1 0.389769 0.975826 0.475121
O O2 0.094546 0.908074 0.792623
O O3 0.897686 0.222613 0.393382
O O4 0.082690 0.350736 0.266088
O O5 0.496335 0.838044 0.323570
O O6 0.344947 0.773328 0.614702
O O7 0.558779 0.404458 0.853589
O O8 0.747454 0.331089 0.710893
O O9 0.766041 0.430493 0.431910
O O10 0.795965 0.001452 0.986778
O O11 0.174777 0.060143 0.760696
O O12 0.000000 0.500000 0.500000
O O13 0.220315 0.231294 0.847681
O O14 0.800728 0.578031 0.685721
O O15 0.500000 0.500000 0.000000
O O16 0.617495 0.746950 0.994550
O O17 0.895782 0.767227 0.945420
#
# Coordination Sequence:
#
# PCOD8020670 Si02
#       8
#     2   2   2   2   2   2   2   2
#     4  10  24  44  67  95 131 178 218 272 331 379
#     4  11  22  41  67  95 132 172 218 276 330 396
#     4  11  22  40  63  92 141 184 206 268 334 388
#     4  12  22  38  66 100 133 172 221 263 336 404
#     4  10  22  42  71  93 124 174 226 272 326 391
#     4  10  23  38  59  93 131 174 215 263 322 394
#     4  11  23  43  67 100 133 172 217 271 327 398
#     4  11  24  42  64  97 138 169 224 268 325 398
#
# _framework density 28.372803000000001
#
# number of rings (size 3 to 8) (size 9 to 14) (size 15 to 20)
#    0.000    1.250    3.750    1.500    5.250    2.000 
#    0.000    0.000    5.500    6.750    0.000    0.000 
#    0.000    0.000    0.000    0.000    0.000    0.000 
#
# Total GULP energy -198301.801685 kJ/mol
# GULP energy per Si atom -12393.862605 kJ/mol
# Density = 2.830823 g / cm^3
# Si number density = 28.372803 Si / 1000 Ang^3
#
#
#
# Elastic Constant Matrix: (Units=GPa)
#
#
# Indices 1 2 3 4 5 6 
#
# 1 73.9241 10.8456 -2.6218 -2.0606 7.9993 19.4737
# 2 10.8456 130.8721 -9.0002 -18.9246 3.9735 25.3692
# 3 -2.6218 -9.0002 50.9817 3.8955 -8.1462 6.7470
# 4 -2.0606 -18.9246 3.8955 29.8076 11.5989 9.5382
# 5 7.9993 3.9735 -8.1462 11.5989 29.3887 -3.7355
# 6 19.4737 25.3692 6.7470 9.5382 -3.7355 47.0996
#
#
#
# Elastic Compliance Matrix: (Units=1/GPa)
#
#
# Indices 1 2 3 4 5 6 
#
# 1 0.017819 0.002846 0.000398 0.011165 -0.011069 -0.012096
# 2 0.002846 0.012317 0.001158 0.015451 -0.009727 -0.011877
# 3 0.000398 0.001158 0.021589 -0.003959 0.006960 -0.002527
# 4 0.011165 0.015451 -0.003959 0.068327 -0.036895 -0.029134
# 5 -0.011069 -0.009727 0.006960 -0.036895 0.057495 0.020850
# 6 -0.012096 -0.011877 -0.002527 -0.029134 0.020850 0.040546
#
#
# Mechanical properties :
#
#
# Convention : Reuss Voigt Hill
#
# Bulk Modulus (GPa) = 16.52119 28.24724 22.38421
# Shear Modulus (GPa) = 21.78978 38.36281 30.07629
#
# Velocity S-wave (km/s) = 2.77425 3.68108 3.25936
# Velocity P-wave (km/s) = 4.01217 5.29570 4.69798
#
# Compressibility (1/GPa) = 0.06052834
#
# Stress axis : x y z
#
# Youngs Moduli (GPa) = 56.11857 81.19076 46.32024
#
# Poissons Ratio (x) = -0.23107 -0.01843
# Poissons Ratio (y) = -0.15971 -0.05363
# Poissons Ratio (z) = -0.02233 -0.09400
#
# Static dielectric constant tensor:
#      x y z
#    x 5.104890 0.159790 -0.028570 
#    y 0.159790 5.829460 -0.548800 
#    z -0.028570 -0.548800 5.074810 
# 
# 
# High freq. dielectric constant tensor:
#      x y z
#    x 2.137470 0.015550 0.001780 
#    y 0.015550 2.159270 -0.022440 
#    z 0.001780 -0.022440 2.150140 
# 
# From -- ./inp_files/570910.got.cif
#   From: 2010.06.25/outbox.cif.g09.slc.cpg/sg2_286_cif.got.tgz:570910.got - 2010.06.27 13:26:56.
