data_PCOD8020856
_publ_section_title
;
Structure prediction by ZEFSAII (Michael W. Deem and Ramdas Pophale) SiO2 
 PCOD8020856
Probable space group: P -1
;
_chemical_formula_sum "Si O2"
_cell_formula_units_Z 14
_cell_length_a 12.781099
_cell_length_b 8.790598
_cell_length_c 11.883786
_cell_angle_alpha 140.737110
_cell_angle_beta 129.914623
_cell_angle_gamma 56.872214
_cell_volume 644.716859
_symmetry_space_group_name_H-M "P -1"
_symmetry_group_IT_number 2
_symmetry_cell_setting 'triclinic'
loop_
_space_group_symop_operation_xyz
x,y,z
-x,-y,-z
loop_
_atom_site_type_symbol
_atom_site_label
_atom_site_fract_x
_atom_site_fract_y
_atom_site_fract_z
Si Si1 0.424720 0.046602 0.858537
Si Si2 0.124255 0.658916 0.180227
Si Si3 0.659576 0.437342 0.540866
Si Si4 0.778999 0.501350 0.074287
Si Si5 0.611457 0.311344 0.022994
Si Si6 0.783961 0.508372 0.437507
Si Si7 0.932309 0.786196 0.519168
O O1 0.340812 0.309634 0.950260
O O2 0.325898 0.845047 0.645306
O O3 0.546449 0.058232 0.854775
O O4 0.500000 0.000000 0.000000
O O5 0.245927 0.528685 0.266534
O O6 0.082215 0.928417 0.349449
O O7 0.165639 0.669351 0.085444
O O8 0.000000 0.500000 0.000000
O O9 0.500000 0.500000 0.500000
O O10 0.721981 0.581093 0.561024
O O11 0.736787 0.295744 0.013725
O O12 0.887628 0.651154 0.298799
O O13 0.656332 0.411605 0.231053
O O14 0.500000 0.500000 0.000000
O O15 0.840396 0.729376 0.532858
O O16 0.907439 0.294282 0.401409
#
# Coordination Sequence:
#
# PCOD8020856 Si02
#       7
#     2   2   2   2   2   2   2
#     4  11  20  38  65  94 133 173 210 276 336 398
#     4  12  27  43  69 102 136 181 230 282 336 406
#     4  12  26  41  64 107 141 171 227 283 344 402
#     4  10  22  43  64  94 132 174 225 267 337 396
#     4   9  20  37  65  94 123 175 216 261 337 404
#     4  10  22  43  69  94 137 179 224 280 338 406
#     4  10  23  46  70  96 130 183 231 278 336 402
#
# _framework density 21.714959
#
# number of rings (size 3 to 8) (size 9 to 14) (size 15 to 20)
#    0.000    1.429    2.857    1.714    4.000    3.429 
#    0.000   11.429    0.000    0.000    0.000    0.000 
#    0.000    0.000    0.000    0.000    0.000    0.000 
#
# Total GULP energy -173472.948871 kJ/mol
# GULP energy per Si atom -12390.924919 kJ/mol
# Density = 2.166553 g / cm^3
# Si number density = 21.714959 Si / 1000 Ang^3
#
#
#
# Elastic Constant Matrix: (Units=GPa)
#
#
# Indices 1 2 3 4 5 6 
#
# 1 102.4090 22.0422 34.1434 -17.7605 -0.8035 12.6727
# 2 22.0422 83.7102 32.0636 -29.4285 6.9661 2.7428
# 3 34.1434 32.0636 105.4308 -30.7010 7.3310 6.4811
# 4 -17.7605 -29.4285 -30.7010 33.9084 2.5245 0.6043
# 5 -0.8035 6.9661 7.3310 2.5245 38.1527 -4.5635
# 6 12.6727 2.7428 6.4811 0.6043 -4.5635 34.9844
#
#
#
# Elastic Compliance Matrix: (Units=1/GPa)
#
#
# Indices 1 2 3 4 5 6 
#
# 1 0.011793 -0.000943 -0.002360 0.003274 0.000204 -0.003791
# 2 -0.000943 0.018144 -0.000319 0.015333 -0.004510 -0.001875
# 3 -0.002360 -0.000319 0.014139 0.011613 -0.003768 -0.002432
# 4 0.003274 0.015333 0.011613 0.055853 -0.009464 -0.006739
# 5 0.000204 -0.004510 -0.003768 -0.009464 0.028977 0.004921
# 6 -0.003791 -0.001875 -0.002432 -0.006739 0.004921 0.031313
#
#
# Mechanical properties :
#
#
# Convention : Reuss Voigt Hill
#
# Bulk Modulus (GPa) = 27.15008 52.00536 39.57772
# Shear Modulus (GPa) = 27.81801 34.96248 31.39024
#
# Velocity S-wave (km/s) = 3.58306 4.01691 3.80617
# Velocity P-wave (km/s) = 5.44499 6.74650 6.13038
#
# Compressibility (1/GPa) = 0.03683231
#
# Stress axis : x y z
#
# Youngs Moduli (GPa) = 84.79518 55.11608 70.72542
#
# Poissons Ratio (x) = 0.05198 0.16692
# Poissons Ratio (y) = 0.07997 0.02253
# Poissons Ratio (z) = 0.20013 0.01756
#
# Static dielectric constant tensor:
#      x y z
#    x 1.845900 0.542520 0.761920 
#    y 0.542520 3.974760 -0.088830 
#    z 0.761920 -0.088830 0.129810 
# 
# 
# High freq. dielectric constant tensor:
#      x y z
#    x 1.862810 0.020600 0.018680 
#    y 0.020600 1.851450 -0.024750 
#    z 0.018680 -0.024750 1.846820 
# 
# From -- ./inp_files/255650.got.cif
#   From: 2010.06.25/outbox.cif.g09.slc.cpg/sg2_128_cif.got.tgz:255650.got - 2010.06.27 13:26:56.
