data_PCOD8020862
_publ_section_title
;
Structure prediction by ZEFSAII (Michael W. Deem and Ramdas Pophale) SiO2 
 PCOD8020862
Probable space group: P -1
;
_chemical_formula_sum "Si O2"
_cell_formula_units_Z 14
_cell_length_a 17.179836
_cell_length_b 7.533734
_cell_length_c 5.359478
_cell_angle_alpha 117.112292
_cell_angle_beta 110.968456
_cell_angle_gamma 63.189483
_cell_volume 540.849907
_symmetry_space_group_name_H-M "P -1"
_symmetry_group_IT_number 2
_symmetry_cell_setting 'triclinic'
loop_
_space_group_symop_operation_xyz
x,y,z
-x,-y,-z
loop_
_atom_site_type_symbol
_atom_site_label
_atom_site_fract_x
_atom_site_fract_y
_atom_site_fract_z
Si Si1 0.377536 0.771794 0.456103
Si Si2 0.569641 0.673489 0.487077
Si Si3 0.875995 0.254093 0.457162
Si Si4 0.700407 0.822308 0.027244
Si Si5 0.954633 0.367604 0.120390
Si Si6 0.885620 0.798515 0.115355
Si Si7 0.297881 0.541842 0.875369
O O1 0.464356 0.801226 0.447378
O O2 0.407486 0.553355 0.501083
O O3 0.328784 0.975074 0.695981
O O4 0.309815 0.748442 0.151200
O O5 0.606169 0.618700 0.212665
O O6 0.617674 0.824526 0.763648
O O7 0.904649 0.345142 0.793478
O O8 0.770237 0.375070 0.378193
O O9 0.896633 0.007790 0.376025
O O10 0.925807 0.273804 0.271397
O O11 0.782852 0.830484 0.960373
O O12 0.739011 0.597987 0.073826
O O13 0.060503 0.259882 0.122594
O O14 0.929702 0.622899 0.271134
#
# Coordination Sequence:
#
# PCOD8020862 Si02
#       7
#     2   2   2   2   2   2   2
#     4  10  23  41  67  94 134 183 233 283 365 416
#     4  10  22  43  64  96 136 180 230 296 345 429
#     4  12  26  47  74 103 149 185 242 294 361 419
#     4  11  23  42  65 103 135 181 233 294 352 428
#     4  11  27  49  70 109 141 191 241 300 346 439
#     4  11  25  45  74 100 145 186 240 290 368 415
#     4  11  24  40  67  98 142 178 237 292 350 427
#
# _framework density 25.885186000000001
#
# number of rings (size 3 to 8) (size 9 to 14) (size 15 to 20)
#    0.000    1.143    1.429    3.429    4.000    7.429 
#    2.571    0.000    0.000    0.000    0.000    0.000 
#    0.000    0.000    0.000    0.000    0.000    0.000 
#
# Total GULP energy -173610.896389 kJ/mol
# GULP energy per Si atom -12400.778313 kJ/mol
# Density = 2.582627 g / cm^3
# Si number density = 25.885186 Si / 1000 Ang^3
#
#
#
# Elastic Constant Matrix: (Units=GPa)
#
#
# Indices 1 2 3 4 5 6 
#
# 1 169.2762 39.7855 56.3135 8.3814 8.2414 -15.6573
# 2 39.7855 77.6936 34.9908 18.3458 8.2622 -9.4118
# 3 56.3135 34.9908 150.9636 18.0083 19.0091 -2.6070
# 4 8.3814 18.3458 18.0083 31.4528 3.6799 -6.3584
# 5 8.2414 8.2622 19.0091 3.6799 36.3842 3.4863
# 6 -15.6573 -9.4118 -2.6070 -6.3584 3.4863 29.5734
#
#
#
# Elastic Compliance Matrix: (Units=1/GPa)
#
#
# Indices 1 2 3 4 5 6 
#
# 1 0.007561 -0.002796 -0.002261 0.001624 -0.000377 0.003307
# 2 -0.002796 0.017422 -0.001806 -0.007667 -0.001841 0.002474
# 3 -0.002261 -0.001806 0.008640 -0.003191 -0.003142 -0.001326
# 4 0.001624 -0.007667 -0.003191 0.039210 -0.001572 0.006754
# 5 -0.000377 -0.001841 -0.003142 -0.001572 0.030264 -0.004968
# 6 0.003307 0.002474 -0.001326 0.006754 -0.004968 0.038273
#
#
# Mechanical properties :
#
#
# Convention : Reuss Voigt Hill
#
# Bulk Modulus (GPa) = 50.26150 73.34588 61.80369
# Shear Modulus (GPa) = 30.91599 37.27167 34.09383
#
# Velocity S-wave (km/s) = 3.45969 3.79870 3.63315
# Velocity P-wave (km/s) = 5.95134 6.90194 6.44419
#
# Compressibility (1/GPa) = 0.01989594
#
# Stress axis : x y z
#
# Youngs Moduli (GPa) = 132.26053 57.39830 115.74561
#
# Poissons Ratio (x) = 0.16048 0.26175
# Poissons Ratio (y) = 0.36978 0.20904
# Poissons Ratio (z) = 0.29909 0.10366
#
# Static dielectric constant tensor:
#      x y z
#    x 5.231120 0.011670 0.114290 
#    y 0.011670 4.591660 0.232700 
#    z 0.114290 0.232700 4.508050 
# 
# 
# High freq. dielectric constant tensor:
#      x y z
#    x 2.062160 0.003400 0.006480 
#    y 0.003400 2.031830 0.020910 
#    z 0.006480 0.020910 2.026830 
# 
# From -- ./inp_files/105839.got.cif
#   From: 2010.06.25/outbox.cif.g09.slc.cpg/sg2_53_cif.got.tgz:105839.got - 2010.06.27 13:26:56.
