data_PCOD8020648
_publ_section_title
;
Structure prediction by ZEFSAII (Michael W. Deem and Ramdas Pophale) SiO2 
 PCOD8020648
Probable space group: P -1
;
_chemical_formula_sum "Si O2"
_cell_formula_units_Z 14
_cell_length_a 16.562301
_cell_length_b 8.971765
_cell_length_c 17.006800
_cell_angle_alpha 143.083200
_cell_angle_beta 153.429753
_cell_angle_gamma 35.320959
_cell_volume 629.298726
_symmetry_space_group_name_H-M "P -1"
_symmetry_group_IT_number 2
_symmetry_cell_setting 'triclinic'
loop_
_space_group_symop_operation_xyz
x,y,z
-x,-y,-z
loop_
_atom_site_type_symbol
_atom_site_label
_atom_site_fract_x
_atom_site_fract_y
_atom_site_fract_z
Si Si1 0.806566 0.322346 0.414227
Si Si2 0.093608 0.254390 0.770888
Si Si3 0.824591 0.778156 0.808630
Si Si4 0.827932 0.727272 0.490779
Si Si5 0.508744 0.782701 0.652918
Si Si6 0.414979 0.388234 0.183315
Si Si7 0.146793 0.982834 0.217932
O O1 0.721828 0.567455 0.382855
O O2 0.638201 0.316498 0.323838
O O3 0.996775 0.322760 0.628220
O O4 0.875450 0.047882 0.307366
O O5 0.947850 0.460017 0.793564
O O6 0.297869 0.301820 0.976061
O O7 0.637751 0.863666 0.736302
O O8 0.781559 0.832923 0.700796
O O9 0.944130 0.963304 0.009590
O O10 0.000000 0.500000 0.500000
O O11 0.690032 0.954130 0.407999
O O12 0.904832 0.888729 0.687425
O O13 0.500000 0.500000 0.500000
O O14 0.591153 0.764023 0.804943
O O15 0.323737 0.700115 0.255131
#
# Coordination Sequence:
#
# PCOD8020648 Si02
#       7
#     2   2   2   2   2   2   2
#     4  11  24  44  70  96 143 187 226 280 350 419
#     4  10  23  40  72 101 133 187 227 285 335 417
#     4  10  22  42  71 100 134 177 240 279 342 403
#     4  12  28  45  66 101 141 181 226 286 354 405
#     4  12  26  42  68 106 138 178 229 290 343 411
#     4  11  24  43  70 102 138 180 240 277 347 411
#     4  10  22  44  69  98 134 186 229 286 334 419
#
# _framework density 22.246987000000001
#
# number of rings (size 3 to 8) (size 9 to 14) (size 15 to 20)
#    0.000    1.143    2.857    2.143    6.000    4.571 
#    0.000    1.429    0.000    0.000    0.000    0.000 
#    0.000    0.000    0.000    0.000    0.000    0.000 
#
# Total GULP energy -173509.116990 kJ/mol
# GULP energy per Si atom -12393.508356 kJ/mol
# Density = 2.219635 g / cm^3
# Si number density = 22.246987 Si / 1000 Ang^3
#
#
#
# Elastic Constant Matrix: (Units=GPa)
#
#
# Indices 1 2 3 4 5 6 
#
# 1 106.1030 35.5209 50.2803 -5.7735 2.2539 -2.0191
# 2 35.5209 152.6069 49.2650 2.7801 -3.5541 1.0174
# 3 50.2803 49.2650 107.5051 0.4352 -6.4312 -3.5917
# 4 -5.7735 2.7801 0.4352 35.0979 -2.3436 -2.6680
# 5 2.2539 -3.5541 -6.4312 -2.3436 24.9494 0.7714
# 6 -2.0191 1.0174 -3.5917 -2.6680 0.7714 36.4398
#
#
#
# Elastic Compliance Matrix: (Units=1/GPa)
#
#
# Indices 1 2 3 4 5 6 
#
# 1 0.012617 -0.001273 -0.005465 0.002105 -0.002545 0.000404
# 2 -0.001273 0.007844 -0.002994 -0.000816 0.000404 -0.000653
# 3 -0.005465 -0.002994 0.013472 -0.000522 0.003460 0.000997
# 4 0.002105 -0.000816 -0.000522 0.029224 0.002237 0.002180
# 5 -0.002545 0.000404 0.003460 0.002237 0.041487 -0.000526
# 6 0.000404 -0.000653 0.000997 0.002180 -0.000526 0.027752
#
#
# Mechanical properties :
#
#
# Convention : Reuss Voigt Hill
#
# Bulk Modulus (GPa) = 69.10677 70.70527 69.90602
# Shear Modulus (GPa) = 31.91164 34.70733 33.30948
#
# Velocity S-wave (km/s) = 3.79149 3.95408 3.87364
# Velocity P-wave (km/s) = 7.09211 7.25929 7.17619
#
# Compressibility (1/GPa) = 0.01447036
#
# Stress axis : x y z
#
# Youngs Moduli (GPa) = 79.25868 127.48436 74.22746
#
# Poissons Ratio (x) = 0.16227 0.40565
# Poissons Ratio (y) = 0.10088 0.22221
# Poissons Ratio (z) = 0.43314 0.38164
#
# Static dielectric constant tensor:
#      x y z
#    x 3.826450 0.069260 -0.076360 
#    y 0.069260 4.355050 0.121610 
#    z -0.076360 0.121610 3.978240 
# 
# 
# High freq. dielectric constant tensor:
#      x y z
#    x 1.855820 0.000060 -0.006510 
#    y 0.000060 1.899130 0.009220 
#    z -0.006510 0.009220 1.869370 
# 
# From -- ./inp_files/530278.got.cif
#   From: 2010.06.25/outbox.cif.g09.slc.cpg/sg2_266_cif.got.tgz:530278.got - 2010.06.27 13:26:56.
