data_PCOD8020236
_publ_section_title
;
Structure prediction by ZEFSAII (Michael W. Deem and Ramdas Pophale) SiO2 
 PCOD8020236
Probable space group: P -1
;
_chemical_formula_sum "Si O2"
_cell_formula_units_Z 16
_cell_length_a 5.520181
_cell_length_b 20.674769
_cell_length_c 7.199439
_cell_angle_alpha 123.767846
_cell_angle_beta 58.997767
_cell_angle_gamma 101.613538
_cell_volume 581.290272
_symmetry_space_group_name_H-M "P -1"
_symmetry_group_IT_number 2
_symmetry_cell_setting 'triclinic'
loop_
_space_group_symop_operation_xyz
x,y,z
-x,-y,-z
loop_
_atom_site_type_symbol
_atom_site_label
_atom_site_fract_x
_atom_site_fract_y
_atom_site_fract_z
Si Si1 0.025923 0.318762 0.162082
Si Si2 0.514130 0.091240 0.660150
Si Si3 0.982336 0.156326 0.786930
Si Si4 0.912598 0.092332 0.171527
Si Si5 0.541921 0.439935 0.623793
Si Si6 0.622152 0.841414 0.708213
Si Si7 0.861137 0.678992 0.465140
Si Si8 0.561476 0.391073 0.963941
O O1 0.041632 0.292221 0.328116
O O2 0.824626 0.400555 0.345015
O O3 0.902659 0.249918 0.985223
O O4 0.334691 0.330461 0.981901
O O5 0.177169 0.125793 0.840646
O O6 0.699398 0.122873 0.471433
O O7 0.683151 0.118112 0.819827
O O8 0.500000 0.000000 0.500000
O O9 0.196607 0.131396 0.492578
O O10 0.715974 0.123703 0.118985
O O11 0.217428 0.126682 0.124207
O O12 0.000000 0.000000 0.000000
O O13 0.280056 0.400718 0.578843
O O14 0.565235 0.422025 0.803461
O O15 0.497605 0.533503 0.754488
O O16 0.644112 0.746716 0.562044
O O17 0.134031 0.658131 0.189472
#
# Coordination Sequence:
#
# PCOD8020236 Si02
#       8
#     2   2   2   2   2   2   2   2
#     4  11  25  40  68 104 140 186 246 297 359 429
#     4  10  22  42  66  98 132 178 226 282 353 427
#     4  10  23  41  68  95 137 184 227 285 360 417
#     4  10  22  42  67  98 130 180 226 282 353 424
#     4  10  23  44  66 102 138 188 247 295 363 432
#     4  10  23  41  69  94 138 182 229 286 356 423
#     4  11  25  40  68 103 138 187 246 296 361 429
#     4  10  23  44  70  94 145 192 234 305 363 425
#
# _framework density 27.524975999999999
#
# number of rings (size 3 to 8) (size 9 to 14) (size 15 to 20)
#    0.000    1.750    0.000    2.250   10.500    2.500 
#    0.000    0.000    0.000    0.000    0.000    0.000 
#    0.000    0.000    0.000    0.000    0.000    0.000 
#
# Total GULP energy -198441.062592 kJ/mol
# GULP energy per Si atom -12402.566412 kJ/mol
# Density = 2.746233 g / cm^3
# Si number density = 27.524976 Si / 1000 Ang^3
#
#
#
# Elastic Constant Matrix: (Units=GPa)
#
#
# Indices 1 2 3 4 5 6 
#
# 1 227.3774 68.5860 90.0405 8.5927 -27.2916 27.3767
# 2 68.5860 85.7962 50.3633 33.1878 -11.0278 11.1077
# 3 90.0405 50.3633 100.2789 24.1181 -22.7303 8.7690
# 4 8.5927 33.1878 24.1181 46.7503 11.1573 -2.0235
# 5 -27.2916 -11.0278 -22.7303 11.1573 63.8379 2.3518
# 6 27.3767 11.1077 8.7690 -2.0235 2.3518 52.1409
#
#
#
# Elastic Compliance Matrix: (Units=1/GPa)
#
#
# Indices 1 2 3 4 5 6 
#
# 1 0.008281 -0.004681 -0.006141 0.004934 -0.000239 -0.002116
# 2 -0.004681 0.024165 -0.002951 -0.015857 0.004004 -0.002990
# 3 -0.006141 -0.002951 0.020323 -0.008607 0.005611 -0.000152
# 4 0.004934 -0.015857 -0.008607 0.038905 -0.010650 0.004225
# 5 -0.000239 0.004004 0.005611 -0.010650 0.020224 -0.002997
# 6 -0.002116 -0.002990 -0.000152 0.004225 -0.002997 0.021251
#
#
# Mechanical properties :
#
#
# Convention : Reuss Voigt Hill
#
# Bulk Modulus (GPa) = 39.64303 92.38134 66.01219
# Shear Modulus (GPa) = 29.56779 46.17667 37.87223
#
# Velocity S-wave (km/s) = 3.28108 4.10033 3.71337
# Velocity P-wave (km/s) = 5.36543 7.48682 6.51308
#
# Compressibility (1/GPa) = 0.02522511
#
# Stress axis : x y z
#
# Youngs Moduli (GPa) = 120.75549 41.38171 49.20490
#
# Poissons Ratio (x) = 0.19370 0.30216
# Poissons Ratio (y) = 0.56524 0.14519
# Poissons Ratio (z) = 0.74153 0.12210
#
# Static dielectric constant tensor:
#      x y z
#    x 5.362150 -0.021660 -0.049000 
#    y -0.021660 4.649340 -0.173250 
#    z -0.049000 -0.173250 5.281860 
# 
# 
# High freq. dielectric constant tensor:
#      x y z
#    x 2.130550 0.001240 0.000500 
#    y 0.001240 2.103370 -0.026070 
#    z 0.000500 -0.026070 2.139820 
# 
# From -- ./inp_files/142644.got.cif
#   From: 2010.06.25/outbox.cif.g09.slc.cpg/sg2_72_cif.got.tgz:142644.got - 2010.06.27 13:26:56.
