data_PCOD8020615
_publ_section_title
;
Structure prediction by ZEFSAII (Michael W. Deem and Ramdas Pophale) SiO2 
 PCOD8020615
Probable space group: P -1
;
_chemical_formula_sum "Si O2"
_cell_formula_units_Z 16
_cell_length_a 20.183851
_cell_length_b 12.117587
_cell_length_c 17.077552
_cell_angle_alpha 44.536599
_cell_angle_beta 160.344297
_cell_angle_gamma 145.875143
_cell_volume 737.169057
_symmetry_space_group_name_H-M "P -1"
_symmetry_group_IT_number 2
_symmetry_cell_setting 'triclinic'
loop_
_space_group_symop_operation_xyz
x,y,z
-x,-y,-z
loop_
_atom_site_type_symbol
_atom_site_label
_atom_site_fract_x
_atom_site_fract_y
_atom_site_fract_z
Si Si1 0.318562 0.483896 0.529469
Si Si2 0.373854 0.653743 0.107356
Si Si3 0.786575 0.634097 0.785976
Si Si4 0.102846 0.848772 0.885370
Si Si5 0.761744 0.899559 0.728326
Si Si6 0.293481 0.845676 0.567594
Si Si7 0.119671 0.923087 0.483535
Si Si8 0.086157 0.444456 0.450717
O O1 0.475667 0.404236 0.741649
O O2 0.483132 0.702497 0.555476
O O3 0.289823 0.523352 0.566893
O O4 0.029705 0.304352 0.260372
O O5 0.202594 0.491490 0.070616
O O6 0.578857 0.888526 0.250511
O O7 0.187183 0.633671 0.846334
O O8 0.500000 0.500000 0.500000
O O9 0.845779 0.839541 0.778547
O O10 0.995358 0.701091 0.917544
O O11 0.027701 0.991249 0.736269
O O12 0.412947 0.994262 0.152313
O O13 0.735255 0.065131 0.587854
O O14 0.000000 0.000000 0.000000
O O15 0.109452 0.814377 0.447794
O O16 0.211331 0.627345 0.561705
O O17 0.966647 0.749267 0.468789
#
# Coordination Sequence:
#
# PCOD8020615 Si02
#       8
#     2   2   2   2   2   2   2   2
#     4  10  24  42  63 100 128 167 212 267 325 374
#     4  10  22  42  70  94 126 170 213 270 322 373
#     4  11  18  41  68  97 128 165 211 267 326 374
#     4  11  24  41  70  98 125 168 218 268 317 382
#     4  11  23  41  67  93 138 167 203 269 328 382
#     4  12  26  41  66  99 126 176 216 258 320 384
#     4  11  24  47  67  90 129 175 219 264 313 373
#     4  12  27  42  63  96 135 171 216 261 315 390
#
# _framework density 21.704654999999999
#
# number of rings (size 3 to 8) (size 9 to 14) (size 15 to 20)
#    0.000    1.000    5.000    3.000    3.500    5.500 
#    0.000    0.000    0.000    0.000    0.000    0.000 
#    0.000    0.000    0.000    0.000    0.000    0.000 
#
# Total GULP energy -198456.290415 kJ/mol
# GULP energy per Si atom -12403.518151 kJ/mol
# Density = 2.165525 g / cm^3
# Si number density = 21.704655 Si / 1000 Ang^3
#
#
#
# Elastic Constant Matrix: (Units=GPa)
#
#
# Indices 1 2 3 4 5 6 
#
# 1 92.6191 23.4828 7.5261 -5.9523 0.0705 -3.7571
# 2 23.4828 90.9356 10.7764 0.8253 -2.5368 4.9313
# 3 7.5261 10.7764 89.8338 0.1598 -15.5523 5.7934
# 4 -5.9523 0.8253 0.1598 16.2214 -2.6973 -5.6122
# 5 0.0705 -2.5368 -15.5523 -2.6973 22.3937 3.7458
# 6 -3.7571 4.9313 5.7934 -5.6122 3.7458 36.0042
#
#
#
# Elastic Compliance Matrix: (Units=1/GPa)
#
#
# Indices 1 2 3 4 5 6 
#
# 1 0.012167 -0.003254 -0.000976 0.005465 -0.000898 0.002818
# 2 -0.003254 0.012114 -0.000876 -0.002464 0.000868 -0.002332
# 3 -0.000976 -0.000876 0.013176 0.000082 0.009581 -0.003086
# 4 0.005465 -0.002464 0.000082 0.068592 0.006192 0.010942
# 5 -0.000898 0.000868 0.009581 0.006192 0.053214 -0.006325
# 6 0.002818 -0.002332 -0.003086 0.010942 -0.006325 0.031248
#
#
# Mechanical properties :
#
#
# Convention : Reuss Voigt Hill
#
# Bulk Modulus (GPa) = 36.70172 39.66210 38.18191
# Shear Modulus (GPa) = 23.83167 30.36407 27.09787
#
# Velocity S-wave (km/s) = 3.31720 3.74433 3.53722
# Velocity P-wave (km/s) = 5.62300 6.08330 5.85767
#
# Compressibility (1/GPa) = 0.02724668
#
# Stress axis : x y z
#
# Youngs Moduli (GPa) = 82.18664 82.55006 75.89584
#
# Poissons Ratio (x) = 0.26861 0.07406
# Poissons Ratio (y) = 0.26742 0.06645
# Poissons Ratio (z) = 0.08020 0.07228
#
# Static dielectric constant tensor:
#      x y z
#    x 8.564550 2.855070 0.298160 
#    y 2.855070 5.796220 0.254600 
#    z 0.298160 0.254600 3.774590 
# 
# 
# High freq. dielectric constant tensor:
#      x y z
#    x 1.857680 -0.006720 -0.004510 
#    y -0.006720 1.857240 -0.000300 
#    z -0.004510 -0.000300 1.846660 
# 
# From -- ./inp_files/258018.got.cif
#   From: 2010.06.25/outbox.cif.g09.slc.cpg/sg2_130_cif.got.tgz:258018.got - 2010.06.27 13:26:56.
