data_PCOD8020765
_publ_section_title
;
Structure prediction by ZEFSAII (Michael W. Deem and Ramdas Pophale) SiO2 
 PCOD8020765
Probable space group: P -1
;
_chemical_formula_sum "Si O2"
_cell_formula_units_Z 14
_cell_length_a 10.780600
_cell_length_b 9.916362
_cell_length_c 9.223534
_cell_angle_alpha 44.804188
_cell_angle_beta 124.500395
_cell_angle_gamma 116.002698
_cell_volume 571.503604
_symmetry_space_group_name_H-M "P -1"
_symmetry_group_IT_number 2
_symmetry_cell_setting 'triclinic'
loop_
_space_group_symop_operation_xyz
x,y,z
-x,-y,-z
loop_
_atom_site_type_symbol
_atom_site_label
_atom_site_fract_x
_atom_site_fract_y
_atom_site_fract_z
Si Si1 0.652822 0.401907 0.194766
Si Si2 0.553529 0.301546 0.507788
Si Si3 0.088559 0.486164 0.901024
Si Si4 0.282201 0.995480 0.543033
Si Si5 0.130726 0.193076 0.543414
Si Si6 0.303269 0.522088 0.283790
Si Si7 0.984263 0.935494 0.875117
O O1 0.666313 0.333300 0.422360
O O2 0.786434 0.548206 0.114646
O O3 0.667491 0.218937 0.238871
O O4 0.500000 0.500000 0.000000
O O5 0.441797 0.115758 0.556196
O O6 0.448480 0.483349 0.312103
O O7 0.656709 0.290629 0.731470
O O8 0.014840 0.682827 0.665336
O O9 0.154335 0.513591 0.089077
O O10 0.983119 0.288512 0.965831
O O11 0.158939 0.044040 0.546033
O O12 0.189265 0.028908 0.309182
O O13 0.275296 0.347307 0.516740
O O14 0.109231 0.070864 0.768472
O O15 0.000000 0.000000 0.000000
#
# Coordination Sequence:
#
# PCOD8020765 Si02
#       7
#     2   2   2   2   2   2   2
#     4  12  24  44  73 102 150 197 243 298 369 430
#     4  10  22  44  71 103 146 190 241 300 356 433
#     4  12  25  45  76 107 149 195 241 299 375 435
#     4  11  24  49  74 105 149 192 245 308 359 437
#     4  11  25  48  75 105 153 188 245 303 368 433
#     4  10  22  42  76 107 139 192 245 294 363 434
#     4  12  27  45  71 115 151 188 243 301 372 438
#
# _framework density 24.496784999999999
#
# number of rings (size 3 to 8) (size 9 to 14) (size 15 to 20)
#    0.000    0.857    5.714    1.286    2.000    1.714 
#    0.000    0.714    3.143    0.000    0.000    0.000 
#    0.000    0.000    0.000    0.000    0.000    0.000 
#
# Total GULP energy -173476.356964 kJ/mol
# GULP energy per Si atom -12391.168355 kJ/mol
# Density = 2.444103 g / cm^3
# Si number density = 24.496785 Si / 1000 Ang^3
#
#
#
# Elastic Constant Matrix: (Units=GPa)
#
#
# Indices 1 2 3 4 5 6 
#
# 1 113.0867 42.4808 43.6394 0.4403 -21.0837 -11.4528
# 2 42.4808 136.8591 55.2065 12.6784 -2.0621 -6.9987
# 3 43.6394 55.2065 88.9724 -4.9975 -16.7352 -9.5599
# 4 0.4403 12.6784 -4.9975 41.4912 -3.7554 6.2214
# 5 -21.0837 -2.0621 -16.7352 -3.7554 52.9797 -3.6660
# 6 -11.4528 -6.9987 -9.5599 6.2214 -3.6660 38.7038
#
#
#
# Elastic Compliance Matrix: (Units=1/GPa)
#
#
# Indices 1 2 3 4 5 6 
#
# 1 0.011973 -0.002075 -0.003600 0.000017 0.003730 0.002629
# 2 -0.002075 0.010959 -0.006526 -0.004392 -0.002758 0.000200
# 3 -0.003600 -0.006526 0.018376 0.004355 0.004567 0.002026
# 4 0.000017 -0.004392 0.004355 0.026788 0.002851 -0.003750
# 5 0.003730 -0.002758 0.004567 0.002851 0.022130 0.003371
# 6 0.002629 0.000200 0.002026 -0.003750 0.003371 0.028074
#
#
# Mechanical properties :
#
#
# Convention : Reuss Voigt Hill
#
# Bulk Modulus (GPa) = 59.15238 69.06352 64.10795
# Shear Modulus (GPa) = 33.70679 39.80770 36.75725
#
# Velocity S-wave (km/s) = 3.71343 4.03552 3.87782
# Velocity P-wave (km/s) = 6.52576 7.06881 6.80270
#
# Compressibility (1/GPa) = 0.01690549
#
# Stress axis : x y z
#
# Youngs Moduli (GPa) = 83.52040 91.24878 54.41920
#
# Poissons Ratio (x) = 0.18936 0.19591
# Poissons Ratio (y) = 0.17332 0.35515
# Poissons Ratio (z) = 0.30067 0.59550
#
# Static dielectric constant tensor:
#      x y z
#    x 4.734310 -0.070990 -0.276890 
#    y -0.070990 4.476030 -0.107530 
#    z -0.276890 -0.107530 4.285820 
# 
# 
# High freq. dielectric constant tensor:
#      x y z
#    x 2.000920 -0.004860 -0.014020 
#    y -0.004860 1.971440 -0.012150 
#    z -0.014020 -0.012150 1.948800 
# 
# From -- ./inp_files/236899.got.cif
#   From: 2010.06.25/outbox.cif.g09.slc.cpg/sg2_119_cif.got.tgz:236899.got - 2010.06.27 13:26:56.
