data_PCOD8020783
_publ_section_title
;
Structure prediction by ZEFSAII (Michael W. Deem and Ramdas Pophale) SiO2 
 PCOD8020783
Probable space group: P -1
;
_chemical_formula_sum "Si O2"
_cell_formula_units_Z 16
_cell_length_a 30.677662
_cell_length_b 18.023036
_cell_length_c 23.739985
_cell_angle_alpha 20.685947
_cell_angle_beta 168.426432
_cell_angle_gamma 162.321431
_cell_volume 799.216409
_symmetry_space_group_name_H-M "P -1"
_symmetry_group_IT_number 2
_symmetry_cell_setting 'triclinic'
loop_
_space_group_symop_operation_xyz
x,y,z
-x,-y,-z
loop_
_atom_site_type_symbol
_atom_site_label
_atom_site_fract_x
_atom_site_fract_y
_atom_site_fract_z
Si Si1 0.835196 0.569967 0.045825
Si Si2 0.377418 0.458111 0.934314
Si Si3 0.455702 0.189246 0.470980
Si Si4 0.794613 0.213492 0.344674
Si Si5 0.922909 0.662748 0.750330
Si Si6 0.457282 0.057423 0.137594
Si Si7 0.592972 0.141715 0.459919
Si Si8 0.405616 0.161412 0.734066
O O1 0.766736 0.391144 0.139634
O O2 0.110670 0.659109 0.306913
O O3 0.797278 0.791881 0.860959
O O4 0.646623 0.436310 0.848734
O O5 0.526720 0.711164 0.976603
O O6 0.081192 0.349272 0.631369
O O7 0.500000 0.500000 0.000000
O O8 0.422646 0.262654 0.160837
O O9 0.691709 0.463119 0.561526
O O10 0.465823 0.081139 0.621168
O O11 0.457238 0.022386 0.541970
O O12 0.636867 0.163874 0.236279
O O13 0.687613 0.947788 0.368865
O O14 0.833931 0.829496 0.551489
O O15 0.000000 0.500000 0.000000
O O16 0.174723 0.866187 0.892320
O O17 0.500000 0.000000 0.500000
O O18 0.500000 0.000000 0.000000
#
# Coordination Sequence:
#
# PCOD8020783 Si02
#       8
#     2   2   2   2   2   2   2   2
#     4  10  22  43  62  90 129 166 202 255 320 373
#     4  12  23  42  64  92 125 166 212 260 312 370
#     4  10  22  43  62  90 129 166 202 255 320 373
#     4  11  23  39  66  95 124 164 211 261 310 373
#     4   9  20  39  64  90 126 166 205 256 314 370
#     4  11  23  39  66  95 124 164 211 261 310 373
#     4  12  27  40  64  92 125 168 208 259 314 378
#     4   9  20  39  64  90 126 166 205 256 314 370
#
# _framework density 20.019608999999999
#
# number of rings (size 3 to 8) (size 9 to 14) (size 15 to 20)
#    0.000    1.500    2.500    1.500    7.000    1.000 
#    0.000   11.250    0.000    0.000    0.000    0.000 
#    0.000    0.000    0.000    0.000    0.000    0.000 
#
# Total GULP energy -198226.328982 kJ/mol
# GULP energy per Si atom -12389.145561 kJ/mol
# Density = 1.997404 g / cm^3
# Si number density = 20.019609 Si / 1000 Ang^3
#
#
#
# Elastic Constant Matrix: (Units=GPa)
#
#
# Indices 1 2 3 4 5 6 
#
# 1 77.8216 45.2923 19.2144 7.9110 11.1891 29.5053
# 2 45.2923 106.1333 29.3946 2.3368 7.7366 -2.8036
# 3 19.2144 29.3946 90.9415 -18.8634 7.8196 4.7859
# 4 7.9110 2.3368 -18.8634 41.0589 2.7218 -0.5746
# 5 11.1891 7.7366 7.8196 2.7218 28.1738 0.6866
# 6 29.5053 -2.8036 4.7859 -0.5746 0.6866 28.5304
#
#
#
# Elastic Compliance Matrix: (Units=1/GPa)
#
#
# Indices 1 2 3 4 5 6 
#
# 1 0.044662 -0.018942 -0.001652 -0.008283 -0.010115 -0.047695
# 2 -0.018942 0.018746 -0.003173 0.001259 0.002600 0.021927
# 3 -0.001652 -0.003173 0.014170 0.007203 -0.003083 -0.000761
# 4 -0.008283 0.001259 0.007203 0.029441 -0.002098 0.008125
# 5 -0.010115 0.002600 -0.003083 -0.002098 0.039606 0.010238
# 6 -0.047695 0.021927 -0.000761 0.008125 0.010238 0.086575
#
#
# Mechanical properties :
#
#
# Convention : Reuss Voigt Hill
#
# Bulk Modulus (GPa) = 33.28560 51.41100 42.34830
# Shear Modulus (GPa) = 17.19691 31.61897 24.40794
#
# Velocity S-wave (km/s) = 2.93406 3.97848 3.49549
# Velocity P-wave (km/s) = 5.30479 6.84401 6.12296
#
# Compressibility (1/GPa) = 0.03004302
#
# Stress axis : x y z
#
# Youngs Moduli (GPa) = 22.39057 53.34344 70.57175
#
# Poissons Ratio (x) = 1.01043 0.11659
# Poissons Ratio (y) = 0.42412 0.22395
# Poissons Ratio (z) = 0.03699 0.16928
#
# Static dielectric constant tensor:
#      x y z
#    x 3.422320 -0.216920 -0.160670 
#    y -0.216920 4.184280 0.114370 
#    z -0.160670 0.114370 3.555550 
# 
# 
# High freq. dielectric constant tensor:
#      x y z
#    x 1.754560 -0.015070 0.003100 
#    y -0.015070 1.800890 0.000360 
#    z 0.003100 0.000360 1.802120 
# 
# From -- ./inp_files/273359.got.cif
#   From: 2010.06.25/outbox.cif.g09.slc.cpg/sg2_137_cif.got.tgz:273359.got - 2010.06.27 13:26:56.
