data_PCOD8020850
_publ_section_title
;
Structure prediction by ZEFSAII (Michael W. Deem and Ramdas Pophale) SiO2 
 PCOD8020850
Probable space group: P -1
;
_chemical_formula_sum "Si O2"
_cell_formula_units_Z 16
_cell_length_a 8.699410
_cell_length_b 20.983473
_cell_length_c 8.654701
_cell_angle_alpha 113.087725
_cell_angle_beta 62.163073
_cell_angle_gamma 145.805400
_cell_volume 785.089186
_symmetry_space_group_name_H-M "P -1"
_symmetry_group_IT_number 2
_symmetry_cell_setting 'triclinic'
loop_
_space_group_symop_operation_xyz
x,y,z
-x,-y,-z
loop_
_atom_site_type_symbol
_atom_site_label
_atom_site_fract_x
_atom_site_fract_y
_atom_site_fract_z
Si Si1 0.309825 0.376028 0.021609
Si Si2 0.323812 0.621884 0.976302
Si Si3 0.855739 0.786630 0.293190
Si Si4 0.392999 0.234285 0.318371
Si Si5 0.143126 0.992123 0.811533
Si Si6 0.485226 0.007771 0.329390
Si Si7 0.502109 0.217480 0.709663
Si Si8 0.742262 0.233979 0.323973
O O1 0.507646 0.386036 0.029578
O O2 0.061814 0.323517 0.201905
O O3 0.500000 0.500000 0.000000
O O4 0.182799 0.299229 0.855258
O O5 0.446327 0.671559 0.796482
O O6 0.346229 0.699836 0.136763
O O7 0.000000 0.500000 0.000000
O O8 0.646473 0.725724 0.481376
O O9 0.766361 0.820847 0.253975
O O10 0.178754 0.896410 0.297012
O O11 0.568933 0.220505 0.261573
O O12 0.081287 0.112672 0.297724
O O13 0.294433 0.979790 0.830105
O O14 0.380900 0.104302 0.702943
O O15 0.000000 0.000000 0.000000
O O16 0.500000 0.000000 0.500000
O O17 0.587077 0.113545 0.320873
O O18 0.737592 0.279960 0.524741
#
# Coordination Sequence:
#
# PCOD8020850 Si02
#       8
#     2   2   2   2   2   2   2   2
#     4  11  26  46  65  94 129 169 223 273 318 375
#     4  11  24  43  67  92 123 168 219 270 320 380
#     4  10  24  42  66  92 134 170 212 261 323 382
#     4  11  22  42  66  94 128 173 212 258 323 387
#     4  12  23  36  63  94 133 164 211 254 318 385
#     4  12  23  39  64 101 133 165 212 264 319 389
#     4  10  22  43  64  93 129 173 208 258 323 388
#     4  11  24  42  66  95 133 168 212 267 321 381
#
# _framework density 20.379850999999999
#
# number of rings (size 3 to 8) (size 9 to 14) (size 15 to 20)
#    0.000    1.000    3.750    2.250    3.500    4.500 
#    0.000    5.000    0.000    0.000    0.000    0.000 
#    0.000    0.000    0.000    0.000    0.000    0.000 
#
# Total GULP energy -198417.705375 kJ/mol
# GULP energy per Si atom -12401.106586 kJ/mol
# Density = 2.033347 g / cm^3
# Si number density = 20.379851 Si / 1000 Ang^3
#
#
#
# Elastic Constant Matrix: (Units=GPa)
#
#
# Indices 1 2 3 4 5 6 
#
# 1 98.5608 46.3239 29.4827 -3.9122 -3.6491 2.7007
# 2 46.3239 135.1023 37.6014 -13.0071 6.2150 2.7210
# 3 29.4827 37.6014 103.6663 -17.7323 -8.0483 4.8065
# 4 -3.9122 -13.0071 -17.7323 19.9929 0.7198 1.5883
# 5 -3.6491 6.2150 -8.0483 0.7198 35.1300 -4.5366
# 6 2.7007 2.7210 4.8065 1.5883 -4.5366 41.8616
#
#
#
# Elastic Compliance Matrix: (Units=1/GPa)
#
#
# Indices 1 2 3 4 5 6 
#
# 1 0.012709 -0.003967 -0.002455 -0.002323 0.001503 -0.000029
# 2 -0.003967 0.009828 -0.001928 0.004055 -0.002755 -0.000614
# 3 -0.002455 -0.001928 0.012987 0.009789 0.002695 -0.001287
# 4 -0.002323 0.004055 0.009789 0.061186 -0.000435 -0.003606
# 5 0.001503 -0.002755 0.002695 -0.000435 0.030130 0.003054
# 6 -0.000029 -0.000614 -0.001287 -0.003606 0.003054 0.024546
#
#
# Mechanical properties :
#
#
# Convention : Reuss Voigt Hill
#
# Bulk Modulus (GPa) = 53.12261 62.68283 57.90272
# Shear Modulus (GPa) = 28.67620 34.32500 31.50060
#
# Velocity S-wave (km/s) = 3.75518 4.10843 3.93577
# Velocity P-wave (km/s) = 6.70259 7.30271 7.00908
#
# Compressibility (1/GPa) = 0.01882438
#
# Stress axis : x y z
#
# Youngs Moduli (GPa) = 78.68478 101.74877 76.99816
#
# Poissons Ratio (x) = 0.40360 0.18903
# Poissons Ratio (y) = 0.31211 0.14849
# Poissons Ratio (z) = 0.19317 0.19622
#
# Static dielectric constant tensor:
#      x y z
#    x 4.264050 -0.840670 -0.245370 
#    y -0.840670 6.730210 0.533610 
#    z -0.245370 0.533610 4.142520 
# 
# 
# High freq. dielectric constant tensor:
#      x y z
#    x 1.813100 -0.000640 -0.007360 
#    y -0.000640 1.785210 -0.005460 
#    z -0.007360 -0.005460 1.812440 
# 
# From -- ./inp_files/180714.got.cif
#   From: 2010.06.25/outbox.cif.g09.slc.cpg/sg2_91_cif.got.tgz:180714.got - 2010.06.27 13:26:56.
