data_PCOD8020636
_publ_section_title
;
Structure prediction by ZEFSAII (Michael W. Deem and Ramdas Pophale) SiO2 
 PCOD8020636
Probable space group: P -1
;
_chemical_formula_sum "Si O2"
_cell_formula_units_Z 16
_cell_length_a 25.419840
_cell_length_b 11.165514
_cell_length_c 11.611736
_cell_angle_alpha 53.121525
_cell_angle_beta 148.927420
_cell_angle_gamma 149.545687
_cell_volume 731.969619
_symmetry_space_group_name_H-M "P -1"
_symmetry_group_IT_number 2
_symmetry_cell_setting 'triclinic'
loop_
_space_group_symop_operation_xyz
x,y,z
-x,-y,-z
loop_
_atom_site_type_symbol
_atom_site_label
_atom_site_fract_x
_atom_site_fract_y
_atom_site_fract_z
Si Si1 0.337532 0.324649 0.598761
Si Si2 0.273097 0.586127 0.343161
Si Si3 0.261284 0.098498 0.919349
Si Si4 0.891062 0.069413 0.029113
Si Si5 0.648727 0.105281 0.878756
Si Si6 0.619835 0.225709 0.993690
Si Si7 0.985777 0.854022 0.369380
Si Si8 0.609831 0.765002 0.488728
O O1 0.309610 0.464221 0.434018
O O2 0.540722 0.563064 0.908146
O O3 0.339968 0.222857 0.551798
O O4 0.162012 0.045712 0.503516
O O5 0.224683 0.624404 0.116966
O O6 0.442588 0.861628 0.576721
O O7 0.108233 0.385178 0.245085
O O8 0.272014 0.964137 0.938772
O O9 0.213636 0.988674 0.023822
O O10 0.086444 0.980988 0.610760
O O11 0.873616 0.868019 0.125444
O O12 0.800797 0.023220 0.770218
O O13 0.646467 0.143969 0.985978
O O14 0.508624 0.230501 0.734930
O O15 0.829647 0.529540 0.256552
O O16 0.500000 0.000000 0.000000
O O17 0.500000 0.500000 0.500000
#
# Coordination Sequence:
#
# PCOD8020636 Si02
#       8
#     2   2   2   2   2   2   2   2
#     4  10  22  42  70  99 125 173 225 281 329 379
#     4   9  22  41  68  98 131 170 221 280 324 392
#     4  11  23  42  68  96 139 170 222 272 337 397
#     4  11  24  41  71 103 123 173 228 285 323 381
#     4  10  24  44  64  92 140 177 214 266 340 400
#     4  12  29  46  66  96 142 180 216 274 337 399
#     4  11  25  43  68  96 133 174 224 277 331 394
#     4  12  23  44  71  98 134 170 225 276 329 390
#
# _framework density 21.858832
#
# number of rings (size 3 to 8) (size 9 to 14) (size 15 to 20)
#    0.000    1.250    2.500    1.500    8.750    3.000 
#    2.250    0.000    0.000    0.000    0.000    0.000 
#    0.000    0.000    0.000    0.000    0.000    0.000 
#
# Total GULP energy -198407.125450 kJ/mol
# GULP energy per Si atom -12400.445341 kJ/mol
# Density = 2.180908 g / cm^3
# Si number density = 21.858832 Si / 1000 Ang^3
#
#
#
# Elastic Constant Matrix: (Units=GPa)
#
#
# Indices 1 2 3 4 5 6 
#
# 1 137.8831 48.3363 38.6211 9.2251 -4.7724 1.9596
# 2 48.3363 103.1845 31.2805 12.6240 -0.2688 12.9424
# 3 38.6211 31.2805 119.5854 5.2818 -5.5789 -7.1325
# 4 9.2251 12.6240 5.2818 30.3149 4.4189 2.3705
# 5 -4.7724 -0.2688 -5.5789 4.4189 30.1746 1.8459
# 6 1.9596 12.9424 -7.1325 2.3705 1.8459 27.4043
#
#
#
# Elastic Compliance Matrix: (Units=1/GPa)
#
#
# Indices 1 2 3 4 5 6 
#
# 1 0.009168 -0.003662 -0.001859 -0.001165 0.001207 0.000610
# 2 -0.003662 0.013420 -0.002557 -0.003522 -0.000023 -0.006435
# 3 -0.001859 -0.002557 0.009955 -0.000609 0.001375 0.003891
# 4 -0.001165 -0.003522 -0.000609 0.035805 -0.005502 -0.001138
# 5 0.001207 -0.000023 0.001375 -0.005502 0.034487 -0.001565
# 6 0.000610 -0.006435 0.003891 -0.001138 -0.001565 0.040703
#
#
# Mechanical properties :
#
#
# Convention : Reuss Voigt Hill
#
# Bulk Modulus (GPa) = 61.02490 66.34763 63.68627
# Shear Modulus (GPa) = 30.27449 33.73976 32.00712
#
# Velocity S-wave (km/s) = 3.72560 3.93304 3.83072
# Velocity P-wave (km/s) = 6.81800 7.14449 6.98315
#
# Compressibility (1/GPa) = 0.01638675
#
# Stress axis : x y z
#
# Youngs Moduli (GPa) = 109.07529 74.51562 100.45673
#
# Poissons Ratio (x) = 0.27288 0.18674
# Poissons Ratio (y) = 0.39943 0.25687
# Poissons Ratio (z) = 0.20276 0.19054
#
# Static dielectric constant tensor:
#      x y z
#    x 4.037360 0.273720 -0.600190 
#    y 0.273720 3.981920 -0.280370 
#    z -0.600190 -0.280370 5.640400 
# 
# 
# High freq. dielectric constant tensor:
#      x y z
#    x 1.862370 0.009440 0.003040 
#    y 0.009440 1.857840 0.004880 
#    z 0.003040 0.004880 1.863950 
# 
# From -- ./inp_files/476642.got.cif
#   From: 2010.06.25/outbox.cif.g09.slc.cpg/sg2_239_cif.got.tgz:476642.got - 2010.06.27 13:26:56.
