data_PCOD8020795
_publ_section_title
;
Structure prediction by ZEFSAII (Michael W. Deem and Ramdas Pophale) SiO2 
 PCOD8020795
Probable space group: P -1
;
_chemical_formula_sum "Si O2"
_cell_formula_units_Z 16
_cell_length_a 9.480876
_cell_length_b 10.198708
_cell_length_c 12.266478
_cell_angle_alpha 62.836721
_cell_angle_beta 112.339752
_cell_angle_gamma 70.507873
_cell_volume 768.634289
_symmetry_space_group_name_H-M "P -1"
_symmetry_group_IT_number 2
_symmetry_cell_setting 'triclinic'
loop_
_space_group_symop_operation_xyz
x,y,z
-x,-y,-z
loop_
_atom_site_type_symbol
_atom_site_label
_atom_site_fract_x
_atom_site_fract_y
_atom_site_fract_z
Si Si1 0.962800 0.489365 0.367832
Si Si2 0.662943 0.124767 0.464923
Si Si3 0.298257 0.145215 0.995936
Si Si4 0.881876 0.716649 0.875870
Si Si5 0.915689 0.156383 0.218403
Si Si6 0.374924 0.852985 0.977849
Si Si7 0.323829 0.196091 0.448626
Si Si8 0.319422 0.584052 0.752230
O O1 0.838422 0.687311 0.193837
O O2 0.855049 0.396018 0.368307
O O3 0.000000 0.500000 0.500000
O O4 0.169739 0.365116 0.416109
O O5 0.518009 0.181943 0.504645
O O6 0.603785 0.311878 0.319753
O O7 0.637299 0.996145 0.426854
O O8 0.888235 0.011724 0.601955
O O9 0.318602 0.962108 0.035411
O O10 0.234257 0.187596 0.084776
O O11 0.508187 0.096037 0.076432
O O12 0.748650 0.786965 0.703386
O O13 0.034001 0.759135 0.894351
O O14 0.000000 0.500000 0.000000
O O15 0.821724 0.066241 0.174497
O O16 0.761718 0.329199 0.185670
O O17 0.494006 0.631429 0.109950
#
# Coordination Sequence:
#
# PCOD8020795 Si02
#       8
#     2   2   2   2   2   2   2   2
#     4  11  23  42  68  95 131 172 215 265 327 396
#     4  10  23  40  65  95 133 165 218 270 319 384
#     4  10  23  44  63  97 132 172 215 264 334 382
#     4  11  20  39  70  90 130 168 216 271 315 389
#     4  11  23  40  64  99 130 166 222 274 323 381
#     4  10  24  41  63  96 130 167 222 264 326 388
#     4  10  22  43  63 100 127 169 219 258 331 388
#     4  11  22  42  63 100 127 168 224 267 325 386
#
# _framework density 20.816141999999999
#
# number of rings (size 3 to 8) (size 9 to 14) (size 15 to 20)
#    0.000    1.500    3.750    1.500    5.250    0.500 
#   18.000    0.625    0.000    0.000    0.000    0.000 
#    0.000    0.000    0.000    0.000    0.000    0.000 
#
# Total GULP energy -198298.374358 kJ/mol
# GULP energy per Si atom -12393.648397 kJ/mol
# Density = 2.076876 g / cm^3
# Si number density = 20.816142 Si / 1000 Ang^3
#
#
#
# Elastic Constant Matrix: (Units=GPa)
#
#
# Indices 1 2 3 4 5 6 
#
# 1 108.6005 66.9141 26.4398 3.6389 -0.0787 -3.6923
# 2 66.9141 142.6502 42.9338 10.0400 -5.0259 -13.1667
# 3 26.4398 42.9338 47.9267 4.8104 -7.7812 0.1322
# 4 3.6389 10.0400 4.8104 38.1049 -4.3865 -4.4903
# 5 -0.0787 -5.0259 -7.7812 -4.3865 31.3964 -1.8495
# 6 -3.6923 -13.1667 0.1322 -4.4903 -1.8495 42.8600
#
#
#
# Elastic Compliance Matrix: (Units=1/GPa)
#
#
# Indices 1 2 3 4 5 6 
#
# 1 0.013230 -0.005553 -0.002594 0.000285 -0.001494 -0.000593
# 2 -0.005553 0.012385 -0.007903 -0.001356 0.000010 0.003209
# 3 -0.002594 -0.007903 0.030466 -0.001136 0.005967 -0.002607
# 4 0.000285 -0.001356 -0.001136 0.027429 0.003489 0.002636
# 5 -0.001494 0.000010 0.005967 0.003489 0.033914 0.001685
# 6 -0.000593 0.003209 -0.002607 0.002636 0.001685 0.024624
#
#
# Mechanical properties :
#
#
# Convention : Reuss Voigt Hill
#
# Bulk Modulus (GPa) = 41.69787 63.52807 52.61297
# Shear Modulus (GPa) = 27.45122 33.33156 30.39139
#
# Velocity S-wave (km/s) = 3.63539 4.00589 3.82513
# Velocity P-wave (km/s) = 6.13974 7.20979 6.69618
#
# Compressibility (1/GPa) = 0.02398204
#
# Stress axis : x y z
#
# Youngs Moduli (GPa) = 75.58555 80.74055 32.82363
#
# Poissons Ratio (x) = 0.44832 0.08514
# Poissons Ratio (y) = 0.41970 0.25941
# Poissons Ratio (z) = 0.19607 0.63809
#
# Static dielectric constant tensor:
#      x y z
#    x 4.093360 0.098440 0.060600 
#    y 0.098440 3.763060 -0.120690 
#    z 0.060600 -0.120690 3.428960 
# 
# 
# High freq. dielectric constant tensor:
#      x y z
#    x 1.829290 -0.002070 0.009420 
#    y -0.002070 1.814610 -0.016860 
#    z 0.009420 -0.016860 1.801440 
# 
# From -- ./inp_files/381759.got.cif
#   From: 2010.06.25/outbox.cif.g09.slc.cpg/sg2_191_cif.got.tgz:381759.got - 2010.06.27 13:26:56.
