data_PCOD8020227
_publ_section_title
;
Structure prediction by ZEFSAII (Michael W. Deem and Ramdas Pophale) SiO2 
 PCOD8020227
Probable space group: P -1
;
_chemical_formula_sum "Si O2"
_cell_formula_units_Z 16
_cell_length_a 22.748017
_cell_length_b 13.516370
_cell_length_c 16.961667
_cell_angle_alpha 158.306140
_cell_angle_beta 158.116774
_cell_angle_gamma 29.774609
_cell_volume 717.888941
_symmetry_space_group_name_H-M "P -1"
_symmetry_group_IT_number 2
_symmetry_cell_setting 'triclinic'
loop_
_space_group_symop_operation_xyz
x,y,z
-x,-y,-z
loop_
_atom_site_type_symbol
_atom_site_label
_atom_site_fract_x
_atom_site_fract_y
_atom_site_fract_z
Si Si1 0.306326 0.689769 0.603547
Si Si2 0.651593 0.314183 0.024815
Si Si3 0.994028 0.303561 0.686609
Si Si4 0.170101 0.765749 0.323856
Si Si5 0.555160 0.968486 0.206053
Si Si6 0.988602 0.304916 0.500091
Si Si7 0.496450 0.841523 0.546498
Si Si8 0.254610 0.573030 0.952553
O O1 0.187407 0.590534 0.449361
O O2 0.199404 0.785930 0.468321
O O3 0.421921 0.442950 0.540933
O O4 0.397350 0.946785 0.940577
O O5 0.718412 0.365287 0.059226
O O6 0.800344 0.354404 0.297028
O O7 0.500000 0.500000 0.000000
O O8 0.601831 0.007243 0.740037
O O9 0.041720 0.340144 0.682532
O O10 0.000000 0.000000 0.500000
O O11 0.108206 0.478284 0.011192
O O12 0.340290 0.786232 0.508363
O O13 0.044476 0.004383 0.318896
O O14 0.653046 0.697757 0.109035
O O15 0.517725 0.985020 0.263726
O O16 0.072089 0.530044 0.716916
O O17 0.325647 0.806859 0.267920
#
# Coordination Sequence:
#
# PCOD8020227 Si02
#       8
#     2   2   2   2   2   2   2   2
#     4  11  24  39  67  98 133 176 224 266 329 393
#     4  12  24  44  71  96 130 173 221 280 334 384
#     4  12  25  41  66  96 136 174 221 269 326 395
#     4  11  24  43  65  98 135 179 219 264 331 394
#     4  10  22  42  66  97 134 173 223 270 322 398
#     4  11  25  45  69  94 137 175 219 275 329 393
#     4  11  23  41  69  96 135 171 218 277 332 386
#     4  10  23  45  66  98 130 176 223 271 332 393
#
# _framework density 22.287569999999999
#
# number of rings (size 3 to 8) (size 9 to 14) (size 15 to 20)
#    0.000    1.000    2.500    3.750    5.250    0.500 
#    2.250    0.625    0.000    0.000    0.000    0.000 
#    0.000    0.000    0.000    0.000    0.000    0.000 
#
# Total GULP energy -198386.838051 kJ/mol
# GULP energy per Si atom -12399.177378 kJ/mol
# Density = 2.223684 g / cm^3
# Si number density = 22.287570 Si / 1000 Ang^3
#
#
#
# Elastic Constant Matrix: (Units=GPa)
#
#
# Indices 1 2 3 4 5 6 
#
# 1 128.6849 26.1303 60.4307 0.3651 9.8804 7.4694
# 2 26.1303 64.6031 47.3238 -10.7741 2.9337 2.6097
# 3 60.4307 47.3238 191.5875 -10.5550 6.8043 3.0221
# 4 0.3651 -10.7741 -10.5550 20.7360 1.0193 0.5814
# 5 9.8804 2.9337 6.8043 1.0193 45.0004 -2.1536
# 6 7.4694 2.6097 3.0221 0.5814 -2.1536 24.9501
#
#
#
# Elastic Compliance Matrix: (Units=1/GPa)
#
#
# Indices 1 2 3 4 5 6 
#
# 1 0.009706 -0.002318 -0.002530 -0.002513 -0.001657 -0.002441
# 2 -0.002318 0.020828 -0.003882 0.008948 -0.000525 -0.001268
# 3 -0.002530 -0.003882 0.007073 0.001635 -0.000286 0.000244
# 4 -0.002513 0.008948 0.001635 0.053878 -0.001584 -0.001774
# 5 -0.001657 -0.000525 -0.000286 -0.001584 0.022823 0.002593
# 6 -0.002441 -0.001268 0.000244 -0.001774 0.002593 0.041179
#
#
# Mechanical properties :
#
#
# Convention : Reuss Voigt Hill
#
# Bulk Modulus (GPa) = 49.63528 72.51612 61.07570
# Shear Modulus (GPa) = 27.83009 34.87003 31.35006
#
# Velocity S-wave (km/s) = 3.53750 3.95973 3.75456
# Velocity P-wave (km/s) = 6.24532 7.31527 6.80137
#
# Compressibility (1/GPa) = 0.02014696
#
# Stress axis : x y z
#
# Youngs Moduli (GPa) = 103.03238 48.01336 141.38627
#
# Poissons Ratio (x) = 0.11128 0.35770
# Poissons Ratio (y) = 0.23879 0.54885
# Poissons Ratio (z) = 0.26067 0.18638
#
# Static dielectric constant tensor:
#      x y z
#    x 4.078570 -0.078920 0.298930 
#    y -0.078920 3.801720 -0.102700 
#    z 0.298930 -0.102700 4.303190 
# 
# 
# High freq. dielectric constant tensor:
#      x y z
#    x 1.886520 -0.002000 0.009360 
#    y -0.002000 1.857790 -0.004910 
#    z 0.009360 -0.004910 1.892690 
# 
# From -- ./inp_files/78518.got.cif
#   From: 2010.06.25/outbox.cif.g09.slc.cpg/sg2_40_cif.got.tgz:78518.got - 2010.06.27 13:26:56.
