data_PCOD8020918
_publ_section_title
;
Structure prediction by ZEFSAII (Michael W. Deem and Ramdas Pophale) SiO2 
 PCOD8020918
Probable space group: P -1
;
_chemical_formula_sum "Si O2"
_cell_formula_units_Z 12
_cell_length_a 11.524885
_cell_length_b 13.953522
_cell_length_c 6.454799
_cell_angle_alpha 74.958916
_cell_angle_beta 85.630211
_cell_angle_gamma 32.210156
_cell_volume 513.187599
_symmetry_space_group_name_H-M "P -1"
_symmetry_group_IT_number 2
_symmetry_cell_setting 'triclinic'
loop_
_space_group_symop_operation_xyz
x,y,z
-x,-y,-z
loop_
_atom_site_type_symbol
_atom_site_label
_atom_site_fract_x
_atom_site_fract_y
_atom_site_fract_z
Si Si1 0.191454 0.971011 0.427914
Si Si2 0.302047 0.109004 0.261845
Si Si3 0.830705 0.146254 0.124871
Si Si4 0.764442 0.775789 0.236221
Si Si5 0.884045 0.472472 0.350240
Si Si6 0.501053 0.396827 0.682614
O O1 0.200504 0.928106 0.687870
O O2 0.352640 0.788087 0.363325
O O3 0.274075 0.021321 0.408564
O O4 0.935747 0.152969 0.262238
O O5 0.105595 0.323541 0.256749
O O6 0.569074 0.946508 0.341467
O O7 0.268687 0.128282 0.007066
O O8 0.596934 0.348078 0.929264
O O9 0.000000 0.000000 0.000000
O O10 0.733612 0.681802 0.229063
O O11 0.015577 0.609204 0.384773
O O12 0.745416 0.473125 0.325364
O O13 0.500000 0.500000 0.500000
#
# Coordination Sequence:
#
# PCOD8020918 Si02
#       6
#     2   2   2   2   2   2
#     4  10  22  43  65  94 130 173 218 265 326 385
#     4  11  23  42  70  96 125 174 218 272 325 382
#     4   9  22  41  63  89 130 171 215 261 320 389
#     4  10  24  46  65  95 134 166 224 269 321 388
#     4  11  24  43  66  98 130 174 215 268 328 385
#     4  11  25  41  64  99 133 169 216 269 324 390
#
# _framework density 23.383261999999998
#
# number of rings (size 3 to 8) (size 9 to 14) (size 15 to 20)
#    0.000    1.667    1.667    1.000    9.333    3.333 
#    3.000    0.000    0.000    0.000    0.000    0.000 
#    0.000    0.000    0.000    0.000    0.000    0.000 
#
# Total GULP energy -148744.408756 kJ/mol
# GULP energy per Si atom -12395.367396 kJ/mol
# Density = 2.333004 g / cm^3
# Si number density = 23.383262 Si / 1000 Ang^3
#
#
#
# Elastic Constant Matrix: (Units=GPa)
#
#
# Indices 1 2 3 4 5 6 
#
# 1 103.2324 20.7496 41.3767 -16.9533 -3.0792 -14.9908
# 2 20.7496 90.1942 15.4064 1.3896 -1.6947 -9.8396
# 3 41.3767 15.4064 122.7373 -20.2372 -10.3687 -18.3941
# 4 -16.9533 1.3896 -20.2372 39.1351 -9.8258 4.1995
# 5 -3.0792 -1.6947 -10.3687 -9.8258 33.3324 -3.0309
# 6 -14.9908 -9.8396 -18.3941 4.1995 -3.0309 36.1735
#
#
#
# Elastic Compliance Matrix: (Units=1/GPa)
#
#
# Indices 1 2 3 4 5 6 
#
# 1 0.012313 -0.002105 -0.002628 0.004171 0.001702 0.002852
# 2 -0.002105 0.011978 -0.000828 -0.002063 -0.000253 0.002183
# 3 -0.002628 -0.000828 0.011094 0.005480 0.005157 0.004123
# 4 0.004171 -0.002063 0.005480 0.033124 0.011850 0.001102
# 5 0.001702 -0.000253 0.005157 0.011850 0.035685 0.004873
# 6 0.002852 0.002183 0.004123 0.001102 0.004873 0.031797
#
#
# Mechanical properties :
#
#
# Convention : Reuss Voigt Hill
#
# Bulk Modulus (GPa) = 41.21372 52.35879 46.78626
# Shear Modulus (GPa) = 32.21602 37.63694 34.92648
#
# Velocity S-wave (km/s) = 3.71582 4.01629 3.86897
# Velocity P-wave (km/s) = 6.00610 6.62930 6.32538
#
# Compressibility (1/GPa) = 0.02426377
#
# Stress axis : x y z
#
# Youngs Moduli (GPa) = 81.21364 83.48560 90.13496
#
# Poissons Ratio (x) = 0.17573 0.23685
# Poissons Ratio (y) = 0.17095 0.07466
# Poissons Ratio (z) = 0.21341 0.06915
#
# Static dielectric constant tensor:
#      x y z
#    x 4.063160 -0.232020 0.211470 
#    y -0.232020 4.613870 -0.131400 
#    z 0.211470 -0.131400 4.668880 
# 
# 
# High freq. dielectric constant tensor:
#      x y z
#    x 1.910210 -0.013150 0.001160 
#    y -0.013150 1.931310 -0.000800 
#    z 0.001160 -0.000800 1.940320 
# 
# From -- ./inp_files/24509.got.cif
#   From: 2010.06.25/outbox.cif.g09.slc.cpg/sg2_13_cif.got.tgz:24509.got - 2010.06.27 13:26:56.
