data_PCOD8020671
_publ_section_title
;
Structure prediction by ZEFSAII (Michael W. Deem and Ramdas Pophale) SiO2 
 PCOD8020671
Probable space group: P -1
;
_chemical_formula_sum "Si O2"
_cell_formula_units_Z 16
_cell_length_a 8.392389
_cell_length_b 13.146405
_cell_length_c 8.792600
_cell_angle_alpha 48.838647
_cell_angle_beta 89.200377
_cell_angle_gamma 97.199753
_cell_volume 718.513219
_symmetry_space_group_name_H-M "P -1"
_symmetry_group_IT_number 2
_symmetry_cell_setting 'triclinic'
loop_
_space_group_symop_operation_xyz
x,y,z
-x,-y,-z
loop_
_atom_site_type_symbol
_atom_site_label
_atom_site_fract_x
_atom_site_fract_y
_atom_site_fract_z
Si Si1 0.100211 0.825956 0.012831
Si Si2 0.711485 0.585369 0.654752
Si Si3 0.139149 0.436485 0.637119
Si Si4 0.808331 0.339402 0.079648
Si Si5 0.369115 0.647112 0.626978
Si Si6 0.130552 0.026205 0.278787
Si Si7 0.644916 0.087850 0.818926
Si Si8 0.072662 0.225647 0.325665
O O1 0.204250 0.847833 0.141649
O O2 0.941874 0.706898 0.147737
O O3 0.214354 0.791228 0.907050
O O4 0.023294 0.959408 0.840787
O O5 0.731599 0.584900 0.473185
O O6 0.522592 0.571299 0.706857
O O7 0.806198 0.727252 0.584341
O O8 0.788787 0.467294 0.849904
O O9 0.222589 0.539385 0.664033
O O10 0.000000 0.500000 0.500000
O O11 0.675380 0.316880 0.236605
O O12 0.991711 0.350778 0.134898
O O13 0.413077 0.786392 0.390845
O O14 0.169600 0.155552 0.265527
O O15 0.293582 0.018434 0.192190
O O16 0.081855 0.883271 0.508675
O O17 0.500000 0.000000 0.000000
#
# Coordination Sequence:
#
# PCOD8020671 Si02
#       8
#     2   2   2   2   2   2   2   2
#     4  11  25  43  73  98 124 175 227 270 321 386
#     4  12  25  41  67 101 134 171 215 273 338 387
#     4  12  23  45  70  97 131 171 222 273 324 390
#     4  11  23  45  68  96 130 172 225 269 324 394
#     4  12  27  43  66  99 138 173 212 273 335 388
#     4  10  23  43  67  97 127 173 229 266 316 387
#     4  12  26  45  65  97 137 175 213 269 332 390
#     4  10  22  42  71  96 129 171 225 276 316 385
#
# _framework density 22.268207
#
# number of rings (size 3 to 8) (size 9 to 14) (size 15 to 20)
#    0.000    0.750    3.750    3.000    7.000    1.000 
#    0.000    1.250    0.000    0.000    0.000    0.000 
#    0.000    0.000    0.000    0.000    0.000    0.000 
#
# Total GULP energy -198416.709200 kJ/mol
# GULP energy per Si atom -12401.044325 kJ/mol
# Density = 2.221752 g / cm^3
# Si number density = 22.268207 Si / 1000 Ang^3
#
#
#
# Elastic Constant Matrix: (Units=GPa)
#
#
# Indices 1 2 3 4 5 6 
#
# 1 92.0376 42.3249 28.3436 -3.4130 -5.2447 -23.7524
# 2 42.3249 93.3782 42.9922 9.0145 -9.8872 -28.3878
# 3 28.3436 42.9922 108.8596 5.2774 -8.9505 -6.7372
# 4 -3.4130 9.0145 5.2774 34.5549 -6.9171 -8.6313
# 5 -5.2447 -9.8872 -8.9505 -6.9171 39.0262 5.9913
# 6 -23.7524 -28.3878 -6.7372 -8.6313 5.9913 32.5928
#
#
#
# Elastic Compliance Matrix: (Units=1/GPa)
#
#
# Indices 1 2 3 4 5 6 
#
# 1 0.015904 -0.003879 -0.002287 0.005236 0.000162 0.009096
# 2 -0.003879 0.018893 -0.005573 -0.001287 0.000922 0.011966
# 3 -0.002287 -0.005573 0.011882 -0.001472 0.001470 -0.004724
# 4 0.005236 -0.001287 -0.001472 0.033505 0.004373 0.010460
# 5 0.000162 0.000922 0.001470 0.004373 0.027399 -0.002654
# 6 0.009096 0.011966 -0.004724 0.010460 -0.002654 0.050014
#
#
# Mechanical properties :
#
#
# Convention : Reuss Voigt Hill
#
# Bulk Modulus (GPa) = 43.09883 57.95519 50.52701
# Shear Modulus (GPa) = 26.48200 33.27575 29.87887
#
# Velocity S-wave (km/s) = 3.45226 3.86983 3.66700
# Velocity P-wave (km/s) = 5.94031 6.78601 6.37719
#
# Compressibility (1/GPa) = 0.02320248
#
# Stress axis : x y z
#
# Youngs Moduli (GPa) = 62.87749 52.93040 84.15955
#
# Poissons Ratio (x) = 0.20532 0.19243
# Poissons Ratio (y) = 0.24391 0.46899
# Poissons Ratio (z) = 0.14377 0.29496
#
# Static dielectric constant tensor:
#      x y z
#    x 3.789990 -0.195930 0.070360 
#    y -0.195930 4.308990 0.174280 
#    z 0.070360 0.174280 4.438110 
# 
# 
# High freq. dielectric constant tensor:
#      x y z
#    x 1.859720 -0.020250 0.014340 
#    y -0.020250 1.888260 0.012880 
#    z 0.014340 0.012880 1.886970 
# 
# From -- ./inp_files/184150.got.cif
#   From: 2010.06.25/outbox.cif.g09.slc.cpg/sg2_93_cif.got.tgz:184150.got - 2010.06.27 13:26:56.
