data_PCOD8020794
_publ_section_title
;
Structure prediction by ZEFSAII (Michael W. Deem and Ramdas Pophale) SiO2 
 PCOD8020794
Probable space group: P -1
;
_chemical_formula_sum "Si O2"
_cell_formula_units_Z 16
_cell_length_a 7.508526
_cell_length_b 5.203654
_cell_length_c 18.003365
_cell_angle_alpha 76.363426
_cell_angle_beta 92.165485
_cell_angle_gamma 72.634060
_cell_volume 647.983871
_symmetry_space_group_name_H-M "P -1"
_symmetry_group_IT_number 2
_symmetry_cell_setting 'triclinic'
loop_
_space_group_symop_operation_xyz
x,y,z
-x,-y,-z
loop_
_atom_site_type_symbol
_atom_site_label
_atom_site_fract_x
_atom_site_fract_y
_atom_site_fract_z
Si Si1 0.496630 0.293627 0.948305
Si Si2 0.629727 0.432008 0.721358
Si Si3 0.099156 0.835477 0.698943
Si Si4 0.127482 0.844977 0.130957
Si Si5 0.836068 0.340906 0.588487
Si Si6 0.088766 0.558874 0.863824
Si Si7 0.587267 0.955107 0.292697
Si Si8 0.794589 0.497291 0.417006
O O1 0.675409 0.239862 0.902245
O O2 0.310768 0.442909 0.887898
O O3 0.500000 0.500000 0.000000
O O4 0.500000 0.000000 0.000000
O O5 0.825702 0.258347 0.775935
O O6 0.663047 0.478756 0.631462
O O7 0.489007 0.248300 0.745705
O O8 0.561378 0.739074 0.733744
O O9 0.046625 0.636803 0.770901
O O10 0.237212 0.665568 0.646613
O O11 0.213038 0.013684 0.733728
O O12 0.915320 0.023468 0.640141
O O13 0.998613 0.684123 0.100982
O O14 0.013603 0.173738 0.104360
O O15 0.760536 0.350673 0.502183
O O16 0.991685 0.497165 0.583065
O O17 0.641036 0.806828 0.385558
#
# Coordination Sequence:
#
# PCOD8020794 Si02
#       8
#     2   2   2   2   2   2   2   2
#     4  12  29  52  79 118 156 193 238 299 367 446
#     4  12  24  45  65 104 137 182 236 313 348 429
#     4  11  22  45  67 101 137 189 249 289 362 432
#     4  12  27  49  78 117 149 194 250 298 363 440
#     4  10  23  39  68  93 142 180 246 297 361 421
#     4  12  27  47  83 110 152 202 242 302 367 433
#     4  11  25  40  66  91 141 184 240 301 371 418
#     4  10  22  43  62  99 131 198 234 303 356 435
#
# _framework density 24.691973000000001
#
# number of rings (size 3 to 8) (size 9 to 14) (size 15 to 20)
#    0.000    0.750    2.500    4.125    3.500    5.000 
#    0.000    0.000    0.000    0.000    0.000    0.000 
#    0.000    0.000    0.000    0.000    0.000    0.000 
#
# Total GULP energy -198338.485166 kJ/mol
# GULP energy per Si atom -12396.155323 kJ/mol
# Density = 2.463577 g / cm^3
# Si number density = 24.691973 Si / 1000 Ang^3
#
#
#
# Elastic Constant Matrix: (Units=GPa)
#
#
# Indices 1 2 3 4 5 6 
#
# 1 90.8711 39.1403 20.8982 1.4708 -2.9401 5.8543
# 2 39.1403 155.8590 35.5954 -7.4643 0.6518 4.6089
# 3 20.8982 35.5954 86.3202 -2.4703 -5.2040 -0.3391
# 4 1.4708 -7.4643 -2.4703 33.8326 -8.6800 3.3852
# 5 -2.9401 0.6518 -5.2040 -8.6800 31.7240 0.2037
# 6 5.8543 4.6089 -0.3391 3.3852 0.2037 44.0520
#
#
#
# Elastic Compliance Matrix: (Units=1/GPa)
#
#
# Indices 1 2 3 4 5 6 
#
# 1 0.012771 -0.002775 -0.001942 -0.001006 0.000655 -0.001348
# 2 -0.002775 0.007784 -0.002517 0.001614 -0.000385 -0.000587
# 3 -0.001942 -0.002517 0.013265 0.001042 0.002329 0.000533
# 4 -0.001006 0.001614 0.001042 0.032594 0.008979 -0.002573
# 5 0.000655 -0.000385 0.002329 0.008979 0.034435 -0.000878
# 6 -0.001348 -0.000587 0.000533 -0.002573 -0.000878 0.023147
#
#
# Mechanical properties :
#
#
# Convention : Reuss Voigt Hill
#
# Bulk Modulus (GPa) = 51.67514 58.25755 54.96635
# Shear Modulus (GPa) = 34.50286 37.74949 36.12618
#
# Velocity S-wave (km/s) = 3.74214 3.91425 3.82916
# Velocity P-wave (km/s) = 6.29642 6.63878 6.46986
#
# Compressibility (1/GPa) = 0.01935166
#
# Stress axis : x y z
#
# Youngs Moduli (GPa) = 78.30469 128.46803 75.38389
#
# Poissons Ratio (x) = 0.35644 0.14641
# Poissons Ratio (y) = 0.21726 0.18977
# Poissons Ratio (z) = 0.15209 0.32341
#
# Static dielectric constant tensor:
#      x y z
#    x 4.440920 0.036660 0.094770 
#    y 0.036660 4.536460 -0.180980 
#    z 0.094770 -0.180980 4.428580 
# 
# 
# High freq. dielectric constant tensor:
#      x y z
#    x 1.988010 -0.001730 0.008340 
#    y -0.001730 1.987480 -0.016640 
#    z 0.008340 -0.016640 1.971070 
# 
# From -- ./inp_files/553358.got.cif
#   From: 2010.06.25/outbox.cif.g09.slc.cpg/sg2_277_cif.got.tgz:553358.got - 2010.06.27 13:26:56.
