data_PCOD8020965
_publ_section_title
;
Structure prediction by ZEFSAII (Michael W. Deem and Ramdas Pophale) SiO2 
 PCOD8020965
Probable space group: P -1
;
_chemical_formula_sum "Si O2"
_cell_formula_units_Z 14
_cell_length_a 12.219955
_cell_length_b 6.132281
_cell_length_c 12.522031
_cell_angle_alpha 134.188493
_cell_angle_beta 74.180460
_cell_angle_gamma 116.801757
_cell_volume 599.289305
_symmetry_space_group_name_H-M "P -1"
_symmetry_group_IT_number 2
_symmetry_cell_setting 'triclinic'
loop_
_space_group_symop_operation_xyz
x,y,z
-x,-y,-z
loop_
_atom_site_type_symbol
_atom_site_label
_atom_site_fract_x
_atom_site_fract_y
_atom_site_fract_z
Si Si1 0.555058 0.078890 0.627994
Si Si2 0.389008 0.219313 0.877794
Si Si3 0.753926 0.745182 0.751497
Si Si4 0.823867 0.389392 0.209218
Si Si5 0.204499 0.530999 0.987282
Si Si6 0.239414 0.164560 0.454798
Si Si7 0.921577 0.577095 0.796967
O O1 0.440763 0.015115 0.714987
O O2 0.645015 0.460717 0.744480
O O3 0.500000 0.000000 0.500000
O O4 0.626883 0.846451 0.562396
O O5 0.296464 0.946057 0.888066
O O6 0.500000 0.500000 0.000000
O O7 0.312167 0.395932 0.895985
O O8 0.758230 0.643962 0.591644
O O9 0.880451 0.791651 0.795783
O O10 0.730816 0.081118 0.872649
O O11 0.795166 0.654248 0.377143
O O12 0.931607 0.304684 0.207620
O O13 0.868121 0.533822 0.128230
O O14 0.115943 0.358304 0.050921
O O15 0.136099 0.802022 0.350884
#
# Coordination Sequence:
#
# PCOD8020965 Si02
#       7
#     2   2   2   2   2   2   2
#     4  11  23  41  64  94 129 164 212 261 308 376
#     4  12  26  41  61  94 128 165 213 255 307 377
#     4  10  22  43  66  88 129 172 205 260 316 367
#     4  12  25  41  66  96 127 165 209 263 317 370
#     4  11  24  42  65  92 126 167 211 258 315 374
#     4  10  23  42  67  97 125 165 210 258 320 373
#     4  10  23  44  66  93 127 164 211 260 315 378
#
# _framework density 23.361004000000001
#
# number of rings (size 3 to 8) (size 9 to 14) (size 15 to 20)
#    0.000    1.143    0.000    6.857    0.000   13.143 
#    0.000    0.000    0.000    0.000    0.000    0.000 
#    0.000    0.000    0.000    0.000    0.000    0.000 
#
# Total GULP energy -173653.655677 kJ/mol
# GULP energy per Si atom -12403.832548 kJ/mol
# Density = 2.330783 g / cm^3
# Si number density = 23.361004 Si / 1000 Ang^3
#
#
#
# Elastic Constant Matrix: (Units=GPa)
#
#
# Indices 1 2 3 4 5 6 
#
# 1 160.3117 35.3435 56.9004 -11.3442 -8.7732 -10.7182
# 2 35.3435 76.3910 31.1015 -18.3124 -4.4878 -11.7283
# 3 56.9004 31.1015 124.8608 -19.8289 -7.7245 -8.9126
# 4 -11.3442 -18.3124 -19.8289 33.8178 -6.0792 8.7632
# 5 -8.7732 -4.4878 -7.7245 -6.0792 37.8236 -2.0759
# 6 -10.7182 -11.7283 -8.9126 8.7632 -2.0759 40.5264
#
#
#
# Elastic Compliance Matrix: (Units=1/GPa)
#
#
# Indices 1 2 3 4 5 6 
#
# 1 0.007886 -0.002357 -0.002953 -0.000428 0.000927 0.000894
# 2 -0.002357 0.017153 -0.001711 0.007283 0.002448 0.002515
# 3 -0.002953 -0.001711 0.010659 0.004658 0.002046 0.000166
# 4 -0.000428 0.007283 0.004658 0.038769 0.007674 -0.004971
# 5 0.000927 0.002448 0.002046 0.007674 0.028662 0.001212
# 6 0.000894 0.002515 0.000166 -0.004971 0.001212 0.026813
#
#
# Mechanical properties :
#
#
# Convention : Reuss Voigt Hill
#
# Bulk Modulus (GPa) = 46.17746 67.58379 56.88063
# Shear Modulus (GPa) = 33.06788 38.31477 35.69133
#
# Velocity S-wave (km/s) = 3.76642 4.05423 3.91297
# Velocity P-wave (km/s) = 6.22289 7.13503 6.69451
#
# Compressibility (1/GPa) = 0.02165558
#
# Stress axis : x y z
#
# Youngs Moduli (GPa) = 126.80753 58.29724 93.81631
#
# Poissons Ratio (x) = 0.13740 0.27708
# Poissons Ratio (y) = 0.29888 0.16053
# Poissons Ratio (z) = 0.37452 0.09975
#
# Static dielectric constant tensor:
#      x y z
#    x 2.045330 -1.523930 2.083160 
#    y -1.523930 3.362460 1.157370 
#    z 2.083160 1.157370 2.419010 
# 
# 
# High freq. dielectric constant tensor:
#      x y z
#    x 1.928450 -0.007670 0.002500 
#    y -0.007670 1.920660 0.002180 
#    z 0.002500 0.002180 1.936260 
# 
# From -- ./inp_files/26788.got.cif
#   From: 2010.06.25/outbox.cif.g09.slc.cpg/sg2_14_cif.got.tgz:26788.got - 2010.06.27 13:26:56.
