data_PCOD8020951
_publ_section_title
;
Structure prediction by ZEFSAII (Michael W. Deem and Ramdas Pophale) SiO2 
 PCOD8020951
Probable space group: P -1
;
_chemical_formula_sum "Si O2"
_cell_formula_units_Z 16
_cell_length_a 10.786870
_cell_length_b 6.769053
_cell_length_c 11.012287
_cell_angle_alpha 86.148482
_cell_angle_beta 98.683922
_cell_angle_gamma 120.903290
_cell_volume 681.971518
_symmetry_space_group_name_H-M "P -1"
_symmetry_group_IT_number 2
_symmetry_cell_setting 'triclinic'
loop_
_space_group_symop_operation_xyz
x,y,z
-x,-y,-z
loop_
_atom_site_type_symbol
_atom_site_label
_atom_site_fract_x
_atom_site_fract_y
_atom_site_fract_z
Si Si1 0.854691 0.846907 0.372316
Si Si2 0.637195 0.248259 0.664956
Si Si3 0.046842 0.536054 0.822687
Si Si4 0.673729 0.048712 0.445624
Si Si5 0.095943 0.310725 0.373772
Si Si6 0.410580 0.031940 0.093275
Si Si7 0.324012 0.605580 0.759490
Si Si8 0.089521 0.872047 0.019274
O O1 0.798026 0.996847 0.426602
O O2 0.891751 0.702515 0.478724
O O3 0.737319 0.664079 0.268384
O O4 0.004812 0.043944 0.321198
O O5 0.479156 0.186440 0.594000
O O6 0.742112 0.528033 0.665793
O O7 0.695257 0.121678 0.587416
O O8 0.631937 0.168807 0.805829
O O9 0.216184 0.614082 0.842664
O O10 0.023554 0.696448 0.905147
O O11 0.994249 0.563623 0.680337
O O12 0.946380 0.270333 0.855240
O O13 0.672276 0.253304 0.363708
O O14 0.516464 0.280746 0.161498
O O15 0.500000 0.000000 0.000000
O O16 0.265828 0.031953 0.026539
O O17 0.000000 0.000000 0.000000
#
# Coordination Sequence:
#
# PCOD8020951 Si02
#       8
#     2   2   2   2   2   2   2   2
#     4  11  25  40  67 112 144 187 239 292 346 453
#     4  10  22  43  70  98 138 196 230 299 367 432
#     4  11  24  45  69  98 148 189 232 308 360 423
#     4  10  22  43  66 100 148 181 234 295 366 427
#     4  11  23  42  67 103 145 186 238 279 367 425
#     4  11  23  48  78 103 138 196 245 298 375 431
#     4  11  23  44  73 103 146 192 234 292 372 433
#     4  11  26  47  73 106 136 183 255 306 356 422
#
# _framework density 23.461390999999999
#
# number of rings (size 3 to 8) (size 9 to 14) (size 15 to 20)
#    0.000    1.250    5.000    0.000    1.750    4.500 
#    2.250    0.625    0.000    0.000    0.000    0.000 
#    0.000    0.000    0.000    0.000    0.000    0.000 
#
# Total GULP energy -198277.641491 kJ/mol
# GULP energy per Si atom -12392.352593 kJ/mol
# Density = 2.340799 g / cm^3
# Si number density = 23.461391 Si / 1000 Ang^3
#
#
#
# Elastic Constant Matrix: (Units=GPa)
#
#
# Indices 1 2 3 4 5 6 
#
# 1 130.5510 62.9662 44.9999 2.0062 7.6898 12.5135
# 2 62.9662 157.2789 52.3510 3.8621 0.0898 34.3012
# 3 44.9999 52.3510 97.1554 -8.2817 -3.0117 -2.1215
# 4 2.0062 3.8621 -8.2817 27.3646 7.1365 -1.7990
# 5 7.6898 0.0898 -3.0117 7.1365 36.7595 3.1244
# 6 12.5135 34.3012 -2.1215 -1.7990 3.1244 51.8056
#
#
#
# Elastic Compliance Matrix: (Units=1/GPa)
#
#
# Indices 1 2 3 4 5 6 
#
# 1 0.010438 -0.002864 -0.003449 -0.000865 -0.002235 -0.000661
# 2 -0.002864 0.010684 -0.004840 -0.003587 0.001450 -0.006793
# 3 -0.003449 -0.004840 0.015104 0.005706 0.000453 0.004827
# 4 -0.000865 -0.003587 0.005706 0.041168 -0.007736 0.004714
# 5 -0.002235 0.001450 0.000453 -0.007736 0.029414 -0.002445
# 6 -0.000661 -0.006793 0.004827 0.004714 -0.002445 0.024469
#
#
# Mechanical properties :
#
#
# Convention : Reuss Voigt Hill
#
# Bulk Modulus (GPa) = 71.83389 78.40219 75.11804
# Shear Modulus (GPa) = 31.60073 38.16383 34.88228
#
# Velocity S-wave (km/s) = 3.67403 4.03757 3.86008
# Velocity P-wave (km/s) = 6.97728 7.43142 7.20793
#
# Compressibility (1/GPa) = 0.01392101
#
# Stress axis : x y z
#
# Youngs Moduli (GPa) = 95.79950 93.59408 66.20787
#
# Poissons Ratio (x) = 0.26807 0.22835
# Poissons Ratio (y) = 0.27439 0.32043
# Poissons Ratio (z) = 0.33041 0.45297
#
# Static dielectric constant tensor:
#      x y z
#    x 4.198590 0.559020 0.007330 
#    y 0.559020 4.293100 -0.105450 
#    z 0.007330 -0.105450 4.206200 
# 
# 
# High freq. dielectric constant tensor:
#      x y z
#    x 1.919220 0.036850 0.002930 
#    y 0.036850 1.925900 -0.002760 
#    z 0.002930 -0.002760 1.926070 
# 
# From -- ./inp_files/410299.got.cif
#   From: 2010.06.25/outbox.cif.g09.slc.cpg/sg2_206_cif.got.tgz:410299.got - 2010.06.27 13:26:56.
