data_PCOD8020471
_publ_section_title
;
Structure prediction by ZEFSAII (Michael W. Deem and Ramdas Pophale) SiO2 
 PCOD8020471
Probable space group: P -1
;
_chemical_formula_sum "Si O2"
_cell_formula_units_Z 16
_cell_length_a 6.984696
_cell_length_b 5.408973
_cell_length_c 28.286266
_cell_angle_alpha 89.712210
_cell_angle_beta 138.348002
_cell_angle_gamma 88.368589
_cell_volume 709.389476
_symmetry_space_group_name_H-M "P -1"
_symmetry_group_IT_number 2
_symmetry_cell_setting 'triclinic'
loop_
_space_group_symop_operation_xyz
x,y,z
-x,-y,-z
loop_
_atom_site_type_symbol
_atom_site_label
_atom_site_fract_x
_atom_site_fract_y
_atom_site_fract_z
Si Si1 0.135448 0.861686 0.569224
Si Si2 0.867502 0.734429 0.077799
Si Si3 0.584234 0.752155 0.326240
Si Si4 0.510420 0.709703 0.204097
Si Si5 0.313792 0.406406 0.342831
Si Si6 0.179056 0.458721 0.424604
Si Si7 0.228716 0.799801 0.786190
Si Si8 0.343349 0.757047 0.915201
O O1 0.345488 0.651979 0.584046
O O2 0.887406 0.796227 0.560624
O O3 0.383443 0.980130 0.646260
O O4 0.000000 0.000000 0.500000
O O5 0.818924 0.487153 0.099342
O O6 0.197508 0.724541 0.121711
O O7 0.814271 0.987832 0.096936
O O8 0.669575 0.737987 0.994752
O O9 0.470509 0.752237 0.252354
O O10 0.329626 0.636176 0.309818
O O11 0.916273 0.640708 0.393686
O O12 0.654721 0.437768 0.222537
O O13 0.692183 0.933168 0.218421
O O14 0.161328 0.462509 0.364838
O O15 0.119298 0.205105 0.281074
O O16 0.500000 0.500000 0.500000
O O17 0.357239 0.763121 0.861750
#
# Coordination Sequence:
#
# PCOD8020471 Si02
#       8
#     2   2   2   2   2   2   2   2
#     4  11  25  41  65  97 125 174 223 276 344 401
#     4  10  22  42  68  97 136 178 225 278 330 401
#     4  11  25  42  65  92 131 172 223 277 337 402
#     4  12  26  42  67  99 137 175 226 283 333 396
#     4  11  25  42  65  93 130 175 222 278 335 403
#     4  11  23  43  65  92 131 165 220 279 335 405
#     4  12  26  42  67 100 135 178 226 279 337 397
#     4  10  22  42  68  98 133 181 226 271 339 397
#
# _framework density 22.554608000000002
#
# number of rings (size 3 to 8) (size 9 to 14) (size 15 to 20)
#    0.000    1.000    1.250    4.500    5.250    7.000 
#    0.000    0.000    0.000    0.000    0.000    0.000 
#    0.000    0.000    0.000    0.000    0.000    0.000 
#
# Total GULP energy -198237.273192 kJ/mol
# GULP energy per Si atom -12389.829574 kJ/mol
# Density = 2.250327 g / cm^3
# Si number density = 22.554608 Si / 1000 Ang^3
#
#
#
# Elastic Constant Matrix: (Units=GPa)
#
#
# Indices 1 2 3 4 5 6 
#
# 1 110.8100 30.6939 42.6717 0.4068 -2.4614 30.8679
# 2 30.6939 105.8497 15.8980 3.9684 4.4085 23.5516
# 3 42.6717 15.8980 105.7489 4.2234 1.8258 16.1562
# 4 0.4068 3.9684 4.2234 29.9538 6.6561 1.4963
# 5 -2.4614 4.4085 1.8258 6.6561 55.7244 1.2582
# 6 30.8679 23.5516 16.1562 1.4963 1.2582 43.2122
#
#
#
# Elastic Compliance Matrix: (Units=1/GPa)
#
#
# Indices 1 2 3 4 5 6 
#
# 1 0.012962 -0.001692 -0.003966 0.000752 0.000902 -0.006906
# 2 -0.001692 0.011083 -0.000213 -0.001022 -0.000717 -0.004696
# 3 -0.003966 -0.000213 0.011338 -0.001380 -0.000337 -0.001232
# 4 0.000752 -0.001022 -0.001380 0.034612 -0.003963 -0.000547
# 5 0.000902 -0.000717 -0.000337 -0.003963 0.018538 -0.000531
# 6 -0.006906 -0.004696 -0.001232 -0.000547 -0.000531 0.031129
#
#
# Mechanical properties :
#
#
# Convention : Reuss Voigt Hill
#
# Bulk Modulus (GPa) = 42.30072 55.65955 48.98013
# Shear Modulus (GPa) = 35.89753 41.32107 38.60930
#
# Velocity S-wave (km/s) = 3.99379 4.28488 4.14190
# Velocity P-wave (km/s) = 6.32951 7.01510 6.68110
#
# Compressibility (1/GPa) = 0.02364026
#
# Stress axis : x y z
#
# Youngs Moduli (GPa) = 77.15066 90.22851 88.19850
#
# Poissons Ratio (x) = 0.15267 0.34983
# Poissons Ratio (y) = 0.13054 0.01877
# Poissons Ratio (z) = 0.30601 0.01920
#
# Static dielectric constant tensor:
#      x y z
#    x 4.129660 -0.110980 0.148390 
#    y -0.110980 4.596230 -0.114850 
#    z 0.148390 -0.114850 4.242970 
# 
# 
# High freq. dielectric constant tensor:
#      x y z
#    x 1.891180 0.007490 0.007770 
#    y 0.007490 1.894960 0.002090 
#    z 0.007770 0.002090 1.908830 
# 
# From -- ./inp_files/11104.got.cif
#   From: 2010.06.25/outbox.cif.g09.slc.cpg/sg2_6_cif.got.tgz:11104.got - 2010.06.27 13:26:56.
