data_PCOD8020116
_publ_section_title
;
Structure prediction by ZEFSAII (Michael W. Deem and Ramdas Pophale) SiO2 
 PCOD8020116
Probable space group: P -1
;
_chemical_formula_sum "Si O2"
_cell_formula_units_Z 14
_cell_length_a 8.541637
_cell_length_b 18.617991
_cell_length_c 8.772223
_cell_angle_alpha 58.575643
_cell_angle_beta 49.076110
_cell_angle_gamma 38.983339
_cell_volume 662.883928
_symmetry_space_group_name_H-M "P -1"
_symmetry_group_IT_number 2
_symmetry_cell_setting 'triclinic'
loop_
_space_group_symop_operation_xyz
x,y,z
-x,-y,-z
loop_
_atom_site_type_symbol
_atom_site_label
_atom_site_fract_x
_atom_site_fract_y
_atom_site_fract_z
Si Si1 0.867806 0.454988 0.558737
Si Si2 0.342269 0.101605 0.714178
Si Si3 0.438864 0.824218 0.306159
Si Si4 0.692734 0.079541 0.039367
Si Si5 0.050700 0.691684 0.079778
Si Si6 0.195628 0.244897 0.369238
Si Si7 0.707446 0.320689 0.374762
O O1 0.778996 0.413863 0.794048
O O2 0.592361 0.555950 0.525727
O O3 0.000000 0.500000 0.500000
O O4 0.104333 0.348860 0.416302
O O5 0.585954 0.095208 0.638320
O O6 0.288419 0.140237 0.529933
O O7 0.051713 0.196066 0.889339
O O8 0.433035 0.980389 0.808841
O O9 0.299335 0.778180 0.509294
O O10 0.769775 0.718294 0.174664
O O11 0.278315 0.895955 0.177357
O O12 0.465895 0.197480 0.147732
O O13 0.000000 0.000000 0.000000
O O14 0.238061 0.665820 0.847288
O O15 0.936846 0.290287 0.378716
#
# Coordination Sequence:
#
# PCOD8020116 Si02
#       7
#     2   2   2   2   2   2   2
#     4  11  22  43  67  95 130 170 216 257 323 389
#     4   9  21  42  63  91 133 166 215 262 309 390
#     4  10  22  42  65  96 130 168 218 256 313 394
#     4  12  24  42  64  94 133 170 214 273 324 366
#     4   9  21  41  65  95 130 162 219 253 307 393
#     4  11  23  41  63  98 130 165 216 270 315 384
#     4  12  21  41  70  94 134 170 204 272 322 366
#
# _framework density 21.119834999999998
#
# number of rings (size 3 to 8) (size 9 to 14) (size 15 to 20)
#    0.857    0.571    2.857    2.571    0.000    2.286 
#    0.000    6.429    0.000    0.000    0.000    0.000 
#    0.000    0.000    0.000    0.000    0.000    0.000 
#
# Total GULP energy -173558.195488 kJ/mol
# GULP energy per Si atom -12397.013963 kJ/mol
# Density = 2.107177 g / cm^3
# Si number density = 21.119835 Si / 1000 Ang^3
#
#
#
# Elastic Constant Matrix: (Units=GPa)
#
#
# Indices 1 2 3 4 5 6 
#
# 1 118.4599 52.6544 50.5514 -2.9489 5.0829 -13.8335
# 2 52.6544 80.0165 42.7712 -5.2620 3.3612 2.4443
# 3 50.5514 42.7712 97.4641 -7.5322 13.1503 6.3727
# 4 -2.9489 -5.2620 -7.5322 29.2585 -5.8997 -0.3274
# 5 5.0829 3.3612 13.1503 -5.8997 34.3311 -6.6346
# 6 -13.8335 2.4443 6.3727 -0.3274 -6.6346 41.4479
#
#
#
# Elastic Compliance Matrix: (Units=1/GPa)
#
#
# Indices 1 2 3 4 5 6 
#
# 1 0.014374 -0.007077 -0.005025 -0.000732 0.001568 0.006233
# 2 -0.007077 0.019918 -0.004863 0.001738 0.000746 -0.002656
# 3 -0.005025 -0.004863 0.016196 0.001600 -0.005630 -0.004769
# 4 -0.000732 0.001738 0.001600 0.035969 0.005621 0.000591
# 5 0.001568 0.000746 -0.005630 0.005621 0.033242 0.006711
# 6 0.006233 -0.002656 -0.004769 0.000591 0.006711 0.028176
#
#
# Mechanical properties :
#
#
# Convention : Reuss Voigt Hill
#
# Bulk Modulus (GPa) = 60.39622 65.32161 62.85891
# Shear Modulus (GPa) = 26.69169 31.00508 28.84839
#
# Velocity S-wave (km/s) = 3.55888 3.83568 3.69987
# Velocity P-wave (km/s) = 6.74882 7.11426 6.93395
#
# Compressibility (1/GPa) = 0.01655733
#
# Stress axis : x y z
#
# Youngs Moduli (GPa) = 69.56885 50.20637 61.74427
#
# Poissons Ratio (x) = 0.35531 0.31029
# Poissons Ratio (y) = 0.49234 0.30025
# Poissons Ratio (z) = 0.34962 0.24414
#
# Static dielectric constant tensor:
#      x y z
#    x 3.697120 -0.058460 0.185310 
#    y -0.058460 3.892900 -0.013200 
#    z 0.185310 -0.013200 3.696840 
# 
# 
# High freq. dielectric constant tensor:
#      x y z
#    x 1.823970 -0.009480 0.013730 
#    y -0.009480 1.828330 -0.006900 
#    z 0.013730 -0.006900 1.820160 
# 
# From -- ./inp_files/214645.got.cif
#   From: 2010.06.25/outbox.cif.g09.slc.cpg/sg2_108_cif.got.tgz:214645.got - 2010.06.27 13:26:56.
