data_PCOD8020339
_publ_section_title
;
Structure prediction by ZEFSAII (Michael W. Deem and Ramdas Pophale) SiO2 
 PCOD8020339
Probable space group: P -1
;
_chemical_formula_sum "Si O2"
_cell_formula_units_Z 12
_cell_length_a 8.406729
_cell_length_b 16.507932
_cell_length_c 13.978239
_cell_angle_alpha 16.232743
_cell_angle_beta 82.108896
_cell_angle_gamma 83.222570
_cell_volume 536.467557
_symmetry_space_group_name_H-M "P -1"
_symmetry_group_IT_number 2
_symmetry_cell_setting 'triclinic'
loop_
_space_group_symop_operation_xyz
x,y,z
-x,-y,-z
loop_
_atom_site_type_symbol
_atom_site_label
_atom_site_fract_x
_atom_site_fract_y
_atom_site_fract_z
Si Si1 0.250877 0.019775 0.750549
Si Si2 0.276800 0.722538 0.476133
Si Si3 0.533230 0.700053 0.180152
Si Si4 0.885238 0.572226 0.013225
Si Si5 0.044745 0.539146 0.226470
Si Si6 0.607516 0.790218 0.675632
O O1 0.190033 0.320697 0.455171
O O2 0.342931 0.077891 0.579098
O O3 0.374087 0.873059 0.977184
O O4 0.096414 0.798176 0.999808
O O5 0.413437 0.500168 0.686026
O O6 0.227924 0.686604 0.634052
O O7 0.116892 0.637454 0.521983
O O8 0.329011 0.057342 0.077452
O O9 0.500000 0.500000 0.500000
O O10 0.002772 0.690695 0.955255
O O11 0.763222 0.787854 0.733571
O O12 0.000000 0.500000 0.000000
O O13 0.500000 0.000000 0.500000
O O14 0.500000 0.500000 0.000000
#
# Coordination Sequence:
#
# PCOD8020339 Si02
#       6
#     2   2   2   2   2   2
#     4  12  23  43  62  96 130 168 223 268 321 388
#     4  10  23  44  67  99 130 169 219 265 326 395
#     4  12  25  46  70  93 128 177 220 280 333 374
#     4  10  22  42  67  95 139 172 210 252 333 388
#     4  10  24  41  67  92 136 169 207 267 322 381
#     4  12  24  37  60  94 128 171 213 259 312 385
#
# _framework density 22.368548000000001
#
# number of rings (size 3 to 8) (size 9 to 14) (size 15 to 20)
#    1.000    0.000    1.667    5.500    0.000    2.000 
#    0.000    5.000    0.000    0.000    0.000    0.000 
#    0.000    0.000    0.000    0.000    0.000    0.000 
#
# Total GULP energy -148677.420140 kJ/mol
# GULP energy per Si atom -12389.785012 kJ/mol
# Density = 2.231764 g / cm^3
# Si number density = 22.368548 Si / 1000 Ang^3
#
#
#
# Elastic Constant Matrix: (Units=GPa)
#
#
# Indices 1 2 3 4 5 6 
#
# 1 113.8060 27.4176 44.8658 13.3428 13.9248 0.1722
# 2 27.4176 53.5225 36.0022 9.1552 0.0531 -7.2636
# 3 44.8658 36.0022 113.7278 2.3693 -6.1026 3.7115
# 4 13.3428 9.1552 2.3693 43.3877 2.9930 7.6647
# 5 13.9248 0.0531 -6.1026 2.9930 57.0783 -6.1607
# 6 0.1722 -7.2636 3.7115 7.6647 -6.1607 29.7655
#
#
#
# Elastic Compliance Matrix: (Units=1/GPa)
#
#
# Indices 1 2 3 4 5 6 
#
# 1 0.011679 -0.003103 -0.003731 -0.002448 -0.003158 -0.000383
# 2 -0.003103 0.027843 -0.007705 -0.006295 0.001280 0.009659
# 3 -0.003731 -0.007705 0.012867 0.002617 0.001748 -0.003775
# 4 -0.002448 -0.006295 0.002617 0.026684 -0.001491 -0.009028
# 5 -0.003158 0.001280 0.001748 -0.001491 0.019033 0.004436
# 6 -0.000383 0.009659 -0.003775 -0.009028 0.004436 0.039669
#
#
# Mechanical properties :
#
#
# Convention : Reuss Voigt Hill
#
# Bulk Modulus (GPa) = 42.90116 55.29194 49.09655
# Shear Modulus (GPa) = 28.63309 37.56434 33.09872
#
# Velocity S-wave (km/s) = 3.58167 4.10242 3.85086
# Velocity P-wave (km/s) = 6.02706 6.87110 6.46287
#
# Compressibility (1/GPa) = 0.02330939
#
# Stress axis : x y z
#
# Youngs Moduli (GPa) = 85.62064 35.91612 77.72110
#
# Poissons Ratio (x) = 0.11146 0.28999
# Poissons Ratio (y) = 0.26571 0.59885
# Poissons Ratio (z) = 0.31946 0.27674
#
# Static dielectric constant tensor:
#      x y z
#    x 4.422530 -0.093610 0.101670 
#    y -0.093610 3.811160 -0.105680 
#    z 0.101670 -0.105680 4.188770 
# 
# 
# High freq. dielectric constant tensor:
#      x y z
#    x 1.904320 -0.007320 -0.000260 
#    y -0.007320 1.855010 -0.004870 
#    z -0.000260 -0.004870 1.879300 
# 
# From -- ./inp_files/1001.got.cif
#   From: 2010.06.25/outbox.cif.g09.slc.cpg/sg2_1_cif.got.tgz:1001.got - 2010.06.27 13:26:56.
