data_PCOD8020907
_publ_section_title
;
Structure prediction by ZEFSAII (Michael W. Deem and Ramdas Pophale) SiO2 
 PCOD8020907
Probable space group: P -1
;
_chemical_formula_sum "Si O2"
_cell_formula_units_Z 16
_cell_length_a 11.370418
_cell_length_b 8.048436
_cell_length_c 9.635978
_cell_angle_alpha 125.094825
_cell_angle_beta 99.480115
_cell_angle_gamma 87.424237
_cell_volume 710.305301
_symmetry_space_group_name_H-M "P -1"
_symmetry_group_IT_number 2
_symmetry_cell_setting 'triclinic'
loop_
_space_group_symop_operation_xyz
x,y,z
-x,-y,-z
loop_
_atom_site_type_symbol
_atom_site_label
_atom_site_fract_x
_atom_site_fract_y
_atom_site_fract_z
Si Si1 0.247434 0.912319 0.171135
Si Si2 0.977585 0.316610 0.581918
Si Si3 0.258945 0.906621 0.499878
Si Si4 0.565834 0.285068 0.058873
Si Si5 0.884769 0.498531 0.066874
Si Si6 0.382409 0.604612 0.577323
Si Si7 0.338312 0.306683 0.867902
Si Si8 0.845204 0.670113 0.621268
O O1 0.277467 0.900817 0.335184
O O2 0.193165 0.122825 0.216830
O O3 0.367039 0.885776 0.094134
O O4 0.151754 0.735181 0.018178
O O5 0.883614 0.130325 0.514320
O O6 0.900566 0.517149 0.666927
O O7 0.086785 0.361786 0.727783
O O8 0.044840 0.268329 0.430729
O O9 0.338627 0.742252 0.509221
O O10 0.301418 0.125311 0.669909
O O11 0.586046 0.259644 0.215092
O O12 0.604876 0.514234 0.132017
O O13 0.426859 0.240056 0.973133
O O14 0.773692 0.607036 0.028490
O O15 0.000000 0.500000 0.000000
O O16 0.500000 0.500000 0.500000
O O17 0.274539 0.441298 0.521603
#
# Coordination Sequence:
#
# PCOD8020907 Si02
#       8
#     2   2   2   2   2   2   2   2
#     4  11  23  41  70  97 132 169 223 263 329 389
#     4  10  22  43  65  92 139 169 217 265 327 384
#     4  11  24  41  67 102 123 177 219 265 322 395
#     4  10  24  46  64  95 136 172 208 281 327 382
#     4  11  22  38  62  97 128 166 212 272 316 377
#     4  11  26  44  68  94 133 173 217 269 326 390
#     4  10  24  41  69  91 133 172 219 264 328 388
#     4  10  23  43  67  95 128 178 212 267 326 397
#
# _framework density 22.525524999999998
#
# number of rings (size 3 to 8) (size 9 to 14) (size 15 to 20)
#    0.000    1.500    1.250    3.000    8.750    2.500 
#    2.250    0.000    0.000    0.000    0.000    0.000 
#    0.000    0.000    0.000    0.000    0.000    0.000 
#
# Total GULP energy -198346.016420 kJ/mol
# GULP energy per Si atom -12396.626026 kJ/mol
# Density = 2.247426 g / cm^3
# Si number density = 22.525525 Si / 1000 Ang^3
#
#
#
# Elastic Constant Matrix: (Units=GPa)
#
#
# Indices 1 2 3 4 5 6 
#
# 1 151.8913 31.9325 49.4750 8.3248 -8.3584 -20.5153
# 2 31.9325 50.7172 16.8250 17.8507 -3.8173 -8.3651
# 3 49.4750 16.8250 96.1208 12.8600 2.1650 -0.8958
# 4 8.3248 17.8507 12.8600 38.8305 0.4358 -4.7564
# 5 -8.3584 -3.8173 2.1650 0.4358 41.4097 3.3166
# 6 -20.5153 -8.3651 -0.8958 -4.7564 3.3166 25.5996
#
#
#
# Elastic Compliance Matrix: (Units=1/GPa)
#
#
# Indices 1 2 3 4 5 6 
#
# 1 0.009793 -0.004235 -0.004554 0.002142 0.001278 0.006537
# 2 -0.004235 0.027236 -0.001141 -0.010855 0.001570 0.003246
# 3 -0.004554 -0.001141 0.013397 -0.003412 -0.001368 -0.004010
# 4 0.002142 -0.010855 -0.003412 0.031930 -0.001056 0.004119
# 5 0.001278 0.001570 -0.001368 -0.001056 0.024788 -0.001918
# 6 0.006537 0.003246 -0.004010 0.004119 -0.001918 0.046236
#
#
# Mechanical properties :
#
#
# Convention : Reuss Voigt Hill
#
# Bulk Modulus (GPa) = 32.71396 55.02160 43.86778
# Shear Modulus (GPa) = 27.25862 34.53439 30.89651
#
# Velocity S-wave (km/s) = 3.48245 3.91976 3.70756
# Velocity P-wave (km/s) = 5.54297 6.70562 6.15183
#
# Compressibility (1/GPa) = 0.03056799
#
# Stress axis : x y z
#
# Youngs Moduli (GPa) = 102.11189 36.71636 74.64288
#
# Poissons Ratio (x) = 0.15548 0.33992
# Poissons Ratio (y) = 0.43240 0.08513
# Poissons Ratio (z) = 0.46501 0.04188
#
# Static dielectric constant tensor:
#      x y z
#    x 4.330240 -0.112610 0.116050 
#    y -0.112610 4.009830 0.128700 
#    z 0.116050 0.128700 3.983380 
# 
# 
# High freq. dielectric constant tensor:
#      x y z
#    x 1.908460 -0.010030 0.006810 
#    y -0.010030 1.879700 0.014980 
#    z 0.006810 0.014980 1.882510 
# 
# From -- ./inp_files/246068.got.cif
#   From: 2010.06.25/outbox.cif.g09.slc.cpg/sg2_124_cif.got.tgz:246068.got - 2010.06.27 13:26:56.
