data_PCOD8020970
_publ_section_title
;
Structure prediction by ZEFSAII (Michael W. Deem and Ramdas Pophale) SiO2 
 PCOD8020970
Probable space group: P -1
;
_chemical_formula_sum "Si O2"
_cell_formula_units_Z 16
_cell_length_a 9.133237
_cell_length_b 11.512914
_cell_length_c 11.031799
_cell_angle_alpha 52.570593
_cell_angle_beta 91.604310
_cell_angle_gamma 64.049858
_cell_volume 754.834842
_symmetry_space_group_name_H-M "P -1"
_symmetry_group_IT_number 2
_symmetry_cell_setting 'triclinic'
loop_
_space_group_symop_operation_xyz
x,y,z
-x,-y,-z
loop_
_atom_site_type_symbol
_atom_site_label
_atom_site_fract_x
_atom_site_fract_y
_atom_site_fract_z
Si Si1 0.021487 0.687029 0.435352
Si Si2 0.152854 0.864720 0.498054
Si Si3 0.676869 0.998696 0.766326
Si Si4 0.287347 0.336778 0.542727
Si Si5 0.282178 0.534766 0.194688
Si Si6 0.054899 0.133156 0.937383
Si Si7 0.406862 0.514596 0.863985
Si Si8 0.786528 0.618159 0.933608
O O1 0.074111 0.793521 0.448209
O O2 0.192907 0.479647 0.560939
O O3 0.858118 0.695856 0.490918
O O4 0.943922 0.780292 0.243565
O O5 0.300762 0.714368 0.684750
O O6 0.234461 0.946992 0.366204
O O7 0.000000 0.000000 0.500000
O O8 0.699891 0.824706 0.821892
O O9 0.470565 0.150007 0.696036
O O10 0.760395 0.964178 0.924211
O O11 0.334509 0.431269 0.386466
O O12 0.419210 0.595233 0.149601
O O13 0.300382 0.401939 0.175209
O O14 0.084164 0.711666 0.072838
O O15 0.000000 0.000000 0.000000
O O16 0.500000 0.500000 0.000000
O O17 0.276915 0.448123 0.912050
O O18 0.000000 0.500000 0.000000
#
# Coordination Sequence:
#
# PCOD8020970 Si02
#       8
#     2   2   2   2   2   2   2   2
#     4  10  25  45  69  96 138 185 217 291 351 398
#     4  12  26  43  70 102 139 175 230 278 345 410
#     4  12  25  43  71 107 132 181 234 286 332 407
#     4  10  24  45  68 101 131 176 239 284 338 401
#     4  10  22  43  66  90 142 180 223 278 347 406
#     4  11  23  42  68  96 134 180 231 278 337 407
#     4  10  24  43  64  97 135 184 217 268 347 410
#     4  11  23  40  67 101 141 178 222 282 346 401
#
# _framework density 21.196688999999999
#
# number of rings (size 3 to 8) (size 9 to 14) (size 15 to 20)
#    0.000    1.250    3.750    0.750    5.250    6.500 
#    0.000    0.000    0.000    0.000    0.000    0.000 
#    0.000    0.000    0.000    0.000    0.000    0.000 
#
# Total GULP energy -198283.396418 kJ/mol
# GULP energy per Si atom -12392.712276 kJ/mol
# Density = 2.114844 g / cm^3
# Si number density = 21.196689 Si / 1000 Ang^3
#
#
#
# Elastic Constant Matrix: (Units=GPa)
#
#
# Indices 1 2 3 4 5 6 
#
# 1 152.5471 61.7869 50.5984 -8.4746 -8.7997 -16.6700
# 2 61.7869 115.6842 49.1902 -16.9843 9.0767 1.7679
# 3 50.5984 49.1902 117.6170 -12.3753 8.5979 -8.5275
# 4 -8.4746 -16.9843 -12.3753 31.9956 -2.7270 -1.8879
# 5 -8.7997 9.0767 8.5979 -2.7270 43.2428 -4.4908
# 6 -16.6700 1.7679 -8.5275 -1.8879 -4.4908 41.8559
#
#
#
# Elastic Compliance Matrix: (Units=1/GPa)
#
#
# Indices 1 2 3 4 5 6 
#
# 1 0.009872 -0.004691 -0.002293 -0.000193 0.003860 0.004068
# 2 -0.004691 0.013405 -0.003146 0.004192 -0.003214 -0.003231
# 3 -0.002293 -0.003146 0.011247 0.002005 -0.001769 0.001412
# 4 -0.000193 0.004192 0.002005 0.034400 0.001040 0.001818
# 5 0.003860 -0.003214 -0.001769 0.001040 0.025427 0.004088
# 6 0.004068 -0.003231 0.001412 0.001818 0.004088 0.026457
#
#
# Mechanical properties :
#
#
# Convention : Reuss Voigt Hill
#
# Bulk Modulus (GPa) = 70.10833 78.77771 74.44302
# Shear Modulus (GPa) = 34.28827 38.37039 36.32933
#
# Velocity S-wave (km/s) = 4.02633 4.25927 4.14444
# Velocity P-wave (km/s) = 7.40014 7.83800 7.62222
#
# Compressibility (1/GPa) = 0.01426364
#
# Stress axis : x y z
#
# Youngs Moduli (GPa) = 101.29158 74.60079 88.91322
#
# Poissons Ratio (x) = 0.34999 0.20384
# Poissons Ratio (y) = 0.47521 0.27974
# Poissons Ratio (z) = 0.23221 0.23471
#
# Static dielectric constant tensor:
#      x y z
#    x 4.425670 -0.370160 -0.176540 
#    y -0.370160 3.944380 -0.111450 
#    z -0.176540 -0.111450 3.993680 
# 
# 
# High freq. dielectric constant tensor:
#      x y z
#    x 1.848730 -0.011190 -0.007000 
#    y -0.011190 1.824850 -0.002880 
#    z -0.007000 -0.002880 1.839130 
# 
# From -- ./inp_files/189051.got.cif
#   From: 2010.06.25/outbox.cif.g09.slc.cpg/sg2_95_cif.got.tgz:189051.got - 2010.06.27 13:26:56.
