data_PCOD8020289
_publ_section_title
;
Structure prediction by ZEFSAII (Michael W. Deem and Ramdas Pophale) SiO2 
 PCOD8020289
Probable space group: P -1
;
_chemical_formula_sum "Si O2"
_cell_formula_units_Z 14
_cell_length_a 22.397859
_cell_length_b 7.019239
_cell_length_c 16.506872
_cell_angle_alpha 112.745807
_cell_angle_beta 19.214905
_cell_angle_gamma 121.059272
_cell_volume 683.541684
_symmetry_space_group_name_H-M "P -1"
_symmetry_group_IT_number 2
_symmetry_cell_setting 'triclinic'
loop_
_space_group_symop_operation_xyz
x,y,z
-x,-y,-z
loop_
_atom_site_type_symbol
_atom_site_label
_atom_site_fract_x
_atom_site_fract_y
_atom_site_fract_z
Si Si1 0.569909 0.865112 0.157562
Si Si2 0.527241 0.893426 0.817481
Si Si3 0.216857 0.905272 0.917045
Si Si4 0.729518 0.594840 0.455074
Si Si5 0.121266 0.241632 0.335784
Si Si6 0.194554 0.720923 0.357817
Si Si7 0.552974 0.366482 0.478396
O O1 0.742911 0.023389 0.028621
O O2 0.351323 0.666543 0.444899
O O3 0.532334 0.047073 0.182906
O O4 0.656896 0.728103 0.968333
O O5 0.593804 0.697123 0.686998
O O6 0.716428 0.132709 0.650874
O O7 0.338924 0.803609 0.106856
O O8 0.335372 0.145047 0.751526
O O9 0.299088 0.724786 0.762601
O O10 0.971987 0.772786 0.189455
O O11 0.682225 0.557392 0.414077
O O12 0.146198 0.454722 0.397409
O O13 0.006900 0.256495 0.403121
O O14 0.000000 0.000000 0.500000
O O15 0.500000 0.500000 0.500000
#
# Coordination Sequence:
#
# PCOD8020289 Si02
#       7
#     2   2   2   2   2   2   2
#     4  11  23  39  60  90 123 163 208 249 305 360
#     4  11  22  39  57  87 121 158 206 256 299 359
#     4  10  23  41  63  92 123 157 200 248 302 370
#     4  11  23  41  62  91 128 157 201 252 302 368
#     4  11  21  40  60  84 119 167 206 255 305 354
#     4  10  23  37  58  85 118 158 212 257 300 353
#     4  10  22  42  67  92 121 157 197 248 305 366
#
# _framework density 20.481559000000001
#
# number of rings (size 3 to 8) (size 9 to 14) (size 15 to 20)
#    0.000    1.429    2.857    2.143    0.000    4.571 
#    0.000    0.000    0.000    0.000    0.000    0.000 
#    0.000    0.000    0.000    0.000    0.000    0.000 
#
# Total GULP energy -173617.342020 kJ/mol
# GULP energy per Si atom -12401.238716 kJ/mol
# Density = 2.043494 g / cm^3
# Si number density = 20.481559 Si / 1000 Ang^3
#
#
#
# Elastic Constant Matrix: (Units=GPa)
#
#
# Indices 1 2 3 4 5 6 
#
# 1 101.9921 45.3339 17.9407 -14.1184 -2.8036 -2.7197
# 2 45.3339 99.6056 15.1967 -13.1928 2.0237 -0.4435
# 3 17.9407 15.1967 60.7235 -5.9614 -11.6071 -6.6496
# 4 -14.1184 -13.1928 -5.9614 31.5895 4.9106 1.4521
# 5 -2.8036 2.0237 -11.6071 4.9106 31.3034 -5.7115
# 6 -2.7197 -0.4435 -6.6496 1.4521 -5.7115 34.1175
#
#
#
# Elastic Compliance Matrix: (Units=1/GPa)
#
#
# Indices 1 2 3 4 5 6 
#
# 1 0.012921 -0.005144 -0.002112 0.003160 0.000296 0.000466
# 2 -0.005144 0.013199 -0.002145 0.003312 -0.002862 -0.001277
# 3 -0.002112 -0.002145 0.019770 0.000397 0.008130 0.005001
# 4 0.003160 0.003312 0.000397 0.035515 -0.005738 -0.002100
# 5 0.000296 -0.002862 0.008130 -0.005738 0.037550 0.008101
# 6 0.000466 -0.001277 0.005001 -0.002100 0.008101 0.031751
#
#
# Mechanical properties :
#
#
# Convention : Reuss Voigt Hill
#
# Bulk Modulus (GPa) = 36.91780 46.58487 41.75134
# Shear Modulus (GPa) = 28.00539 31.65874 29.83207
#
# Velocity S-wave (km/s) = 3.70178 3.93583 3.82060
# Velocity P-wave (km/s) = 6.02784 6.59155 6.31599
#
# Compressibility (1/GPa) = 0.02708720
#
# Stress axis : x y z
#
# Youngs Moduli (GPa) = 77.39607 75.76271 50.58245
#
# Poissons Ratio (x) = 0.38970 0.10684
# Poissons Ratio (y) = 0.39810 0.10851
# Poissons Ratio (z) = 0.16348 0.16253
#
# Static dielectric constant tensor:
#      x y z
#    x 3.744200 0.162640 -0.035140 
#    y 0.162640 3.877690 0.008630 
#    z -0.035140 0.008630 3.724730 
# 
# 
# High freq. dielectric constant tensor:
#      x y z
#    x 1.799290 0.005360 -0.002870 
#    y 0.005360 1.816210 -0.001610 
#    z -0.002870 -0.001610 1.797240 
# 
# From -- ./inp_files/578738.got.cif
#   From: 2010.06.25/outbox.cif.g09.slc.cpg/sg2_290_cif.got.tgz:578738.got - 2010.06.27 13:26:56.
