data_PCOD8020040
_publ_section_title
;
Structure prediction by ZEFSAII (Michael W. Deem and Ramdas Pophale) SiO2 
 PCOD8020040
Probable space group: P -1
;
_chemical_formula_sum "Si O2"
_cell_formula_units_Z 16
_cell_length_a 11.608635
_cell_length_b 11.348569
_cell_length_c 5.531668
_cell_angle_alpha 63.239569
_cell_angle_beta 89.038426
_cell_angle_gamma 76.903941
_cell_volume 630.723120
_symmetry_space_group_name_H-M "P -1"
_symmetry_group_IT_number 2
_symmetry_cell_setting 'triclinic'
loop_
_space_group_symop_operation_xyz
x,y,z
-x,-y,-z
loop_
_atom_site_type_symbol
_atom_site_label
_atom_site_fract_x
_atom_site_fract_y
_atom_site_fract_z
Si Si1 0.636915 0.996938 0.039261
Si Si2 0.303752 0.147357 0.317885
Si Si3 0.500692 0.706448 0.765576
Si Si4 0.039912 0.840428 0.200668
Si Si5 0.296582 0.765172 0.384492
Si Si6 0.918014 0.661794 0.651180
Si Si7 0.123360 0.609163 0.047886
Si Si8 0.374748 0.547827 0.221994
O O1 0.686123 0.928359 0.353962
O O2 0.711077 0.932618 0.853588
O O3 0.500000 0.000000 0.000000
O O4 0.662497 0.146437 0.914614
O O5 0.427563 0.189764 0.234016
O O6 0.187734 0.273880 0.216821
O O7 0.371821 0.786990 0.596605
O O8 0.576183 0.616123 0.626541
O O9 0.484008 0.607371 0.073618
O O10 0.155221 0.813649 0.399920
O O11 0.080270 0.755812 0.035964
O O12 0.930735 0.782582 0.358013
O O13 0.000000 0.000000 0.000000
O O14 0.330586 0.608026 0.432302
O O15 0.889679 0.523907 0.667024
O O16 0.048331 0.609613 0.810251
O O17 0.262905 0.587667 0.002082
#
# Coordination Sequence:
#
# PCOD8020040 Si02
#       8
#     2   2   2   2   2   2   2   2
#     4  12  26  47  71 106 146 192 237 292 361 440
#     4  12  27  45  74 106 144 189 242 294 363 430
#     4  11  22  41  67 100 137 180 233 297 359 428
#     4  11  25  45  66 101 139 190 239 305 363 438
#     4  11  24  41  68  96 139 183 237 292 363 427
#     4  11  24  45  70 100 138 189 241 308 350 442
#     4  10  23  45  70 100 137 185 250 295 370 424
#     4  10  22  42  65 100 135 180 236 298 358 431
#
# _framework density 25.367706999999999
#
# number of rings (size 3 to 8) (size 9 to 14) (size 15 to 20)
#    0.000    1.000    2.500    3.375    5.250    0.500 
#    0.000    0.000    0.000    0.000    0.000    0.000 
#    0.000    0.000    0.000    0.000    0.000    0.000 
#
# Total GULP energy -198267.693331 kJ/mol
# GULP energy per Si atom -12391.730833 kJ/mol
# Density = 2.530997 g / cm^3
# Si number density = 25.367707 Si / 1000 Ang^3
#
#
#
# Elastic Constant Matrix: (Units=GPa)
#
#
# Indices 1 2 3 4 5 6 
#
# 1 102.4813 16.2745 4.6144 0.0600 2.9168 0.6529
# 2 16.2745 133.5873 28.6834 -14.9799 -5.0287 -2.0014
# 3 4.6144 28.6834 67.5295 -0.9109 -3.1263 0.6456
# 4 0.0600 -14.9799 -0.9109 36.1975 8.9517 -2.8925
# 5 2.9168 -5.0287 -3.1263 8.9517 41.8172 -6.5770
# 6 0.6529 -2.0014 0.6456 -2.8925 -6.5770 35.1808
#
#
#
# Elastic Compliance Matrix: (Units=1/GPa)
#
#
# Indices 1 2 3 4 5 6 
#
# 1 0.009993 -0.001257 -0.000189 -0.000366 -0.000854 -0.000443
# 2 -0.001257 0.008841 -0.003618 0.003580 0.000261 0.000936
# 3 -0.000189 -0.003618 0.016391 -0.001373 0.001031 -0.000423
# 4 -0.000366 0.003580 -0.001373 0.030678 -0.005955 0.001645
# 5 -0.000854 0.000261 0.001031 -0.005955 0.026047 0.004392
# 6 -0.000443 0.000936 -0.000423 0.001645 0.004392 0.029450
#
#
# Mechanical properties :
#
#
# Convention : Reuss Voigt Hill
#
# Bulk Modulus (GPa) = 39.84411 44.74920 42.29665
# Shear Modulus (GPa) = 35.74128 39.57415 37.65772
#
# Velocity S-wave (km/s) = 3.75764 3.95399 3.85707
# Velocity P-wave (km/s) = 5.87939 6.20677 6.04529
#
# Compressibility (1/GPa) = 0.02509781
#
# Stress axis : x y z
#
# Youngs Moduli (GPa) = 100.06713 113.11006 61.00810
#
# Poissons Ratio (x) = 0.14213 0.01155
# Poissons Ratio (y) = 0.12574 0.22072
# Poissons Ratio (z) = 0.01895 0.40922
#
# Static dielectric constant tensor:
#      x y z
#    x 4.940260 0.119760 -0.068180 
#    y 0.119760 4.649860 -0.321190 
#    z -0.068180 -0.321190 4.163680 
# 
# 
# High freq. dielectric constant tensor:
#      x y z
#    x 2.031650 0.003430 -0.000030 
#    y 0.003430 2.018880 -0.016980 
#    z -0.000030 -0.016980 1.979920 
# 
# From -- ./inp_files/67031.got.cif
#   From: 2010.06.25/outbox.cif.g09.slc.cpg/sg2_34_cif.got.tgz:67031.got - 2010.06.27 13:26:56.
