data_PCOD8020824
_publ_section_title
;
Structure prediction by ZEFSAII (Michael W. Deem and Ramdas Pophale) SiO2 
 PCOD8020824
Probable space group: P -1
;
_chemical_formula_sum "Si O2"
_cell_formula_units_Z 12
_cell_length_a 11.851100
_cell_length_b 12.167113
_cell_length_c 11.225872
_cell_angle_alpha 60.274236
_cell_angle_beta 155.498129
_cell_angle_gamma 125.294409
_cell_volume 545.779173
_symmetry_space_group_name_H-M "P -1"
_symmetry_group_IT_number 2
_symmetry_cell_setting 'triclinic'
loop_
_space_group_symop_operation_xyz
x,y,z
-x,-y,-z
loop_
_atom_site_type_symbol
_atom_site_label
_atom_site_fract_x
_atom_site_fract_y
_atom_site_fract_z
Si Si1 0.510486 0.324293 0.807895
Si Si2 0.073272 0.749446 0.589868
Si Si3 0.906395 0.771386 0.172362
Si Si4 0.336677 0.757912 0.250416
Si Si5 0.480358 0.934010 0.716184
Si Si6 0.274793 0.368581 0.171120
O O1 0.182029 0.238025 0.578466
O O2 0.572242 0.248599 0.794019
O O3 0.525446 0.475026 0.709527
O O4 0.754955 0.336899 0.135880
O O5 0.924124 0.683783 0.355103
O O6 0.312605 0.896077 0.704512
O O7 0.230576 0.882905 0.400650
O O8 0.696162 0.853398 0.951108
O O9 0.806977 0.668427 0.024241
O O10 0.550487 0.722272 0.564459
O O11 0.345044 0.907661 0.207885
O O12 0.010111 0.655807 0.009897
#
# Coordination Sequence:
#
# PCOD8020824 Si02
#       6
#     2   2   2   2   2   2
#     4  12  24  43  66  91 130 166 208 258 304 378
#     4  10  22  43  64  97 122 162 210 260 318 358
#     4  10  22  43  63  99 123 159 210 260 318 363
#     4  12  26  42  65  93 128 170 207 254 309 374
#     4  10  22  43  63  99 123 159 210 260 318 363
#     4  12  26  42  65  93 128 170 207 254 309 374
#
# _framework density 21.986915
#
# number of rings (size 3 to 8) (size 9 to 14) (size 15 to 20)
#    1.000    0.000    1.667    5.000    0.000    6.667 
#    0.000    0.000    0.000    0.000    0.000    0.000 
#    0.000    0.000    0.000    0.000    0.000    0.000 
#
# Total GULP energy -148746.151893 kJ/mol
# GULP energy per Si atom -12395.512658 kJ/mol
# Density = 2.193687 g / cm^3
# Si number density = 21.986915 Si / 1000 Ang^3
#
#
#
# Elastic Constant Matrix: (Units=GPa)
#
#
# Indices 1 2 3 4 5 6 
#
# 1 118.3569 -15.4529 66.0564 -7.0784 -25.9854 -7.8258
# 2 -15.4529 59.9356 -4.2560 -6.1498 4.5444 -0.6959
# 3 66.0564 -4.2560 163.8205 -7.4381 -8.1537 -0.1335
# 4 -7.0784 -6.1498 -7.4381 24.3158 -2.7070 -0.6849
# 5 -25.9854 4.5444 -8.1537 -2.7070 42.0303 4.8654
# 6 -7.8258 -0.6959 -0.1335 -0.6849 4.8654 24.0571
#
#
#
# Elastic Compliance Matrix: (Units=1/GPa)
#
#
# Indices 1 2 3 4 5 6 
#
# 1 0.013547 0.003076 -0.004845 0.004108 0.007001 0.003170
# 2 0.003076 0.018007 -0.000529 0.005335 0.000003 0.001670
# 3 -0.004845 -0.000529 0.008018 0.000740 -0.001186 -0.001286
# 4 0.004108 0.005335 0.000740 0.044478 0.004763 0.001798
# 5 0.007001 0.000003 -0.001186 0.004763 0.028588 -0.003375
# 6 0.003170 0.001670 -0.001286 0.001798 -0.003375 0.043374
#
#
# Mechanical properties :
#
#
# Convention : Reuss Voigt Hill
#
# Bulk Modulus (GPa) = 28.59091 48.31201 38.45146
# Shear Modulus (GPa) = 29.02507 37.79835 33.41171
#
# Velocity S-wave (km/s) = 3.63727 4.15074 3.90246
# Velocity P-wave (km/s) = 5.53818 6.70763 6.15076
#
# Compressibility (1/GPa) = 0.03497615
#
# Stress axis : x y z
#
# Youngs Moduli (GPa) = 73.81712 55.53461 124.72500
#
# Poissons Ratio (x) = -0.17084 0.60429
# Poissons Ratio (y) = -0.22708 0.06596
# Poissons Ratio (z) = 0.35764 0.02937
#
# Static dielectric constant tensor:
#      x y z
#    x 4.119790 0.187700 0.058610 
#    y 0.187700 3.534590 0.036290 
#    z 0.058610 0.036290 4.255820 
# 
# 
# High freq. dielectric constant tensor:
#      x y z
#    x 1.871660 0.012910 0.004520 
#    y 0.012910 1.833340 -0.002140 
#    z 0.004520 -0.002140 1.888280 
# 
# From -- ./inp_files/65736.got.cif
#   From: 2010.06.25/outbox.cif.g09.slc.cpg/sg2_33_cif.got.tgz:65736.got - 2010.06.27 13:26:56.
