data_PCOD8020419
_publ_section_title
;
Structure prediction by ZEFSAII (Michael W. Deem and Ramdas Pophale) SiO2 
 PCOD8020419
Probable space group: P -1
;
_chemical_formula_sum "Si O2"
_cell_formula_units_Z 14
_cell_length_a 12.307066
_cell_length_b 9.356992
_cell_length_c 18.155493
_cell_angle_alpha 132.404516
_cell_angle_beta 149.656888
_cell_angle_gamma 36.902175
_cell_volume 633.334023
_symmetry_space_group_name_H-M "P -1"
_symmetry_group_IT_number 2
_symmetry_cell_setting 'triclinic'
loop_
_space_group_symop_operation_xyz
x,y,z
-x,-y,-z
loop_
_atom_site_type_symbol
_atom_site_label
_atom_site_fract_x
_atom_site_fract_y
_atom_site_fract_z
Si Si1 0.964179 0.963491 0.289553
Si Si2 0.308226 0.378638 0.717755
Si Si3 0.381095 0.745272 0.946254
Si Si4 0.461294 0.373654 0.501497
Si Si5 0.184110 0.043566 0.077549
Si Si6 0.791428 0.405228 0.421844
Si Si7 0.022742 0.484460 0.813051
O O1 0.976266 0.731959 0.231813
O O2 0.259389 0.884177 0.411786
O O3 0.738586 0.113839 0.150264
O O4 0.889205 0.132742 0.375135
O O5 0.346398 0.530368 0.853682
O O6 0.348828 0.445563 0.683020
O O7 0.026880 0.430404 0.584864
O O8 0.530067 0.100103 0.765293
O O9 0.692414 0.625725 0.093829
O O10 0.212623 0.946737 0.978699
O O11 0.500000 0.500000 0.500000
O O12 0.404750 0.504289 0.592286
O O13 0.210159 0.368633 0.333545
O O14 0.049866 0.327181 0.098184
O O15 0.000000 0.000000 0.000000
#
# Coordination Sequence:
#
# PCOD8020419 Si02
#       7
#     2   2   2   2   2   2   2
#     4  10  24  43  66  97 124 169 216 261 324 374
#     4  10  22  43  64  98 128 172 212 259 329 378
#     4  11  24  42  66  94 129 167 212 265 317 381
#     4  10  23  40  65  95 128 168 215 262 319 380
#     4  12  25  38  62  93 129 167 209 258 318 378
#     4  10  22  42  68  92 133 166 212 270 317 386
#     4  11  24  42  64  95 128 166 214 261 321 381
#
# _framework density 22.105239999999998
#
# number of rings (size 3 to 8) (size 9 to 14) (size 15 to 20)
#    0.000    1.429    1.429    2.571    4.000    5.143 
#    0.000    2.857    0.000    0.000    0.000    0.000 
#    0.000    0.000    0.000    0.000    0.000    0.000 
#
# Total GULP energy -173533.800127 kJ/mol
# GULP energy per Si atom -12395.271438 kJ/mol
# Density = 2.205493 g / cm^3
# Si number density = 22.105240 Si / 1000 Ang^3
#
#
#
# Elastic Constant Matrix: (Units=GPa)
#
#
# Indices 1 2 3 4 5 6 
#
# 1 115.8753 34.3902 28.4528 11.9606 -7.8014 -31.8736
# 2 34.3902 107.5537 22.4811 20.0116 1.1226 -16.0643
# 3 28.4528 22.4811 108.9244 1.3256 7.9025 -12.0656
# 4 11.9606 20.0116 1.3256 37.5422 -5.3363 -3.2342
# 5 -7.8014 1.1226 7.9025 -5.3363 18.4681 8.5814
# 6 -31.8736 -16.0643 -12.0656 -3.2342 8.5814 41.3069
#
#
#
# Elastic Compliance Matrix: (Units=1/GPa)
#
#
# Indices 1 2 3 4 5 6 
#
# 1 0.012088 -0.002035 -0.002062 -0.001749 0.002196 0.007340
# 2 -0.002035 0.011806 -0.001185 -0.005937 -0.004220 0.003087
# 3 -0.002062 -0.001185 0.010698 0.000204 -0.006446 0.002428
# 4 -0.001749 -0.005937 0.000204 0.031514 0.010146 -0.003239
# 5 0.002196 -0.004220 -0.006446 0.010146 0.068074 -0.015177
# 6 0.007340 0.003087 0.002428 -0.003239 -0.015177 0.034682
#
#
# Mechanical properties :
#
#
# Convention : Reuss Voigt Hill
#
# Bulk Modulus (GPa) = 41.61981 55.88905 48.75443
# Shear Modulus (GPa) = 26.67586 35.93206 31.30396
#
# Velocity S-wave (km/s) = 3.47762 4.03612 3.76724
# Velocity P-wave (km/s) = 5.91558 6.85991 6.40517
#
# Compressibility (1/GPa) = 0.02402702
#
# Stress axis : x y z
#
# Youngs Moduli (GPa) = 82.72758 84.70485 93.47490
#
# Poissons Ratio (x) = 0.17239 0.19279
# Poissons Ratio (y) = 0.16836 0.11073
# Poissons Ratio (z) = 0.17063 0.10035
#
# Static dielectric constant tensor:
#      x y z
#    x 3.778500 -0.292690 0.045030 
#    y -0.292690 4.441390 -0.279310 
#    z 0.045030 -0.279310 4.599830 
# 
# 
# High freq. dielectric constant tensor:
#      x y z
#    x 1.856490 -0.015780 -0.001880 
#    y -0.015780 1.875040 -0.005490 
#    z -0.001880 -0.005490 1.888310 
# 
# From -- ./inp_files/77264.got.cif
#   From: 2010.06.25/outbox.cif.g09.slc.cpg/sg2_39_cif.got.tgz:77264.got - 2010.06.27 13:26:56.
