data_PCOD8020261
_publ_section_title
;
Structure prediction by ZEFSAII (Michael W. Deem and Ramdas Pophale) SiO2 
 PCOD8020261
Probable space group: P -1
;
_chemical_formula_sum "Si O2"
_cell_formula_units_Z 14
_cell_length_a 11.700550
_cell_length_b 6.484763
_cell_length_c 10.994368
_cell_angle_alpha 71.160270
_cell_angle_beta 131.516257
_cell_angle_gamma 100.556685
_cell_volume 590.598980
_symmetry_space_group_name_H-M "P -1"
_symmetry_group_IT_number 2
_symmetry_cell_setting 'triclinic'
loop_
_space_group_symop_operation_xyz
x,y,z
-x,-y,-z
loop_
_atom_site_type_symbol
_atom_site_label
_atom_site_fract_x
_atom_site_fract_y
_atom_site_fract_z
Si Si1 0.312628 0.815585 0.385040
Si Si2 0.966378 0.450321 0.787882
Si Si3 0.842599 0.724820 0.845194
Si Si4 0.154111 0.466999 0.690771
Si Si5 0.631877 0.333369 0.806133
Si Si6 0.628942 0.908156 0.018348
Si Si7 0.434321 0.659553 0.737221
O O1 0.403799 0.710319 0.353684
O O2 0.418394 0.823562 0.578545
O O3 0.172483 0.666259 0.354395
O O4 0.261470 0.059061 0.267334
O O5 0.103669 0.510724 0.785336
O O6 0.907360 0.677729 0.764720
O O7 0.019538 0.269721 0.961600
O O8 0.752671 0.518098 0.867549
O O9 0.275735 0.640796 0.701772
O O10 0.000000 0.500000 0.500000
O O11 0.233890 0.222225 0.788141
O O12 0.482129 0.421772 0.758570
O O13 0.697960 0.110056 0.956551
O O14 0.558521 0.742895 0.902587
O O15 0.500000 0.000000 0.000000
#
# Coordination Sequence:
#
# PCOD8020261 Si02
#       7
#     2   2   2   2   2   2   2
#     4  11  23  43  70 108 140 187 240 295 357 422
#     4  10  22  42  67 101 146 187 234 291 364 423
#     4  10  23  42  71 101 144 185 237 300 353 419
#     4  12  25  48  74 105 146 187 235 300 356 428
#     4  11  24  45  74 104 139 189 241 294 350 425
#     4  12  28  48  76 103 143 192 244 287 362 428
#     4  12  26  46  72 106 147 189 237 297 357 424
#
# _framework density 23.704750000000001
#
# number of rings (size 3 to 8) (size 9 to 14) (size 15 to 20)
#    0.000    0.857    2.857    3.857    2.000    8.000 
#    0.000    1.429    0.000    0.000    0.000    0.000 
#    0.000    0.000    0.000    0.000    0.000    0.000 
#
# Total GULP energy -173570.535221 kJ/mol
# GULP energy per Si atom -12397.895373 kJ/mol
# Density = 2.365080 g / cm^3
# Si number density = 23.704750 Si / 1000 Ang^3
#
#
#
# Elastic Constant Matrix: (Units=GPa)
#
#
# Indices 1 2 3 4 5 6 
#
# 1 143.8532 44.7356 23.8701 0.5171 -3.2627 -26.2877
# 2 44.7356 92.6798 44.9881 -10.3473 -3.0112 -19.2904
# 3 23.8701 44.9881 126.9411 -11.5661 6.5034 -17.6425
# 4 0.5171 -10.3473 -11.5661 26.6812 -1.7072 0.7012
# 5 -3.2627 -3.0112 6.5034 -1.7072 35.0940 -0.6016
# 6 -26.2877 -19.2904 -17.6425 0.7012 -0.6016 30.7867
#
#
#
# Elastic Compliance Matrix: (Units=1/GPa)
#
#
# Indices 1 2 3 4 5 6 
#
# 1 0.009049 -0.003395 0.000127 -0.001552 0.000549 0.005718
# 2 -0.003395 0.015949 -0.004057 0.004503 0.002104 0.004708
# 3 0.000127 -0.004057 0.010081 0.002580 -0.002023 0.003245
# 4 -0.001552 0.004503 0.002580 0.040432 0.001767 0.002088
# 5 0.000549 0.002104 -0.002023 0.001767 0.029207 0.001158
# 6 0.005718 0.004708 0.003245 0.002088 0.001158 0.042149
#
#
# Mechanical properties :
#
#
# Convention : Reuss Voigt Hill
#
# Bulk Modulus (GPa) = 48.94939 65.62907 57.28923
# Shear Modulus (GPa) = 29.70387 35.17108 32.43747
#
# Velocity S-wave (km/s) = 3.54372 3.85608 3.70320
# Velocity P-wave (km/s) = 6.11869 6.89724 6.51960
#
# Compressibility (1/GPa) = 0.02042926
#
# Stress axis : x y z
#
# Youngs Moduli (GPa) = 110.50702 62.70019 99.19266
#
# Poissons Ratio (x) = 0.21285 -0.01256
# Poissons Ratio (y) = 0.37513 0.40244
# Poissons Ratio (z) = -0.01400 0.25438
#
# Static dielectric constant tensor:
#      x y z
#    x 4.701820 -0.244420 -0.094920 
#    y -0.244420 4.136070 -0.073000 
#    z -0.094920 -0.073000 4.295760 
# 
# 
# High freq. dielectric constant tensor:
#      x y z
#    x 1.959790 -0.007300 -0.006180 
#    y -0.007300 1.921650 -0.003790 
#    z -0.006180 -0.003790 1.938980 
# 
# From -- ./inp_files/363628.got.cif
#   From: 2010.06.25/outbox.cif.g09.slc.cpg/sg2_182_cif.got.tgz:363628.got - 2010.06.27 13:26:56.
