data_PCOD8020088
_publ_section_title
;
Structure prediction by ZEFSAII (Michael W. Deem and Ramdas Pophale) SiO2 
 PCOD8020088
Probable space group: P -1
;
_chemical_formula_sum "Si O2"
_cell_formula_units_Z 16
_cell_length_a 9.064844
_cell_length_b 19.126430
_cell_length_c 10.863172
_cell_angle_alpha 23.521216
_cell_angle_beta 72.126778
_cell_angle_gamma 72.897593
_cell_volume 714.983318
_symmetry_space_group_name_H-M "P -1"
_symmetry_group_IT_number 2
_symmetry_cell_setting 'triclinic'
loop_
_space_group_symop_operation_xyz
x,y,z
-x,-y,-z
loop_
_atom_site_type_symbol
_atom_site_label
_atom_site_fract_x
_atom_site_fract_y
_atom_site_fract_z
Si Si1 0.113979 0.724969 0.911343
Si Si2 0.497795 0.759567 0.144091
Si Si3 0.376734 0.581901 0.224187
Si Si4 0.181345 0.104353 0.216885
Si Si5 0.747847 0.950343 0.211040
Si Si6 0.137976 0.621342 0.796219
Si Si7 0.067406 0.007366 0.137696
Si Si8 0.414737 0.391021 0.094374
O O1 0.160946 0.642163 0.902832
O O2 0.926093 0.736969 0.953419
O O3 0.167865 0.925552 0.585590
O O4 0.196377 0.607711 0.187313
O O5 0.397984 0.672451 0.203683
O O6 0.569107 0.621807 0.447761
O O7 0.640344 0.850326 0.894906
O O8 0.387970 0.901658 0.013085
O O9 0.473023 0.670310 0.946545
O O10 0.120823 0.085687 0.124424
O O11 0.668141 0.778169 0.558917
O O12 0.837682 0.896907 0.148297
O O13 0.879982 0.025602 0.146419
O O14 0.113679 0.803594 0.439833
O O15 0.287744 0.526076 0.851968
O O16 0.000000 0.500000 0.000000
O O17 0.500000 0.500000 0.000000
#
# Coordination Sequence:
#
# PCOD8020088 Si02
#       8
#     2   2   2   2   2   2   2   2
#     4  10  22  42  65  93 130 170 220 265 319 396
#     4  11  26  43  66  96 129 175 215 275 329 382
#     4  11  25  45  63  94 135 169 221 268 327 394
#     4  10  23  40  66  97 124 172 218 270 324 385
#     4  11  24  44  67  96 130 176 215 273 326 388
#     4  11  22  41  64  98 134 173 216 265 323 392
#     4  10  23  42  66  94 134 171 218 265 328 391
#     4  12  25  41  69 100 130 175 219 269 328 387
#
# _framework density 22.378143999999999
#
# number of rings (size 3 to 8) (size 9 to 14) (size 15 to 20)
#    0.000    1.250    2.500    2.250    5.250    4.000 
#    0.000    0.000    0.000    0.000    0.000    0.000 
#    0.000    0.000    0.000    0.000    0.000    0.000 
#
# Total GULP energy -198395.976629 kJ/mol
# GULP energy per Si atom -12399.748539 kJ/mol
# Density = 2.232721 g / cm^3
# Si number density = 22.378144 Si / 1000 Ang^3
#
#
#
# Elastic Constant Matrix: (Units=GPa)
#
#
# Indices 1 2 3 4 5 6 
#
# 1 98.1376 3.7960 25.0182 -7.1040 19.3214 -21.6897
# 2 3.7960 53.7026 13.4405 0.0955 6.0474 -11.4522
# 3 25.0182 13.4405 90.9543 1.8082 10.9798 -11.5802
# 4 -7.1040 0.0955 1.8082 28.1787 -5.4192 6.9965
# 5 19.3214 6.0474 10.9798 -5.4192 41.8633 2.6142
# 6 -21.6897 -11.4522 -11.5802 6.9965 2.6142 38.6811
#
#
#
# Elastic Compliance Matrix: (Units=1/GPa)
#
#
# Indices 1 2 3 4 5 6 
#
# 1 0.013773 0.002041 -0.002292 0.000372 -0.006503 0.008013
# 2 0.002041 0.021068 -0.002196 -0.002042 -0.004134 0.007373
# 3 -0.002292 -0.002196 0.012598 -0.002446 -0.002398 0.002441
# 4 0.000372 -0.002042 -0.002446 0.039113 0.006367 -0.008633
# 5 -0.006503 -0.004134 -0.002398 0.006367 0.029484 -0.008732
# 6 0.008013 0.007373 0.002441 -0.008633 -0.008732 0.035411
#
#
# Mechanical properties :
#
#
# Convention : Reuss Voigt Hill
#
# Bulk Modulus (GPa) = 23.50511 36.36708 29.93609
# Shear Modulus (GPa) = 29.32116 35.11396 32.21756
#
# Velocity S-wave (km/s) = 3.62368 3.96551 3.79844
# Velocity P-wave (km/s) = 5.29476 6.10356 5.71349
#
# Compressibility (1/GPa) = 0.04254394
#
# Stress axis : x y z
#
# Youngs Moduli (GPa) = 72.60344 47.46559 79.37486
#
# Poissons Ratio (x) = -0.09686 0.18195
# Poissons Ratio (y) = -0.14815 0.17432
# Poissons Ratio (z) = 0.16643 0.10424
#
# Static dielectric constant tensor:
#      x y z
#    x 4.113740 -0.164380 0.096260 
#    y -0.164380 3.808370 -0.018840 
#    z 0.096260 -0.018840 3.974690 
# 
# 
# High freq. dielectric constant tensor:
#      x y z
#    x 1.895350 -0.011980 0.011710 
#    y -0.011980 1.877110 -0.000790 
#    z 0.011710 -0.000790 1.876480 
# 
# From -- ./inp_files/209384.got.cif
#   From: 2010.06.25/outbox.cif.g09.slc.cpg/sg2_105_cif.got.tgz:209384.got - 2010.06.27 13:26:56.
