data_PCOD8020848
_publ_section_title
;
Structure prediction by ZEFSAII (Michael W. Deem and Ramdas Pophale) SiO2 
 PCOD8020848
Probable space group: P -1
;
_chemical_formula_sum "Si O2"
_cell_formula_units_Z 14
_cell_length_a 17.010850
_cell_length_b 17.032874
_cell_length_c 6.571057
_cell_angle_alpha 62.153954
_cell_angle_beta 44.463598
_cell_angle_gamma 33.190156
_cell_volume 686.695485
_symmetry_space_group_name_H-M "P -1"
_symmetry_group_IT_number 2
_symmetry_cell_setting 'triclinic'
loop_
_space_group_symop_operation_xyz
x,y,z
-x,-y,-z
loop_
_atom_site_type_symbol
_atom_site_label
_atom_site_fract_x
_atom_site_fract_y
_atom_site_fract_z
Si Si1 0.701236 0.322613 0.361797
Si Si2 0.870470 0.157061 0.648857
Si Si3 0.715567 0.828333 0.783279
Si Si4 0.249966 0.368803 0.777226
Si Si5 0.892950 0.614716 0.371128
Si Si6 0.055179 0.143810 0.665398
Si Si7 0.655515 0.189505 0.336466
O O1 0.500000 0.500000 0.500000
O O2 0.759241 0.287341 0.532285
O O3 0.684625 0.230599 0.433595
O O4 0.860785 0.273819 0.999024
O O5 0.010760 0.131372 0.543875
O O6 0.710641 0.213902 0.014294
O O7 0.000000 0.000000 0.500000
O O8 0.751270 0.777523 0.541255
O O9 0.864627 0.810381 0.579211
O O10 0.752177 0.726544 0.998721
O O11 0.500000 0.000000 0.000000
O O12 0.236608 0.366194 0.558754
O O13 0.435448 0.303880 0.578512
O O14 0.062558 0.543575 0.995933
O O15 0.000000 0.500000 0.500000
O O16 0.211517 0.982881 0.688775
#
# Coordination Sequence:
#
# PCOD8020848 Si02
#       7
#     2   2   2   2   2   2   2
#     4  11  25  44  64  96 127 166 217 271 323 375
#     4  11  21  42  68  89 125 173 209 264 328 375
#     4  11  23  40  64  97 132 164 209 263 320 384
#     4  10  22  43  64  93 127 172 216 258 324 383
#     4   9  22  43  60  85 130 171 213 263 312 376
#     4  11  23  41  64  96 129 164 215 261 319 393
#     4  11  22  40  68  94 123 165 218 260 321 394
#
# _framework density 20.387492999999999
#
# number of rings (size 3 to 8) (size 9 to 14) (size 15 to 20)
#    0.000    1.429    4.286    0.857    2.000    7.429 
#   10.286    0.000    0.000    0.000    0.000    0.000 
#    0.000    0.000    0.000    0.000    0.000    0.000 
#
# Total GULP energy -173574.516345 kJ/mol
# GULP energy per Si atom -12398.179739 kJ/mol
# Density = 2.034109 g / cm^3
# Si number density = 20.387493 Si / 1000 Ang^3
#
#
#
# Elastic Constant Matrix: (Units=GPa)
#
#
# Indices 1 2 3 4 5 6 
#
# 1 126.9067 16.9360 75.9054 -1.4809 0.5100 -5.6938
# 2 16.9360 71.0138 36.7144 19.2108 7.3297 -4.6462
# 3 75.9054 36.7144 101.1231 15.6432 -5.5999 6.0738
# 4 -1.4809 19.2108 15.6432 42.8097 0.4767 -0.0507
# 5 0.5100 7.3297 -5.5999 0.4767 49.2028 -1.4180
# 6 -5.6938 -4.6462 6.0738 -0.0507 -1.4180 35.5627
#
#
#
# Elastic Compliance Matrix: (Units=1/GPa)
#
#
# Indices 1 2 3 4 5 6 
#
# 1 0.016576 0.002967 -0.014686 0.004639 -0.002173 0.005470
# 2 0.002967 0.020378 -0.009248 -0.005613 -0.003933 0.004552
# 3 -0.014686 -0.009248 0.025887 -0.005875 0.004308 -0.007817
# 4 0.004639 -0.005613 -0.005875 0.028188 -0.000123 0.001048
# 5 -0.002173 -0.003933 0.004308 -0.000123 0.021403 -0.000744
# 6 0.005470 0.004552 -0.007817 0.001048 -0.000744 0.030897
#
#
# Mechanical properties :
#
#
# Convention : Reuss Voigt Hill
#
# Bulk Modulus (GPa) = 47.83312 62.01724 54.92518
# Shear Modulus (GPa) = 26.01013 36.81422 31.41218
#
# Velocity S-wave (km/s) = 3.57569 4.25399 3.92951
# Velocity P-wave (km/s) = 6.36870 7.39012 6.89834
#
# Compressibility (1/GPa) = 0.02090601
#
# Stress axis : x y z
#
# Youngs Moduli (GPa) = 60.32741 49.07261 38.62910
#
# Poissons Ratio (x) = -0.14558 0.56731
# Poissons Ratio (y) = -0.17897 0.35725
# Poissons Ratio (z) = 0.88597 0.45383
#
# Static dielectric constant tensor:
#      x y z
#    x 3.829420 0.092590 -0.001040 
#    y 0.092590 3.828370 0.344900 
#    z -0.001040 0.344900 3.578730 
# 
# 
# High freq. dielectric constant tensor:
#      x y z
#    x 1.806640 -0.008020 0.006710 
#    y -0.008020 1.790930 0.015760 
#    z 0.006710 0.015760 1.800970 
# 
# From -- ./inp_files/27619.got.cif
#   From: 2010.06.25/outbox.cif.g09.slc.cpg/sg2_14_cif.got.tgz:27619.got - 2010.06.27 13:26:56.
