data_PCOD8020316
_publ_section_title
;
Structure prediction by ZEFSAII (Michael W. Deem and Ramdas Pophale) SiO2 
 PCOD8020316
Probable space group: P -1
;
_chemical_formula_sum "Si O2"
_cell_formula_units_Z 16
_cell_length_a 8.680396
_cell_length_b 13.100345
_cell_length_c 9.314948
_cell_angle_alpha 102.873257
_cell_angle_beta 89.545511
_cell_angle_gamma 45.022240
_cell_volume 709.142356
_symmetry_space_group_name_H-M "P -1"
_symmetry_group_IT_number 2
_symmetry_cell_setting 'triclinic'
loop_
_space_group_symop_operation_xyz
x,y,z
-x,-y,-z
loop_
_atom_site_type_symbol
_atom_site_label
_atom_site_fract_x
_atom_site_fract_y
_atom_site_fract_z
Si Si1 0.953964 0.783844 0.714179
Si Si2 0.026995 0.455661 0.327465
Si Si3 0.704750 0.367946 0.854800
Si Si4 0.547290 0.984975 0.161583
Si Si5 0.142525 0.829397 0.955851
Si Si6 0.068555 0.365352 0.862265
Si Si7 0.462108 0.776008 0.729297
Si Si8 0.657175 0.335747 0.515700
O O1 0.058372 0.620222 0.703557
O O2 0.991816 0.817073 0.877844
O O3 0.087544 0.771155 0.576528
O O4 0.688463 0.914297 0.718838
O O5 0.287999 0.333868 0.248273
O O6 0.000000 0.500000 0.500000
O O7 0.875586 0.608986 0.282756
O O8 0.642463 0.353044 0.693829
O O9 0.860002 0.392143 0.849068
O O10 0.500000 0.500000 0.000000
O O11 0.822993 0.215262 0.892015
O O12 0.716873 0.807103 0.143333
O O13 0.645688 0.052820 0.220311
O O14 0.500000 0.000000 0.000000
O O15 0.367691 0.740963 0.836773
O O16 0.000000 0.000000 0.000000
O O17 0.000000 0.500000 0.000000
O O18 0.428399 0.736856 0.560934
O O19 0.500000 0.500000 0.500000
#
# Coordination Sequence:
#
# PCOD8020316 Si02
#       8
#     2   2   2   2   2   2   2   2
#     4  10  22  42  67  94 133 173 212 274 340 390
#     4  11  22  41  64  91 125 166 212 263 323 391
#     4  12  25  42  67  98 129 169 223 277 328 393
#     4  11  23  43  68  99 135 174 223 278 334 398
#     4  11  22  41  64  91 125 166 212 263 323 391
#     4  12  25  42  67  98 129 169 223 277 328 393
#     4  10  22  42  67  94 133 173 212 274 340 390
#     4  11  23  43  68  99 135 174 223 278 334 398
#
# _framework density 22.562467000000002
#
# number of rings (size 3 to 8) (size 9 to 14) (size 15 to 20)
#    0.000    1.000    0.000    9.000    0.000    2.000 
#    0.000   13.750    0.000    0.000    0.000    0.000 
#    0.000    0.000    0.000    0.000    0.000    0.000 
#
# Total GULP energy -198283.356887 kJ/mol
# GULP energy per Si atom -12392.709805 kJ/mol
# Density = 2.251111 g / cm^3
# Si number density = 22.562467 Si / 1000 Ang^3
#
#
#
# Elastic Constant Matrix: (Units=GPa)
#
#
# Indices 1 2 3 4 5 6 
#
# 1 85.7104 27.3952 40.3280 -1.6080 30.2516 23.4136
# 2 27.3952 145.9329 60.1238 -9.5716 15.8360 36.5001
# 3 40.3280 60.1238 165.9198 -20.0699 24.4285 25.2544
# 4 -1.6080 -9.5716 -20.0699 37.1754 5.4542 -1.8346
# 5 30.2516 15.8360 24.4285 5.4542 39.8715 8.8715
# 6 23.4136 36.5001 25.2544 -1.8346 8.8715 37.7141
#
#
#
# Elastic Compliance Matrix: (Units=1/GPa)
#
#
# Indices 1 2 3 4 5 6 
#
# 1 0.018665 0.000585 -0.001586 0.001423 -0.011781 -0.008252
# 2 0.000585 0.009884 -0.002131 0.001229 -0.001428 -0.008106
# 3 -0.001586 -0.002131 0.008453 0.004361 -0.003368 -0.001609
# 4 0.001423 0.001229 0.004361 0.030740 -0.008090 -0.001595
# 5 -0.011781 -0.001428 -0.003368 -0.008090 0.037363 0.001769
# 6 -0.008252 -0.008106 -0.001609 -0.001595 0.001769 0.040067
#
#
# Mechanical properties :
#
#
# Convention : Reuss Voigt Hill
#
# Bulk Modulus (GPa) = 32.53287 72.58414 52.55851
# Shear Modulus (GPa) = 30.92493 40.93326 35.92909
#
# Velocity S-wave (km/s) = 3.70623 4.26399 3.99485
# Velocity P-wave (km/s) = 5.72408 7.51547 6.68010
#
# Compressibility (1/GPa) = 0.03073814
#
# Stress axis : x y z
#
# Youngs Moduli (GPa) = 53.57480 101.17754 118.30205
#
# Poissons Ratio (x) = -0.05920 0.18765
# Poissons Ratio (y) = -0.03135 0.25209
# Poissons Ratio (z) = 0.08498 0.21560
#
# Static dielectric constant tensor:
#      x y z
#    x 4.361800 0.060470 0.129390 
#    y 0.060470 3.988260 0.195910 
#    z 0.129390 0.195910 3.982740 
# 
# 
# High freq. dielectric constant tensor:
#      x y z
#    x 1.909710 0.003630 0.002800 
#    y 0.003630 1.883490 0.014420 
#    z 0.002800 0.014420 1.892620 
# 
# From -- ./inp_files/208364.got.cif
#   From: 2010.06.25/outbox.cif.g09.slc.cpg/sg2_105_cif.got.tgz:208364.got - 2010.06.27 13:26:56.
