data_PCOD8020321
_publ_section_title
;
Structure prediction by ZEFSAII (Michael W. Deem and Ramdas Pophale) SiO2 
 PCOD8020321
Probable space group: P -1
;
_chemical_formula_sum "Si O2"
_cell_formula_units_Z 16
_cell_length_a 14.276101
_cell_length_b 12.683562
_cell_length_c 11.355352
_cell_angle_alpha 85.044103
_cell_angle_beta 161.533905
_cell_angle_gamma 92.988321
_cell_volume 645.930922
_symmetry_space_group_name_H-M "P -1"
_symmetry_group_IT_number 2
_symmetry_cell_setting 'triclinic'
loop_
_space_group_symop_operation_xyz
x,y,z
-x,-y,-z
loop_
_atom_site_type_symbol
_atom_site_label
_atom_site_fract_x
_atom_site_fract_y
_atom_site_fract_z
Si Si1 0.854421 0.892353 0.324523
Si Si2 0.928964 0.278739 0.675510
Si Si3 0.318085 0.070745 0.128008
Si Si4 0.739849 0.575261 0.486994
Si Si5 0.293152 0.854184 0.223741
Si Si6 0.560938 0.237329 0.040200
Si Si7 0.141428 0.287745 0.175407
Si Si8 0.830667 0.533607 0.173853
O O1 0.115908 0.801426 0.619108
O O2 0.620057 0.908064 0.936525
O O3 0.661841 0.856135 0.208403
O O4 0.000000 0.000000 0.500000
O O5 0.143703 0.344367 0.843620
O O6 0.608787 0.287019 0.224541
O O7 0.049156 0.154745 0.841967
O O8 0.927455 0.322560 0.804588
O O9 0.613586 0.089031 0.550409
O O10 0.228245 0.949715 0.043983
O O11 0.829212 0.606397 0.722977
O O12 0.027874 0.539079 0.757209
O O13 0.569117 0.677826 0.215100
O O14 0.518374 0.482056 0.231476
O O15 0.537512 0.762452 0.479712
O O16 0.994142 0.800037 0.896395
O O17 0.000000 0.500000 0.500000
#
# Coordination Sequence:
#
# PCOD8020321 Si02
#       8
#     2   2   2   2   2   2   2   2
#     4  11  24  38  62  96 133 176 222 271 326 384
#     4  10  24  45  71  97 135 176 228 278 331 396
#     4   9  22  40  65  98 129 178 222 270 317 405
#     4  12  27  44  71 101 133 174 225 280 334 397
#     4  10  22  42  67  94 138 176 218 261 337 399
#     4  11  24  42  65  93 134 175 222 273 326 403
#     4  11  25  43  69 101 135 176 214 280 333 394
#     4  12  26  47  73 100 130 179 225 278 340 394
#
# _framework density 24.770448999999999
#
# number of rings (size 3 to 8) (size 9 to 14) (size 15 to 20)
#    0.000    1.250    1.250    3.000    5.250    9.500 
#    0.000    0.000    0.000    0.000    0.000    0.000 
#    0.000    0.000    0.000    0.000    0.000    0.000 
#
# Total GULP energy -198383.104139 kJ/mol
# GULP energy per Si atom -12398.944009 kJ/mol
# Density = 2.471407 g / cm^3
# Si number density = 24.770449 Si / 1000 Ang^3
#
#
#
# Elastic Constant Matrix: (Units=GPa)
#
#
# Indices 1 2 3 4 5 6 
#
# 1 82.4217 9.8703 11.6592 3.0231 -2.7184 -0.7794
# 2 9.8703 73.9217 4.4350 13.4742 0.1722 14.1725
# 3 11.6592 4.4350 53.5498 8.8870 -2.1926 6.8797
# 4 3.0231 13.4742 8.8870 44.0489 8.5485 -0.9449
# 5 -2.7184 0.1722 -2.1926 8.5485 31.1342 17.5272
# 6 -0.7794 14.1725 6.8797 -0.9449 17.5272 42.1149
#
#
#
# Elastic Compliance Matrix: (Units=1/GPa)
#
#
# Indices 1 2 3 4 5 6 
#
# 1 0.012758 -0.001820 -0.002823 0.000248 0.000153 0.001252
# 2 -0.001820 0.016574 0.001542 -0.006735 0.006652 -0.008782
# 3 -0.002823 0.001542 0.021360 -0.006077 0.006896 -0.007067
# 4 0.000248 -0.006735 -0.006077 0.028836 -0.013697 0.009611
# 5 0.000153 0.006652 0.006896 -0.013697 0.050160 -0.024545
# 6 0.001252 -0.008782 -0.007067 0.009611 -0.024545 0.038308
#
#
# Mechanical properties :
#
#
# Convention : Reuss Voigt Hill
#
# Bulk Modulus (GPa) = 22.47631 29.09137 25.78384
# Shear Modulus (GPa) = 26.45130 35.72151 31.08640
#
# Velocity S-wave (km/s) = 3.27135 3.80162 3.54641
# Velocity P-wave (km/s) = 4.83348 5.57132 5.21547
#
# Compressibility (1/GPa) = 0.04449130
#
# Stress axis : x y z
#
# Youngs Moduli (GPa) = 78.38412 60.33434 46.81675
#
# Poissons Ratio (x) = 0.10978 0.13215
# Poissons Ratio (y) = 0.14263 -0.07219
# Poissons Ratio (z) = 0.22125 -0.09303
#
# Static dielectric constant tensor:
#      x y z
#    x 4.600820 0.067480 -0.323630 
#    y 0.067480 4.615830 0.153770 
#    z -0.323630 0.153770 4.393810 
# 
# 
# High freq. dielectric constant tensor:
#      x y z
#    x 1.983040 0.008870 -0.012300 
#    y 0.008870 1.996170 0.003750 
#    z -0.012300 0.003750 1.977570 
# 
# From -- ./inp_files/433631.got.cif
#   From: 2010.06.25/outbox.cif.g09.slc.cpg/sg2_217_cif.got.tgz:433631.got - 2010.06.27 13:26:56.
