data_PCOD8020291
_publ_section_title
;
Structure prediction by ZEFSAII (Michael W. Deem and Ramdas Pophale) SiO2 
 PCOD8020291
Probable space group: P -1
;
_chemical_formula_sum "Si O2"
_cell_formula_units_Z 16
_cell_length_a 11.969717
_cell_length_b 12.459338
_cell_length_c 15.452285
_cell_angle_alpha 153.649830
_cell_angle_beta 119.589947
_cell_angle_gamma 75.528527
_cell_volume 770.820510
_symmetry_space_group_name_H-M "P -1"
_symmetry_group_IT_number 2
_symmetry_cell_setting 'triclinic'
loop_
_space_group_symop_operation_xyz
x,y,z
-x,-y,-z
loop_
_atom_site_type_symbol
_atom_site_label
_atom_site_fract_x
_atom_site_fract_y
_atom_site_fract_z
Si Si1 0.277880 0.722578 0.252030
Si Si2 0.823453 0.749770 0.994354
Si Si3 0.474906 0.751336 0.193619
Si Si4 0.174246 0.411443 0.306029
Si Si5 0.353293 0.662651 0.903410
Si Si6 0.158395 0.902320 0.030834
Si Si7 0.160617 0.032759 0.321246
Si Si8 0.393509 0.006097 0.890353
O O1 0.190688 0.427822 0.054070
O O2 0.386711 0.690166 0.204571
O O3 0.370589 0.960796 0.530442
O O4 0.166646 0.795437 0.210340
O O5 0.786191 0.553830 0.754999
O O6 0.713000 0.873189 0.037354
O O7 0.995991 0.993532 0.231999
O O8 0.500000 0.500000 0.000000
O O9 0.381046 0.761121 0.084751
O O10 0.291149 0.688066 0.596978
O O11 0.182691 0.154257 0.162423
O O12 0.008827 0.355032 0.215986
O O13 0.277021 0.331712 0.621506
O O14 0.245659 0.780108 0.921666
O O15 0.506878 0.807691 0.015792
O O16 0.210408 0.016525 0.230796
O O17 0.500000 0.000000 0.000000
#
# Coordination Sequence:
#
# PCOD8020291 Si02
#       8
#     2   2   2   2   2   2   2   2
#     4  11  23  40  64  92 130 166 211 256 308 375
#     4  11  25  43  64  93 129 167 209 262 314 371
#     4  11  22  38  61  92 126 162 205 255 308 367
#     4  10  23  44  65  90 127 164 210 260 316 372
#     4  12  23  39  66  92 126 165 210 258 315 372
#     4  10  22  42  67  92 121 168 212 257 311 375
#     4  11  23  42  65  94 128 166 213 257 309 376
#     4  12  26  41  64  97 129 162 210 265 320 371
#
# _framework density 20.757100999999999
#
# number of rings (size 3 to 8) (size 9 to 14) (size 15 to 20)
#    0.000    1.000    2.500    4.125    1.750    4.000 
#    0.000    5.625    0.000    0.000    0.000    0.000 
#    0.000    0.000    0.000    0.000    0.000    0.000 
#
# Total GULP energy -198390.429722 kJ/mol
# GULP energy per Si atom -12399.401858 kJ/mol
# Density = 2.070986 g / cm^3
# Si number density = 20.757101 Si / 1000 Ang^3
#
#
#
# Elastic Constant Matrix: (Units=GPa)
#
#
# Indices 1 2 3 4 5 6 
#
# 1 114.9146 18.7723 33.0673 9.0841 5.9122 -18.0837
# 2 18.7723 63.7156 1.9651 -14.8432 0.9263 5.1830
# 3 33.0673 1.9651 91.0366 -19.5602 6.1063 8.3592
# 4 9.0841 -14.8432 -19.5602 26.8750 0.4193 4.5175
# 5 5.9122 0.9263 6.1063 0.4193 19.3575 2.0270
# 6 -18.0837 5.1830 8.3592 4.5175 2.0270 35.5984
#
#
#
# Elastic Compliance Matrix: (Units=1/GPa)
#
#
# Indices 1 2 3 4 5 6 
#
# 1 0.021168 -0.014301 -0.015472 -0.029702 -0.002390 0.020374
# 2 -0.014301 0.028930 0.013599 0.033900 -0.000054 -0.018969
# 3 -0.015472 0.013599 0.025871 0.035009 -0.002729 -0.020202
# 4 -0.029702 0.033900 0.035009 0.098306 -0.001468 -0.040637
# 5 -0.002390 -0.000054 -0.002729 -0.001468 0.053644 -0.003434
# 6 0.020374 -0.018969 -0.020202 -0.040637 -0.003434 0.051299
#
#
# Mechanical properties :
#
#
# Convention : Reuss Voigt Hill
#
# Bulk Modulus (GPa) = 22.92511 41.91957 32.42234
# Shear Modulus (GPa) = 15.33235 30.75700 23.04467
#
# Velocity S-wave (km/s) = 2.72077 3.85354 3.33559
# Velocity P-wave (km/s) = 4.57587 6.32762 5.52166
#
# Compressibility (1/GPa) = 0.04362029
#
# Stress axis : x y z
#
# Youngs Moduli (GPa) = 47.24151 34.56605 38.65286
#
# Poissons Ratio (x) = 0.49435 0.59806
# Poissons Ratio (y) = 0.67562 -0.52566
# Poissons Ratio (z) = 0.73094 -0.47008
#
# Static dielectric constant tensor:
#      x y z
#    x 3.806600 -0.116450 0.130540 
#    y -0.116450 4.844380 -0.785980 
#    z 0.130540 -0.785980 4.103880 
# 
# 
# High freq. dielectric constant tensor:
#      x y z
#    x 1.822710 -0.003810 -0.000220 
#    y -0.003810 1.825570 -0.006420 
#    z -0.000220 -0.006420 1.811770 
# 
# From -- ./inp_files/106896.got.cif
#   From: 2010.06.25/outbox.cif.g09.slc.cpg/sg2_54_cif.got.tgz:106896.got - 2010.06.27 13:26:56.
