data_PCOD8020132
_publ_section_title
;
Structure prediction by ZEFSAII (Michael W. Deem and Ramdas Pophale) SiO2 
 PCOD8020132
Probable space group: P -1
;
_chemical_formula_sum "Si O2"
_cell_formula_units_Z 12
_cell_length_a 10.884742
_cell_length_b 11.560461
_cell_length_c 9.027715
_cell_angle_alpha 84.498639
_cell_angle_beta 39.287109
_cell_angle_gamma 63.100402
_cell_volume 572.752941
_symmetry_space_group_name_H-M "P -1"
_symmetry_group_IT_number 2
_symmetry_cell_setting 'triclinic'
loop_
_space_group_symop_operation_xyz
x,y,z
-x,-y,-z
loop_
_atom_site_type_symbol
_atom_site_label
_atom_site_fract_x
_atom_site_fract_y
_atom_site_fract_z
Si Si1 0.444590 0.011148 0.879301
Si Si2 0.787315 0.726996 0.128581
Si Si3 0.111659 0.936527 0.244073
Si Si4 0.326030 0.469516 0.588047
Si Si5 0.398399 0.622195 0.958302
Si Si6 0.110937 0.180746 0.689802
O O1 0.666283 0.861118 0.616389
O O2 0.395330 0.156163 0.838432
O O3 0.200102 0.025059 0.080715
O O4 0.500000 0.000000 0.000000
O O5 0.659570 0.659357 0.325533
O O6 0.818947 0.818587 0.207803
O O7 0.046650 0.608028 0.828266
O O8 0.925952 0.944144 0.298433
O O9 0.341181 0.766399 0.071983
O O10 0.000000 0.000000 0.500000
O O11 0.500000 0.500000 0.500000
O O12 0.410012 0.426552 0.345769
O O13 0.500000 0.500000 0.000000
O O14 0.141721 0.661110 0.131039
#
# Coordination Sequence:
#
# PCOD8020132 Si02
#       6
#     2   2   2   2   2   2
#     4  12  24  42  66 100 139 177 231 286 333 406
#     4  11  26  42  69 100 136 184 229 280 342 411
#     4  10  22  42  65  98 136 174 233 273 343 394
#     4  11  23  47  67  99 137 179 230 276 345 414
#     4  10  23  42  71  98 136 179 226 282 341 400
#     4  10  23  44  62 100 135 175 231 273 351 392
#
# _framework density 20.951440999999999
#
# number of rings (size 3 to 8) (size 9 to 14) (size 15 to 20)
#    1.000    0.333    3.333    1.500    4.667    3.333 
#    0.000    1.667    0.000    0.000    0.000    0.000 
#    0.000    0.000    0.000    0.000    0.000    0.000 
#
# Total GULP energy -148702.359669 kJ/mol
# GULP energy per Si atom -12391.863306 kJ/mol
# Density = 2.090375 g / cm^3
# Si number density = 20.951441 Si / 1000 Ang^3
#
#
#
# Elastic Constant Matrix: (Units=GPa)
#
#
# Indices 1 2 3 4 5 6 
#
# 1 107.3288 48.7390 45.3502 -11.0398 9.3095 7.8596
# 2 48.7390 126.3786 63.5378 -15.3757 12.0846 -12.4899
# 3 45.3502 63.5378 186.8081 -3.7307 16.2508 -1.3859
# 4 -11.0398 -15.3757 -3.7307 31.1653 8.7664 -0.3076
# 5 9.3095 12.0846 16.2508 8.7664 42.0003 -1.9748
# 6 7.8596 -12.4899 -1.3859 -0.3076 -1.9748 39.1754
#
#
#
# Elastic Compliance Matrix: (Units=1/GPa)
#
#
# Indices 1 2 3 4 5 6 
#
# 1 0.012460 -0.003920 -0.001507 0.002771 -0.001811 -0.003872
# 2 -0.003920 0.012118 -0.002834 0.004955 -0.002345 0.004470
# 3 -0.001507 -0.002834 0.006781 -0.000748 -0.001339 -0.000435
# 4 0.002771 0.004955 -0.000748 0.038153 -0.009676 0.000809
# 5 -0.001811 -0.002345 -0.001339 -0.009676 0.027464 0.000877
# 6 -0.003872 0.004470 -0.000435 0.000809 0.000877 0.027764
#
#
# Mechanical properties :
#
#
# Convention : Reuss Voigt Hill
#
# Bulk Modulus (GPa) = 67.40021 81.75218 74.57619
# Shear Modulus (GPa) = 34.19799 39.99409 37.09604
#
# Velocity S-wave (km/s) = 4.04449 4.37383 4.21238
# Velocity P-wave (km/s) = 7.35188 8.03814 7.70266
#
# Compressibility (1/GPa) = 0.01483675
#
# Stress axis : x y z
#
# Youngs Moduli (GPa) = 80.25849 82.52146 147.46660
#
# Poissons Ratio (x) = 0.32347 0.22229
# Poissons Ratio (y) = 0.31460 0.41791
# Poissons Ratio (z) = 0.12098 0.23386
#
# Static dielectric constant tensor:
#      x y z
#    x 3.784240 0.199910 -0.145850 
#    y 0.199910 3.582330 0.125850 
#    z -0.145850 0.125850 4.207580 
# 
# 
# High freq. dielectric constant tensor:
#      x y z
#    x 1.815550 0.010840 0.001170 
#    y 0.010840 1.799020 0.007390 
#    z 0.001170 0.007390 1.847990 
# 
# From -- ./inp_files/247459.got.cif
#   From: 2010.06.25/outbox.cif.g09.slc.cpg/sg2_124_cif.got.tgz:247459.got - 2010.06.27 13:26:56.
