data_PCOD8020125
_publ_section_title
;
Structure prediction by ZEFSAII (Michael W. Deem and Ramdas Pophale) SiO2 
 PCOD8020125
Probable space group: P -1
;
_chemical_formula_sum "Si O2"
_cell_formula_units_Z 16
_cell_length_a 16.484931
_cell_length_b 9.540622
_cell_length_c 9.327864
_cell_angle_alpha 96.410113
_cell_angle_beta 104.553818
_cell_angle_gamma 32.877358
_cell_volume 756.906610
_symmetry_space_group_name_H-M "P -1"
_symmetry_group_IT_number 2
_symmetry_cell_setting 'triclinic'
loop_
_space_group_symop_operation_xyz
x,y,z
-x,-y,-z
loop_
_atom_site_type_symbol
_atom_site_label
_atom_site_fract_x
_atom_site_fract_y
_atom_site_fract_z
Si Si1 0.656142 0.315519 0.460049
Si Si2 0.486600 0.400534 0.867314
Si Si3 0.369185 0.292749 0.922993
Si Si4 0.110616 0.776588 0.346080
Si Si5 0.187030 0.159505 0.145210
Si Si6 0.885013 0.437112 0.943914
Si Si7 0.127386 0.658699 0.645451
Si Si8 0.100571 0.249467 0.424715
O O1 0.500000 0.500000 0.500000
O O2 0.632009 0.401712 0.294902
O O3 0.751540 0.301298 0.587718
O O4 0.756962 0.027700 0.458446
O O5 0.443189 0.340502 0.954014
O O6 0.648611 0.148227 0.830547
O O7 0.500000 0.500000 0.000000
O O8 0.303821 0.368678 0.739726
O O9 0.213218 0.506167 0.973529
O O10 0.500000 0.000000 0.000000
O O11 0.125947 0.654236 0.203416
O O12 0.121288 0.655302 0.471188
O O13 0.938907 0.093525 0.306070
O O14 0.193615 0.298269 0.081344
O O15 0.161457 0.238812 0.307903
O O16 0.063355 0.219497 0.038823
O O17 0.016382 0.703652 0.676531
O O18 0.000000 0.500000 0.500000
#
# Coordination Sequence:
#
# PCOD8020125 Si02
#       8
#     2   2   2   2   2   2   2   2
#     4  11  24  45  69 101 141 179 241 296 349 431
#     4  12  28  45  72 104 145 190 231 296 370 419
#     4  12  25  46  65  98 142 184 227 290 349 417
#     4  10  23  43  70  97 132 184 230 288 352 411
#     4  11  24  46  66 106 146 179 240 297 346 437
#     4  11  25  43  73  98 140 186 236 287 358 419
#     4  10  22  42  65  97 134 172 234 288 332 425
#     4  11  23  42  74 101 136 184 236 290 359 417
#
# _framework density 21.138672
#
# number of rings (size 3 to 8) (size 9 to 14) (size 15 to 20)
#    0.000    1.000    5.000    0.750    3.500    3.500 
#    0.000    1.250    0.000    0.000    0.000    0.000 
#    0.000    0.000    0.000    0.000    0.000    0.000 
#
# Total GULP energy -198242.609826 kJ/mol
# GULP energy per Si atom -12390.163114 kJ/mol
# Density = 2.109056 g / cm^3
# Si number density = 21.138672 Si / 1000 Ang^3
#
#
#
# Elastic Constant Matrix: (Units=GPa)
#
#
# Indices 1 2 3 4 5 6 
#
# 1 118.0860 45.0481 47.1974 0.9926 -6.3976 -0.7377
# 2 45.0481 125.9176 63.2442 -10.3354 8.7388 -1.8291
# 3 47.1974 63.2442 122.3651 -3.7477 5.0902 10.0817
# 4 0.9926 -10.3354 -3.7477 47.9152 0.7453 -2.0630
# 5 -6.3976 8.7388 5.0902 0.7453 35.1985 -0.7913
# 6 -0.7377 -1.8291 10.0817 -2.0630 -0.7913 26.9628
#
#
#
# Elastic Compliance Matrix: (Units=1/GPa)
#
#
# Indices 1 2 3 4 5 6 
#
# 1 0.010900 -0.002614 -0.003122 -0.001027 0.003133 0.001302
# 2 -0.002614 0.011904 -0.005190 0.002377 -0.002668 0.002780
# 3 -0.003122 -0.005190 0.012527 -0.000279 -0.001201 -0.005178
# 4 -0.001027 0.002377 -0.000279 0.021480 -0.001150 0.001847
# 5 0.003133 -0.002668 -0.001201 -0.001150 0.029866 0.001142
# 6 0.001302 0.002780 -0.005178 0.001847 0.001142 0.039423
#
#
# Mechanical properties :
#
#
# Convention : Reuss Voigt Hill
#
# Bulk Modulus (GPa) = 74.18861 75.26089 74.72475
# Shear Modulus (GPa) = 32.79874 36.07388 34.43631
#
# Velocity S-wave (km/s) = 3.94331 4.13550 4.04055
# Velocity P-wave (km/s) = 7.47698 7.64748 7.56271
#
# Compressibility (1/GPa) = 0.01347916
#
# Stress axis : x y z
#
# Youngs Moduli (GPa) = 91.74278 84.00403 79.82913
#
# Poissons Ratio (x) = 0.21961 0.24923
# Poissons Ratio (y) = 0.23984 0.41428
# Poissons Ratio (z) = 0.28643 0.43595
#
# Static dielectric constant tensor:
#      x y z
#    x 4.159510 -0.040020 -0.180280 
#    y -0.040020 3.890410 -0.297750 
#    z -0.180280 -0.297750 3.788320 
# 
# 
# High freq. dielectric constant tensor:
#      x y z
#    x 1.847690 -0.005750 -0.014360 
#    y -0.005750 1.823030 -0.017000 
#    z -0.014360 -0.017000 1.830440 
# 
# From -- ./inp_files/298568.got.cif
#   From: 2010.06.25/outbox.cif.g09.slc.cpg/sg2_150_cif.got.tgz:298568.got - 2010.06.27 13:26:56.
