data_PCOD8020843
_publ_section_title
;
Structure prediction by ZEFSAII (Michael W. Deem and Ramdas Pophale) SiO2 
 PCOD8020843
Probable space group: P -1
;
_chemical_formula_sum "Si O2"
_cell_formula_units_Z 14
_cell_length_a 9.396505
_cell_length_b 17.345670
_cell_length_c 12.240878
_cell_angle_alpha 39.080663
_cell_angle_beta 140.933008
_cell_angle_gamma 110.805075
_cell_volume 620.070612
_symmetry_space_group_name_H-M "P -1"
_symmetry_group_IT_number 2
_symmetry_cell_setting 'triclinic'
loop_
_space_group_symop_operation_xyz
x,y,z
-x,-y,-z
loop_
_atom_site_type_symbol
_atom_site_label
_atom_site_fract_x
_atom_site_fract_y
_atom_site_fract_z
Si Si1 0.186306 0.601236 0.752672
Si Si2 0.195728 0.422713 0.596736
Si Si3 0.266803 0.887552 0.655953
Si Si4 0.825360 0.135798 0.607395
Si Si5 0.623609 0.488286 0.789059
Si Si6 0.406392 0.816427 0.352377
Si Si7 0.897021 0.831853 0.627827
O O1 0.037334 0.776349 0.427117
O O2 0.994496 0.552313 0.649049
O O3 0.500000 0.500000 0.000000
O O4 0.223045 0.585800 0.921144
O O5 0.334390 0.509624 0.569729
O O6 0.000000 0.500000 0.500000
O O7 0.448862 0.237143 0.966676
O O8 0.352145 0.843213 0.629078
O O9 0.010701 0.879201 0.544563
O O10 0.157424 0.062622 0.416640
O O11 0.598992 0.211931 0.489732
O O12 0.077819 0.951421 0.974637
O O13 0.540657 0.657701 0.539069
O O14 0.869340 0.354561 0.998979
O O15 0.595612 0.870028 0.375815
#
# Coordination Sequence:
#
# PCOD8020843 Si02
#       7
#     2   2   2   2   2   2   2
#     4  12  20  40  69  98 124 171 226 261 321 383
#     4  11  20  36  68  98 127 162 220 282 307 372
#     4  10  22  43  66  95 129 170 229 261 318 390
#     4  11  22  42  65  98 128 169 221 274 316 389
#     4  11  23  43  63  96 135 170 217 265 321 396
#     4  11  24  40  65  96 137 167 214 272 338 371
#     4  10  22  43  64  90 133 177 212 270 318 392
#
# _framework density 22.578074000000001
#
# number of rings (size 3 to 8) (size 9 to 14) (size 15 to 20)
#    0.000    1.143    5.714    1.286    0.000    2.286 
#   10.286    0.714    0.000    0.000    0.000    0.000 
#    0.000    0.000    0.000    0.000    0.000    0.000 
#
# Total GULP energy -173539.562400 kJ/mol
# GULP energy per Si atom -12395.683029 kJ/mol
# Density = 2.252669 g / cm^3
# Si number density = 22.578074 Si / 1000 Ang^3
#
#
#
# Elastic Constant Matrix: (Units=GPa)
#
#
# Indices 1 2 3 4 5 6 
#
# 1 37.1862 28.2406 19.8947 6.3875 11.2322 10.1652
# 2 28.2406 162.6196 50.7459 -4.7318 6.9132 9.9730
# 3 19.8947 50.7459 72.9247 -4.8863 9.4556 9.6103
# 4 6.3875 -4.7318 -4.8863 57.1578 -1.9972 7.5589
# 5 11.2322 6.9132 9.4556 -1.9972 32.2849 0.0257
# 6 10.1652 9.9730 9.6103 7.5589 0.0257 27.2529
#
#
#
# Elastic Compliance Matrix: (Units=1/GPa)
#
#
# Indices 1 2 3 4 5 6 
#
# 1 0.040126 -0.004287 -0.005379 -0.004349 -0.011728 -0.010284
# 2 -0.004287 0.008346 -0.004730 0.000807 0.001140 -0.000012
# 3 -0.005379 -0.004730 0.019466 0.002277 -0.002673 -0.003756
# 4 -0.004349 0.000807 0.002277 0.018933 0.001848 -0.004729
# 5 -0.011728 0.001140 -0.002673 0.001848 0.035704 0.004354
# 6 -0.010284 -0.000012 -0.003756 -0.004729 0.004354 0.043166
#
#
# Mechanical properties :
#
#
# Convention : Reuss Voigt Hill
#
# Bulk Modulus (GPa) = 25.54607 52.27698 38.91153
# Shear Modulus (GPa) = 24.08710 34.92909 29.50809
#
# Velocity S-wave (km/s) = 3.26979 3.93750 3.61908
# Velocity P-wave (km/s) = 5.05910 6.62390 5.89366
#
# Compressibility (1/GPa) = 0.03914496
#
# Stress axis : x y z
#
# Youngs Moduli (GPa) = 24.92170 119.82407 51.37207
#
# Poissons Ratio (x) = 0.51368 0.27633
# Poissons Ratio (y) = 0.10684 0.24299
# Poissons Ratio (z) = 0.13406 0.56677
#
# Static dielectric constant tensor:
#      x y z
#    x 3.983470 -0.051530 0.154820 
#    y -0.051530 4.547100 -0.199730 
#    z 0.154820 -0.199730 4.042570 
# 
# 
# High freq. dielectric constant tensor:
#      x y z
#    x 1.867220 -0.003500 0.019740 
#    y -0.003500 1.905790 -0.020280 
#    z 0.019740 -0.020280 1.882090 
# 
# From -- ./inp_files/392199.got.cif
#   From: 2010.06.25/outbox.cif.g09.slc.cpg/sg2_197_cif.got.tgz:392199.got - 2010.06.27 13:26:56.
