data_PCOD8020369
_publ_section_title
;
Structure prediction by ZEFSAII (Michael W. Deem and Ramdas Pophale) SiO2 
 PCOD8020369
Probable space group: P -1
;
_chemical_formula_sum "Si O2"
_cell_formula_units_Z 14
_cell_length_a 18.078272
_cell_length_b 8.485176
_cell_length_c 12.363081
_cell_angle_alpha 45.598906
_cell_angle_beta 28.168986
_cell_angle_gamma 55.184125
_cell_volume 633.692449
_symmetry_space_group_name_H-M "P -1"
_symmetry_group_IT_number 2
_symmetry_cell_setting 'triclinic'
loop_
_space_group_symop_operation_xyz
x,y,z
-x,-y,-z
loop_
_atom_site_type_symbol
_atom_site_label
_atom_site_fract_x
_atom_site_fract_y
_atom_site_fract_z
Si Si1 0.963427 0.421666 0.835469
Si Si2 0.132768 0.868511 0.347780
Si Si3 0.503519 0.680372 0.815179
Si Si4 0.457272 0.123109 0.769052
Si Si5 0.205203 0.247738 0.736180
Si Si6 0.707365 0.501650 0.298568
Si Si7 0.191097 0.777764 0.075974
O O1 0.925193 0.376099 0.780158
O O2 0.103077 0.630373 0.558720
O O3 0.044047 0.225793 0.883210
O O4 0.805626 0.464660 0.081496
O O5 0.108324 0.838813 0.264329
O O6 0.000000 0.000000 0.500000
O O7 0.306809 0.999263 0.090208
O O8 0.643905 0.634845 0.578943
O O9 0.535680 0.932592 0.697776
O O10 0.500000 0.500000 0.000000
O O11 0.339574 0.649899 0.974351
O O12 0.595612 0.271828 0.587458
O O13 0.398241 0.298743 0.677344
O O14 0.177519 0.411868 0.792995
O O15 0.243475 0.005943 0.835508
#
# Coordination Sequence:
#
# PCOD8020369 Si02
#       7
#     2   2   2   2   2   2   2
#     4  12  25  42  67 103 141 177 226 283 344 408
#     4  11  21  42  64  98 136 176 221 282 340 398
#     4  11  24  44  68  97 139 177 229 284 344 410
#     4  10  22  42  67  98 132 175 229 272 344 399
#     4  12  23  42  69 102 135 180 231 286 334 404
#     4  11  23  41  71 100 135 180 231 278 338 407
#     4  11  24  42  67 100 134 187 225 277 346 407
#
# _framework density 22.092738000000001
#
# number of rings (size 3 to 8) (size 9 to 14) (size 15 to 20)
#    0.000    0.857    4.286    4.286    4.000    0.000 
#    0.000    4.286    0.000    0.000    0.000    0.000 
#    0.000    0.000    0.000    0.000    0.000    0.000 
#
# Total GULP energy -173537.322764 kJ/mol
# GULP energy per Si atom -12395.523055 kJ/mol
# Density = 2.204245 g / cm^3
# Si number density = 22.092738 Si / 1000 Ang^3
#
#
#
# Elastic Constant Matrix: (Units=GPa)
#
#
# Indices 1 2 3 4 5 6 
#
# 1 95.3995 49.5431 21.5054 -3.9863 -2.9370 -20.7411
# 2 49.5431 98.8818 36.7869 3.8303 2.8072 -2.1045
# 3 21.5054 36.7869 123.4248 -12.0625 -3.7562 4.9229
# 4 -3.9863 3.8303 -12.0625 43.2729 10.8068 2.7447
# 5 -2.9370 2.8072 -3.7562 10.8068 35.1891 -1.8839
# 6 -20.7411 -2.1045 4.9229 2.7447 -1.8839 28.7338
#
#
#
# Elastic Compliance Matrix: (Units=1/GPa)
#
#
# Indices 1 2 3 4 5 6 
#
# 1 0.017937 -0.008461 -0.000960 0.000704 0.002528 0.012591
# 2 -0.008461 0.015631 -0.003299 -0.002358 -0.001811 -0.004291
# 3 -0.000960 -0.003299 0.009669 0.003050 0.000125 -0.002874
# 4 0.000704 -0.002358 0.003050 0.026358 -0.007694 -0.003209
# 5 0.002528 -0.001811 0.000125 -0.007694 0.031388 0.004463
# 6 0.012591 -0.004291 -0.002874 -0.003209 0.004463 0.044668
#
#
# Mechanical properties :
#
#
# Convention : Reuss Voigt Hill
#
# Bulk Modulus (GPa) = 56.18829 59.26410 57.72619
# Shear Modulus (GPa) = 28.24451 35.43053 31.83752
#
# Velocity S-wave (km/s) = 3.57942 4.00899 3.80028
# Velocity P-wave (km/s) = 6.52466 6.95073 6.74106
#
# Compressibility (1/GPa) = 0.01779730
#
# Stress axis : x y z
#
# Youngs Moduli (GPa) = 55.74945 63.97475 103.42113
#
# Poissons Ratio (x) = 0.54130 0.09929
# Poissons Ratio (y) = 0.47170 0.34119
# Poissons Ratio (z) = 0.05352 0.21106
#
# Static dielectric constant tensor:
#      x y z
#    x 3.936020 0.093560 -0.065220 
#    y 0.093560 4.039250 -0.187500 
#    z -0.065220 -0.187500 4.098560 
# 
# 
# High freq. dielectric constant tensor:
#      x y z
#    x 1.851750 0.003080 -0.003270 
#    y 0.003080 1.877730 -0.004010 
#    z -0.003270 -0.004010 1.874850 
# 
# From -- ./inp_files/185009.got.cif
#   From: 2010.06.25/outbox.cif.g09.slc.cpg/sg2_93_cif.got.tgz:185009.got - 2010.06.27 13:26:56.
