data_PCOD8020551
_publ_section_title
;
Structure prediction by ZEFSAII (Michael W. Deem and Ramdas Pophale) SiO2 
 PCOD8020551
Probable space group: P -1
;
_chemical_formula_sum "Si O2"
_cell_formula_units_Z 14
_cell_length_a 8.086547
_cell_length_b 9.830528
_cell_length_c 9.820895
_cell_angle_alpha 121.512456
_cell_angle_beta 111.271636
_cell_angle_gamma 66.963310
_cell_volume 599.910803
_symmetry_space_group_name_H-M "P -1"
_symmetry_group_IT_number 2
_symmetry_cell_setting 'triclinic'
loop_
_space_group_symop_operation_xyz
x,y,z
-x,-y,-z
loop_
_atom_site_type_symbol
_atom_site_label
_atom_site_fract_x
_atom_site_fract_y
_atom_site_fract_z
Si Si1 0.746570 0.512117 0.211740
Si Si2 0.780817 0.812279 0.521107
Si Si3 0.059077 0.841668 0.840917
Si Si4 0.425140 0.533058 0.341479
Si Si5 0.325031 0.007202 0.861055
Si Si6 0.798154 0.616778 0.993978
Si Si7 0.365686 0.887027 0.518735
O O1 0.859077 0.637755 0.375212
O O2 0.870084 0.324825 0.137704
O O3 0.582632 0.509367 0.262985
O O4 0.687287 0.577812 0.074780
O O5 0.562466 0.840625 0.480179
O O6 0.885150 0.813105 0.693197
O O7 0.797922 0.972164 0.523932
O O8 0.215482 0.875172 0.806779
O O9 0.000000 0.000000 0.000000
O O10 0.500000 0.500000 0.500000
O O11 0.298196 0.416595 0.193172
O O12 0.297439 0.720039 0.404762
O O13 0.407993 0.944698 0.709069
O O14 0.196095 0.192712 0.910574
O O15 0.500000 0.000000 0.000000
O O16 0.000000 0.500000 0.000000
#
# Coordination Sequence:
#
# PCOD8020551 Si02
#       7
#     2   2   2   2   2   2   2
#     4  11  24  47  70 102 135 187 227 286 347 418
#     4  10  23  43  68  99 132 176 226 281 344 410
#     4  12  26  41  69 101 138 176 228 286 342 412
#     4  11  25  45  73 102 139 186 233 283 353 424
#     4  12  25  45  68 100 139 183 228 281 349 418
#     4  12  27  45  70 106 144 182 235 295 347 411
#     4  10  22  42  69  96 131 176 227 277 338 413
#
# _framework density 23.336801000000001
#
# number of rings (size 3 to 8) (size 9 to 14) (size 15 to 20)
#    0.000    0.857    1.429    5.143    4.000    6.286 
#    0.000    0.000    0.000    0.000    0.000    0.000 
#    0.000    0.000    0.000    0.000    0.000    0.000 
#
# Total GULP energy -173537.649518 kJ/mol
# GULP energy per Si atom -12395.546394 kJ/mol
# Density = 2.328369 g / cm^3
# Si number density = 23.336801 Si / 1000 Ang^3
#
#
#
# Elastic Constant Matrix: (Units=GPa)
#
#
# Indices 1 2 3 4 5 6 
#
# 1 39.1789 5.9531 4.6930 -2.7303 -1.8227 -0.6546
# 2 5.9531 165.2913 36.7950 25.0666 -1.4106 -3.7075
# 3 4.6930 36.7950 140.2537 7.9763 -1.0572 -4.0830
# 4 -2.7303 25.0666 7.9763 49.4745 0.5437 -4.9117
# 5 -1.8227 -1.4106 -1.0572 0.5437 34.1564 2.2332
# 6 -0.6546 -3.7075 -4.0830 -4.9117 2.2332 29.5764
#
#
#
# Elastic Compliance Matrix: (Units=1/GPa)
#
#
# Indices 1 2 3 4 5 6 
#
# 1 0.025987 -0.001085 -0.000680 0.002140 0.001247 0.000607
# 2 -0.001085 0.006951 -0.001595 -0.003321 0.000229 0.000058
# 3 -0.000680 -0.001595 0.007616 -0.000382 0.000090 0.000766
# 4 0.002140 -0.003321 -0.000382 0.022414 -0.000610 0.003347
# 5 0.001247 0.000229 0.000090 -0.000610 0.029513 -0.002261
# 6 0.000607 0.000058 0.000766 0.003347 -0.002261 0.034664
#
#
# Mechanical properties :
#
#
# Convention : Reuss Voigt Hill
#
# Bulk Modulus (GPa) = 29.55493 48.84514 39.20004
# Shear Modulus (GPa) = 34.44889 42.46033 38.45461
#
# Velocity S-wave (km/s) = 3.84625 4.27014 4.06373
# Velocity P-wave (km/s) = 5.69358 6.72964 6.23318
#
# Compressibility (1/GPa) = 0.03383530
#
# Stress axis : x y z
#
# Youngs Moduli (GPa) = 38.48008 143.86470 131.30569
#
# Poissons Ratio (x) = 0.15609 0.08923
# Poissons Ratio (y) = 0.04175 0.20943
# Poissons Ratio (z) = 0.02615 0.22946
#
# Static dielectric constant tensor:
#      x y z
#    x 3.995930 0.282200 -0.151790 
#    y 0.282200 5.060890 0.303910 
#    z -0.151790 0.303910 4.394100 
# 
# 
# High freq. dielectric constant tensor:
#      x y z
#    x 1.897530 0.003900 -0.010950 
#    y 0.003900 1.949890 0.012730 
#    z -0.010950 0.012730 1.935340 
# 
# From -- ./inp_files/159904.got.cif
#   From: 2010.06.25/outbox.cif.g09.slc.cpg/sg2_80_cif.got.tgz:159904.got - 2010.06.27 13:26:56.
