data_PCOD8020659
_publ_section_title
;
Structure prediction by ZEFSAII (Michael W. Deem and Ramdas Pophale) SiO2 
 PCOD8020659
Probable space group: P -1
;
_chemical_formula_sum "Si O2"
_cell_formula_units_Z 14
_cell_length_a 15.076582
_cell_length_b 23.664443
_cell_length_c 5.561062
_cell_angle_alpha 67.299491
_cell_angle_beta 63.110118
_cell_angle_gamma 20.313969
_cell_volume 609.622039
_symmetry_space_group_name_H-M "P -1"
_symmetry_group_IT_number 2
_symmetry_cell_setting 'triclinic'
loop_
_space_group_symop_operation_xyz
x,y,z
-x,-y,-z
loop_
_atom_site_type_symbol
_atom_site_label
_atom_site_fract_x
_atom_site_fract_y
_atom_site_fract_z
Si Si1 0.363926 0.914303 0.243764
Si Si2 0.335101 0.205110 0.540892
Si Si3 0.236248 0.374327 0.096805
Si Si4 0.143005 0.607817 0.300134
Si Si5 0.376259 0.429022 0.823647
Si Si6 0.911476 0.869689 0.155689
Si Si7 0.040600 0.910990 0.210506
O O1 0.603563 0.819733 0.211088
O O2 0.478870 0.805410 0.074361
O O3 0.229419 0.945800 0.546015
O O4 0.138456 0.089746 0.133007
O O5 0.139571 0.261812 0.626145
O O6 0.619122 0.027609 0.367154
O O7 0.200030 0.347547 0.403418
O O8 0.245672 0.439617 0.054099
O O9 0.000000 0.500000 0.000000
O O10 0.264452 0.513274 0.559482
O O11 0.096396 0.705969 0.243201
O O12 0.318882 0.503043 0.011077
O O13 0.692583 0.242195 0.704314
O O14 0.067599 0.840245 0.105031
O O15 0.000000 0.000000 0.000000
#
# Coordination Sequence:
#
# PCOD8020659 Si02
#       7
#     2   2   2   2   2   2   2
#     4  10  23  42  73  97 137 181 237 294 346 409
#     4  10  22  42  71 103 137 184 234 291 348 416
#     4  11  22  41  68 105 140 178 230 295 355 407
#     4  12  28  46  69 105 147 186 231 286 351 420
#     4  12  29  44  71 106 141 189 233 287 353 411
#     4  10  25  45  70 101 136 188 234 285 346 420
#     4  11  26  47  73 101 134 184 240 292 346 416
#
# _framework density 22.965047999999999
#
# number of rings (size 3 to 8) (size 9 to 14) (size 15 to 20)
#    0.000    1.143    1.429    3.857   12.000    4.000 
#    0.000    0.000    0.000    0.000    0.000    0.000 
#    0.000    0.000    0.000    0.000    0.000    0.000 
#
# Total GULP energy -173489.030583 kJ/mol
# GULP energy per Si atom -12392.073613 kJ/mol
# Density = 2.291278 g / cm^3
# Si number density = 22.965048 Si / 1000 Ang^3
#
#
#
# Elastic Constant Matrix: (Units=GPa)
#
#
# Indices 1 2 3 4 5 6 
#
# 1 128.0560 39.7131 33.1452 -24.7111 -14.5971 2.1099
# 2 39.7131 84.5374 12.7470 -22.4951 -7.6525 -4.2358
# 3 33.1452 12.7470 84.0301 -25.2492 4.1298 1.7626
# 4 -24.7111 -22.4951 -25.2492 38.5096 0.3960 -0.8008
# 5 -14.5971 -7.6525 4.1298 0.3960 33.8130 -4.4065
# 6 2.1099 -4.2358 1.7626 -0.8008 -4.4065 48.0111
#
#
#
# Elastic Compliance Matrix: (Units=1/GPa)
#
#
# Indices 1 2 3 4 5 6 
#
# 1 0.010684 -0.003453 -0.003050 0.002791 0.004140 -0.000236
# 2 -0.003453 0.015592 0.001164 0.007672 0.002040 0.001800
# 3 -0.003050 0.001164 0.015835 0.009127 -0.003157 -0.000482
# 4 0.002791 0.007672 0.009127 0.038230 0.001508 0.000995
# 5 0.004140 0.002040 -0.003157 0.001508 0.032599 0.003131
# 6 -0.000236 0.001800 -0.000482 0.000995 0.003131 0.021319
#
#
# Mechanical properties :
#
#
# Convention : Reuss Voigt Hill
#
# Bulk Modulus (GPa) = 31.81479 51.98155 41.89817
# Shear Modulus (GPa) = 32.17175 38.13463 35.15319
#
# Velocity S-wave (km/s) = 3.74692 4.07941 3.91669
# Velocity P-wave (km/s) = 5.70989 6.69873 6.22398
#
# Compressibility (1/GPa) = 0.03143192
#
# Stress axis : x y z
#
# Youngs Moduli (GPa) = 93.59835 64.13466 63.15148
#
# Poissons Ratio (x) = 0.22148 0.19263
# Poissons Ratio (y) = 0.32324 -0.07351
# Poissons Ratio (z) = 0.28550 -0.07466
#
# Static dielectric constant tensor:
#      x y z
#    x 4.287390 -0.070220 0.160110 
#    y -0.070220 4.295600 -0.182820 
#    z 0.160110 -0.182820 4.257740 
# 
# 
# High freq. dielectric constant tensor:
#      x y z
#    x 1.910780 -0.011270 0.007170 
#    y -0.011270 1.917620 -0.008070 
#    z 0.007170 -0.008070 1.902550 
# 
# From -- ./inp_files/66064.got.cif
#   From: 2010.06.25/outbox.cif.g09.slc.cpg/sg2_34_cif.got.tgz:66064.got - 2010.06.27 13:26:56.
