data_PCOD8020501
_publ_section_title
;
Structure prediction by ZEFSAII (Michael W. Deem and Ramdas Pophale) SiO2 
 PCOD8020501
Probable space group: P -1
;
_chemical_formula_sum "Si O2"
_cell_formula_units_Z 16
_cell_length_a 8.674532
_cell_length_b 12.323563
_cell_length_c 12.273313
_cell_angle_alpha 126.732096
_cell_angle_beta 45.313231
_cell_angle_gamma 131.121243
_cell_volume 679.807590
_symmetry_space_group_name_H-M "P -1"
_symmetry_group_IT_number 2
_symmetry_cell_setting 'triclinic'
loop_
_space_group_symop_operation_xyz
x,y,z
-x,-y,-z
loop_
_atom_site_type_symbol
_atom_site_label
_atom_site_fract_x
_atom_site_fract_y
_atom_site_fract_z
Si Si1 0.611051 0.677047 0.632802
Si Si2 0.720280 0.007992 0.826301
Si Si3 0.054303 0.355562 0.389041
Si Si4 0.156165 0.418356 0.735264
Si Si5 0.358436 0.775550 0.156109
Si Si6 0.421719 0.838061 0.401367
Si Si7 0.821081 0.755254 0.175638
Si Si8 0.145939 0.181960 0.049397
O O1 0.690729 0.850195 0.705921
O O2 0.320988 0.594371 0.740641
O O3 0.715130 0.658021 0.452941
O O4 0.700533 0.607058 0.646595
O O5 0.737419 0.109821 0.775564
O O6 0.964093 0.082368 0.816696
O O7 0.500000 0.000000 0.000000
O O8 0.858119 0.244524 0.499521
O O9 0.000000 0.500000 0.500000
O O10 0.023448 0.265672 0.236293
O O11 0.149778 0.369752 0.837171
O O12 0.880246 0.381123 0.816032
O O13 0.482354 0.842704 0.248211
O O14 0.599209 0.772853 0.983030
O O15 0.572166 0.759282 0.339494
O O16 0.500000 0.000000 0.500000
O O17 0.821089 0.730467 0.030089
O O18 0.000000 0.000000 0.000000
#
# Coordination Sequence:
#
# PCOD8020501 Si02
#       8
#     2   2   2   2   2   2   2   2
#     4  11  23  44  69  98 143 181 234 284 352 411
#     4  11  23  42  68 101 137 181 231 284 348 412
#     4  12  25  45  71 102 140 185 230 285 355 413
#     4  10  23  44  68  99 137 185 227 288 349 414
#     4  10  22  42  69 102 133 177 235 284 344 405
#     4  11  22  39  65  98 134 176 231 287 339 407
#     4  10  23  42  68 103 133 175 238 284 343 405
#     4  11  23  47  73 107 142 183 233 293 346 422
#
# _framework density 23.536071
#
# number of rings (size 3 to 8) (size 9 to 14) (size 15 to 20)
#    0.000    1.250    1.250    5.250    1.750    1.000 
#    9.000   13.750    0.000    0.000    0.000    0.000 
#    0.000    0.000    0.000    0.000    0.000    0.000 
#
# Total GULP energy -198216.758265 kJ/mol
# GULP energy per Si atom -12388.547392 kJ/mol
# Density = 2.348250 g / cm^3
# Si number density = 23.536071 Si / 1000 Ang^3
#
#
#
# Elastic Constant Matrix: (Units=GPa)
#
#
# Indices 1 2 3 4 5 6 
#
# 1 108.1129 20.4638 15.9851 -3.3270 -2.9949 12.2272
# 2 20.4638 88.3309 21.7564 -2.0840 -4.1134 15.9410
# 3 15.9851 21.7564 79.8709 1.0813 3.9913 0.5484
# 4 -3.3270 -2.0840 1.0813 38.6632 6.4057 -8.8165
# 5 -2.9949 -4.1134 3.9913 6.4057 36.0692 -15.3451
# 6 12.2272 15.9410 0.5484 -8.8165 -15.3451 38.3313
#
#
#
# Elastic Compliance Matrix: (Units=1/GPa)
#
#
# Indices 1 2 3 4 5 6 
#
# 1 0.010061 -0.001473 -0.001581 0.000283 -0.000332 -0.002642
# 2 -0.001473 0.013405 -0.003293 -0.000459 -0.000415 -0.005329
# 3 -0.001581 -0.003293 0.013808 -0.000212 -0.001573 0.000998
# 4 0.000283 -0.000459 -0.000212 0.027531 -0.002599 0.005395
# 5 -0.000332 -0.000415 -0.001573 -0.002599 0.033939 0.013290
# 6 -0.002642 -0.005329 0.000998 0.005395 0.013290 0.035694
#
#
# Mechanical properties :
#
#
# Convention : Reuss Voigt Hill
#
# Bulk Modulus (GPa) = 40.68578 43.63615 42.16096
# Shear Modulus (GPa) = 32.19020 37.15336 34.67178
#
# Velocity S-wave (km/s) = 3.70225 3.97743 3.84231
# Velocity P-wave (km/s) = 5.96654 6.29870 6.13487
#
# Compressibility (1/GPa) = 0.02457861
#
# Stress axis : x y z
#
# Youngs Moduli (GPa) = 99.39829 74.59824 72.42024
#
# Poissons Ratio (x) = 0.10991 0.11452
# Poissons Ratio (y) = 0.14645 0.23849
# Poissons Ratio (z) = 0.15718 0.24566
#
# Static dielectric constant tensor:
#      x y z
#    x 4.720990 -0.074350 -0.406140 
#    y -0.074350 4.346220 0.174400 
#    z -0.406140 0.174400 4.771570 
# 
# 
# High freq. dielectric constant tensor:
#      x y z
#    x 1.941860 0.017280 -0.001030 
#    y 0.017280 1.925770 -0.015440 
#    z -0.001030 -0.015440 1.936860 
# 
# From -- ./inp_files/382110.got.cif
#   From: 2010.06.25/outbox.cif.g09.slc.cpg/sg2_192_cif.got.tgz:382110.got - 2010.06.27 13:26:56.
