data_PCOD8020165
_publ_section_title
;
Structure prediction by ZEFSAII (Michael W. Deem and Ramdas Pophale) SiO2 
 PCOD8020165
Probable space group: P -1
;
_chemical_formula_sum "Si O2"
_cell_formula_units_Z 16
_cell_length_a 11.673439
_cell_length_b 13.868507
_cell_length_c 13.835205
_cell_angle_alpha 124.964325
_cell_angle_beta 74.728807
_cell_angle_gamma 149.442840
_cell_volume 777.976045
_symmetry_space_group_name_H-M "P -1"
_symmetry_group_IT_number 2
_symmetry_cell_setting 'triclinic'
loop_
_space_group_symop_operation_xyz
x,y,z
-x,-y,-z
loop_
_atom_site_type_symbol
_atom_site_label
_atom_site_fract_x
_atom_site_fract_y
_atom_site_fract_z
Si Si1 0.112113 0.618080 0.345156
Si Si2 0.216602 0.283379 0.389098
Si Si3 0.460184 0.142400 0.511457
Si Si4 0.436946 0.136078 0.116903
Si Si5 0.663565 0.357108 0.388292
Si Si6 0.129085 0.630235 0.941037
Si Si7 0.255116 0.209331 0.132637
Si Si8 0.779275 0.822803 0.362929
O O1 0.246682 0.633005 0.384301
O O2 0.837413 0.399039 0.339079
O O3 0.085816 0.551351 0.202346
O O4 0.259947 0.874964 0.455461
O O5 0.500000 0.500000 0.500000
O O6 0.174610 0.387225 0.458682
O O7 0.195750 0.225908 0.251807
O O8 0.957934 0.991927 0.325536
O O9 0.458807 0.129709 0.387159
O O10 0.390247 0.211754 0.595940
O O11 0.529271 0.287797 0.280178
O O12 0.676028 0.306413 0.090318
O O13 0.259245 0.071307 0.061219
O O14 0.283767 0.889914 0.054852
O O15 0.000000 0.500000 0.000000
O O16 0.559409 0.524515 0.216889
O O17 0.000000 0.000000 0.000000
O O18 0.000000 0.000000 0.500000
#
# Coordination Sequence:
#
# PCOD8020165 Si02
#       8
#     2   2   2   2   2   2   2   2
#     4  10  23  38  62  97 132 161 225 279 340 394
#     4  12  22  43  70  99 132 179 232 280 331 410
#     4  11  22  38  62  99 128 165 217 289 334 391
#     4  10  23  41  64  95 129 172 233 269 326 421
#     4  11  19  39  67  94 126 173 225 278 332 396
#     4  10  22  42  66  90 127 179 218 274 335 404
#     4  12  28  46  67 104 144 180 223 288 350 396
#     4  12  24  42  73 100 132 183 234 273 337 415
#
# _framework density 20.566185999999998
#
# number of rings (size 3 to 8) (size 9 to 14) (size 15 to 20)
#    0.000    1.000    5.000    1.125    3.500    1.500 
#    2.250    0.000    0.000    0.000    0.000    0.000 
#    0.000    0.000    0.000    0.000    0.000    0.000 
#
# Total GULP energy -198268.077628 kJ/mol
# GULP energy per Si atom -12391.754852 kJ/mol
# Density = 2.051938 g / cm^3
# Si number density = 20.566186 Si / 1000 Ang^3
#
#
#
# Elastic Constant Matrix: (Units=GPa)
#
#
# Indices 1 2 3 4 5 6 
#
# 1 121.9422 30.9295 40.3701 -8.2819 13.8274 5.5682
# 2 30.9295 128.8908 36.0662 -12.8774 3.6908 -5.4552
# 3 40.3701 36.0662 104.6569 -11.3580 11.2557 6.9707
# 4 -8.2819 -12.8774 -11.3580 36.1707 3.1003 0.6836
# 5 13.8274 3.6908 11.2557 3.1003 30.9950 3.3948
# 6 5.5682 -5.4552 6.9707 0.6836 3.3948 19.6034
#
#
#
# Elastic Compliance Matrix: (Units=1/GPa)
#
#
# Indices 1 2 3 4 5 6 
#
# 1 0.010020 -0.001496 -0.002755 0.001206 -0.003218 -0.001767
# 2 -0.001496 0.009224 -0.002625 0.002053 -0.000107 0.003872
# 3 -0.002755 -0.002625 0.012371 0.002632 -0.002781 -0.003957
# 4 0.001206 0.002053 0.002632 0.029895 -0.004625 -0.000949
# 5 -0.003218 -0.000107 -0.002781 -0.004625 0.035637 -0.004137
# 6 -0.001767 0.003872 -0.003957 -0.000949 -0.004137 0.054748
#
#
# Mechanical properties :
#
#
# Convention : Reuss Voigt Hill
#
# Bulk Modulus (GPa) = 55.98261 63.35796 59.67028
# Shear Modulus (GPa) = 29.13754 33.89543 31.51648
#
# Velocity S-wave (km/s) = 3.76808 4.06410 3.91889
# Velocity P-wave (km/s) = 6.79787 7.27298 7.03944
#
# Compressibility (1/GPa) = 0.01786269
#
# Stress axis : x y z
#
# Youngs Moduli (GPa) = 99.80533 108.41124 80.83633
#
# Poissons Ratio (x) = 0.16215 0.22268
# Poissons Ratio (y) = 0.14928 0.21223
# Poissons Ratio (z) = 0.27494 0.28462
#
# Static dielectric constant tensor:
#      x y z
#    x 3.806100 -0.014710 0.016640 
#    y -0.014710 3.868350 -0.082180 
#    z 0.016640 -0.082180 3.433360 
# 
# 
# High freq. dielectric constant tensor:
#      x y z
#    x 1.810290 -0.001010 -0.007950 
#    y -0.001010 1.812740 -0.006850 
#    z -0.007950 -0.006850 1.795250 
# 
# From -- ./inp_files/522426.got.cif
#   From: 2010.06.25/outbox.cif.g09.slc.cpg/sg2_262_cif.got.tgz:522426.got - 2010.06.27 13:26:56.
