data_PCOD8020039
_publ_section_title
;
Structure prediction by ZEFSAII (Michael W. Deem and Ramdas Pophale) SiO2 
 PCOD8020039
Probable space group: P -1
;
_chemical_formula_sum "Si O2"
_cell_formula_units_Z 16
_cell_length_a 6.632837
_cell_length_b 18.922399
_cell_length_c 9.021701
_cell_angle_alpha 108.733642
_cell_angle_beta 51.316157
_cell_angle_gamma 124.515463
_cell_volume 727.339997
_symmetry_space_group_name_H-M "P -1"
_symmetry_group_IT_number 2
_symmetry_cell_setting 'triclinic'
loop_
_space_group_symop_operation_xyz
x,y,z
-x,-y,-z
loop_
_atom_site_type_symbol
_atom_site_label
_atom_site_fract_x
_atom_site_fract_y
_atom_site_fract_z
Si Si1 0.295851 0.753637 0.530908
Si Si2 0.713668 0.421877 0.506314
Si Si3 0.299731 0.019372 0.792453
Si Si4 0.225924 0.580248 0.856989
Si Si5 0.307207 0.056369 0.478431
Si Si6 0.289041 0.286561 0.081949
Si Si7 0.688945 0.211395 0.789654
Si Si8 0.154177 0.335211 0.871616
O O1 0.306719 0.670338 0.525123
O O2 0.596907 0.842461 0.493269
O O3 0.228493 0.746674 0.382709
O O4 0.041589 0.762760 0.738889
O O5 0.706699 0.443710 0.351580
O O6 0.421624 0.414873 0.713807
O O7 0.000000 0.500000 0.500000
O O8 0.236076 0.016773 0.647314
O O9 0.572437 0.111116 0.776122
O O10 0.423080 0.953710 0.726051
O O11 0.000000 0.000000 0.000000
O O12 0.526021 0.627974 0.846822
O O13 0.000000 0.500000 0.000000
O O14 0.075209 0.638799 0.938177
O O15 0.000000 0.000000 0.500000
O O16 0.432604 0.225774 0.990120
O O17 0.299840 0.309294 0.919378
O O18 0.985449 0.255893 0.782669
#
# Coordination Sequence:
#
# PCOD8020039 Si02
#       8
#     2   2   2   2   2   2   2   2
#     4  11  23  43  65  94 133 170 215 266 320 386
#     4  12  26  42  68  95 126 174 216 262 325 381
#     4  10  22  42  65 100 133 169 220 271 322 392
#     4  11  26  43  65  93 127 168 214 274 325 376
#     4  10  24  42  66  97 134 175 215 269 330 388
#     4  11  22  42  64  94 128 169 214 262 323 383
#     4  10  23  40  67  96 131 171 212 266 321 382
#     4  11  24  42  66  94 127 169 215 261 322 389
#
# _framework density 21.997966000000002
#
# number of rings (size 3 to 8) (size 9 to 14) (size 15 to 20)
#    0.000    1.250    2.500    2.250    5.250    3.000 
#    2.250    0.000    0.000    0.000    0.000    0.000 
#    0.000    0.000    0.000    0.000    0.000    0.000 
#
# Total GULP energy -198417.520289 kJ/mol
# GULP energy per Si atom -12401.095018 kJ/mol
# Density = 2.194790 g / cm^3
# Si number density = 21.997966 Si / 1000 Ang^3
#
#
#
# Elastic Constant Matrix: (Units=GPa)
#
#
# Indices 1 2 3 4 5 6 
#
# 1 110.5011 46.8595 33.9808 0.8440 13.7422 33.9192
# 2 46.8595 97.8208 6.4681 0.5403 13.0565 17.2077
# 3 33.9808 6.4681 119.8065 -3.8110 1.4650 12.7405
# 4 0.8440 0.5403 -3.8110 27.0671 4.8898 1.3346
# 5 13.7422 13.0565 1.4650 4.8898 39.2686 7.9696
# 6 33.9192 17.2077 12.7405 1.3346 7.9696 43.5122
#
#
#
# Elastic Compliance Matrix: (Units=1/GPa)
#
#
# Indices 1 2 3 4 5 6 
#
# 1 0.015028 -0.005293 -0.003064 -0.000078 -0.001667 -0.008417
# 2 -0.005293 0.013183 0.000935 0.000521 -0.002442 -0.000930
# 3 -0.003064 0.000935 0.009290 0.001351 0.000413 -0.000819
# 4 -0.000078 0.000521 0.001351 0.038029 -0.004762 -0.000835
# 5 -0.001667 -0.002442 0.000413 -0.004762 0.028015 -0.002841
# 6 -0.008417 -0.000930 -0.000819 -0.000835 -0.002841 0.030697
#
#
# Mechanical properties :
#
#
# Convention : Reuss Voigt Hill
#
# Bulk Modulus (GPa) = 44.13475 55.86058 49.99767
# Shear Modulus (GPa) = 31.92086 38.02425 34.97255
#
# Velocity S-wave (km/s) = 3.81344 4.16208 3.99157
# Velocity P-wave (km/s) = 6.28462 6.96748 6.63484
#
# Compressibility (1/GPa) = 0.02265788
#
# Stress axis : x y z
#
# Youngs Moduli (GPa) = 66.54367 75.85519 107.63971
#
# Poissons Ratio (x) = 0.40148 0.32977
# Poissons Ratio (y) = 0.35220 -0.10062
# Poissons Ratio (z) = 0.20387 -0.07091
#
# Static dielectric constant tensor:
#      x y z
#    x 3.947840 0.090860 -0.054820 
#    y 0.090860 3.975940 0.126480 
#    z -0.054820 0.126480 4.205110 
# 
# 
# High freq. dielectric constant tensor:
#      x y z
#    x 1.863140 0.011120 -0.003550 
#    y 0.011120 1.866140 0.006640 
#    z -0.003550 0.006640 1.878890 
# 
# From -- ./inp_files/46976.got.cif
#   From: 2010.06.25/outbox.cif.g09.slc.cpg/sg2_24_cif.got.tgz:46976.got - 2010.06.27 13:26:56.
