data_PCOD8020450
_publ_section_title
;
Structure prediction by ZEFSAII (Michael W. Deem and Ramdas Pophale) SiO2 
 PCOD8020450
Probable space group: P -1
;
_chemical_formula_sum "Si O2"
_cell_formula_units_Z 16
_cell_length_a 17.628449
_cell_length_b 9.065368
_cell_length_c 9.978330
_cell_angle_alpha 101.441348
_cell_angle_beta 120.785150
_cell_angle_gamma 37.179430
_cell_volume 757.518026
_symmetry_space_group_name_H-M "P -1"
_symmetry_group_IT_number 2
_symmetry_cell_setting 'triclinic'
loop_
_space_group_symop_operation_xyz
x,y,z
-x,-y,-z
loop_
_atom_site_type_symbol
_atom_site_label
_atom_site_fract_x
_atom_site_fract_y
_atom_site_fract_z
Si Si1 0.811717 0.846937 0.812573
Si Si2 0.609896 0.738409 0.828504
Si Si3 0.627535 0.672570 0.360173
Si Si4 0.567653 0.615720 0.022264
Si Si5 0.922246 0.393719 0.705827
Si Si6 0.733480 0.078484 0.065315
Si Si7 0.948020 0.238826 0.972015
Si Si8 0.492386 0.335770 0.497860
O O1 0.909949 0.558171 0.821458
O O2 0.670229 0.031038 0.613551
O O3 0.913603 0.848281 0.869257
O O4 0.743271 0.958567 0.921506
O O5 0.794139 0.513000 0.960074
O O6 0.589153 0.624637 0.694578
O O7 0.519092 0.008423 0.732914
O O8 0.556538 0.768555 0.935003
O O9 0.653109 0.547508 0.223242
O O10 0.782781 0.556287 0.505384
O O11 0.597878 0.590716 0.434912
O O12 0.669552 0.332783 0.007502
O O13 0.387658 0.822392 0.921854
O O14 0.921432 0.266075 0.793250
O O15 0.094912 0.153747 0.749750
O O16 0.000000 0.000000 0.000000
O O17 0.500000 0.500000 0.500000
#
# Coordination Sequence:
#
# PCOD8020450 Si02
#       8
#     2   2   2   2   2   2   2   2
#     4  11  22  41  68 101 129 169 223 281 337 381
#     4  12  24  43  66 101 135 175 229 272 332 399
#     4  12  25  44  66  99 135 179 223 272 336 398
#     4  11  25  43  67  96 139 185 219 263 335 414
#     4  11  23  43  68  98 130 176 222 281 336 382
#     4  10  22  42  68  95 134 177 225 269 332 397
#     4  11  22  37  65 100 133 164 221 288 330 379
#     4  12  23  40  69 100 133 170 225 282 329 391
#
# _framework density 21.121608999999999
#
# number of rings (size 3 to 8) (size 9 to 14) (size 15 to 20)
#    0.000    0.750    3.750    6.000    3.500    0.500 
#    0.000    1.875    0.000    0.000    0.000    0.000 
#    0.000    0.000    0.000    0.000    0.000    0.000 
#
# Total GULP energy -198346.584715 kJ/mol
# GULP energy per Si atom -12396.661545 kJ/mol
# Density = 2.107354 g / cm^3
# Si number density = 21.121609 Si / 1000 Ang^3
#
#
#
# Elastic Constant Matrix: (Units=GPa)
#
#
# Indices 1 2 3 4 5 6 
#
# 1 106.2499 29.5679 46.8792 -1.0737 1.9708 -13.2384
# 2 29.5679 96.2303 27.0957 -7.2805 5.1584 -13.2958
# 3 46.8792 27.0957 92.5578 2.5329 2.0338 -6.5947
# 4 -1.0737 -7.2805 2.5329 32.1680 -6.7295 10.2394
# 5 1.9708 5.1584 2.0338 -6.7295 34.1580 -6.1156
# 6 -13.2384 -13.2958 -6.5947 10.2394 -6.1156 35.3665
#
#
#
# Elastic Compliance Matrix: (Units=1/GPa)
#
#
# Indices 1 2 3 4 5 6 
#
# 1 0.012865 -0.001959 -0.005706 -0.000515 0.000370 0.003228
# 2 -0.001959 0.012238 -0.002430 0.001868 -0.000730 0.002747
# 3 -0.005706 -0.002430 0.014484 -0.002042 -0.000542 0.000149
# 4 -0.000515 0.001868 -0.002042 0.035711 0.005239 -0.009304
# 5 0.000370 -0.000730 -0.000542 0.005239 0.031077 0.003620
# 6 0.003228 0.002747 0.000149 -0.009304 0.003620 0.033864
#
#
# Mechanical properties :
#
#
# Convention : Reuss Voigt Hill
#
# Bulk Modulus (GPa) = 51.55573 55.79151 53.67362
# Shear Modulus (GPa) = 29.95914 33.10486 31.53200
#
# Velocity S-wave (km/s) = 3.77027 3.96327 3.86797
# Velocity P-wave (km/s) = 6.58902 6.88586 6.73908
#
# Compressibility (1/GPa) = 0.01939649
#
# Stress axis : x y z
#
# Youngs Moduli (GPa) = 77.73139 81.71371 69.04191
#
# Poissons Ratio (x) = 0.16007 0.39398
# Poissons Ratio (y) = 0.15226 0.16776
# Poissons Ratio (z) = 0.44357 0.19854
#
# Static dielectric constant tensor:
#      x y z
#    x 3.961020 0.004710 0.215130 
#    y 0.004710 3.885680 -0.155750 
#    z 0.215130 -0.155750 3.845060 
# 
# 
# High freq. dielectric constant tensor:
#      x y z
#    x 1.835290 0.005360 0.019990 
#    y 0.005360 1.831490 -0.012890 
#    z 0.019990 -0.012890 1.820290 
# 
# From -- ./inp_files/329192.got.cif
#   From: 2010.06.25/outbox.cif.g09.slc.cpg/sg2_165_cif.got.tgz:329192.got - 2010.06.27 13:26:56.
