data_PCOD8020745
_publ_section_title
;
Structure prediction by ZEFSAII (Michael W. Deem and Ramdas Pophale) SiO2 
 PCOD8020745
Probable space group: P -1
;
_chemical_formula_sum "Si O2"
_cell_formula_units_Z 14
_cell_length_a 8.348717
_cell_length_b 20.816833
_cell_length_c 17.696425
_cell_angle_alpha 161.547973
_cell_angle_beta 47.118335
_cell_angle_gamma 139.408949
_cell_volume 621.403781
_symmetry_space_group_name_H-M "P -1"
_symmetry_group_IT_number 2
_symmetry_cell_setting 'triclinic'
loop_
_space_group_symop_operation_xyz
x,y,z
-x,-y,-z
loop_
_atom_site_type_symbol
_atom_site_label
_atom_site_fract_x
_atom_site_fract_y
_atom_site_fract_z
Si Si1 0.839409 0.711245 0.921126
Si Si2 0.950382 0.532072 0.205053
Si Si3 0.627667 0.717780 0.474304
Si Si4 0.603531 0.000711 0.384701
Si Si5 0.764086 0.402570 0.271297
Si Si6 0.180104 0.925472 0.320476
Si Si7 0.288192 0.166692 0.247717
O O1 0.641479 0.507667 0.704169
O O2 0.977235 0.599158 0.799243
O O3 0.711052 0.819967 0.139740
O O4 0.046211 0.915813 0.030170
O O5 0.842851 0.647702 0.309390
O O6 0.726760 0.382664 0.170452
O O7 0.181587 0.733921 0.402171
O O8 0.010762 0.347582 0.939902
O O9 0.654435 0.803815 0.647977
O O10 0.682766 0.927727 0.634416
O O11 0.500000 0.000000 0.500000
O O12 0.391224 0.938355 0.322232
O O13 0.533014 0.189059 0.150865
O O14 0.777356 0.646712 0.561856
O O15 0.000000 0.000000 0.500000
#
# Coordination Sequence:
#
# PCOD8020745 Si02
#       7
#     2   2   2   2   2   2   2
#     4  12  23  42  68  99 135 175 223 279 331 399
#     4  11  24  47  68  97 139 174 221 284 326 402
#     4  11  24  42  69  97 136 174 220 280 332 397
#     4  12  27  45  69  99 136 181 228 276 334 401
#     4  10  22  42  73  96 136 181 221 273 338 397
#     4  12  28  44  69 100 130 180 230 275 339 397
#     4  10  23  46  66 102 137 176 225 273 336 400
#
# _framework density 22.529634000000001
#
# number of rings (size 3 to 8) (size 9 to 14) (size 15 to 20)
#    0.000    0.857    4.286    3.000    4.000    2.286 
#    0.000    7.857    0.000    0.000    0.000    0.000 
#    0.000    0.000    0.000    0.000    0.000    0.000 
#
# Total GULP energy -173529.410688 kJ/mol
# GULP energy per Si atom -12394.957906 kJ/mol
# Density = 2.247836 g / cm^3
# Si number density = 22.529634 Si / 1000 Ang^3
#
#
#
# Elastic Constant Matrix: (Units=GPa)
#
#
# Indices 1 2 3 4 5 6 
#
# 1 91.8102 33.2370 37.7577 -2.4963 -10.1075 12.5415
# 2 33.2370 96.3729 16.5899 0.3693 -5.5556 -0.5793
# 3 37.7577 16.5899 111.4275 8.2633 6.2949 12.1952
# 4 -2.4963 0.3693 8.2633 36.6261 11.8606 -5.5393
# 5 -10.1075 -5.5556 6.2949 11.8606 29.7227 3.8366
# 6 12.5415 -0.5793 12.1952 -5.5393 3.8366 36.6943
#
#
#
# Elastic Compliance Matrix: (Units=1/GPa)
#
#
# Indices 1 2 3 4 5 6 
#
# 1 0.015578 -0.004271 -0.004440 -0.000639 0.006298 -0.004671
# 2 -0.004271 0.012002 -0.000550 -0.000290 0.000803 0.001704
# 3 -0.004440 -0.000550 0.011130 -0.002245 -0.002785 -0.002238
# 4 -0.000639 -0.000290 -0.002245 0.033474 -0.014120 0.007489
# 5 0.006298 0.000803 -0.002785 -0.014120 0.043175 -0.007860
# 6 -0.004671 0.001704 -0.002238 0.007489 -0.007860 0.031572
#
#
# Mechanical properties :
#
#
# Convention : Reuss Voigt Hill
#
# Bulk Modulus (GPa) = 49.53534 52.75328 51.14431
# Shear Modulus (GPa) = 29.03921 34.74369 31.89145
#
# Velocity S-wave (km/s) = 3.59407 3.93126 3.76644
# Velocity P-wave (km/s) = 6.26559 6.63870 6.45484
#
# Compressibility (1/GPa) = 0.02018761
#
# Stress axis : x y z
#
# Youngs Moduli (GPa) = 64.19244 83.32194 89.85101
#
# Poissons Ratio (x) = 0.35586 0.39894
# Poissons Ratio (y) = 0.27416 0.04942
# Poissons Ratio (z) = 0.28501 0.04583
#
# Static dielectric constant tensor:
#      x y z
#    x 3.981400 0.026090 -0.056280 
#    y 0.026090 4.099220 0.262930 
#    z -0.056280 0.262930 4.047010 
# 
# 
# High freq. dielectric constant tensor:
#      x y z
#    x 1.886690 0.004460 -0.020410 
#    y 0.004460 1.887690 0.007350 
#    z -0.020410 0.007350 1.899490 
# 
# From -- ./inp_files/562736.got.cif
#   From: 2010.06.25/outbox.cif.g09.slc.cpg/sg2_282_cif.got.tgz:562736.got - 2010.06.27 13:26:56.
