data_PCOD8020601
_publ_section_title
;
Structure prediction by ZEFSAII (Michael W. Deem and Ramdas Pophale) SiO2 
 PCOD8020601
Probable space group: P -1
;
_chemical_formula_sum "Si O2"
_cell_formula_units_Z 16
_cell_length_a 16.973682
_cell_length_b 9.094680
_cell_length_c 10.389203
_cell_angle_alpha 126.562269
_cell_angle_beta 44.593573
_cell_angle_gamma 90.526364
_cell_volume 612.306093
_symmetry_space_group_name_H-M "P -1"
_symmetry_group_IT_number 2
_symmetry_cell_setting 'triclinic'
loop_
_space_group_symop_operation_xyz
x,y,z
-x,-y,-z
loop_
_atom_site_type_symbol
_atom_site_label
_atom_site_fract_x
_atom_site_fract_y
_atom_site_fract_z
Si Si1 0.212851 0.399060 0.366381
Si Si2 0.519764 0.156468 0.146528
Si Si3 0.950905 0.833050 0.697388
Si Si4 0.299916 0.960004 0.699547
Si Si5 0.182600 0.646715 0.937813
Si Si6 0.685948 0.340212 0.677249
Si Si7 0.048534 0.508381 0.173007
Si Si8 0.346798 0.614976 0.980981
O O1 0.305664 0.480850 0.321866
O O2 0.103213 0.553394 0.446724
O O3 0.083165 0.503830 0.689585
O O4 0.347391 0.074626 0.022279
O O5 0.345817 0.418015 0.546092
O O6 0.591307 0.250773 0.041948
O O7 0.500000 0.000000 0.000000
O O8 0.953733 0.759708 0.510851
O O9 0.777789 0.983929 0.042138
O O10 0.944749 0.061798 0.830647
O O11 0.226871 0.910099 0.647876
O O12 0.497190 0.710581 0.353693
O O13 0.231674 0.236434 0.871554
O O14 0.232616 0.675923 0.032528
O O15 0.080636 0.579722 0.040907
O O16 0.500000 0.500000 0.000000
O O17 0.759733 0.268437 0.700077
#
# Coordination Sequence:
#
# PCOD8020601 Si02
#       8
#     2   2   2   2   2   2   2   2
#     4  11  25  45  74 101 144 189 233 297 362 424
#     4  12  27  47  76 110 145 186 248 308 351 429
#     4  11  24  46  70 102 147 191 235 295 364 432
#     4  10  22  42  70 106 142 190 242 298 357 430
#     4  12  27  46  76 107 147 192 244 298 364 431
#     4  10  23  44  71 107 144 187 241 302 359 431
#     4  11  26  42  71 107 149 184 244 297 357 434
#     4  11  24  43  75 107 147 190 243 300 371 414
#
# _framework density 26.130723
#
# number of rings (size 3 to 8) (size 9 to 14) (size 15 to 20)
#    0.000    1.000    1.250    5.250    8.750    3.500 
#    0.000    0.625    0.000    0.000    0.000    0.000 
#    0.000    0.000    0.000    0.000    0.000    0.000 
#
# Total GULP energy -198223.806537 kJ/mol
# GULP energy per Si atom -12388.987909 kJ/mol
# Density = 2.607125 g / cm^3
# Si number density = 26.130723 Si / 1000 Ang^3
#
#
#
# Elastic Constant Matrix: (Units=GPa)
#
#
# Indices 1 2 3 4 5 6 
#
# 1 45.7874 -1.2129 18.5547 -2.8433 5.6973 10.2502
# 2 -1.2129 174.0641 50.8745 -9.3348 -4.3580 11.8075
# 3 18.5547 50.8745 125.1528 16.5773 0.1663 -5.1996
# 4 -2.8433 -9.3348 16.5773 35.9449 4.3111 -7.8457
# 5 5.6973 -4.3580 0.1663 4.3111 37.4948 -6.1504
# 6 10.2502 11.8075 -5.1996 -7.8457 -6.1504 34.0109
#
#
#
# Elastic Compliance Matrix: (Units=1/GPa)
#
#
# Indices 1 2 3 4 5 6 
#
# 1 0.027801 0.002804 -0.006251 0.004264 -0.006070 -0.010422
# 2 0.002804 0.007311 -0.003959 0.003280 -0.000480 -0.003319
# 3 -0.006251 -0.003959 0.011507 -0.006190 0.001792 0.003914
# 4 0.004264 0.003280 -0.006190 0.033071 -0.003445 0.003636
# 5 -0.006070 -0.000480 0.001792 -0.003445 0.029028 0.006725
# 6 -0.010422 -0.003319 0.003914 0.003636 0.006725 0.036349
#
#
# Mechanical properties :
#
#
# Convention : Reuss Voigt Hill
#
# Bulk Modulus (GPa) = 31.44062 53.49298 42.46680
# Shear Modulus (GPa) = 29.32893 39.94266 34.63580
#
# Velocity S-wave (km/s) = 3.35385 3.91394 3.64467
# Velocity P-wave (km/s) = 5.20153 6.39851 5.83082
#
# Compressibility (1/GPa) = 0.03180599
#
# Stress axis : x y z
#
# Youngs Moduli (GPa) = 35.97009 136.78550 86.90672
#
# Poissons Ratio (x) = -0.38361 0.54328
# Poissons Ratio (y) = -0.10088 0.34408
# Poissons Ratio (z) = 0.22486 0.54156
#
# Static dielectric constant tensor:
#      x y z
#    x 4.917360 -0.070080 0.052830 
#    y -0.070080 5.311290 -0.003350 
#    z 0.052830 -0.003350 4.974440 
# 
# 
# High freq. dielectric constant tensor:
#      x y z
#    x 2.026200 0.002740 -0.006380 
#    y 0.002740 2.064830 0.005820 
#    z -0.006380 0.005820 2.057450 
# 
# From -- ./inp_files/462430.got.cif
#   From: 2010.06.25/outbox.cif.g09.slc.cpg/sg2_232_cif.got.tgz:462430.got - 2010.06.27 13:26:56.
