data_PCOD8020575
_publ_section_title
;
Structure prediction by ZEFSAII (Michael W. Deem and Ramdas Pophale) SiO2 
 PCOD8020575
Probable space group: P -1
;
_chemical_formula_sum "Si O2"
_cell_formula_units_Z 16
_cell_length_a 9.184899
_cell_length_b 21.989876
_cell_length_c 13.034058
_cell_angle_alpha 33.297724
_cell_angle_beta 45.164721
_cell_angle_gamma 31.052263
_cell_volume 744.924232
_symmetry_space_group_name_H-M "P -1"
_symmetry_group_IT_number 2
_symmetry_cell_setting 'triclinic'
loop_
_space_group_symop_operation_xyz
x,y,z
-x,-y,-z
loop_
_atom_site_type_symbol
_atom_site_label
_atom_site_fract_x
_atom_site_fract_y
_atom_site_fract_z
Si Si1 0.339063 0.733709 0.426239
Si Si2 0.070876 0.211459 0.160244
Si Si3 0.015325 0.526069 0.076274
Si Si4 0.252831 0.619621 0.221589
Si Si5 0.550415 0.360363 0.711805
Si Si6 0.256838 0.030374 0.513660
Si Si7 0.616913 0.262344 0.183168
Si Si8 0.339326 0.168915 0.872741
O O1 0.558942 0.557464 0.598456
O O2 0.301804 0.759428 0.285334
O O3 0.454071 0.810084 0.293188
O O4 0.040326 0.819694 0.504255
O O5 0.274627 0.060927 0.342598
O O6 0.807136 0.231092 0.228889
O O7 0.249689 0.193490 0.001776
O O8 0.960461 0.351220 0.090697
O O9 0.284000 0.369540 0.221214
O O10 0.744214 0.583986 0.188592
O O11 0.000000 0.500000 0.000000
O O12 0.244354 0.708882 0.194900
O O13 0.934302 0.704413 0.237881
O O14 0.385798 0.635800 0.038588
O O15 0.500000 0.500000 0.500000
O O16 0.500000 0.000000 0.500000
O O17 0.271510 0.891949 0.705849
O O18 0.500000 0.000000 0.000000
#
# Coordination Sequence:
#
# PCOD8020575 Si02
#       8
#     2   2   2   2   2   2   2   2
#     4  11  23  46  68 101 139 179 234 283 335 422
#     4  11  25  47  65 103 134 185 235 279 353 417
#     4  12  22  42  74  99 138 181 237 289 337 415
#     4  10  22  42  70 100 134 180 229 280 342 405
#     4  10  23  40  65 102 138 174 232 283 346 398
#     4  12  28  45  70 101 141 185 233 287 353 409
#     4  11  24  43  70  99 138 181 233 290 343 408
#     4  11  24  46  71 101 144 182 223 283 348 417
#
# _framework density 21.478694000000001
#
# number of rings (size 3 to 8) (size 9 to 14) (size 15 to 20)
#    0.000    1.000    2.500    4.125    5.250    2.000 
#    6.750    1.875    0.000    0.000    0.000    0.000 
#    0.000    0.000    0.000    0.000    0.000    0.000 
#
# Total GULP energy -198347.360202 kJ/mol
# GULP energy per Si atom -12396.710013 kJ/mol
# Density = 2.142981 g / cm^3
# Si number density = 21.478694 Si / 1000 Ang^3
#
#
#
# Elastic Constant Matrix: (Units=GPa)
#
#
# Indices 1 2 3 4 5 6 
#
# 1 172.5556 53.1979 60.1981 -4.2813 -0.6152 -4.1418
# 2 53.1979 102.8233 37.6572 -7.7965 -0.8475 -1.2311
# 3 60.1981 37.6572 88.0050 -8.6223 1.0318 -7.8566
# 4 -4.2813 -7.7965 -8.6223 33.0775 4.6902 -6.8685
# 5 -0.6152 -0.8475 1.0318 4.6902 39.0075 -5.6103
# 6 -4.1418 -1.2311 -7.8566 -6.8685 -5.6103 35.9326
#
#
#
# Elastic Compliance Matrix: (Units=1/GPa)
#
#
# Indices 1 2 3 4 5 6 
#
# 1 0.008174 -0.002616 -0.004582 -0.000846 0.000256 -0.000271
# 2 -0.002616 0.012446 -0.003403 0.001636 0.000080 -0.000294
# 3 -0.004582 -0.003403 0.016654 0.003775 -0.000517 0.003637
# 4 -0.000846 0.001636 0.003775 0.033319 -0.003125 0.006665
# 5 0.000256 0.000080 -0.000517 -0.003125 0.026530 0.003464
# 6 -0.000271 -0.000294 0.003637 0.006665 0.003464 0.030399
#
#
# Mechanical properties :
#
#
# Convention : Reuss Voigt Hill
#
# Bulk Modulus (GPa) = 62.22033 73.94336 68.08184
# Shear Modulus (GPa) = 32.45061 35.75889 34.10475
#
# Velocity S-wave (km/s) = 3.89115 4.08469 3.98910
# Velocity P-wave (km/s) = 7.01565 7.53308 7.27897
#
# Compressibility (1/GPa) = 0.01607192
#
# Stress axis : x y z
#
# Youngs Moduli (GPa) = 122.34630 80.34419 60.04639
#
# Poissons Ratio (x) = 0.21019 0.27511
# Poissons Ratio (y) = 0.32007 0.20436
# Poissons Ratio (z) = 0.56054 0.27343
#
# Static dielectric constant tensor:
#      x y z
#    x -1.692230 0.642960 -1.340840 
#    y 0.642960 3.848010 0.197870 
#    z -1.340840 0.197870 3.497790 
# 
# 
# High freq. dielectric constant tensor:
#      x y z
#    x 1.865800 0.000830 -0.004760 
#    y 0.000830 1.835790 0.002950 
#    z -0.004760 0.002950 1.846580 
# 
# From -- ./inp_files/263655.got.cif
#   From: 2010.06.25/outbox.cif.g09.slc.cpg/sg2_132_cif.got.tgz:263655.got - 2010.06.27 13:26:56.
