data_PCOD8020444
_publ_section_title
;
Structure prediction by ZEFSAII (Michael W. Deem and Ramdas Pophale) SiO2 
 PCOD8020444
Probable space group: P -1
;
_chemical_formula_sum "Si O2"
_cell_formula_units_Z 16
_cell_length_a 7.857636
_cell_length_b 9.186318
_cell_length_c 16.984976
_cell_angle_alpha 119.964709
_cell_angle_beta 44.413190
_cell_angle_gamma 100.776951
_cell_volume 713.574614
_symmetry_space_group_name_H-M "P -1"
_symmetry_group_IT_number 2
_symmetry_cell_setting 'triclinic'
loop_
_space_group_symop_operation_xyz
x,y,z
-x,-y,-z
loop_
_atom_site_type_symbol
_atom_site_label
_atom_site_fract_x
_atom_site_fract_y
_atom_site_fract_z
Si Si1 0.503205 0.091611 0.358444
Si Si2 0.443474 0.412907 0.182733
Si Si3 0.498997 0.723101 0.050200
Si Si4 0.117679 0.446459 0.611717
Si Si5 0.933362 0.423641 0.829927
Si Si6 0.438313 0.275763 0.696355
Si Si7 0.398266 0.114944 0.220830
Si Si8 0.803112 0.241089 0.417248
O O1 0.257500 0.241989 0.506877
O O2 0.521926 0.115049 0.265495
O O3 0.745085 0.109896 0.334451
O O4 0.458070 0.902718 0.337151
O O5 0.590387 0.551567 0.195647
O O6 0.522180 0.238087 0.161975
O O7 0.155252 0.515531 0.328021
O O8 0.495926 0.355658 0.060384
O O9 0.249451 0.696926 0.169199
O O10 0.499419 0.921848 0.099829
O O11 0.752465 0.602616 0.977411
O O12 0.263386 0.569314 0.552505
O O13 0.074844 0.491546 0.730039
O O14 0.144338 0.298555 0.780627
O O15 0.611842 0.261369 0.558198
O O16 0.091228 0.174917 0.335064
#
# Coordination Sequence:
#
# PCOD8020444 Si02
#       8
#     2   2   2   2   2   2   2   2
#     4  12  25  38  68 103 134 171 218 264 332 400
#     4  10  24  44  68  95 131 176 219 271 327 387
#     4  10  23  46  68  90 129 180 222 269 324 383
#     4  10  22  42  68  95 132 177 212 260 338 389
#     4  10  23  41  70  91 132 170 220 271 328 377
#     4  12  25  41  66 103 133 168 219 273 332 388
#     4  11  25  44  70  98 133 173 221 268 330 393
#     4  11  24  44  68 100 140 169 209 278 330 396
#
# _framework density 22.422324
#
# number of rings (size 3 to 8) (size 9 to 14) (size 15 to 20)
#    0.000    1.250    1.250    3.375    8.750    3.500 
#    2.250    0.625    0.000    0.000    0.000    0.000 
#    0.000    0.000    0.000    0.000    0.000    0.000 
#
# Total GULP energy -198292.291427 kJ/mol
# GULP energy per Si atom -12393.268214 kJ/mol
# Density = 2.237129 g / cm^3
# Si number density = 22.422324 Si / 1000 Ang^3
#
#
#
# Elastic Constant Matrix: (Units=GPa)
#
#
# Indices 1 2 3 4 5 6 
#
# 1 73.7671 18.9117 19.3130 5.7587 16.1973 -7.7145
# 2 18.9117 126.6808 31.4616 21.7669 -4.9237 -7.7473
# 3 19.3130 31.4616 72.5738 16.6207 1.8635 -1.7451
# 4 5.7587 21.7669 16.6207 42.6450 -3.9553 5.4354
# 5 16.1973 -4.9237 1.8635 -3.9553 27.6697 6.0542
# 6 -7.7145 -7.7473 -1.7451 5.4354 6.0542 29.5581
#
#
#
# Elastic Compliance Matrix: (Units=1/GPa)
#
#
# Indices 1 2 3 4 5 6 
#
# 1 0.018613 -0.001599 -0.003151 -0.002612 -0.012958 0.007387
# 2 -0.001599 0.009707 -0.002924 -0.003717 0.001834 0.002262
# 3 -0.003151 -0.002924 0.017016 -0.004824 -0.000605 0.000427
# 4 -0.002612 -0.003717 -0.004824 0.029387 0.007329 -0.008846
# 5 -0.012958 0.001834 -0.000605 0.007329 0.048240 -0.014165
# 6 0.007387 0.002262 0.000427 -0.008846 -0.014165 0.040906
#
#
# Mechanical properties :
#
#
# Convention : Reuss Voigt Hill
#
# Bulk Modulus (GPa) = 33.34749 45.82161 39.58455
# Shear Modulus (GPa) = 26.42523 33.53023 29.97773
#
# Velocity S-wave (km/s) = 3.43669 3.87123 3.66041
# Velocity P-wave (km/s) = 5.53647 6.36097 5.96299
#
# Compressibility (1/GPa) = 0.02998727
#
# Stress axis : x y z
#
# Youngs Moduli (GPa) = 53.72652 103.01720 58.76842
#
# Poissons Ratio (x) = 0.16472 0.18520
# Poissons Ratio (y) = 0.08591 0.17184
# Poissons Ratio (z) = 0.16931 0.30122
#
# Static dielectric constant tensor:
#      x y z
#    x 4.131780 -0.134650 -0.105790 
#    y -0.134650 4.223020 0.108770 
#    z -0.105790 0.108770 3.979640 
# 
# 
# High freq. dielectric constant tensor:
#      x y z
#    x 1.877760 -0.014770 -0.006200 
#    y -0.014770 1.899760 0.004760 
#    z -0.006200 0.004760 1.874720 
# 
# From -- ./inp_files/277689.got.cif
#   From: 2010.06.25/outbox.cif.g09.slc.cpg/sg2_139_cif.got.tgz:277689.got - 2010.06.27 13:26:56.
