data_PCOD8020209
_publ_section_title
;
Structure prediction by ZEFSAII (Michael W. Deem and Ramdas Pophale) SiO2 
 PCOD8020209
Probable space group: P -1
;
_chemical_formula_sum "Si O2"
_cell_formula_units_Z 12
_cell_length_a 11.403369
_cell_length_b 8.483741
_cell_length_c 8.560221
_cell_angle_alpha 50.275553
_cell_angle_beta 111.322568
_cell_angle_gamma 84.326586
_cell_volume 526.127621
_symmetry_space_group_name_H-M "P -1"
_symmetry_group_IT_number 2
_symmetry_cell_setting 'triclinic'
loop_
_space_group_symop_operation_xyz
x,y,z
-x,-y,-z
loop_
_atom_site_type_symbol
_atom_site_label
_atom_site_fract_x
_atom_site_fract_y
_atom_site_fract_z
Si Si1 0.745128 0.120275 0.198904
Si Si2 0.414868 0.769872 0.262658
Si Si3 0.019186 0.821669 0.350687
Si Si4 0.522608 0.062602 0.296529
Si Si5 0.135803 0.112671 0.077478
Si Si6 0.235266 0.473836 0.894319
O O1 0.674857 0.062741 0.352913
O O2 0.779860 0.332370 0.111755
O O3 0.891712 0.899730 0.364297
O O4 0.628540 0.183736 0.967608
O O5 0.500000 0.500000 0.500000
O O6 0.518944 0.877219 0.290828
O O7 0.274238 0.886201 0.227595
O O8 0.151258 0.588667 0.621839
O O9 0.974253 0.770866 0.192335
O O10 0.063532 0.028356 0.228940
O O11 0.500000 0.000000 0.500000
O O12 0.400049 0.317760 0.030847
O O13 0.175554 0.305273 0.044414
#
# Coordination Sequence:
#
# PCOD8020209 Si02
#       6
#     2   2   2   2   2   2
#     4  11  24  42  63 101 130 167 220 268 321 386
#     4  10  22  42  66  95 129 171 216 268 323 386
#     4  10  22  44  63  96 134 172 212 269 317 395
#     4  11  25  44  66  96 130 172 220 270 322 385
#     4   9  22  42  66  96 134 167 219 260 330 381
#     4  11  23  40  70  91 130 174 213 265 327 380
#
# _framework density 22.808152
#
# number of rings (size 3 to 8) (size 9 to 14) (size 15 to 20)
#    0.000    1.667    0.000    3.000    7.000    0.667 
#   12.000    0.000    0.000    0.000    0.000    0.000 
#    0.000    0.000    0.000    0.000    0.000    0.000 
#
# Total GULP energy -148822.741606 kJ/mol
# GULP energy per Si atom -12401.895134 kJ/mol
# Density = 2.275624 g / cm^3
# Si number density = 22.808152 Si / 1000 Ang^3
#
#
#
# Elastic Constant Matrix: (Units=GPa)
#
#
# Indices 1 2 3 4 5 6 
#
# 1 132.2876 13.4392 46.7943 5.1851 -13.7993 2.3501
# 2 13.4392 80.5689 21.9721 -8.2487 -1.8077 18.6355
# 3 46.7943 21.9721 118.0323 -8.8205 13.2440 -11.4805
# 4 5.1851 -8.2487 -8.8205 20.4071 -0.7706 1.5838
# 5 -13.7993 -1.8077 13.2440 -0.7706 36.2827 -1.4140
# 6 2.3501 18.6355 -11.4805 1.5838 -1.4140 34.5753
#
#
#
# Elastic Compliance Matrix: (Units=1/GPa)
#
#
# Indices 1 2 3 4 5 6 
#
# 1 0.010195 -0.000208 -0.005149 -0.004545 0.005578 -0.001854
# 2 -0.000208 0.016514 -0.003757 0.005975 0.001839 -0.010332
# 3 -0.005149 -0.003757 0.012891 0.004636 -0.006512 0.006176
# 4 -0.004545 0.005975 0.004636 0.054805 -0.002114 -0.003969
# 5 0.005578 0.001839 -0.006512 -0.002114 0.032023 -0.002126
# 6 -0.001854 -0.010332 0.006176 -0.003969 -0.002126 0.036763
#
#
# Mechanical properties :
#
#
# Convention : Reuss Voigt Hill
#
# Bulk Modulus (GPa) = 46.78834 55.03332 50.91083
# Shear Modulus (GPa) = 26.51943 34.83190 30.67566
#
# Velocity S-wave (km/s) = 3.41356 3.91214 3.67133
# Velocity P-wave (km/s) = 6.00791 6.67740 6.35148
#
# Compressibility (1/GPa) = 0.02137285
#
# Stress axis : x y z
#
# Youngs Moduli (GPa) = 98.09091 60.55556 77.57509
#
# Poissons Ratio (x) = 0.01257 0.39943
# Poissons Ratio (y) = 0.02036 0.29142
# Poissons Ratio (z) = 0.50506 0.22748
#
# Static dielectric constant tensor:
#      x y z
#    x 4.203330 0.311310 0.181090 
#    y 0.311310 4.064130 0.046560 
#    z 0.181090 0.046560 4.055780 
# 
# 
# High freq. dielectric constant tensor:
#      x y z
#    x 1.901620 0.020540 0.010800 
#    y 0.020540 1.896010 0.001600 
#    z 0.010800 0.001600 1.900360 
# 
# From -- ./inp_files/19890.got.cif
#   From: 2010.06.25/outbox.cif.g09.slc.cpg/sg2_10_cif.got.tgz:19890.got - 2010.06.27 13:26:56.
