data_PCOD8020249
_publ_section_title
;
Structure prediction by ZEFSAII (Michael W. Deem and Ramdas Pophale) SiO2 
 PCOD8020249
Probable space group: P -1
;
_chemical_formula_sum "Si O2"
_cell_formula_units_Z 16
_cell_length_a 9.457002
_cell_length_b 18.576547
_cell_length_c 11.840057
_cell_angle_alpha 141.110047
_cell_angle_beta 48.271441
_cell_angle_gamma 102.806529
_cell_volume 754.796819
_symmetry_space_group_name_H-M "P -1"
_symmetry_group_IT_number 2
_symmetry_cell_setting 'triclinic'
loop_
_space_group_symop_operation_xyz
x,y,z
-x,-y,-z
loop_
_atom_site_type_symbol
_atom_site_label
_atom_site_fract_x
_atom_site_fract_y
_atom_site_fract_z
Si Si1 0.698628 0.387166 0.347547
Si Si2 0.131172 0.641832 0.359938
Si Si3 0.517004 0.822001 0.575351
Si Si4 0.091521 0.422141 0.234236
Si Si5 0.230115 0.120209 0.328515
Si Si6 0.525708 0.414486 0.715761
Si Si7 0.553872 0.102451 0.547086
Si Si8 0.105518 0.935057 0.115390
O O1 0.500000 0.500000 0.500000
O O2 0.564786 0.448682 0.613143
O O3 0.925315 0.386629 0.225195
O O4 0.796540 0.220096 0.070179
O O5 0.077686 0.533058 0.292055
O O6 0.213463 0.686557 0.479236
O O7 0.894361 0.782721 0.599135
O O8 0.346354 0.569907 0.064773
O O9 0.752178 0.796787 0.475771
O O10 0.602373 0.660012 0.307806
O O11 0.463564 0.904264 0.586576
O O12 0.272538 0.907100 0.885315
O O13 0.000000 0.500000 0.500000
O O14 0.368007 0.266914 0.901092
O O15 0.120444 0.037109 0.320045
O O16 0.500000 0.000000 0.000000
O O17 0.500000 0.000000 0.500000
O O18 0.827411 0.034024 0.346887
#
# Coordination Sequence:
#
# PCOD8020249 Si02
#       8
#     2   2   2   2   2   2   2   2
#     4  11  25  44  67  97 141 181 220 274 349 407
#     4  11  23  42  70  94 132 170 234 274 333 409
#     4  10  22  42  67 100 129 177 226 276 339 401
#     4  12  26  44  68 102 136 179 229 284 342 408
#     4  10  24  40  66 100 131 169 223 282 339 395
#     4  10  22  42  69  97 123 180 227 274 325 401
#     4  12  24  45  68 101 137 178 233 281 340 408
#     4  10  23  45  69  96 135 180 224 280 338 407
#
# _framework density 21.197758
#
# number of rings (size 3 to 8) (size 9 to 14) (size 15 to 20)
#    0.000    1.250    3.750    1.125    7.000    6.500 
#    0.000    0.625    0.000    0.000    0.000    0.000 
#    0.000    0.000    0.000    0.000    0.000    0.000 
#
# Total GULP energy -198333.122967 kJ/mol
# GULP energy per Si atom -12395.820185 kJ/mol
# Density = 2.114951 g / cm^3
# Si number density = 21.197758 Si / 1000 Ang^3
#
#
#
# Elastic Constant Matrix: (Units=GPa)
#
#
# Indices 1 2 3 4 5 6 
#
# 1 178.8726 74.9485 52.3860 15.8997 -5.8950 1.7510
# 2 74.9485 117.2811 47.2038 18.8257 -0.4541 1.5033
# 3 52.3860 47.2038 100.0282 18.5219 -10.8383 -13.9862
# 4 15.8997 18.8257 18.5219 35.2193 -0.3371 0.4462
# 5 -5.8950 -0.4541 -10.8383 -0.3371 30.2973 12.7505
# 6 1.7510 1.5033 -13.9862 0.4462 12.7505 39.9939
#
#
#
# Elastic Compliance Matrix: (Units=1/GPa)
#
#
# Indices 1 2 3 4 5 6 
#
# 1 0.008090 -0.004202 -0.002278 -0.000178 0.001284 -0.001400
# 2 -0.004202 0.013257 -0.003786 -0.003199 -0.001541 -0.001111
# 3 -0.002278 -0.003786 0.014804 -0.004764 0.002818 0.004574
# 4 -0.000178 -0.003199 -0.004764 0.032704 -0.000719 -0.001674
# 5 0.001284 -0.001541 0.002818 -0.000719 0.039054 -0.011456
# 6 -0.001400 -0.001111 0.004574 -0.001674 -0.011456 0.030377
#
#
# Mechanical properties :
#
#
# Convention : Reuss Voigt Hill
#
# Bulk Modulus (GPa) = 64.01733 82.80651 73.41192
# Shear Modulus (GPa) = 30.48362 35.87833 33.18098
#
# Velocity S-wave (km/s) = 3.79629 4.11853 3.96069
# Velocity P-wave (km/s) = 7.03430 7.85907 7.45809
#
# Compressibility (1/GPa) = 0.01562077
#
# Stress axis : x y z
#
# Youngs Moduli (GPa) = 123.60925 75.43182 67.55158
#
# Poissons Ratio (x) = 0.31694 0.15386
# Poissons Ratio (y) = 0.51936 0.25572
# Poissons Ratio (z) = 0.28155 0.28555
#
# Static dielectric constant tensor:
#      x y z
#    x 6.865850 0.983020 0.686190 
#    y 0.983020 4.023040 0.141500 
#    z 0.686190 0.141500 4.028270 
# 
# 
# High freq. dielectric constant tensor:
#      x y z
#    x 1.844040 0.017090 0.000890 
#    y 0.017090 1.834100 0.005120 
#    z 0.000890 0.005120 1.827270 
# 
# From -- ./inp_files/223442.got.cif
#   From: 2010.06.25/outbox.cif.g09.slc.cpg/sg2_112_cif.got.tgz:223442.got - 2010.06.27 13:26:56.
