data_PCOD8020247
_publ_section_title
;
Structure prediction by ZEFSAII (Michael W. Deem and Ramdas Pophale) SiO2 
 PCOD8020247
Probable space group: P -1
;
_chemical_formula_sum "Si O2"
_cell_formula_units_Z 14
_cell_length_a 25.908805
_cell_length_b 11.607388
_cell_length_c 8.830806
_cell_angle_alpha 41.530937
_cell_angle_beta 37.090184
_cell_angle_gamma 22.164986
_cell_volume 603.671623
_symmetry_space_group_name_H-M "P -1"
_symmetry_group_IT_number 2
_symmetry_cell_setting 'triclinic'
loop_
_space_group_symop_operation_xyz
x,y,z
-x,-y,-z
loop_
_atom_site_type_symbol
_atom_site_label
_atom_site_fract_x
_atom_site_fract_y
_atom_site_fract_z
Si Si1 0.326020 0.829560 0.588820
Si Si2 0.018730 0.835786 0.432028
Si Si3 0.932016 0.866217 0.916306
Si Si4 0.401107 0.215812 0.662648
Si Si5 0.676327 0.830766 0.564756
Si Si6 0.222626 0.219285 0.951275
Si Si7 0.235765 0.856874 0.449344
O O1 0.500000 0.500000 0.500000
O O2 0.248168 0.904713 0.542368
O O3 0.314817 0.051376 0.432678
O O4 0.237926 0.871439 0.885077
O O5 0.929467 0.874862 0.731486
O O6 0.198680 0.519436 0.338571
O O7 0.941684 0.895481 0.399603
O O8 0.985018 0.095507 0.265253
O O9 0.039872 0.532082 0.056400
O O10 0.271376 0.286451 0.894261
O O11 0.337182 0.519207 0.506212
O O12 0.500000 0.000000 0.500000
O O13 0.509990 0.022115 0.747790
O O14 0.710284 0.866748 0.289303
O O15 0.282111 0.935918 0.151481
#
# Coordination Sequence:
#
# PCOD8020247 Si02
#       7
#     2   2   2   2   2   2   2
#     4  12  26  44  61  98 147 182 214 273 351 416
#     4  10  22  43  74 102 122 180 239 282 329 386
#     4  10  22  43  70 100 137 171 231 287 332 393
#     4  10  22  42  66  99 137 171 227 286 326 394
#     4  10  22  44  65  97 141 172 229 285 330 397
#     4  10  22  43  74 100 125 180 235 287 325 385
#     4  12  24  43  68  99 136 177 229 266 345 411
#
# _framework density 23.191417000000001
#
# number of rings (size 3 to 8) (size 9 to 14) (size 15 to 20)
#    0.000    1.429    2.857    1.714    2.000    8.571 
#    5.143    1.429    0.000    0.000    0.000    0.000 
#    0.000    0.000    0.000    0.000    0.000    0.000 
#
# Total GULP energy -173495.462244 kJ/mol
# GULP energy per Si atom -12392.533017 kJ/mol
# Density = 2.313863 g / cm^3
# Si number density = 23.191417 Si / 1000 Ang^3
#
#
#
# Elastic Constant Matrix: (Units=GPa)
#
#
# Indices 1 2 3 4 5 6 
#
# 1 179.9127 55.7070 16.0956 -12.9201 -6.4055 -7.8331
# 2 55.7070 126.2101 40.0887 -7.0468 -5.1845 -10.8450
# 3 16.0956 40.0887 29.7618 -3.3804 -7.2003 -1.9569
# 4 -12.9201 -7.0468 -3.3804 36.6053 1.0091 -7.7005
# 5 -6.4055 -5.1845 -7.2003 1.0091 16.1455 -1.9819
# 6 -7.8331 -10.8450 -1.9569 -7.7005 -1.9819 46.6614
#
#
#
# Elastic Compliance Matrix: (Units=1/GPa)
#
#
# Indices 1 2 3 4 5 6 
#
# 1 0.006657 -0.003108 0.001419 0.002005 0.002258 0.000881
# 2 -0.003108 0.015907 -0.020777 0.000650 -0.005162 0.002192
# 3 0.001419 -0.020777 0.066677 0.001910 0.023448 -0.000483
# 4 0.002005 0.000650 0.001910 0.029457 0.000685 0.005458
# 5 0.002258 -0.005162 0.023448 0.000685 0.071999 0.003334
# 6 0.000881 0.002192 -0.000483 0.005458 0.003334 0.023111
#
#
# Mechanical properties :
#
#
# Convention : Reuss Voigt Hill
#
# Bulk Modulus (GPa) = 22.56910 62.18524 42.37717
# Shear Modulus (GPa) = 18.28097 34.81531 26.54814
#
# Velocity S-wave (km/s) = 2.81065 3.87876 3.38707
# Velocity P-wave (km/s) = 4.50398 6.85068 5.79731
#
# Compressibility (1/GPa) = 0.04430836
#
# Stress axis : x y z
#
# Youngs Moduli (GPa) = 150.22832 62.86431 14.99773
#
# Poissons Ratio (x) = 0.19540 -0.02128
# Poissons Ratio (y) = 0.46696 0.31161
# Poissons Ratio (z) = -0.21318 1.30612
#
# Static dielectric constant tensor:
#      x y z
#    x 2.923990 -1.481080 -1.272400 
#    y -1.481080 3.370370 -0.692640 
#    z -1.272400 -0.692640 3.291340 
# 
# 
# High freq. dielectric constant tensor:
#      x y z
#    x 1.945510 -0.007670 -0.021440 
#    y -0.007670 1.919150 -0.010540 
#    z -0.021440 -0.010540 1.878280 
# 
# From -- ./inp_files/212814.got.cif
#   From: 2010.06.25/outbox.cif.g09.slc.cpg/sg2_107_cif.got.tgz:212814.got - 2010.06.27 13:26:56.
