data_PCOD8020161
_publ_section_title
;
Structure prediction by ZEFSAII (Michael W. Deem and Ramdas Pophale) SiO2 
 PCOD8020161
Probable space group: P -1
;
_chemical_formula_sum "Si O2"
_cell_formula_units_Z 16
_cell_length_a 8.148630
_cell_length_b 8.889555
_cell_length_c 20.309068
_cell_angle_alpha 40.426382
_cell_angle_beta 65.443225
_cell_angle_gamma 57.368906
_cell_volume 803.378756
_symmetry_space_group_name_H-M "P -1"
_symmetry_group_IT_number 2
_symmetry_cell_setting 'triclinic'
loop_
_space_group_symop_operation_xyz
x,y,z
-x,-y,-z
loop_
_atom_site_type_symbol
_atom_site_label
_atom_site_fract_x
_atom_site_fract_y
_atom_site_fract_z
Si Si1 0.545356 0.435402 0.587714
Si Si2 0.540001 0.951497 0.434494
Si Si3 0.212296 0.345864 0.273638
Si Si4 0.805475 0.702377 0.265412
Si Si5 0.205296 0.075989 0.233920
Si Si6 0.546340 0.962613 0.112026
Si Si7 0.487709 0.621960 0.124694
Si Si8 0.199737 0.908422 0.749942
O O1 0.500000 0.500000 0.500000
O O2 0.604804 0.656349 0.528739
O O3 0.357773 0.414520 0.660072
O O4 0.731655 0.184491 0.651194
O O5 0.500000 0.000000 0.500000
O O6 0.350786 0.094812 0.372443
O O7 0.718965 0.020508 0.355205
O O8 0.185861 0.287094 0.221315
O O9 0.296427 0.564399 0.190150
O O10 0.005769 0.464422 0.304982
O O11 0.745431 0.864759 0.154174
O O12 0.810953 0.882996 0.263816
O O13 0.004060 0.118523 0.217550
O O14 0.358715 0.075332 0.152852
O O15 0.539321 0.732793 0.146088
O O16 0.555732 0.182958 0.991954
O O17 0.657508 0.365070 0.158812
#
# Coordination Sequence:
#
# PCOD8020161 Si02
#       8
#     2   2   2   2   2   2   2   2
#     4  11  21  43  59  86 123 159 203 248 292 354
#     4  11  25  39  61  88 121 163 201 246 300 349
#     4  11  24  41  60  93 121 159 201 249 295 357
#     4  11  24  39  64  89 124 158 201 248 298 351
#     4  11  24  39  64  89 124 158 201 248 298 351
#     4  10  22  42  66  91 117 161 191 250 304 357
#     4  10  22  42  66  89 123 152 201 243 304 362
#     4  11  24  41  60  93 121 159 201 249 295 357
#
# _framework density 19.915884999999999
#
# number of rings (size 3 to 8) (size 9 to 14) (size 15 to 20)
#    0.000    1.250    2.500    3.750   10.500    5.000 
#    0.000    0.000    0.000    0.000    0.000    0.000 
#    0.000    0.000    0.000    0.000    0.000    0.000 
#
# Total GULP energy -198348.339104 kJ/mol
# GULP energy per Si atom -12396.771194 kJ/mol
# Density = 1.987056 g / cm^3
# Si number density = 19.915885 Si / 1000 Ang^3
#
#
#
# Elastic Constant Matrix: (Units=GPa)
#
#
# Indices 1 2 3 4 5 6 
#
# 1 62.3897 -3.1309 11.2830 1.1670 1.4679 -7.3589
# 2 -3.1309 83.7793 12.0611 0.2188 1.7460 1.7702
# 3 11.2830 12.0611 84.2497 -3.4087 2.9298 8.2191
# 4 1.1670 0.2188 -3.4087 31.0493 11.4148 3.2667
# 5 1.4679 1.7460 2.9298 11.4148 24.1782 0.6288
# 6 -7.3589 1.7702 8.2191 3.2667 0.6288 40.7932
#
#
#
# Elastic Compliance Matrix: (Units=1/GPa)
#
#
# Indices 1 2 3 4 5 6 
#
# 1 0.017055 0.000975 -0.002827 -0.001249 -0.000270 0.003708
# 2 0.000975 0.012255 -0.001868 -0.000082 -0.000680 0.000038
# 3 -0.002827 -0.001868 0.013033 0.002817 -0.002519 -0.003242
# 4 -0.001249 -0.000082 0.002817 0.039946 -0.019022 -0.003695
# 5 -0.000270 -0.000680 -0.002519 -0.019022 0.050679 0.001230
# 6 0.003708 0.000038 -0.003242 -0.003695 0.001230 0.026111
#
#
# Mechanical properties :
#
#
# Convention : Reuss Voigt Hill
#
# Bulk Modulus (GPa) = 28.65022 30.09391 29.37206
# Shear Modulus (GPa) = 28.06555 33.21785 30.64170
#
# Velocity S-wave (km/s) = 3.75801 4.08843 3.92670
# Velocity P-wave (km/s) = 5.76602 6.11803 5.94463
#
# Compressibility (1/GPa) = 0.03490375
#
# Stress axis : x y z
#
# Youngs Moduli (GPa) = 58.63223 81.59862 76.72653
#
# Poissons Ratio (x) = -0.07955 0.21687
# Poissons Ratio (y) = -0.05716 0.14335
# Poissons Ratio (z) = 0.16573 0.15245
#
# Static dielectric constant tensor:
#      x y z
#    x 3.771650 0.057260 0.141480 
#    y 0.057260 3.698060 -0.038720 
#    z 0.141480 -0.038720 3.759740 
# 
# 
# High freq. dielectric constant tensor:
#      x y z
#    x 1.779160 0.009930 0.002260 
#    y 0.009930 1.790270 -0.002830 
#    z 0.002260 -0.002830 1.781020 
# 
# From -- ./inp_files/200596.got.cif
#   From: 2010.06.25/outbox.cif.g09.slc.cpg/sg2_101_cif.got.tgz:200596.got - 2010.06.27 13:26:56.
