data_PCOD8020469
_publ_section_title
;
Structure prediction by ZEFSAII (Michael W. Deem and Ramdas Pophale) SiO2 
 PCOD8020469
Probable space group: P -1
;
_chemical_formula_sum "Si O2"
_cell_formula_units_Z 16
_cell_length_a 12.971635
_cell_length_b 9.458382
_cell_length_c 21.919837
_cell_angle_alpha 33.537995
_cell_angle_beta 145.076768
_cell_angle_gamma 147.363526
_cell_volume 735.803584
_symmetry_space_group_name_H-M "P -1"
_symmetry_group_IT_number 2
_symmetry_cell_setting 'triclinic'
loop_
_space_group_symop_operation_xyz
x,y,z
-x,-y,-z
loop_
_atom_site_type_symbol
_atom_site_label
_atom_site_fract_x
_atom_site_fract_y
_atom_site_fract_z
Si Si1 0.660441 0.506722 0.997656
Si Si2 0.531486 0.086448 0.554469
Si Si3 0.284605 0.570792 0.184349
Si Si4 0.730320 0.003696 0.254245
Si Si5 0.237954 0.254844 0.525211
Si Si6 0.211494 0.191246 0.174008
Si Si7 0.784312 0.899729 0.026430
Si Si8 0.811998 0.828288 0.603827
O O1 0.766823 0.326682 0.141446
O O2 0.412084 0.329575 0.947115
O O3 0.712197 0.570811 0.928982
O O4 0.754479 0.808223 0.973723
O O5 0.694893 0.437241 0.517667
O O6 0.296530 0.976934 0.503962
O O7 0.500000 0.000000 0.500000
O O8 0.619030 0.906152 0.697824
O O9 0.165101 0.323422 0.164398
O O10 0.271761 0.427119 0.295010
O O11 0.523015 0.760091 0.206490
O O12 0.179743 0.771438 0.069200
O O13 0.935700 0.984971 0.342118
O O14 0.670372 0.916137 0.328394
O O15 0.298574 0.329864 0.456817
O O16 0.000000 0.000000 0.500000
O O17 0.989548 0.908452 0.149675
#
# Coordination Sequence:
#
# PCOD8020469 Si02
#       8
#     2   2   2   2   2   2   2   2
#     4  10  24  44  67 102 131 169 226 285 327 400
#     4  12  25  46  65 103 143 175 232 283 335 411
#     4  11  23  43  65  96 138 170 228 274 331 417
#     4  10  22  42  68  97 136 167 232 277 331 402
#     4  10  23  42  69 100 130 183 229 277 337 409
#     4  12  25  42  67  97 138 175 218 279 341 399
#     4  10  24  42  68  97 132 176 222 276 340 394
#     4  11  23  41  69  97 127 189 221 278 343 389
#
# _framework density 21.744934000000001
#
# number of rings (size 3 to 8) (size 9 to 14) (size 15 to 20)
#    0.000    1.250    2.500    1.875    5.250    5.000 
#    2.250    3.125    0.000    0.000    0.000    0.000 
#    0.000    0.000    0.000    0.000    0.000    0.000 
#
# Total GULP energy -198244.793824 kJ/mol
# GULP energy per Si atom -12390.299614 kJ/mol
# Density = 2.169544 g / cm^3
# Si number density = 21.744934 Si / 1000 Ang^3
#
#
#
# Elastic Constant Matrix: (Units=GPa)
#
#
# Indices 1 2 3 4 5 6 
#
# 1 120.4091 45.0572 58.1237 7.0899 -13.6144 -8.8084
# 2 45.0572 83.9063 35.4471 8.2315 -11.1762 -5.1036
# 3 58.1237 35.4471 141.1173 4.3131 -10.2764 -5.2267
# 4 7.0899 8.2315 4.3131 31.3543 6.9305 8.9197
# 5 -13.6144 -11.1762 -10.2764 6.9305 34.2128 6.1811
# 6 -8.8084 -5.1036 -5.2267 8.9197 6.1811 32.5473
#
#
#
# Elastic Compliance Matrix: (Units=1/GPa)
#
#
# Indices 1 2 3 4 5 6 
#
# 1 0.012261 -0.004370 -0.003623 -0.002295 0.002427 0.002219
# 2 -0.004370 0.015985 -0.001775 -0.004173 0.003522 0.001514
# 3 -0.003623 -0.001775 0.009086 -0.000153 0.000719 0.000106
# 4 -0.002295 -0.004173 -0.000153 0.038255 -0.008225 -0.010222
# 5 0.002427 0.003522 0.000719 -0.008225 0.033738 -0.002829
# 6 0.002219 0.001514 0.000106 -0.010222 -0.002829 0.034918
#
#
# Mechanical properties :
#
#
# Convention : Reuss Voigt Hill
#
# Bulk Modulus (GPa) = 56.19690 69.18765 62.69228
# Shear Modulus (GPa) = 29.46158 33.40988 31.43573
#
# Velocity S-wave (km/s) = 3.68485 3.92400 3.80631
# Velocity P-wave (km/s) = 6.63355 7.23998 6.94339
#
# Compressibility (1/GPa) = 0.01779458
#
# Stress axis : x y z
#
# Youngs Moduli (GPa) = 81.55753 62.55742 110.06393
#
# Poissons Ratio (x) = 0.27338 0.39881
# Poissons Ratio (y) = 0.35642 0.19540
# Poissons Ratio (z) = 0.29552 0.11106
#
# Static dielectric constant tensor:
#      x y z
#    x 4.162140 0.022410 -0.078140 
#    y 0.022410 3.980160 0.253400 
#    z -0.078140 0.253400 4.219460 
# 
# 
# High freq. dielectric constant tensor:
#      x y z
#    x 1.849770 0.007750 -0.004630 
#    y 0.007750 1.855680 0.018800 
#    z -0.004630 0.018800 1.864590 
# 
# From -- ./inp_files/498983.got.cif
#   From: 2010.06.25/outbox.cif.g09.slc.cpg/sg2_250_cif.got.tgz:498983.got - 2010.06.27 13:26:56.
