data_PCOD8020932
_publ_section_title
;
Structure prediction by ZEFSAII (Michael W. Deem and Ramdas Pophale) SiO2 
 PCOD8020932
Probable space group: P -1
;
_chemical_formula_sum "Si O2"
_cell_formula_units_Z 16
_cell_length_a 9.104684
_cell_length_b 17.764150
_cell_length_c 4.938989
_cell_angle_alpha 101.205109
_cell_angle_beta 105.625698
_cell_angle_gamma 55.358044
_cell_volume 632.057414
_symmetry_space_group_name_H-M "P -1"
_symmetry_group_IT_number 2
_symmetry_cell_setting 'triclinic'
loop_
_space_group_symop_operation_xyz
x,y,z
-x,-y,-z
loop_
_atom_site_type_symbol
_atom_site_label
_atom_site_fract_x
_atom_site_fract_y
_atom_site_fract_z
Si Si1 0.595197 0.391649 0.402285
Si Si2 0.970514 0.888356 0.970342
Si Si3 0.488225 0.193989 0.472797
Si Si4 0.278700 0.554827 0.998263
Si Si5 0.316827 0.392182 0.600330
Si Si6 0.704158 0.093441 0.987395
Si Si7 0.965047 0.226062 0.570757
Si Si8 0.906612 0.682587 0.660250
O O1 0.594635 0.425607 0.119252
O O2 0.396361 0.411065 0.382633
O O3 0.747511 0.284680 0.450131
O O4 0.648364 0.449639 0.665201
O O5 0.942687 0.862348 0.639452
O O6 0.795055 0.987053 0.031151
O O7 0.988187 0.810760 0.125863
O O8 0.150257 0.890993 0.074172
O O9 0.469186 0.284306 0.666390
O O10 0.549672 0.122502 0.701678
O O11 0.286450 0.226302 0.277618
O O12 0.628592 0.151319 0.265069
O O13 0.287168 0.462144 0.870715
O O14 0.071748 0.644152 0.931073
O O15 0.125289 0.400134 0.462839
O O16 0.036439 0.291889 0.575942
#
# Coordination Sequence:
#
# PCOD8020932 Si02
#       8
#     2   2   2   2   2   2   2   2
#     4  11  23  39  67  95 131 163 220 272 313 370
#     4  11  23  38  72  87 134 156 219 254 335 370
#     4  10  24  38  65  87 134 160 219 251 318 376
#     4  11  23  43  63  96 130 170 217 264 320 374
#     4  10  22  43  65  96 126 177 212 270 313 380
#     4  11  22  43  61 104 117 168 205 280 306 389
#     4  11  22  43  62  98 124 177 203 264 317 388
#     4   9  24  44  64  93 137 174 212 258 318 395
#
# _framework density 25.314157000000002
#
# number of rings (size 3 to 8) (size 9 to 14) (size 15 to 20)
#    0.750    0.750    0.000    5.625    0.000    7.000 
#    0.000    6.875    0.000    0.000    0.000    0.000 
#    0.000    0.000    0.000    0.000    0.000    0.000 
#
# Total GULP energy -198284.364557 kJ/mol
# GULP energy per Si atom -12392.772785 kJ/mol
# Density = 2.525654 g / cm^3
# Si number density = 25.314157 Si / 1000 Ang^3
#
#
#
# Elastic Constant Matrix: (Units=GPa)
#
#
# Indices 1 2 3 4 5 6 
#
# 1 114.0357 39.5799 23.4205 -15.3726 3.8638 11.1568
# 2 39.5799 139.3956 41.4940 -10.3418 -10.7283 -17.5775
# 3 23.4205 41.4940 110.6865 -19.9487 -5.9969 -10.3146
# 4 -15.3726 -10.3418 -19.9487 48.2639 -4.0282 -1.9627
# 5 3.8638 -10.7283 -5.9969 -4.0282 29.8446 -2.2061
# 6 11.1568 -17.5775 -10.3146 -1.9627 -2.2061 33.3664
#
#
#
# Elastic Compliance Matrix: (Units=1/GPa)
#
#
# Indices 1 2 3 4 5 6 
#
# 1 0.011312 -0.003702 -0.001474 0.001666 -0.003333 -0.006310
# 2 -0.003702 0.009987 -0.002024 0.000729 0.004219 0.006195
# 3 -0.001474 -0.002024 0.011293 0.004111 0.002534 0.003327
# 4 0.001666 0.000729 0.004111 0.023573 0.004259 0.002766
# 5 -0.003333 0.004219 0.002534 0.004259 0.037043 0.006820
# 6 -0.006310 0.006195 0.003327 0.002766 0.006820 0.036986
#
#
# Mechanical properties :
#
#
# Convention : Reuss Voigt Hill
#
# Bulk Modulus (GPa) = 54.96506 63.67853 59.32179
# Shear Modulus (GPa) = 33.18776 39.60321 36.39548
#
# Velocity S-wave (km/s) = 3.62475 3.95963 3.79588
# Velocity P-wave (km/s) = 6.26727 6.79079 6.53428
#
# Compressibility (1/GPa) = 0.01819338
#
# Stress axis : x y z
#
# Youngs Moduli (GPa) = 88.40499 100.12829 88.54738
#
# Poissons Ratio (x) = 0.37064 0.13054
# Poissons Ratio (y) = 0.32724 0.17918
# Poissons Ratio (z) = 0.13033 0.20261
#
# Static dielectric constant tensor:
#      x y z
#    x 4.613070 -0.258880 -0.099870 
#    y -0.258880 4.813150 -0.032490 
#    z -0.099870 -0.032490 4.076770 
# 
# 
# High freq. dielectric constant tensor:
#      x y z
#    x 2.002860 -0.013820 -0.007790 
#    y -0.013820 2.032880 -0.005130 
#    z -0.007790 -0.005130 1.995660 
# 
# From -- ./inp_files/47871.got.cif
#   From: 2010.06.25/outbox.cif.g09.slc.cpg/sg2_24_cif.got.tgz:47871.got - 2010.06.27 13:26:56.
