data_PCOD8020849
_publ_section_title
;
Structure prediction by ZEFSAII (Michael W. Deem and Ramdas Pophale) SiO2 
 PCOD8020849
Probable space group: P -1
;
_chemical_formula_sum "Si O2"
_cell_formula_units_Z 16
_cell_length_a 8.605989
_cell_length_b 17.946975
_cell_length_c 6.585845
_cell_angle_alpha 125.382614
_cell_angle_beta 82.925169
_cell_angle_gamma 117.357961
_cell_volume 722.073179
_symmetry_space_group_name_H-M "P -1"
_symmetry_group_IT_number 2
_symmetry_cell_setting 'triclinic'
loop_
_space_group_symop_operation_xyz
x,y,z
-x,-y,-z
loop_
_atom_site_type_symbol
_atom_site_label
_atom_site_fract_x
_atom_site_fract_y
_atom_site_fract_z
Si Si1 0.180406 0.377775 0.095389
Si Si2 0.997774 0.191435 0.521088
Si Si3 0.483934 0.328858 0.013643
Si Si4 0.681838 0.998555 0.451729
Si Si5 0.189830 0.565021 0.172456
Si Si6 0.495181 0.813428 0.901896
Si Si7 0.124212 0.726159 0.692836
Si Si8 0.294010 0.140440 0.455310
O O1 0.229293 0.493695 0.206574
O O2 0.039998 0.344301 0.247673
O O3 0.367668 0.387856 0.159105
O O4 0.101120 0.300686 0.794481
O O5 0.936932 0.208523 0.337996
O O6 0.116239 0.133795 0.375437
O O7 0.828634 0.114155 0.556479
O O8 0.665264 0.397609 0.971443
O O9 0.357228 0.223811 0.753332
O O10 0.527305 0.294218 0.168250
O O11 0.741356 0.967926 0.606056
O O12 0.500000 0.000000 0.500000
O O13 0.648028 0.914347 0.148774
O O14 0.191708 0.659533 0.444274
O O15 0.000000 0.500000 0.000000
O O16 0.297866 0.805464 0.922160
O O17 0.550990 0.821659 0.673310
#
# Coordination Sequence:
#
# PCOD8020849 Si02
#       8
#     2   2   2   2   2   2   2   2
#     4  11  24  43  65  94 130 170 212 263 316 375
#     4  11  24  42  64  93 132 168 211 263 316 375
#     4  10  23  43  65  94 131 168 209 261 321 375
#     4  11  24  39  65  95 127 168 214 259 318 374
#     4  12  23  43  67  94 128 168 212 265 319 374
#     4  11  23  41  67  93 129 166 212 263 313 379
#     4  12  24  41  67  95 129 166 217 261 316 376
#     4  10  22  43  64  93 129 168 210 262 317 376
#
# _framework density 22.15842
#
# number of rings (size 3 to 8) (size 9 to 14) (size 15 to 20)
#    0.000    1.000    2.500    4.125    1.750    3.500 
#    0.000    1.250    0.000    0.000    0.000    0.000 
#    0.000    0.000    0.000    0.000    0.000    0.000 
#
# Total GULP energy -198437.141185 kJ/mol
# GULP energy per Si atom -12402.321324 kJ/mol
# Density = 2.210799 g / cm^3
# Si number density = 22.158420 Si / 1000 Ang^3
#
#
#
# Elastic Constant Matrix: (Units=GPa)
#
#
# Indices 1 2 3 4 5 6 
#
# 1 87.1621 -5.1374 10.2615 7.1249 11.9839 -11.9184
# 2 -5.1374 85.8094 7.0343 -8.7372 11.6960 -14.6175
# 3 10.2615 7.0343 36.5570 -12.1750 0.0899 -5.6090
# 4 7.1249 -8.7372 -12.1750 28.2173 -2.0168 2.5375
# 5 11.9839 11.6960 0.0899 -2.0168 32.3937 -9.3444
# 6 -11.9184 -14.6175 -5.6090 2.5375 -9.3444 53.4824
#
#
#
# Elastic Compliance Matrix: (Units=1/GPa)
#
#
# Indices 1 2 3 4 5 6 
#
# 1 0.013838 0.001832 -0.005891 -0.006067 -0.005479 0.002297
# 2 0.001832 0.013256 -0.001849 0.002260 -0.004467 0.002950
# 3 -0.005891 -0.001849 0.035019 0.016166 0.004286 0.001836
# 4 -0.006067 0.002260 0.016166 0.044977 0.004050 -0.000465
# 5 -0.005479 -0.004467 0.004286 0.004050 0.035931 0.004093
# 6 0.002297 0.002950 0.001836 -0.000465 0.004093 0.020946
#
#
# Mechanical properties :
#
#
# Convention : Reuss Voigt Hill
#
# Bulk Modulus (GPa) = 19.88200 25.98282 22.93241
# Shear Modulus (GPa) = 25.96725 35.97669 30.97197
#
# Velocity S-wave (km/s) = 3.42700 4.03378 3.74271
# Velocity P-wave (km/s) = 4.96500 5.78330 5.38970
#
# Compressibility (1/GPa) = 0.05029675
#
# Stress axis : x y z
#
# Youngs Moduli (GPa) = 72.26569 75.43498 28.55572
#
# Poissons Ratio (x) = -0.13818 0.16823
# Poissons Ratio (y) = -0.13238 0.05279
# Poissons Ratio (z) = 0.42575 0.13946
#
# Static dielectric constant tensor:
#      x y z
#    x 4.717640 -0.092650 0.230720 
#    y -0.092650 4.198530 0.143940 
#    z 0.230720 0.143940 4.097420 
# 
# 
# High freq. dielectric constant tensor:
#      x y z
#    x 1.892870 -0.004600 0.002640 
#    y -0.004600 1.882670 -0.008280 
#    z 0.002640 -0.008280 1.857240 
# 
# From -- ./inp_files/39824.got.cif
#   From: 2010.06.25/outbox.cif.g09.slc.cpg/sg2_20_cif.got.tgz:39824.got - 2010.06.27 13:26:56.
