data_PCOD8020913
_publ_section_title
;
Structure prediction by ZEFSAII (Michael W. Deem and Ramdas Pophale) SiO2 
 PCOD8020913
Probable space group: P -1
;
_chemical_formula_sum "Si O2"
_cell_formula_units_Z 14
_cell_length_a 13.124442
_cell_length_b 8.118119
_cell_length_c 17.104002
_cell_angle_alpha 134.054718
_cell_angle_beta 40.766909
_cell_angle_gamma 104.081210
_cell_volume 681.734032
_symmetry_space_group_name_H-M "P -1"
_symmetry_group_IT_number 2
_symmetry_cell_setting 'triclinic'
loop_
_space_group_symop_operation_xyz
x,y,z
-x,-y,-z
loop_
_atom_site_type_symbol
_atom_site_label
_atom_site_fract_x
_atom_site_fract_y
_atom_site_fract_z
Si Si1 0.902660 0.607533 0.007942
Si Si2 0.888311 0.096633 0.514849
Si Si3 0.196275 0.352398 0.621578
Si Si4 0.238110 0.614885 0.535257
Si Si5 0.861255 0.136065 0.850924
Si Si6 0.559550 0.696278 0.839024
Si Si7 0.547092 0.148064 0.455626
O O1 0.734258 0.938367 0.224731
O O2 0.817647 0.442021 0.975642
O O3 0.000000 0.500000 0.000000
O O4 0.032910 0.583160 0.853112
O O5 0.700236 0.436524 0.734191
O O6 0.806027 0.920491 0.478531
O O7 0.000000 0.000000 0.500000
O O8 0.058437 0.024274 0.332201
O O9 0.181574 0.481167 0.588891
O O10 0.385444 0.288026 0.530339
O O11 0.316176 0.404102 0.346022
O O12 0.414100 0.637631 0.458464
O O13 0.033962 0.928133 0.743399
O O14 0.651654 0.226408 0.025824
O O15 0.500000 0.000000 0.000000
O O16 0.500000 0.000000 0.500000
#
# Coordination Sequence:
#
# PCOD8020913 Si02
#       7
#     2   2   2   2   2   2   2
#     4  11  20  39  65  92 121 176 211 255 325 396
#     4  10  24  45  69  93 130 174 220 274 330 383
#     4  11  25  40  63  98 133 166 219 275 326 387
#     4  11  25  41  64  99 134 171 211 281 330 382
#     4  10  22  43  65  93 129 170 221 260 331 398
#     4  11  26  44  69  96 126 176 223 269 332 393
#     4  12  21  40  68  92 134 172 217 261 328 398
#
# _framework density 20.535867
#
# number of rings (size 3 to 8) (size 9 to 14) (size 15 to 20)
#    0.000    1.143    2.857    3.857    4.000    3.429 
#    2.571    0.000    0.000    0.000    0.000    0.000 
#    0.000    0.000    0.000    0.000    0.000    0.000 
#
# Total GULP energy -173475.015758 kJ/mol
# GULP energy per Si atom -12391.072554 kJ/mol
# Density = 2.048913 g / cm^3
# Si number density = 20.535867 Si / 1000 Ang^3
#
#
#
# Elastic Constant Matrix: (Units=GPa)
#
#
# Indices 1 2 3 4 5 6 
#
# 1 108.0987 31.6361 47.8772 -2.7959 -6.0113 -8.2569
# 2 31.6361 87.0466 40.4366 -8.7125 6.8801 -14.8248
# 3 47.8772 40.4366 119.1238 -5.5885 5.4216 -1.0206
# 4 -2.7959 -8.7125 -5.5885 36.1512 4.7621 5.1987
# 5 -6.0113 6.8801 5.4216 4.7621 33.2190 -2.2364
# 6 -8.2569 -14.8248 -1.0206 5.1987 -2.2364 33.2573
#
#
#
# Elastic Compliance Matrix: (Units=1/GPa)
#
#
# Indices 1 2 3 4 5 6 
#
# 1 0.012218 -0.002486 -0.004270 -0.001126 0.003734 0.002221
# 2 -0.002486 0.015726 -0.004032 0.002559 -0.003034 0.005665
# 3 -0.004270 -0.004032 0.011611 0.001190 -0.002194 -0.002835
# 4 -0.001126 0.002559 0.001190 0.029686 -0.005460 -0.004110
# 5 0.003734 -0.003034 -0.002194 -0.005460 0.032721 0.002561
# 6 0.002221 0.005665 -0.002835 -0.004110 0.002561 0.033873
#
#
# Mechanical properties :
#
#
# Convention : Reuss Voigt Hill
#
# Bulk Modulus (GPa) = 55.62603 61.57433 58.60018
# Shear Modulus (GPa) = 30.59923 33.48012 32.03967
#
# Velocity S-wave (km/s) = 3.86429 4.04211 3.95420
# Velocity P-wave (km/s) = 6.85976 7.19956 7.03172
#
# Compressibility (1/GPa) = 0.01797720
#
# Stress axis : x y z
#
# Youngs Moduli (GPa) = 81.84711 63.59094 86.12550
#
# Poissons Ratio (x) = 0.15810 0.36778
# Poissons Ratio (y) = 0.20349 0.34726
# Poissons Ratio (z) = 0.34951 0.25640
#
# Static dielectric constant tensor:
#      x y z
#    x -0.594480 1.049290 2.503960 
#    y 1.049290 3.526720 -0.486300 
#    z 2.503960 -0.486300 2.697950 
# 
# 
# High freq. dielectric constant tensor:
#      x y z
#    x 1.809270 0.006080 0.002550 
#    y 0.006080 1.797830 -0.006940 
#    z 0.002550 -0.006940 1.816370 
# 
# From -- ./inp_files/60780.got.cif
#   From: 2010.06.25/outbox.cif.g09.slc.cpg/sg2_31_cif.got.tgz:60780.got - 2010.06.27 13:26:56.
