data_PCOD8020218
_publ_section_title
;
Structure prediction by ZEFSAII (Michael W. Deem and Ramdas Pophale) SiO2 
 PCOD8020218
Probable space group: P -1
;
_chemical_formula_sum "Si O2"
_cell_formula_units_Z 16
_cell_length_a 9.255929
_cell_length_b 19.852481
_cell_length_c 11.974488
_cell_angle_alpha 147.564055
_cell_angle_beta 140.591134
_cell_angle_gamma 53.529584
_cell_volume 738.400581
_symmetry_space_group_name_H-M "P -1"
_symmetry_group_IT_number 2
_symmetry_cell_setting 'triclinic'
loop_
_space_group_symop_operation_xyz
x,y,z
-x,-y,-z
loop_
_atom_site_type_symbol
_atom_site_label
_atom_site_fract_x
_atom_site_fract_y
_atom_site_fract_z
Si Si1 0.108233 0.594082 0.477915
Si Si2 0.382236 0.186877 0.536210
Si Si3 0.380484 0.019515 0.703611
Si Si4 0.353193 0.417673 0.706786
Si Si5 0.497639 0.625351 0.922056
Si Si6 0.945132 0.128642 0.520946
Si Si7 0.110221 0.853273 0.741557
Si Si8 0.920353 0.594206 0.995548
O O1 0.308703 0.655277 0.764998
O O2 0.059124 0.699467 0.506687
O O3 0.147287 0.472389 0.257409
O O4 0.902207 0.555119 0.386979
O O5 0.376384 0.270094 0.534337
O O6 0.120809 0.106382 0.283293
O O7 0.574012 0.096676 0.510976
O O8 0.466676 0.276058 0.816996
O O9 0.209946 0.103448 0.660255
O O10 0.246870 0.969315 0.666105
O O11 0.639690 0.094713 0.984212
O O12 0.439982 0.476390 0.720312
O O13 0.500000 0.500000 0.000000
O O14 0.714511 0.647632 0.004232
O O15 0.880594 0.103447 0.319188
O O16 0.909117 0.271735 0.737036
O O17 0.000000 0.500000 0.000000
#
# Coordination Sequence:
#
# PCOD8020218 Si02
#       8
#     2   2   2   2   2   2   2   2
#     4  11  23  39  66  97 131 167 214 272 327 388
#     4  10  22  42  66  96 132 176 213 269 331 381
#     4  11  26  44  70  93 134 177 220 271 318 399
#     4   9  20  38  62  91 132 169 208 263 327 385
#     4  11  22  39  62 101 133 166 216 269 322 392
#     4  11  25  46  66  99 131 171 225 270 326 386
#     4  11  22  46  67  98 130 169 224 270 327 393
#     4  12  22  41  67  93 127 173 211 267 332 386
#
# _framework density 21.668455999999999
#
# number of rings (size 3 to 8) (size 9 to 14) (size 15 to 20)
#    0.000    1.250    2.500    3.750    5.250    0.500 
#    4.500    1.250    0.000    0.000    0.000    0.000 
#    0.000    0.000    0.000    0.000    0.000    0.000 
#
# Total GULP energy -198222.015936 kJ/mol
# GULP energy per Si atom -12388.875996 kJ/mol
# Density = 2.161914 g / cm^3
# Si number density = 21.668456 Si / 1000 Ang^3
#
#
#
# Elastic Constant Matrix: (Units=GPa)
#
#
# Indices 1 2 3 4 5 6 
#
# 1 42.0066 10.2000 8.0312 4.5665 10.4651 -4.1934
# 2 10.2000 85.2355 23.2650 -2.1729 0.3846 -4.9640
# 3 8.0312 23.2650 70.1714 -5.5170 6.0267 -6.3423
# 4 4.5665 -2.1729 -5.5170 35.7744 -0.4782 -0.7328
# 5 10.4651 0.3846 6.0267 -0.4782 21.0522 3.3842
# 6 -4.1934 -4.9640 -6.3423 -0.7328 3.3842 34.0277
#
#
#
# Elastic Compliance Matrix: (Units=1/GPa)
#
#
# Indices 1 2 3 4 5 6 
#
# 1 0.029381 -0.003026 -0.000998 -0.004199 -0.015067 0.004401
# 2 -0.003026 0.013267 -0.004158 0.000594 0.002375 0.000564
# 3 -0.000998 -0.004158 0.016588 0.002430 -0.004583 0.002870
# 4 -0.004199 0.000594 0.002430 0.028935 0.001966 0.000450
# 5 -0.015067 0.002375 -0.004583 0.001966 0.057598 -0.008051
# 6 0.004401 0.000564 0.002870 0.000450 -0.008051 0.031358
#
#
# Mechanical properties :
#
#
# Convention : Reuss Voigt Hill
#
# Bulk Modulus (GPa) = 23.32604 31.15622 27.24113
# Shear Modulus (GPa) = 24.06366 28.56535 26.31450
#
# Velocity S-wave (km/s) = 3.33609 3.63477 3.48863
# Velocity P-wave (km/s) = 5.06238 5.65908 5.36903
#
# Compressibility (1/GPa) = 0.04287055
#
# Stress axis : x y z
#
# Youngs Moduli (GPa) = 34.03559 75.37672 60.28517
#
# Poissons Ratio (x) = 0.22812 0.06014
# Poissons Ratio (y) = 0.10301 0.25069
# Poissons Ratio (z) = 0.03395 0.31345
#
# Static dielectric constant tensor:
#      x y z
#    x 4.146820 0.329780 0.281830 
#    y 0.329780 5.137890 0.220260 
#    z 0.281830 0.220260 3.743830 
# 
# 
# High freq. dielectric constant tensor:
#      x y z
#    x 1.858700 0.004740 0.021000 
#    y 0.004740 1.856330 -0.000950 
#    z 0.021000 -0.000950 1.841920 
# 
# From -- ./inp_files/279576.got.cif
#   From: 2010.06.25/outbox.cif.g09.slc.cpg/sg2_140_cif.got.tgz:279576.got - 2010.06.27 13:26:56.
