data_PCOD8020087
_publ_section_title
;
Structure prediction by ZEFSAII (Michael W. Deem and Ramdas Pophale) SiO2 
 PCOD8020087
Probable space group: P -1
;
_chemical_formula_sum "Si O2"
_cell_formula_units_Z 16
_cell_length_a 11.927835
_cell_length_b 13.137636
_cell_length_c 15.138491
_cell_angle_alpha 131.721931
_cell_angle_beta 29.078178
_cell_angle_gamma 110.830983
_cell_volume 673.061347
_symmetry_space_group_name_H-M "P -1"
_symmetry_group_IT_number 2
_symmetry_cell_setting 'triclinic'
loop_
_space_group_symop_operation_xyz
x,y,z
-x,-y,-z
loop_
_atom_site_type_symbol
_atom_site_label
_atom_site_fract_x
_atom_site_fract_y
_atom_site_fract_z
Si Si1 0.251270 0.610998 0.164126
Si Si2 0.569487 0.080446 0.785633
Si Si3 0.864660 0.010687 0.711690
Si Si4 0.725369 0.515321 0.232296
Si Si5 0.086742 0.380435 0.176799
Si Si6 0.873143 0.963310 0.877256
Si Si7 0.828419 0.260627 0.147837
Si Si8 0.343072 0.572121 0.372241
O O1 0.085188 0.526725 0.213809
O O2 0.018229 0.811131 0.464422
O O3 0.500000 0.500000 0.000000
O O4 0.424695 0.588673 0.943044
O O5 0.902934 0.950388 0.442121
O O6 0.589409 0.129182 0.902000
O O7 0.402139 0.243288 0.927814
O O8 0.401534 0.998063 0.856260
O O9 0.759088 0.045765 0.905545
O O10 0.836586 0.328729 0.084873
O O11 0.511892 0.646506 0.535243
O O12 0.517215 0.591067 0.335809
O O13 0.000000 0.500000 0.000000
O O14 0.011262 0.285154 0.105982
O O15 0.850715 0.471990 0.471807
O O16 0.137571 0.756999 0.568778
O O17 0.982550 0.056850 0.909186
#
# Coordination Sequence:
#
# PCOD8020087 Si02
#       8
#     2   2   2   2   2   2   2   2
#     4  12  22  41  66  91 129 168 214 269 316 375
#     4  10  23  40  62  91 127 165 213 265 317 375
#     4  11  24  41  62  96 129 166 217 265 319 379
#     4  10  22  42  65  93 128 167 213 259 314 376
#     4  10  22  43  65  93 126 166 215 268 322 379
#     4  11  23  43  64  93 133 171 209 261 323 382
#     4  10  24  43  67  97 131 168 214 263 320 388
#     4  10  23  39  63  95 125 168 216 256 322 381
#
# _framework density 23.771978000000001
#
# number of rings (size 3 to 8) (size 9 to 14) (size 15 to 20)
#    0.000    1.500    2.500    1.125    0.000   13.000 
#    0.000    4.375    0.000    0.000    0.000    0.000 
#    0.000    0.000    0.000    0.000    0.000    0.000 
#
# Total GULP energy -198257.473208 kJ/mol
# GULP energy per Si atom -12391.092076 kJ/mol
# Density = 2.371787 g / cm^3
# Si number density = 23.771978 Si / 1000 Ang^3
#
#
#
# Elastic Constant Matrix: (Units=GPa)
#
#
# Indices 1 2 3 4 5 6 
#
# 1 79.1023 35.3411 11.7298 -2.0774 -8.5178 -2.0643
# 2 35.3411 100.2566 37.1743 -12.5691 8.6205 10.3402
# 3 11.7298 37.1743 62.5159 -13.6538 -0.2026 11.2684
# 4 -2.0774 -12.5691 -13.6538 37.7043 -0.9722 6.0080
# 5 -8.5178 8.6205 -0.2026 -0.9722 39.9108 -0.6842
# 6 -2.0643 10.3402 11.2684 6.0080 -0.6842 35.9978
#
#
#
# Elastic Compliance Matrix: (Units=1/GPa)
#
#
# Indices 1 2 3 4 5 6 
#
# 1 0.016194 -0.006676 -0.000012 -0.001726 0.004911 0.003232
# 2 -0.006676 0.016086 -0.007109 0.002826 -0.004924 -0.003343
# 3 -0.000012 -0.007109 0.022876 0.006953 0.001711 -0.006247
# 4 -0.001726 0.002826 0.006953 0.031201 -0.000326 -0.008301
# 5 0.004911 -0.004924 0.001711 -0.000326 0.027198 0.001732
# 6 0.003232 -0.003343 -0.006247 -0.008301 0.001732 0.032299
#
#
# Mechanical properties :
#
#
# Convention : Reuss Voigt Hill
#
# Bulk Modulus (GPa) = 36.28208 45.59613 40.93911
# Shear Modulus (GPa) = 27.37682 33.23123 30.30403
#
# Velocity S-wave (km/s) = 3.39727 3.74293 3.57428
# Velocity P-wave (km/s) = 5.53934 6.15643 5.85602
#
# Compressibility (1/GPa) = 0.02756181
#
# Stress axis : x y z
#
# Youngs Moduli (GPa) = 61.75031 62.16513 43.71459
#
# Poissons Ratio (x) = 0.41502 0.00053
# Poissons Ratio (y) = 0.41225 0.31076
# Poissons Ratio (z) = 0.00075 0.44193
#
# Static dielectric constant tensor:
#      x y z
#    x 4.288740 -0.177880 -0.370760 
#    y -0.177880 4.397890 -0.118070 
#    z -0.370760 -0.118070 3.992820 
# 
# 
# High freq. dielectric constant tensor:
#      x y z
#    x 1.945720 -0.015810 -0.009130 
#    y -0.015810 1.949810 -0.022050 
#    z -0.009130 -0.022050 1.924360 
# 
# From -- ./inp_files/522404.got.cif
#   From: 2010.06.25/outbox.cif.g09.slc.cpg/sg2_262_cif.got.tgz:522404.got - 2010.06.27 13:26:56.
