data_PCOD8020492
_publ_section_title
;
Structure prediction by ZEFSAII (Michael W. Deem and Ramdas Pophale) SiO2 
 PCOD8020492
Probable space group: P -1
;
_chemical_formula_sum "Si O2"
_cell_formula_units_Z 16
_cell_length_a 8.759970
_cell_length_b 12.441624
_cell_length_c 11.911198
_cell_angle_alpha 101.374567
_cell_angle_beta 144.374524
_cell_angle_gamma 83.285187
_cell_volume 739.175567
_symmetry_space_group_name_H-M "P -1"
_symmetry_group_IT_number 2
_symmetry_cell_setting 'triclinic'
loop_
_space_group_symop_operation_xyz
x,y,z
-x,-y,-z
loop_
_atom_site_type_symbol
_atom_site_label
_atom_site_fract_x
_atom_site_fract_y
_atom_site_fract_z
Si Si1 0.228287 0.927731 0.578839
Si Si2 0.751545 0.069559 0.850195
Si Si3 0.052421 0.453067 0.350028
Si Si4 0.590231 0.544328 0.232059
Si Si5 0.311784 0.735304 0.991191
Si Si6 0.958078 0.566686 0.101349
Si Si7 0.072889 0.821160 0.234573
Si Si8 0.483812 0.123148 0.057143
O O1 0.143159 0.845409 0.410884
O O2 0.299049 0.851712 0.710733
O O3 0.478110 0.006193 0.706916
O O4 0.000000 0.000000 0.500000
O O5 0.724399 0.112630 0.714730
O O6 0.806884 0.174457 0.984094
O O7 0.000000 0.000000 0.000000
O O8 0.829195 0.515987 0.291710
O O9 0.939955 0.330368 0.227940
O O10 0.126087 0.518063 0.292632
O O11 0.313131 0.446366 0.579209
O O12 0.490752 0.659732 0.156305
O O13 0.354116 0.448544 0.059643
O O14 0.488047 0.790863 0.009117
O O15 0.061563 0.692324 0.174113
O O16 0.000000 0.500000 0.000000
O O17 0.794784 0.866814 0.049411
O O18 0.500000 0.000000 0.000000
#
# Coordination Sequence:
#
# PCOD8020492 Si02
#       8
#     2   2   2   2   2   2   2   2
#     4  12  26  44  71 101 135 182 232 280 333 404
#     4  12  25  48  65  97 146 182 224 280 339 403
#     4  10  22  42  69 100 132 171 228 283 335 407
#     4  10  22  43  68 100 132 171 227 285 336 402
#     4  11  22  41  69  97 132 185 223 277 340 400
#     4  11  24  44  65  97 138 175 222 279 341 401
#     4  12  24  43  70  97 137 183 224 280 344 404
#     4  12  22  43  66  99 140 178 228 283 333 401
#
# _framework density 21.645737
#
# number of rings (size 3 to 8) (size 9 to 14) (size 15 to 20)
#    0.000    0.750    3.750    4.875    0.000    5.500 
#    4.500    0.000    0.000    0.000    0.000    0.000 
#    0.000    0.000    0.000    0.000    0.000    0.000 
#
# Total GULP energy -198439.446508 kJ/mol
# GULP energy per Si atom -12402.465407 kJ/mol
# Density = 2.159647 g / cm^3
# Si number density = 21.645737 Si / 1000 Ang^3
#
#
#
# Elastic Constant Matrix: (Units=GPa)
#
#
# Indices 1 2 3 4 5 6 
#
# 1 107.8079 48.7630 41.2690 -10.1109 -15.5605 5.5830
# 2 48.7630 134.7363 52.8532 4.8670 -6.9610 -4.0183
# 3 41.2690 52.8532 148.6620 -11.6414 -24.8594 -1.0529
# 4 -10.1109 4.8670 -11.6414 30.9617 0.6498 -11.0950
# 5 -15.5605 -6.9610 -24.8594 0.6498 43.7362 2.9673
# 6 5.5830 -4.0183 -1.0529 -11.0950 2.9673 41.4848
#
#
#
# Elastic Compliance Matrix: (Units=1/GPa)
#
#
# Indices 1 2 3 4 5 6 
#
# 1 0.012432 -0.004035 -0.001214 0.003695 0.003126 -0.001330
# 2 -0.004035 0.010150 -0.003040 -0.003833 -0.001527 0.000533
# 3 -0.001214 -0.003040 0.009138 0.003715 0.004169 0.000796
# 4 0.003695 -0.003833 0.003715 0.038879 0.001594 0.009510
# 5 0.003126 -0.001527 0.004169 0.001594 0.026209 -0.001911
# 6 -0.001330 0.000533 0.000796 0.009510 -0.001911 0.027036
#
#
# Mechanical properties :
#
#
# Convention : Reuss Voigt Hill
#
# Bulk Modulus (GPa) = 66.03983 75.21963 70.62973
# Shear Modulus (GPa) = 34.37122 39.79127 37.08125
#
# Velocity S-wave (km/s) = 3.98917 4.29219 4.14345
# Velocity P-wave (km/s) = 7.19677 7.70646 7.45598
#
# Compressibility (1/GPa) = 0.01514238
#
# Stress axis : x y z
#
# Youngs Moduli (GPa) = 80.43662 98.51942 109.42863
#
# Poissons Ratio (x) = 0.39751 0.13285
# Poissons Ratio (y) = 0.32455 0.33271
# Poissons Ratio (z) = 0.09765 0.29954
#
# Static dielectric constant tensor:
#      x y z
#    x 4.202470 0.158150 -0.295100 
#    y 0.158150 3.893560 0.003540 
#    z -0.295100 0.003540 4.237760 
# 
# 
# High freq. dielectric constant tensor:
#      x y z
#    x 1.864160 0.001730 -0.016100 
#    y 0.001730 1.852440 -0.002440 
#    z -0.016100 -0.002440 1.853670 
# 
# From -- ./inp_files/390547.got.cif
#   From: 2010.06.25/outbox.cif.g09.slc.cpg/sg2_196_cif.got.tgz:390547.got - 2010.06.27 13:26:56.
