data_PCOD8020637
_publ_section_title
;
Structure prediction by ZEFSAII (Michael W. Deem and Ramdas Pophale) SiO2 
 PCOD8020637
Probable space group: P -1
;
_chemical_formula_sum "Si O2"
_cell_formula_units_Z 14
_cell_length_a 9.424406
_cell_length_b 18.204729
_cell_length_c 9.634347
_cell_angle_alpha 60.341532
_cell_angle_beta 68.194150
_cell_angle_gamma 27.414384
_cell_volume 651.787446
_symmetry_space_group_name_H-M "P -1"
_symmetry_group_IT_number 2
_symmetry_cell_setting 'triclinic'
loop_
_space_group_symop_operation_xyz
x,y,z
-x,-y,-z
loop_
_atom_site_type_symbol
_atom_site_label
_atom_site_fract_x
_atom_site_fract_y
_atom_site_fract_z
Si Si1 0.462566 0.417264 0.063967
Si Si2 0.275443 0.258360 0.675915
Si Si3 0.745986 0.739685 0.994021
Si Si4 0.601092 0.959096 0.343030
Si Si5 0.713235 0.315714 0.596300
Si Si6 0.440630 0.358035 0.418943
Si Si7 0.677214 0.207164 0.942155
O O1 0.538675 0.323705 0.257194
O O2 0.699678 0.265601 0.003950
O O3 0.500000 0.500000 0.000000
O O4 0.115239 0.563270 0.004205
O O5 0.419292 0.119485 0.653494
O O6 0.447643 0.258593 0.558782
O O7 0.904158 0.438422 0.618822
O O8 0.351842 0.203902 0.861029
O O9 0.604902 0.722092 0.997353
O O10 0.624306 0.873923 0.819434
O O11 0.945856 0.830336 0.334134
O O12 0.500000 0.000000 0.500000
O O13 0.500000 0.500000 0.500000
O O14 0.704612 0.283092 0.475028
O O15 0.574154 0.309388 0.749281
O O16 0.000000 0.000000 0.000000
#
# Coordination Sequence:
#
# PCOD8020637 Si02
#       7
#     2   2   2   2   2   2   2
#     4  11  27  45  74 104 143 186 237 291 353 425
#     4  10  22  44  68  98 135 182 231 284 348 417
#     4  11  25  47  69 102 139 190 231 292 352 420
#     4  12  28  42  69 104 143 179 232 295 353 416
#     4  12  24  45  72 100 142 185 236 287 354 424
#     4  10  22  42  70  99 131 183 232 280 345 415
#     4  12  26  47  73 106 142 187 239 294 355 419
#
# _framework density 21.479393000000002
#
# number of rings (size 3 to 8) (size 9 to 14) (size 15 to 20)
#    0.000    0.857    4.286    1.714    8.000    1.143 
#    0.000    1.429    0.000    0.000    0.000    0.000 
#    0.000    0.000    0.000    0.000    0.000    0.000 
#
# Total GULP energy -173595.769217 kJ/mol
# GULP energy per Si atom -12399.697801 kJ/mol
# Density = 2.143051 g / cm^3
# Si number density = 21.479393 Si / 1000 Ang^3
#
#
#
# Elastic Constant Matrix: (Units=GPa)
#
#
# Indices 1 2 3 4 5 6 
#
# 1 122.9076 44.2346 42.8027 -1.2435 3.1293 19.9133
# 2 44.2346 84.3662 46.9831 3.8908 1.3172 22.5772
# 3 42.8027 46.9831 171.0455 -6.7950 -2.1122 22.6096
# 4 -1.2435 3.8908 -6.7950 28.3739 1.4201 3.4853
# 5 3.1293 1.3172 -2.1122 1.4201 38.2721 1.3409
# 6 19.9133 22.5772 22.6096 3.4853 1.3409 40.6958
#
#
#
# Elastic Compliance Matrix: (Units=1/GPa)
#
#
# Indices 1 2 3 4 5 6 
#
# 1 0.010460 -0.004325 -0.001108 0.001090 -0.000732 -0.002173
# 2 -0.004325 0.017464 -0.003076 -0.002623 -0.000122 -0.005635
# 3 -0.001108 -0.003076 0.007340 0.002354 0.000586 -0.002050
# 4 0.001090 -0.002623 0.002354 0.036699 -0.001108 -0.003492
# 5 -0.000732 -0.000122 0.000586 -0.001108 0.026290 -0.000671
# 6 -0.002173 -0.005635 -0.002050 -0.003492 -0.000671 0.030222
#
#
# Mechanical properties :
#
#
# Convention : Reuss Voigt Hill
#
# Bulk Modulus (GPa) = 54.80162 71.81778 63.30970
# Shear Modulus (GPa) = 32.98672 37.75495 35.37083
#
# Velocity S-wave (km/s) = 3.92310 4.19708 4.06240
# Velocity P-wave (km/s) = 6.78896 7.54954 7.17933
#
# Compressibility (1/GPa) = 0.01824764
#
# Stress axis : x y z
#
# Youngs Moduli (GPa) = 95.59977 57.25938 136.23365
#
# Poissons Ratio (x) = 0.24763 0.15098
# Poissons Ratio (y) = 0.41344 0.41902
# Poissons Ratio (z) = 0.10595 0.17611
#
# Static dielectric constant tensor:
#      x y z
#    x 4.118970 0.103580 0.026080 
#    y 0.103580 3.938810 -0.061590 
#    z 0.026080 -0.061590 4.084320 
# 
# 
# High freq. dielectric constant tensor:
#      x y z
#    x 1.861460 0.002620 -0.000370 
#    y 0.002620 1.824630 -0.003390 
#    z -0.000370 -0.003390 1.864770 
# 
# From -- ./inp_files/184480.got.cif
#   From: 2010.06.25/outbox.cif.g09.slc.cpg/sg2_93_cif.got.tgz:184480.got - 2010.06.27 13:26:56.
