data_PCOD8020920
_publ_section_title
;
Structure prediction by ZEFSAII (Michael W. Deem and Ramdas Pophale) SiO2 
 PCOD8020920
Probable space group: P -1
;
_chemical_formula_sum "Si O2"
_cell_formula_units_Z 16
_cell_length_a 16.005889
_cell_length_b 9.397668
_cell_length_c 19.389525
_cell_angle_alpha 28.506587
_cell_angle_beta 34.205891
_cell_angle_gamma 37.118595
_cell_volume 754.905043
_symmetry_space_group_name_H-M "P -1"
_symmetry_group_IT_number 2
_symmetry_cell_setting 'triclinic'
loop_
_space_group_symop_operation_xyz
x,y,z
-x,-y,-z
loop_
_atom_site_type_symbol
_atom_site_label
_atom_site_fract_x
_atom_site_fract_y
_atom_site_fract_z
Si Si1 0.790737 0.872865 0.177803
Si Si2 0.586932 0.111710 0.782971
Si Si3 0.094311 0.773433 0.934546
Si Si4 0.522876 0.804207 0.820299
Si Si5 0.311035 0.164617 0.031091
Si Si6 0.078857 0.267933 0.634645
Si Si7 0.873217 0.324801 0.456220
Si Si8 0.239721 0.539969 0.302867
O O1 0.824583 0.523520 0.334503
O O2 0.801344 0.121577 0.123031
O O3 0.625380 0.980386 0.208460
O O4 0.915193 0.874604 0.033038
O O5 0.717683 0.295821 0.612619
O O6 0.576281 0.996114 0.762216
O O7 0.631542 0.843008 0.925374
O O8 0.419286 0.302222 0.845921
O O9 0.122962 0.918591 0.780310
O O10 0.144419 0.405763 0.044130
O O11 0.658864 0.700567 0.716946
O O12 0.500000 0.500000 0.000000
O O13 0.311129 0.821778 0.152612
O O14 0.039321 0.487807 0.634739
O O15 0.223759 0.334651 0.467488
O O16 0.930342 0.310777 0.671263
O O17 0.000000 0.000000 0.500000
#
# Coordination Sequence:
#
# PCOD8020920 Si02
#       8
#     2   2   2   2   2   2   2   2
#     4  10  24  40  66  98 130 175 219 262 331 396
#     4  11  24  40  65  98 129 172 219 259 333 382
#     4  10  22  43  65  94 132 169 220 272 324 388
#     4  12  23  42  65  93 134 175 213 270 324 393
#     4  11  23  42  68  98 128 172 220 271 320 393
#     4  10  23  42  65  95 127 176 219 266 332 386
#     4  11  22  42  67  96 133 173 217 274 324 388
#     4  11  23  42  67  98 129 172 222 264 326 391
#
# _framework density 21.19472
#
# number of rings (size 3 to 8) (size 9 to 14) (size 15 to 20)
#    0.000    1.250    2.500    3.000    1.750    4.000 
#    0.000    2.500    0.000    0.000    0.000    0.000 
#    0.000    0.000    0.000    0.000    0.000    0.000 
#
# Total GULP energy -198309.708304 kJ/mol
# GULP energy per Si atom -12394.356769 kJ/mol
# Density = 2.114648 g / cm^3
# Si number density = 21.194720 Si / 1000 Ang^3
#
#
#
# Elastic Constant Matrix: (Units=GPa)
#
#
# Indices 1 2 3 4 5 6 
#
# 1 88.5120 37.1754 29.6838 3.6601 9.6369 0.6497
# 2 37.1754 102.2345 42.6353 4.8537 15.3869 -1.5965
# 3 29.6838 42.6353 115.7003 13.2649 15.0544 -3.7596
# 4 3.6601 4.8537 13.2649 31.5570 -4.1977 1.8685
# 5 9.6369 15.3869 15.0544 -4.1977 32.7568 5.5231
# 6 0.6497 -1.5965 -3.7596 1.8685 5.5231 21.3736
#
#
#
# Elastic Compliance Matrix: (Units=1/GPa)
#
#
# Indices 1 2 3 4 5 6 
#
# 1 0.013774 -0.004041 -0.001875 -0.000307 -0.001212 -0.000710
# 2 -0.004041 0.013237 -0.003174 -0.000857 -0.003958 0.001651
# 3 -0.001875 -0.003174 0.011557 -0.004953 -0.004484 0.003444
# 4 -0.000307 -0.000857 -0.004953 0.035415 0.008349 -0.006179
# 5 -0.001212 -0.003958 -0.004484 0.008349 0.037822 -0.011551
# 6 -0.000710 0.001651 0.003444 -0.006179 -0.011551 0.051063
#
#
# Mechanical properties :
#
#
# Convention : Reuss Voigt Hill
#
# Bulk Modulus (GPa) = 49.04854 58.38176 53.71515
# Shear Modulus (GPa) = 26.61812 30.26764 28.44288
#
# Velocity S-wave (km/s) = 3.54769 3.78309 3.66728
# Velocity P-wave (km/s) = 6.32247 6.83283 6.58260
#
# Compressibility (1/GPa) = 0.02038796
#
# Stress axis : x y z
#
# Youngs Moduli (GPa) = 72.60236 75.54772 86.52858
#
# Poissons Ratio (x) = 0.30526 0.16223
# Poissons Ratio (y) = 0.29336 0.27464
# Poissons Ratio (z) = 0.13612 0.23979
#
# Static dielectric constant tensor:
#      x y z
#    x 3.993190 0.160110 0.099950 
#    y 0.160110 3.811860 0.143330 
#    z 0.099950 0.143330 4.011670 
# 
# 
# High freq. dielectric constant tensor:
#      x y z
#    x 1.835250 0.001270 0.006480 
#    y 0.001270 1.822240 0.014210 
#    z 0.006480 0.014210 1.837650 
# 
# From -- ./inp_files/461899.got.cif
#   From: 2010.06.25/outbox.cif.g09.slc.cpg/sg2_231_cif.got.tgz:461899.got - 2010.06.27 13:26:56.
