data_PCOD8020244
_publ_section_title
;
Structure prediction by ZEFSAII (Michael W. Deem and Ramdas Pophale) SiO2 
 PCOD8020244
Probable space group: P -1
;
_chemical_formula_sum "Si O2"
_cell_formula_units_Z 16
_cell_length_a 14.125598
_cell_length_b 8.636630
_cell_length_c 14.446450
_cell_angle_alpha 37.754657
_cell_angle_beta 134.429578
_cell_angle_gamma 133.894896
_cell_volume 730.111326
_symmetry_space_group_name_H-M "P -1"
_symmetry_group_IT_number 2
_symmetry_cell_setting 'triclinic'
loop_
_space_group_symop_operation_xyz
x,y,z
-x,-y,-z
loop_
_atom_site_type_symbol
_atom_site_label
_atom_site_fract_x
_atom_site_fract_y
_atom_site_fract_z
Si Si1 0.835377 0.388207 0.443302
Si Si2 0.414478 0.125739 0.044287
Si Si3 0.463845 0.595837 0.332856
Si Si4 0.816318 0.817153 0.720333
Si Si5 0.989894 0.182918 0.319443
Si Si6 0.936687 0.715797 0.038551
Si Si7 0.289880 0.489063 0.879694
Si Si8 0.703863 0.785219 0.262317
O O1 0.785300 0.374823 0.309394
O O2 0.767005 0.555865 0.383066
O O3 0.000000 0.500000 0.500000
O O4 0.793240 0.096096 0.596246
O O5 0.559188 0.310494 0.094890
O O6 0.397237 0.826197 0.199293
O O7 0.291268 0.205931 0.972496
O O8 0.402906 0.163220 0.909250
O O9 0.500000 0.500000 0.500000
O O10 0.342276 0.378721 0.296890
O O11 0.611014 0.694973 0.332782
O O12 0.896626 0.833704 0.670528
O O13 0.913572 0.752288 0.896805
O O14 0.021549 0.501184 0.212192
O O15 0.830696 0.060379 0.232082
O O16 0.000000 0.000000 0.500000
O O17 0.785973 0.568299 0.047860
O O18 0.000000 0.000000 0.000000
#
# Coordination Sequence:
#
# PCOD8020244 Si02
#       8
#     2   2   2   2   2   2   2   2
#     4  11  22  43  70 100 137 185 236 280 343 420
#     4  10  22  42  70  92 134 179 235 272 341 419
#     4  12  25  42  66 102 138 177 226 295 352 406
#     4  12  26  43  69 100 146 174 229 299 351 406
#     4  12  26  46  71  99 136 191 239 279 345 430
#     4  12  27  40  68 103 143 176 229 290 358 398
#     4  10  22  42  66  99 132 184 227 281 335 428
#     4  11  24  43  74  93 133 188 235 276 342 422
#
# _framework density 21.914466999999998
#
# number of rings (size 3 to 8) (size 9 to 14) (size 15 to 20)
#    0.000    0.750    1.250    6.000    5.250    1.500 
#    0.000    0.000    0.000    0.000    0.000    0.000 
#    0.000    0.000    0.000    0.000    0.000    0.000 
#
# Total GULP energy -198395.454031 kJ/mol
# GULP energy per Si atom -12399.715877 kJ/mol
# Density = 2.186459 g / cm^3
# Si number density = 21.914467 Si / 1000 Ang^3
#
#
#
# Elastic Constant Matrix: (Units=GPa)
#
#
# Indices 1 2 3 4 5 6 
#
# 1 86.2731 -2.4015 26.1163 -4.3313 -5.4921 -2.7567
# 2 -2.4015 103.7650 37.0262 -8.6298 13.1211 -9.5466
# 3 26.1163 37.0262 159.7974 -9.9859 -0.7865 -19.6312
# 4 -4.3313 -8.6298 -9.9859 50.9638 -6.4309 7.7088
# 5 -5.4921 13.1211 -0.7865 -6.4309 33.4222 2.2044
# 6 -2.7567 -9.5466 -19.6312 7.7088 2.2044 31.9399
#
#
#
# Elastic Compliance Matrix: (Units=1/GPa)
#
#
# Indices 1 2 3 4 5 6 
#
# 1 0.012447 0.000893 -0.002215 0.001074 0.001876 -0.000409
# 2 0.000893 0.011349 -0.002502 0.000640 -0.004382 0.002080
# 3 -0.002215 -0.002502 0.007675 0.000424 0.000641 0.003632
# 4 0.001074 0.000640 0.000424 0.021188 0.004333 -0.004868
# 5 0.001876 -0.004382 0.000641 0.004333 0.033067 -0.004082
# 6 -0.000409 0.002080 0.003632 -0.004868 -0.004082 0.035584
#
#
# Mechanical properties :
#
#
# Convention : Reuss Voigt Hill
#
# Bulk Modulus (GPa) = 41.97518 52.36861 47.17190
# Shear Modulus (GPa) = 36.52334 42.53814 39.53074
#
# Velocity S-wave (km/s) = 4.08687 4.41057 4.25180
# Velocity P-wave (km/s) = 6.43938 7.06302 6.75840
#
# Compressibility (1/GPa) = 0.02382360
#
# Stress axis : x y z
#
# Youngs Moduli (GPa) = 80.34232 88.11266 130.28581
#
# Poissons Ratio (x) = -0.07867 0.28858
# Poissons Ratio (y) = -0.07173 0.32594
# Poissons Ratio (z) = 0.17796 0.22043
#
# Static dielectric constant tensor:
#      x y z
#    x 4.062020 -0.274550 0.226560 
#    y -0.274550 4.165580 -0.085580 
#    z 0.226560 -0.085580 4.053540 
# 
# 
# High freq. dielectric constant tensor:
#      x y z
#    x 1.865640 -0.006520 0.005700 
#    y -0.006520 1.872280 -0.002330 
#    z 0.005700 -0.002330 1.876650 
# 
# From -- ./inp_files/307240.got.cif
#   From: 2010.06.25/outbox.cif.g09.slc.cpg/sg2_154_cif.got.tgz:307240.got - 2010.06.27 13:26:56.
