data_PCOD8020877
_publ_section_title
;
Structure prediction by ZEFSAII (Michael W. Deem and Ramdas Pophale) SiO2 
 PCOD8020877
Probable space group: P -1
;
_chemical_formula_sum "Si O2"
_cell_formula_units_Z 16
_cell_length_a 19.922460
_cell_length_b 5.327219
_cell_length_c 9.246722
_cell_angle_alpha 74.754942
_cell_angle_beta 50.522632
_cell_angle_gamma 62.759058
_cell_volume 672.915773
_symmetry_space_group_name_H-M "P -1"
_symmetry_group_IT_number 2
_symmetry_cell_setting 'triclinic'
loop_
_space_group_symop_operation_xyz
x,y,z
-x,-y,-z
loop_
_atom_site_type_symbol
_atom_site_label
_atom_site_fract_x
_atom_site_fract_y
_atom_site_fract_z
Si Si1 0.967510 0.591236 0.871602
Si Si2 0.882358 0.287062 0.516424
Si Si3 0.320702 0.410248 0.711989
Si Si4 0.573882 0.526253 0.713563
Si Si5 0.771112 0.039609 0.057352
Si Si6 0.544591 0.820256 0.186613
Si Si7 0.685974 0.421056 0.850115
Si Si8 0.018787 0.729827 0.346299
O O1 0.932295 0.379271 0.861227
O O2 0.063322 0.537019 0.658086
O O3 0.000000 0.500000 0.000000
O O4 0.886248 0.904815 0.926027
O O5 0.770353 0.458782 0.638176
O O6 0.907218 0.198044 0.665526
O O7 0.919575 0.995307 0.419056
O O8 0.346440 0.459206 0.505988
O O9 0.260570 0.710930 0.820773
O O10 0.418191 0.259702 0.689194
O O11 0.262774 0.209010 0.813788
O O12 0.522549 0.344248 0.735755
O O13 0.618119 0.375497 0.827883
O O14 0.504282 0.843121 0.805492
O O15 0.727136 0.150424 0.941934
O O16 0.632647 0.707049 0.971390
O O17 0.000000 0.500000 0.500000
#
# Coordination Sequence:
#
# PCOD8020877 Si02
#       8
#     2   2   2   2   2   2   2   2
#     4  11  26  43  69 100 145 185 231 292 352 423
#     4  10  22  43  65 100 133 186 231 283 353 407
#     4  11  25  46  76 103 143 187 235 290 351 434
#     4  12  25  46  73 104 143 183 237 296 359 418
#     4  11  26  46  70 108 142 188 235 287 353 416
#     4  11  24  46  70 106 141 186 230 295 363 418
#     4  11  25  43  71 104 138 184 242 294 342 427
#     4   9  19  40  66  94 131 178 225 281 340 417
#
# _framework density 23.77712
#
# number of rings (size 3 to 8) (size 9 to 14) (size 15 to 20)
#    0.000    1.250    0.000    6.000    7.000    3.500 
#    9.000    0.000    0.000    0.000    0.000    0.000 
#    0.000    0.000    0.000    0.000    0.000    0.000 
#
# Total GULP energy -198277.322294 kJ/mol
# GULP energy per Si atom -12392.332643 kJ/mol
# Density = 2.372300 g / cm^3
# Si number density = 23.777120 Si / 1000 Ang^3
#
#
#
# Elastic Constant Matrix: (Units=GPa)
#
#
# Indices 1 2 3 4 5 6 
#
# 1 77.5736 41.8401 36.7670 8.4156 14.3685 -11.2606
# 2 41.8401 99.7174 38.3359 13.7678 10.8079 2.1754
# 3 36.7670 38.3359 105.9855 14.6874 11.5795 -16.5611
# 4 8.4156 13.7678 14.6874 34.4875 -2.4605 0.6483
# 5 14.3685 10.8079 11.5795 -2.4605 50.2141 -4.6087
# 6 -11.2606 2.1754 -16.5611 0.6483 -4.6087 37.5591
#
#
#
# Elastic Compliance Matrix: (Units=1/GPa)
#
#
# Indices 1 2 3 4 5 6 
#
# 1 0.019179 -0.006456 -0.003158 -0.001056 -0.003020 0.004379
# 2 -0.006456 0.014568 -0.003177 -0.002885 -0.001088 -0.004264
# 3 -0.003158 -0.003177 0.013092 -0.003712 -0.001161 0.004932
# 4 -0.001056 -0.002885 -0.003712 0.032250 0.003180 -0.001953
# 5 -0.003020 -0.001088 -0.001161 0.003180 0.021550 0.001235
# 6 0.004379 -0.004264 0.004932 -0.001953 0.001235 0.030544
#
#
# Mechanical properties :
#
#
# Convention : Reuss Voigt Hill
#
# Bulk Modulus (GPa) = 47.04305 57.46251 52.25278
# Shear Modulus (GPa) = 30.51557 35.54103 33.02830
#
# Velocity S-wave (km/s) = 3.58634 3.87040 3.73108
# Velocity P-wave (km/s) = 6.08088 6.64778 6.37064
#
# Compressibility (1/GPa) = 0.02125713
#
# Stress axis : x y z
#
# Youngs Moduli (GPa) = 52.13965 68.64400 76.38357
#
# Poissons Ratio (x) = 0.44315 0.24120
# Poissons Ratio (y) = 0.33660 0.24270
# Poissons Ratio (z) = 0.16464 0.21811
#
# Static dielectric constant tensor:
#      x y z
#    x 5.904620 0.979870 0.460190 
#    y 0.979870 4.803780 0.515630 
#    z 0.460190 0.515630 4.679230 
# 
# 
# High freq. dielectric constant tensor:
#      x y z
#    x 1.940390 0.008590 0.003780 
#    y 0.008590 1.939770 0.010270 
#    z 0.003780 0.010270 1.951510 
# 
# From -- ./inp_files/340310.got.cif
#   From: 2010.06.25/outbox.cif.g09.slc.cpg/sg2_171_cif.got.tgz:340310.got - 2010.06.27 13:26:56.
