data_PCOD8020048
_publ_section_title
;
Structure prediction by ZEFSAII (Michael W. Deem and Ramdas Pophale) SiO2 
 PCOD8020048
Probable space group: P -1
;
_chemical_formula_sum "Si O2"
_cell_formula_units_Z 14
_cell_length_a 9.093317
_cell_length_b 16.006807
_cell_length_c 7.486212
_cell_angle_alpha 133.323498
_cell_angle_beta 129.896655
_cell_angle_gamma 61.880624
_cell_volume 607.220059
_symmetry_space_group_name_H-M "P -1"
_symmetry_group_IT_number 2
_symmetry_cell_setting 'triclinic'
loop_
_space_group_symop_operation_xyz
x,y,z
-x,-y,-z
loop_
_atom_site_type_symbol
_atom_site_label
_atom_site_fract_x
_atom_site_fract_y
_atom_site_fract_z
Si Si1 0.517933 0.865631 0.775869
Si Si2 0.544272 0.144782 0.908769
Si Si3 0.746265 0.295923 0.847107
Si Si4 0.065438 0.145895 0.057872
Si Si5 0.569534 0.388471 0.165242
Si Si6 0.813006 0.958909 0.658911
Si Si7 0.209415 0.548199 0.220125
O O1 0.387048 0.814162 0.443296
O O2 0.445990 0.804214 0.809087
O O3 0.738057 0.834559 0.859712
O O4 0.500000 0.000000 0.000000
O O5 0.339317 0.087434 0.662329
O O6 0.710949 0.049230 0.853345
O O7 0.547970 0.251479 0.937391
O O8 0.803124 0.344972 0.770324
O O9 0.929982 0.252374 0.042115
O O10 0.648240 0.402556 0.044275
O O11 0.093304 0.143883 0.293683
O O12 0.971644 0.023133 0.761316
O O13 0.364045 0.452970 0.125093
O O14 0.723364 0.418722 0.480297
O O15 0.000000 0.500000 0.000000
#
# Coordination Sequence:
#
# PCOD8020048 Si02
#       7
#     2   2   2   2   2   2   2
#     4  12  25  42  65 106 148 185 228 278 338 418
#     4  11  21  43  69  95 144 187 223 286 346 407
#     4  12  26  47  74 104 142 189 231 286 358 416
#     4  11  24  40  65 101 142 184 233 275 336 418
#     4  11  25  49  73 100 140 180 232 299 354 412
#     4  10  22  42  65 103 143 186 233 276 340 422
#     4  11  28  50  74 105 132 177 243 301 356 415
#
# _framework density 23.055893000000001
#
# number of rings (size 3 to 8) (size 9 to 14) (size 15 to 20)
#    0.000    0.857    4.286    2.143    2.000    5.143 
#    0.000    0.000    0.000    0.000    0.000    0.000 
#    0.000    0.000    0.000    0.000    0.000    0.000 
#
# Total GULP energy -173490.610009 kJ/mol
# GULP energy per Si atom -12392.186429 kJ/mol
# Density = 2.300342 g / cm^3
# Si number density = 23.055893 Si / 1000 Ang^3
#
#
#
# Elastic Constant Matrix: (Units=GPa)
#
#
# Indices 1 2 3 4 5 6 
#
# 1 100.3239 28.9908 52.8894 -10.3392 5.8242 -3.4725
# 2 28.9908 107.9345 36.5175 -13.6895 5.0415 -10.4180
# 3 52.8894 36.5175 81.0124 4.9421 1.8085 -8.5190
# 4 -10.3392 -13.6895 4.9421 20.3387 -0.1372 3.4589
# 5 5.8242 5.0415 1.8085 -0.1372 39.6352 -5.6523
# 6 -3.4725 -10.4180 -8.5190 3.4589 -5.6523 31.6671
#
#
#
# Elastic Compliance Matrix: (Units=1/GPa)
#
#
# Indices 1 2 3 4 5 6 
#
# 1 0.018277 0.001299 -0.013655 0.014017 -0.002642 -0.003245
# 2 0.001299 0.012890 -0.007186 0.010899 -0.001319 0.001024
# 3 -0.013655 -0.007186 0.026209 -0.019103 0.002474 0.005717
# 4 0.014017 0.010899 -0.019103 0.069650 -0.003510 -0.008250
# 5 -0.002642 -0.001319 0.002474 -0.003510 0.026379 0.005034
# 6 -0.003245 0.001024 0.005717 -0.008250 0.005034 0.034897
#
#
# Mechanical properties :
#
#
# Convention : Reuss Voigt Hill
#
# Bulk Modulus (GPa) = 54.67014 58.45181 56.56098
# Shear Modulus (GPa) = 21.41475 29.71974 25.56724
#
# Velocity S-wave (km/s) = 3.05096 3.59420 3.33366
# Velocity P-wave (km/s) = 6.01453 6.52929 6.27719
#
# Compressibility (1/GPa) = 0.01829152
#
# Stress axis : x y z
#
# Youngs Moduli (GPa) = 54.71441 77.57871 38.15478
#
# Poissons Ratio (x) = -0.10076 0.52100
# Poissons Ratio (y) = -0.07107 0.27419
# Poissons Ratio (z) = 0.74712 0.55749
#
# Static dielectric constant tensor:
#      x y z
#    x 5.145260 0.604140 -0.238280 
#    y 0.604140 4.368980 -0.369330 
#    z -0.238280 -0.369330 4.168890 
# 
# 
# High freq. dielectric constant tensor:
#      x y z
#    x 1.918220 0.007860 0.005070 
#    y 0.007860 1.910510 -0.020970 
#    z 0.005070 -0.020970 1.905930 
# 
# From -- ./inp_files/216221.got.cif
#   From: 2010.06.25/outbox.cif.g09.slc.cpg/sg2_109_cif.got.tgz:216221.got - 2010.06.27 13:26:56.
