data_PCOD8020345
_publ_section_title
;
Structure prediction by ZEFSAII (Michael W. Deem and Ramdas Pophale) SiO2 
 PCOD8020345
Probable space group: P -1
;
_chemical_formula_sum "Si O2"
_cell_formula_units_Z 16
_cell_length_a 14.630854
_cell_length_b 18.416238
_cell_length_c 11.527608
_cell_angle_alpha 51.356830
_cell_angle_beta 30.092446
_cell_angle_gamma 32.235782
_cell_volume 760.804326
_symmetry_space_group_name_H-M "P -1"
_symmetry_group_IT_number 2
_symmetry_cell_setting 'triclinic'
loop_
_space_group_symop_operation_xyz
x,y,z
-x,-y,-z
loop_
_atom_site_type_symbol
_atom_site_label
_atom_site_fract_x
_atom_site_fract_y
_atom_site_fract_z
Si Si1 0.273323 0.279132 0.698106
Si Si2 0.348016 0.466677 0.433869
Si Si3 0.107013 0.035279 0.594834
Si Si4 0.941168 0.630174 0.915058
Si Si5 0.618437 0.052632 0.853465
Si Si6 0.673964 0.050118 0.054838
Si Si7 0.003745 0.758901 0.105029
Si Si8 0.969756 0.741050 0.424745
O O1 0.254832 0.396968 0.587818
O O2 0.118888 0.293596 0.742985
O O3 0.608893 0.114996 0.500713
O O4 0.099070 0.309538 0.972838
O O5 0.207538 0.563374 0.611405
O O6 0.230528 0.571192 0.349312
O O7 0.692347 0.340557 0.192473
O O8 0.050986 0.163492 0.561821
O O9 0.141717 0.012970 0.439547
O O10 0.830927 0.082925 0.887737
O O11 0.642410 0.767788 0.035370
O O12 0.000000 0.500000 0.000000
O O13 0.759071 0.991246 0.887523
O O14 0.500000 0.000000 0.000000
O O15 0.328921 0.198859 0.302800
O O16 0.772641 0.927738 0.151649
O O17 0.045309 0.747002 0.208416
#
# Coordination Sequence:
#
# PCOD8020345 Si02
#       8
#     2   2   2   2   2   2   2   2
#     4  10  22  42  67  96 131 165 210 268 327 387
#     4  11  23  45  65  93 131 167 211 273 324 384
#     4  11  23  41  68  98 129 169 212 262 326 385
#     4   9  19  38  65  91 130 161 197 263 325 377
#     4  11  19  40  68  97 131 163 204 269 321 381
#     4  12  23  41  68  96 127 172 214 264 322 377
#     4  12  26  42  67  93 127 179 219 261 326 375
#     4  12  26  44  64  95 132 166 226 273 305 379
#
# _framework density 21.030373000000001
#
# number of rings (size 3 to 8) (size 9 to 14) (size 15 to 20)
#    0.000    1.000    5.000    1.875    0.000    3.500 
#    0.000    0.000    0.000    0.000    0.000    0.000 
#    0.000    0.000    0.000    0.000    0.000    0.000 
#
# Total GULP energy -198429.674187 kJ/mol
# GULP energy per Si atom -12401.854637 kJ/mol
# Density = 2.098251 g / cm^3
# Si number density = 21.030373 Si / 1000 Ang^3
#
#
#
# Elastic Constant Matrix: (Units=GPa)
#
#
# Indices 1 2 3 4 5 6 
#
# 1 55.8745 13.1307 19.7342 -6.9529 4.7125 -11.5905
# 2 13.1307 98.8623 2.4694 -10.4302 -2.6480 -9.8752
# 3 19.7342 2.4694 86.0255 -5.8888 -7.3129 11.0127
# 4 -6.9529 -10.4302 -5.8888 24.5394 -1.3405 1.7608
# 5 4.7125 -2.6480 -7.3129 -1.3405 32.1747 -10.1072
# 6 -11.5905 -9.8752 11.0127 1.7608 -10.1072 27.9305
#
#
#
# Elastic Compliance Matrix: (Units=1/GPa)
#
#
# Indices 1 2 3 4 5 6 
#
# 1 0.023453 -0.001509 -0.006634 0.003539 -0.001442 0.011070
# 2 -0.001509 0.011228 0.000018 0.004203 0.002583 0.004006
# 3 -0.006634 0.000018 0.014474 0.002272 0.001870 -0.007920
# 4 0.003539 0.004203 0.002272 0.044200 0.002208 0.000071
# 5 -0.001442 0.002583 0.001870 0.002208 0.035929 0.012440
# 6 0.011070 0.004006 -0.007920 0.000071 0.012440 0.049433
#
#
# Mechanical properties :
#
#
# Convention : Reuss Voigt Hill
#
# Bulk Modulus (GPa) = 30.39017 34.60342 32.49680
# Shear Modulus (GPa) = 24.27935 30.62412 27.45174
#
# Velocity S-wave (km/s) = 3.40146 3.82014 3.61687
# Velocity P-wave (km/s) = 5.46888 5.99564 5.73831
#
# Compressibility (1/GPa) = 0.03290537
#
# Stress axis : x y z
#
# Youngs Moduli (GPa) = 42.63792 89.06495 69.08824
#
# Poissons Ratio (x) = 0.13439 0.45836
# Poissons Ratio (y) = 0.06433 -0.00126
# Poissons Ratio (z) = 0.28288 -0.00163
#
# Static dielectric constant tensor:
#      x y z
#    x 3.661040 -0.072830 0.265260 
#    y -0.072830 3.864810 0.020030 
#    z 0.265260 0.020030 3.900230 
# 
# 
# High freq. dielectric constant tensor:
#      x y z
#    x 1.810130 -0.007980 0.011710 
#    y -0.007980 1.830940 -0.003330 
#    z 0.011710 -0.003330 1.825970 
# 
# From -- ./inp_files/280131.got.cif
#   From: 2010.06.25/outbox.cif.g09.slc.cpg/sg2_141_cif.got.tgz:280131.got - 2010.06.27 13:26:56.
