data_PCOD8020387
_publ_section_title
;
Structure prediction by ZEFSAII (Michael W. Deem and Ramdas Pophale) SiO2 
 PCOD8020387
Probable space group: P -1
;
_chemical_formula_sum "Si O2"
_cell_formula_units_Z 16
_cell_length_a 13.054899
_cell_length_b 23.032788
_cell_length_c 8.294297
_cell_angle_alpha 59.414644
_cell_angle_beta 148.573435
_cell_angle_gamma 141.146780
_cell_volume 717.424871
_symmetry_space_group_name_H-M "P -1"
_symmetry_group_IT_number 2
_symmetry_cell_setting 'triclinic'
loop_
_space_group_symop_operation_xyz
x,y,z
-x,-y,-z
loop_
_atom_site_type_symbol
_atom_site_label
_atom_site_fract_x
_atom_site_fract_y
_atom_site_fract_z
Si Si1 0.208763 0.210586 0.491854
Si Si2 0.408665 0.467518 0.103833
Si Si3 0.315319 0.601559 0.361508
Si Si4 0.829799 0.321405 0.716155
Si Si5 0.261386 0.960748 0.104441
Si Si6 0.895044 0.686878 0.612441
Si Si7 0.547981 0.868054 0.108392
Si Si8 0.769194 0.905001 0.698664
O O1 0.500014 0.300097 0.644311
O O2 0.198116 0.259008 0.559457
O O3 0.260354 0.144421 0.693985
O O4 0.868918 0.130315 0.065253
O O5 0.482457 0.410912 0.329514
O O6 0.594672 0.572140 0.304125
O O7 0.500000 0.500000 0.000000
O O8 0.043229 0.383465 0.756663
O O9 0.250806 0.624517 0.408148
O O10 0.000000 0.500000 0.000000
O O11 0.517116 0.197871 0.436079
O O12 0.032746 0.333499 0.098553
O O13 0.500000 0.000000 0.500000
O O14 0.953628 0.892450 0.888011
O O15 0.396238 0.057667 0.046850
O O16 0.182480 0.757870 0.776238
O O17 0.654611 0.916124 0.368189
O O18 0.000000 0.000000 0.000000
#
# Coordination Sequence:
#
# PCOD8020387 Si02
#       8
#     2   2   2   2   2   2   2   2
#     4  11  21  41  72  99 131 178 233 282 345 409
#     4  12  27  43  67 105 142 174 229 291 344 411
#     4  12  21  41  73  95 134 182 226 281 343 408
#     4  11  22  43  71  98 133 183 233 273 343 420
#     4  11  25  44  68 100 141 184 227 286 349 411
#     4  11  22  42  72 103 127 182 233 276 347 414
#     4  10  23  46  68 100 142 176 232 286 342 416
#     4  10  22  42  68 100 135 180 229 289 346 400
#
# _framework density 22.301984999999998
#
# number of rings (size 3 to 8) (size 9 to 14) (size 15 to 20)
#    0.000    1.000    6.250    2.625    3.500    3.000 
#    2.250    1.250    0.000    0.000    0.000    0.000 
#    0.000    0.000    0.000    0.000    0.000    0.000 
#
# Total GULP energy -198262.599457 kJ/mol
# GULP energy per Si atom -12391.412466 kJ/mol
# Density = 2.225123 g / cm^3
# Si number density = 22.301985 Si / 1000 Ang^3
#
#
#
# Elastic Constant Matrix: (Units=GPa)
#
#
# Indices 1 2 3 4 5 6 
#
# 1 118.9662 52.5804 41.5125 9.4047 17.9257 -4.0701
# 2 52.5804 114.5248 65.5604 20.2481 -6.8145 0.2249
# 3 41.5125 65.5604 100.5576 21.5189 6.5681 11.4011
# 4 9.4047 20.2481 21.5189 36.9971 3.5946 8.0604
# 5 17.9257 -6.8145 6.5681 3.5946 32.3348 8.6085
# 6 -4.0701 0.2249 11.4011 8.0604 8.6085 42.6445
#
#
#
# Elastic Compliance Matrix: (Units=1/GPa)
#
#
# Indices 1 2 3 4 5 6 
#
# 1 0.012882 -0.005719 -0.001575 0.000923 -0.009015 0.003326
# 2 -0.005719 0.017781 -0.009034 -0.004056 0.009011 0.000723
# 3 -0.001575 -0.009034 0.017955 -0.004020 -0.003306 -0.003476
# 4 0.000923 -0.004056 -0.004020 0.032597 -0.003010 -0.004369
# 5 -0.009015 0.009011 -0.003306 -0.003010 0.040881 -0.007708
# 6 0.003326 0.000723 -0.003476 -0.004369 -0.007708 0.027074
#
#
# Mechanical properties :
#
#
# Convention : Reuss Voigt Hill
#
# Bulk Modulus (GPa) = 62.65080 72.59503 67.62291
# Shear Modulus (GPa) = 26.71667 34.02163 30.36915
#
# Velocity S-wave (km/s) = 3.46490 3.91000 3.69416
# Velocity P-wave (km/s) = 6.64533 7.28050 6.97015
#
# Compressibility (1/GPa) = 0.01596149
#
# Stress axis : x y z
#
# Youngs Moduli (GPa) = 77.62625 56.23989 55.69350
#
# Poissons Ratio (x) = 0.32162 0.08774
# Poissons Ratio (y) = 0.44392 0.50316
# Poissons Ratio (z) = 0.12230 0.50810
#
# Static dielectric constant tensor:
#      x y z
#    x 3.906020 0.154940 0.216050 
#    y 0.154940 3.903330 0.130290 
#    z 0.216050 0.130290 4.306630 
# 
# 
# High freq. dielectric constant tensor:
#      x y z
#    x 1.878240 -0.003340 0.020220 
#    y -0.003340 1.882930 0.025940 
#    z 0.020220 0.025940 1.872250 
# 
# From -- ./inp_files/320285.got.cif
#   From: 2010.06.25/outbox.cif.g09.slc.cpg/sg2_161_cif.got.tgz:320285.got - 2010.06.27 13:26:56.
