data_PCOD8020417
_publ_section_title
;
Structure prediction by ZEFSAII (Michael W. Deem and Ramdas Pophale) SiO2 
 PCOD8020417
Probable space group: P -1
;
_chemical_formula_sum "Si O2"
_cell_formula_units_Z 16
_cell_length_a 12.207428
_cell_length_b 14.541559
_cell_length_c 17.689046
_cell_angle_alpha 151.052359
_cell_angle_beta 150.532204
_cell_angle_gamma 48.642261
_cell_volume 676.910377
_symmetry_space_group_name_H-M "P -1"
_symmetry_group_IT_number 2
_symmetry_cell_setting 'triclinic'
loop_
_space_group_symop_operation_xyz
x,y,z
-x,-y,-z
loop_
_atom_site_type_symbol
_atom_site_label
_atom_site_fract_x
_atom_site_fract_y
_atom_site_fract_z
Si Si1 0.713024 0.121443 0.155025
Si Si2 0.045025 0.599312 0.714770
Si Si3 0.692810 0.186468 0.585587
Si Si4 0.904254 0.550341 0.089089
Si Si5 0.005207 0.284770 0.071991
Si Si6 0.723359 0.974576 0.900358
Si Si7 0.209873 0.067893 0.416275
Si Si8 0.502777 0.477991 0.075469
O O1 0.810722 0.377303 0.398025
O O2 0.941889 0.064391 0.266648
O O3 0.599832 0.032180 0.940286
O O4 0.500000 0.000000 0.000000
O O5 0.302582 0.610386 0.845265
O O6 0.084361 0.624751 0.846488
O O7 0.033084 0.807048 0.818992
O O8 0.724750 0.379869 0.798458
O O9 0.438472 0.098052 0.323976
O O10 0.705816 0.994128 0.499429
O O11 0.910783 0.251025 0.702150
O O12 0.758734 0.637872 0.122742
O O13 0.072596 0.457575 0.169922
O O14 0.220522 0.221947 0.183201
O O15 0.787314 0.077673 0.756851
O O16 0.408501 0.290718 0.670369
O O17 0.500000 0.500000 0.000000
#
# Coordination Sequence:
#
# PCOD8020417 Si02
#       8
#     2   2   2   2   2   2   2   2
#     4  10  24  45  67  94 135 176 214 270 339 398
#     4  11  23  42  66  99 132 168 225 269 331 390
#     4  10  23  42  65 100 132 169 228 273 328 383
#     4  10  23  42  65  99 134 173 218 277 329 389
#     4  10  22  42  68  92 131 173 221 269 324 392
#     4  11  24  43  66  98 130 174 222 272 323 389
#     4   9  22  42  65  95 132 170 223 271 325 397
#     4  11  21  38  67  94 131 175 219 267 331 393
#
# _framework density 23.636807999999998
#
# number of rings (size 3 to 8) (size 9 to 14) (size 15 to 20)
#    0.000    1.750    1.250    1.500    3.500    2.500 
#   11.250    1.875    0.000    0.000    0.000    0.000 
#    0.000    0.000    0.000    0.000    0.000    0.000 
#
# Total GULP energy -198256.630985 kJ/mol
# GULP energy per Si atom -12391.039437 kJ/mol
# Density = 2.358301 g / cm^3
# Si number density = 23.636808 Si / 1000 Ang^3
#
#
#
# Elastic Constant Matrix: (Units=GPa)
#
#
# Indices 1 2 3 4 5 6 
#
# 1 126.9753 19.2416 28.7420 -1.6492 -8.3314 5.0200
# 2 19.2416 92.8432 31.7334 -3.9667 -10.5270 9.4044
# 3 28.7420 31.7334 69.9515 -3.1975 -7.6044 -0.0305
# 4 -1.6492 -3.9667 -3.1975 23.2090 7.0479 -8.8222
# 5 -8.3314 -10.5270 -7.6044 7.0479 37.6124 -5.0870
# 6 5.0200 9.4044 -0.0305 -8.8222 -5.0870 30.4792
#
#
#
# Elastic Compliance Matrix: (Units=1/GPa)
#
#
# Indices 1 2 3 4 5 6 
#
# 1 0.008815 -0.000459 -0.003328 -0.000761 0.001111 -0.001348
# 2 -0.000459 0.013421 -0.005703 -0.000646 0.002094 -0.003909
# 3 -0.003328 -0.005703 0.018505 0.002108 0.001443 0.003177
# 4 -0.000761 -0.000646 0.002108 0.050738 -0.007571 0.013749
# 5 0.001111 0.002094 0.001443 -0.007571 0.029385 0.001885
# 6 -0.001348 -0.003909 0.003177 0.013749 0.001885 0.038535
#
#
# Mechanical properties :
#
#
# Convention : Reuss Voigt Hill
#
# Bulk Modulus (GPa) = 45.95695 49.91154 47.93424
# Shear Modulus (GPa) = 26.93481 32.26364 29.59922
#
# Velocity S-wave (km/s) = 3.37935 3.69856 3.54256
# Velocity P-wave (km/s) = 5.89168 6.27702 6.08740
#
# Compressibility (1/GPa) = 0.02175950
#
# Stress axis : x y z
#
# Youngs Moduli (GPa) = 113.44535 74.50914 54.03953
#
# Poissons Ratio (x) = 0.03422 0.17985
# Poissons Ratio (y) = 0.05210 0.30821
# Poissons Ratio (z) = 0.37755 0.42496
#
# Static dielectric constant tensor:
#      x y z
#    x 4.324260 0.099390 -0.328560 
#    y 0.099390 4.324570 0.178000 
#    z -0.328560 0.178000 4.210340 
# 
# 
# High freq. dielectric constant tensor:
#      x y z
#    x 1.945380 0.012340 -0.022200 
#    y 0.012340 1.935670 0.008820 
#    z -0.022200 0.008820 1.920290 
# 
# From -- ./inp_files/569987.got.cif
#   From: 2010.06.25/outbox.cif.g09.slc.cpg/sg2_285_cif.got.tgz:569987.got - 2010.06.27 13:26:56.
