data_PCOD8020991
_publ_section_title
;
Structure prediction by ZEFSAII (Michael W. Deem and Ramdas Pophale) SiO2 
 PCOD8020991
Probable space group: P -1
;
_chemical_formula_sum "Si O2"
_cell_formula_units_Z 16
_cell_length_a 20.719782
_cell_length_b 17.862088
_cell_length_c 11.389020
_cell_angle_alpha 36.411951
_cell_angle_beta 132.368167
_cell_angle_gamma 160.056212
_cell_volume 779.153978
_symmetry_space_group_name_H-M "P -1"
_symmetry_group_IT_number 2
_symmetry_cell_setting 'triclinic'
loop_
_space_group_symop_operation_xyz
x,y,z
-x,-y,-z
loop_
_atom_site_type_symbol
_atom_site_label
_atom_site_fract_x
_atom_site_fract_y
_atom_site_fract_z
Si Si1 0.654514 0.360447 0.960661
Si Si2 0.261107 0.702693 0.286982
Si Si3 0.721386 0.694086 0.768401
Si Si4 0.424936 0.960508 0.578072
Si Si5 0.207601 0.193590 0.024776
Si Si6 0.492735 0.631781 0.602391
Si Si7 0.819865 0.131916 0.543440
Si Si8 0.174953 0.385972 0.396161
O O1 0.650843 0.483839 0.872401
O O2 0.816183 0.578745 0.776623
O O3 0.721752 0.334543 0.162952
O O4 0.420322 0.025953 0.047596
O O5 0.199801 0.550718 0.284913
O O6 0.052737 0.486208 0.361413
O O7 0.372405 0.750403 0.454964
O O8 0.569627 0.609666 0.653228
O O9 0.690375 0.628699 0.951862
O O10 0.960892 0.039884 0.602906
O O11 0.296589 0.920614 0.447908
O O12 0.500000 0.000000 0.500000
O O13 0.363807 0.427461 0.817579
O O14 0.166372 0.989527 0.231388
O O15 0.000000 0.000000 0.000000
O O16 0.364232 0.543636 0.463860
O O17 0.697588 0.972412 0.470364
#
# Coordination Sequence:
#
# PCOD8020991 Si02
#       8
#     2   2   2   2   2   2   2   2
#     4  10  26  43  63  93 137 169 211 272 328 377
#     4  10  22  43  66  94 128 170 218 260 317 389
#     4  11  23  42  65  97 132 167 213 275 325 381
#     4  10  25  43  65  93 132 172 210 268 327 387
#     4  11  22  38  69 103 126 168 218 270 323 383
#     4  11  22  38  69  98 123 169 216 270 320 386
#     4  11  21  41  68  97 127 170 222 262 324 382
#     4  12  21  46  66  92 128 172 222 268 314 387
#
# _framework density 20.535093
#
# number of rings (size 3 to 8) (size 9 to 14) (size 15 to 20)
#    0.750    0.500    5.000    2.250    3.500    1.000 
#    4.500    1.250    0.000    0.000    0.000    0.000 
#    0.000    0.000    0.000    0.000    0.000    0.000 
#
# Total GULP energy -198342.283055 kJ/mol
# GULP energy per Si atom -12396.392691 kJ/mol
# Density = 2.048835 g / cm^3
# Si number density = 20.535093 Si / 1000 Ang^3
#
#
#
# Elastic Constant Matrix: (Units=GPa)
#
#
# Indices 1 2 3 4 5 6 
#
# 1 140.8878 37.1780 37.1677 6.9701 21.9360 9.8762
# 2 37.1780 69.5743 28.8493 -6.0743 10.5790 24.2524
# 3 37.1677 28.8493 71.1882 1.3700 1.3631 -3.0172
# 4 6.9701 -6.0743 1.3700 35.1073 -7.7344 2.9195
# 5 21.9360 10.5790 1.3631 -7.7344 33.3920 -0.0390
# 6 9.8762 24.2524 -3.0172 2.9195 -0.0390 38.6023
#
#
#
# Elastic Compliance Matrix: (Units=1/GPa)
#
#
# Indices 1 2 3 4 5 6 
#
# 1 0.010144 -0.002788 -0.004009 -0.003692 -0.006473 -0.000884
# 2 -0.002788 0.027926 -0.010650 0.006169 -0.005173 -0.018136
# 3 -0.004009 -0.010650 0.020796 -0.001588 0.004802 0.009467
# 4 -0.003692 0.006169 -0.001588 0.032584 0.008077 -0.005512
# 5 -0.006473 -0.005173 0.004802 0.008077 0.037519 0.004709
# 6 -0.000884 -0.018136 0.009467 -0.005512 0.004709 0.038687
#
#
# Mechanical properties :
#
#
# Convention : Reuss Voigt Hill
#
# Bulk Modulus (GPa) = 41.71441 54.22669 47.97055
# Shear Modulus (GPa) = 23.74856 33.31733 28.53295
#
# Velocity S-wave (km/s) = 3.40440 4.03234 3.73161
# Velocity P-wave (km/s) = 5.98424 6.93858 6.47901
#
# Compressibility (1/GPa) = 0.02397253
#
# Stress axis : x y z
#
# Youngs Moduli (GPa) = 98.58476 35.80889 48.08654
#
# Poissons Ratio (x) = 0.09984 0.19276
# Poissons Ratio (y) = 0.27487 0.51211
# Poissons Ratio (z) = 0.39518 0.38135
#
# Static dielectric constant tensor:
#      x y z
#    x 3.781990 0.200710 0.019900 
#    y 0.200710 3.865020 -0.087600 
#    z 0.019900 -0.087600 3.638280 
# 
# 
# High freq. dielectric constant tensor:
#      x y z
#    x 1.811420 0.011350 0.000820 
#    y 0.011350 1.792530 -0.009400 
#    z 0.000820 -0.009400 1.791330 
# 
# From -- ./inp_files/472193.got.cif
#   From: 2010.06.25/outbox.cif.g09.slc.cpg/sg2_237_cif.got.tgz:472193.got - 2010.06.27 13:26:56.
