data_PCOD8020853
_publ_section_title
;
Structure prediction by ZEFSAII (Michael W. Deem and Ramdas Pophale) SiO2 
 PCOD8020853
Probable space group: P -1
;
_chemical_formula_sum "Si O2"
_cell_formula_units_Z 14
_cell_length_a 17.601719
_cell_length_b 8.899435
_cell_length_c 11.894361
_cell_angle_alpha 126.373599
_cell_angle_beta 28.609666
_cell_angle_gamma 108.187541
_cell_volume 604.231931
_symmetry_space_group_name_H-M "P -1"
_symmetry_group_IT_number 2
_symmetry_cell_setting 'triclinic'
loop_
_space_group_symop_operation_xyz
x,y,z
-x,-y,-z
loop_
_atom_site_type_symbol
_atom_site_label
_atom_site_fract_x
_atom_site_fract_y
_atom_site_fract_z
Si Si1 0.408338 0.295952 0.572848
Si Si2 0.366982 0.093031 0.320917
Si Si3 0.920226 0.629562 0.835374
Si Si4 0.575310 0.352732 0.947313
Si Si5 0.787622 0.242763 0.081266
Si Si6 0.040344 0.754801 0.519330
Si Si7 0.812695 0.471366 0.352086
O O1 0.460031 0.146013 0.327291
O O2 0.602236 0.239532 0.350583
O O3 0.270453 0.558826 0.842314
O O4 0.295396 0.240809 0.784373
O O5 0.180443 0.328071 0.628887
O O6 0.325986 0.907355 0.330260
O O7 0.500000 0.000000 0.000000
O O8 0.996771 0.378848 0.585154
O O9 0.932777 0.768187 0.779831
O O10 0.049131 0.623253 0.765264
O O11 0.734716 0.375495 0.810981
O O12 0.500000 0.500000 0.000000
O O13 0.403669 0.431196 0.290067
O O14 0.873346 0.273358 0.097960
O O15 0.947881 0.009385 0.713276
#
# Coordination Sequence:
#
# PCOD8020853 Si02
#       7
#     2   2   2   2   2   2   2
#     4  10  23  44  66  94 131 169 208 269 321 376
#     4   9  22  38  68  95 125 167 215 257 324 376
#     4  11  25  42  64  95 133 169 212 268 320 378
#     4  11  22  41  64  92 128 171 210 261 316 379
#     4  10  24  42  67  94 126 166 218 263 317 385
#     4  11  26  42  63  96 129 171 218 261 319 381
#     4  10  22  43  64  94 131 165 213 269 319 379
#
# _framework density 23.169910999999999
#
# number of rings (size 3 to 8) (size 9 to 14) (size 15 to 20)
#    0.000    1.714    1.429    0.857    8.000    5.143 
#    0.000    0.000    0.000    0.000    0.000    0.000 
#    0.000    0.000    0.000    0.000    0.000    0.000 
#
# Total GULP energy -173602.770144 kJ/mol
# GULP energy per Si atom -12400.197867 kJ/mol
# Density = 2.311718 g / cm^3
# Si number density = 23.169911 Si / 1000 Ang^3
#
#
#
# Elastic Constant Matrix: (Units=GPa)
#
#
# Indices 1 2 3 4 5 6 
#
# 1 96.9020 10.7729 8.8539 2.4239 1.7418 10.4554
# 2 10.7729 79.1014 15.7967 2.1545 5.9072 3.7162
# 3 8.8539 15.7967 56.4090 3.4941 -7.9205 3.7248
# 4 2.4239 2.1545 3.4941 42.6237 12.3026 -0.1553
# 5 1.7418 5.9072 -7.9205 12.3026 29.8549 -0.8773
# 6 10.4554 3.7162 3.7248 -0.1553 -0.8773 25.2525
#
#
#
# Elastic Compliance Matrix: (Units=1/GPa)
#
#
# Indices 1 2 3 4 5 6 
#
# 1 0.011026 -0.000980 -0.001272 -0.000256 -0.000807 -0.004263
# 2 -0.000980 0.013993 -0.004348 0.000938 -0.004285 -0.001155
# 3 -0.001272 -0.004348 0.020583 -0.003670 0.007860 -0.001619
# 4 -0.000256 0.000938 -0.003670 0.027306 -0.012389 0.000247
# 5 -0.000807 -0.004285 0.007860 -0.012389 0.041615 0.001175
# 6 -0.004263 -0.001155 -0.001619 0.000247 0.001175 0.041816
#
#
# Mechanical properties :
#
#
# Convention : Reuss Voigt Hill
#
# Bulk Modulus (GPa) = 30.86372 33.69551 32.27961
# Shear Modulus (GPa) = 27.72552 32.67882 30.20217
#
# Velocity S-wave (km/s) = 3.46297 3.75960 3.61433
# Velocity P-wave (km/s) = 5.41655 5.78105 5.60177
#
# Compressibility (1/GPa) = 0.03240050
#
# Stress axis : x y z
#
# Youngs Moduli (GPa) = 90.69696 71.46653 48.58421
#
# Poissons Ratio (x) = 0.07004 0.06180
# Poissons Ratio (y) = 0.08889 0.21125
# Poissons Ratio (z) = 0.11537 0.31075
#
# Static dielectric constant tensor:
#      x y z
#    x 3.991490 0.161570 0.121690 
#    y 0.161570 4.580570 0.087260 
#    z 0.121690 0.087260 4.046390 
# 
# 
# High freq. dielectric constant tensor:
#      x y z
#    x 1.913110 0.011520 0.007410 
#    y 0.011520 1.920250 0.000500 
#    z 0.007410 0.000500 1.909520 
# 
# From -- ./inp_files/156917.got.cif
#   From: 2010.06.25/outbox.cif.g09.slc.cpg/sg2_79_cif.got.tgz:156917.got - 2010.06.27 13:26:56.
