data_PCOD8020177
_publ_section_title
;
Structure prediction by ZEFSAII (Michael W. Deem and Ramdas Pophale) SiO2 
 PCOD8020177
Probable space group: P -1
;
_chemical_formula_sum "Si O2"
_cell_formula_units_Z 16
_cell_length_a 8.591109
_cell_length_b 16.977325
_cell_length_c 6.769742
_cell_angle_alpha 88.749088
_cell_angle_beta 122.617360
_cell_angle_gamma 116.920601
_cell_volume 708.342691
_symmetry_space_group_name_H-M "P -1"
_symmetry_group_IT_number 2
_symmetry_cell_setting 'triclinic'
loop_
_space_group_symop_operation_xyz
x,y,z
-x,-y,-z
loop_
_atom_site_type_symbol
_atom_site_label
_atom_site_fract_x
_atom_site_fract_y
_atom_site_fract_z
Si Si1 0.934272 0.072645 0.710097
Si Si2 0.732813 0.251992 0.127921
Si Si3 0.699357 0.772733 0.304408
Si Si4 0.593083 0.602264 0.981813
Si Si5 0.942848 0.320396 0.864152
Si Si6 0.212326 0.120956 0.270034
Si Si7 0.653942 0.141845 0.429996
Si Si8 0.809207 0.406285 0.464869
O O1 0.695139 0.059877 0.524352
O O2 0.081853 0.144331 0.640425
O O3 0.904719 0.972097 0.670762
O O4 0.045820 0.116662 0.994780
O O5 0.720801 0.166020 0.241188
O O6 0.804982 0.325985 0.344569
O O7 0.495746 0.214218 0.885979
O O8 0.909506 0.300971 0.075573
O O9 0.648493 0.672249 0.202395
O O10 0.719205 0.788091 0.555527
O O11 0.802376 0.629959 0.996550
O O12 0.500000 0.500000 0.000000
O O13 0.421403 0.602100 0.712106
O O14 0.821044 0.223332 0.680328
O O15 0.858787 0.388262 0.725084
O O16 0.413331 0.122160 0.299306
O O17 0.000000 0.500000 0.500000
#
# Coordination Sequence:
#
# PCOD8020177 Si02
#       8
#     2   2   2   2   2   2   2   2
#     4  11  24  43  68 102 136 176 223 280 329 404
#     4  10  23  41  66  93 131 179 220 269 333 399
#     4  11  22  44  68  96 135 181 218 276 341 391
#     4  11  23  44  69 100 133 170 229 279 325 399
#     4  11  22  43  66  93 133 177 217 271 337 391
#     4  11  24  44  69  98 139 176 223 274 341 396
#     4  11  22  43  67  97 135 174 222 273 332 398
#     4  10  22  42  66  92 133 170 214 280 336 390
#
# _framework density 22.587938999999999
#
# number of rings (size 3 to 8) (size 9 to 14) (size 15 to 20)
#    0.000    1.250    5.000    0.750    0.000    1.500 
#    2.250    1.250    0.000    0.000    0.000    0.000 
#    0.000    0.000    0.000    0.000    0.000    0.000 
#
# Total GULP energy -198290.343164 kJ/mol
# GULP energy per Si atom -12393.146448 kJ/mol
# Density = 2.253653 g / cm^3
# Si number density = 22.587939 Si / 1000 Ang^3
#
#
#
# Elastic Constant Matrix: (Units=GPa)
#
#
# Indices 1 2 3 4 5 6 
#
# 1 109.1511 36.2772 49.9476 -14.2908 13.7660 0.6630
# 2 36.2772 70.5290 39.5685 -3.4737 0.6675 -0.5546
# 3 49.9476 39.5685 104.9416 -19.1941 7.1524 -12.6013
# 4 -14.2908 -3.4737 -19.1941 29.5148 8.8345 8.9202
# 5 13.7660 0.6675 7.1524 8.8345 26.2524 -3.7511
# 6 0.6630 -0.5546 -12.6013 8.9202 -3.7511 27.1241
#
#
#
# Elastic Compliance Matrix: (Units=1/GPa)
#
#
# Indices 1 2 3 4 5 6 
#
# 1 0.015330 -0.005372 -0.003508 0.009999 -0.011306 -0.006966
# 2 -0.005372 0.020314 -0.006695 -0.006644 0.006434 0.000511
# 3 -0.003508 -0.006695 0.015983 0.007989 -0.004443 0.004133
# 4 0.009999 -0.006644 0.007989 0.057990 -0.029599 -0.019833
# 5 -0.011306 0.006434 -0.004443 -0.029599 0.057315 0.016004
# 6 -0.006966 0.000511 0.004133 -0.019833 0.016004 0.047704
#
#
# Mechanical properties :
#
#
# Convention : Reuss Voigt Hill
#
# Bulk Modulus (GPa) = 48.83554 59.57872 54.20713
# Shear Modulus (GPa) = 19.79337 27.16682 23.48010
#
# Velocity S-wave (km/s) = 2.96342 3.47178 3.22762
# Velocity P-wave (km/s) = 5.77722 6.51956 6.15958
#
# Compressibility (1/GPa) = 0.02047689
#
# Stress axis : x y z
#
# Youngs Moduli (GPa) = 65.23333 49.22799 62.56630
#
# Poissons Ratio (x) = 0.26447 0.21946
# Poissons Ratio (y) = 0.35046 0.41886
# Poissons Ratio (z) = 0.22882 0.32957
#
# Static dielectric constant tensor:
#      x y z
#    x 4.490830 0.181140 -0.033150 
#    y 0.181140 4.264340 -0.243230 
#    z -0.033150 -0.243230 4.348870 
# 
# 
# High freq. dielectric constant tensor:
#      x y z
#    x 1.883160 0.011900 0.019080 
#    y 0.011900 1.891960 -0.009580 
#    z 0.019080 -0.009580 1.895160 
# 
# From -- ./inp_files/47570.got.cif
#   From: 2010.06.25/outbox.cif.g09.slc.cpg/sg2_24_cif.got.tgz:47570.got - 2010.06.27 13:26:56.
