data_PCOD8020052
_publ_section_title
;
Structure prediction by ZEFSAII (Michael W. Deem and Ramdas Pophale) SiO2 
 PCOD8020052
Probable space group: P -1
;
_chemical_formula_sum "Si O2"
_cell_formula_units_Z 16
_cell_length_a 15.228429
_cell_length_b 9.093225
_cell_length_c 14.957247
_cell_angle_alpha 60.131459
_cell_angle_beta 39.059844
_cell_angle_gamma 38.193846
_cell_volume 772.782659
_symmetry_space_group_name_H-M "P -1"
_symmetry_group_IT_number 2
_symmetry_cell_setting 'triclinic'
loop_
_space_group_symop_operation_xyz
x,y,z
-x,-y,-z
loop_
_atom_site_type_symbol
_atom_site_label
_atom_site_fract_x
_atom_site_fract_y
_atom_site_fract_z
Si Si1 0.433760 0.182857 0.074846
Si Si2 0.791591 0.782835 0.591422
Si Si3 0.706717 0.220552 0.898446
Si Si4 0.611542 0.524182 0.472855
Si Si5 0.532151 0.959054 0.380774
Si Si6 0.146704 0.739372 0.068475
Si Si7 0.961249 0.997109 0.429009
Si Si8 0.713050 0.129246 0.223437
O O1 0.338954 0.170229 0.237214
O O2 0.271723 0.461942 0.080666
O O3 0.645665 0.081013 0.970212
O O4 0.500000 0.000000 0.000000
O O5 0.000000 0.500000 0.500000
O O6 0.676460 0.860602 0.565013
O O7 0.834738 0.939531 0.530852
O O8 0.856385 0.113441 0.896641
O O9 0.500000 0.500000 0.000000
O O10 0.815617 0.208485 0.730350
O O11 0.500000 0.500000 0.500000
O O12 0.647441 0.678821 0.353972
O O13 0.833925 0.261907 0.404507
O O14 0.472165 0.663235 0.628215
O O15 0.500000 0.000000 0.500000
O O16 0.657680 0.017289 0.237093
O O17 0.247091 0.734314 0.903612
O O18 0.913305 0.894812 0.190837
O O19 0.000000 0.000000 0.500000
#
# Coordination Sequence:
#
# PCOD8020052 Si02
#       8
#     2   2   2   2   2   2   2   2
#     4  11  25  41  67  98 143 174 222 289 347 394
#     4  12  26  43  70 102 135 180 233 279 334 414
#     4  10  22  42  65  87 132 176 218 268 333 402
#     4  11  23  42  67  93 140 171 217 284 345 393
#     4  10  24  42  67  97 134 175 226 281 340 398
#     4  10  22  42  67  92 130 182 230 266 332 418
#     4  12  27  41  69 104 135 174 226 279 347 398
#     4  10  23  40  69  94 127 180 231 271 330 411
#
# _framework density 20.704398999999999
#
# number of rings (size 3 to 8) (size 9 to 14) (size 15 to 20)
#    0.000    1.250    1.250    3.750   14.000    1.000 
#    0.000    0.000    0.000    5.250    0.000    0.000 
#    0.000    0.000    0.000    0.000    0.000    0.000 
#
# Total GULP energy -198372.369816 kJ/mol
# GULP energy per Si atom -12398.273114 kJ/mol
# Density = 2.065727 g / cm^3
# Si number density = 20.704399 Si / 1000 Ang^3
#
#
#
# Elastic Constant Matrix: (Units=GPa)
#
#
# Indices 1 2 3 4 5 6 
#
# 1 174.4507 55.9070 49.8293 6.4764 -11.9220 5.3148
# 2 55.9070 112.8255 27.6551 -5.5909 -5.0467 -3.1945
# 3 49.8293 27.6551 122.5749 -4.2820 -0.6761 2.8235
# 4 6.4764 -5.5909 -4.2820 23.8804 4.8282 -4.0785
# 5 -11.9220 -5.0467 -0.6761 4.8282 39.4396 -4.0693
# 6 5.3148 -3.1945 2.8235 -4.0785 -4.0693 39.9540
#
#
#
# Elastic Compliance Matrix: (Units=1/GPa)
#
#
# Indices 1 2 3 4 5 6 
#
# 1 0.007905 -0.003434 -0.002539 -0.004090 0.002270 -0.001333
# 2 -0.003434 0.011047 -0.001011 0.003622 0.000100 0.001791
# 3 -0.002539 -0.001011 0.009500 0.002318 -0.001047 -0.000284
# 4 -0.004090 0.003622 0.002318 0.046260 -0.005902 0.004791
# 5 0.002270 0.000100 -0.001047 -0.005902 0.026957 0.001923
# 6 -0.001333 0.001791 -0.000284 0.004791 0.001923 0.026054
#
#
# Mechanical properties :
#
#
# Convention : Reuss Voigt Hill
#
# Bulk Modulus (GPa) = 69.03060 75.18155 72.10607
# Shear Modulus (GPa) = 34.12527 39.08548 36.60537
#
# Velocity S-wave (km/s) = 4.06422 4.34958 4.20932
# Velocity P-wave (km/s) = 7.44562 7.84957 7.65027
#
# Compressibility (1/GPa) = 0.01448633
#
# Stress axis : x y z
#
# Youngs Moduli (GPa) = 126.49512 90.52062 105.26244
#
# Poissons Ratio (x) = 0.31084 0.26722
# Poissons Ratio (y) = 0.43437 0.10639
# Poissons Ratio (z) = 0.32112 0.09149
#
# Static dielectric constant tensor:
#      x y z
#    x 4.704290 0.324110 -0.421620 
#    y 0.324110 3.929520 -0.263310 
#    z -0.421620 -0.263310 3.917710 
# 
# 
# High freq. dielectric constant tensor:
#      x y z
#    x 1.834370 0.002750 -0.008130 
#    y 0.002750 1.806980 -0.008420 
#    z -0.008130 -0.008420 1.810910 
# 
# From -- ./inp_files/528246.got.cif
#   From: 2010.06.25/outbox.cif.g09.slc.cpg/sg2_265_cif.got.tgz:528246.got - 2010.06.27 13:26:56.
