data_PCOD8020029
_publ_section_title
;
Structure prediction by ZEFSAII (Michael W. Deem and Ramdas Pophale) SiO2 
 PCOD8020029
Probable space group: P -1
;
_chemical_formula_sum "Si O2"
_cell_formula_units_Z 14
_cell_length_a 21.624173
_cell_length_b 16.144350
_cell_length_c 8.016049
_cell_angle_alpha 143.900749
_cell_angle_beta 45.817638
_cell_angle_gamma 157.795193
_cell_volume 606.467214
_symmetry_space_group_name_H-M "P -1"
_symmetry_group_IT_number 2
_symmetry_cell_setting 'triclinic'
loop_
_space_group_symop_operation_xyz
x,y,z
-x,-y,-z
loop_
_atom_site_type_symbol
_atom_site_label
_atom_site_fract_x
_atom_site_fract_y
_atom_site_fract_z
Si Si1 0.619258 0.738348 0.882043
Si Si2 0.762137 0.401972 0.666305
Si Si3 0.469004 0.121264 0.569061
Si Si4 0.533558 0.753383 0.726875
Si Si5 0.713606 0.457085 0.361391
Si Si6 0.836822 0.361438 0.111233
Si Si7 0.065626 0.994146 0.218566
O O1 0.575116 0.782921 0.887577
O O2 0.492417 0.429636 0.619899
O O3 0.812069 0.957524 0.863765
O O4 0.585912 0.791100 0.189801
O O5 0.608923 0.289168 0.721564
O O6 0.824467 0.399278 0.385350
O O7 0.696229 0.205121 0.615582
O O8 0.915193 0.712172 0.943910
O O9 0.552153 0.202686 0.368187
O O10 0.363998 0.612848 0.790372
O O11 0.686342 0.047806 0.834497
O O12 0.830439 0.482330 0.187481
O O13 0.826002 0.748476 0.685308
O O14 0.000000 0.500000 0.000000
O O15 0.000000 0.000000 0.500000
#
# Coordination Sequence:
#
# PCOD8020029 Si02
#       7
#     2   2   2   2   2   2   2
#     4  10  23  41  71  92 128 179 228 268 336 394
#     4  10  24  43  67  98 137 176 222 276 341 392
#     4  10  22  43  70  97 133 177 225 276 327 405
#     4  10  22  42  64  98 128 171 232 266 325 401
#     4  10  25  43  67  99 133 178 226 276 335 387
#     4  11  24  41  68 102 137 174 220 277 340 400
#     4  11  27  43  67 101 137 176 222 280 341 398
#
# _framework density 23.084510999999999
#
# number of rings (size 3 to 8) (size 9 to 14) (size 15 to 20)
#    0.000    1.714    1.429    0.429    8.000    8.571 
#    0.000    0.000    0.000    0.000    0.000    0.000 
#    0.000    0.000    0.000    0.000    0.000    0.000 
#
# Total GULP energy -173526.100614 kJ/mol
# GULP energy per Si atom -12394.721472 kJ/mol
# Density = 2.303197 g / cm^3
# Si number density = 23.084511 Si / 1000 Ang^3
#
#
#
# Elastic Constant Matrix: (Units=GPa)
#
#
# Indices 1 2 3 4 5 6 
#
# 1 136.0135 48.7905 44.4776 6.8205 -23.3230 20.7412
# 2 48.7905 112.2246 52.4232 11.1101 -15.8764 21.4864
# 3 44.4776 52.4232 96.3087 15.3306 -21.2861 24.2734
# 4 6.8205 11.1101 15.3306 56.7827 10.3789 -8.9231
# 5 -23.3230 -15.8764 -21.2861 10.3789 35.1744 -3.0013
# 6 20.7412 21.4864 24.2734 -8.9231 -3.0013 38.3128
#
#
#
# Elastic Compliance Matrix: (Units=1/GPa)
#
#
# Indices 1 2 3 4 5 6 
#
# 1 0.010056 -0.002257 -0.001006 -0.002035 0.005333 -0.003597
# 2 -0.002257 0.013151 -0.004398 -0.002073 0.002075 -0.003687
# 3 -0.001006 -0.004398 0.019390 -0.007786 0.010503 -0.010264
# 4 -0.002035 -0.002073 -0.007786 0.024657 -0.013257 0.011901
# 5 0.005333 0.002075 0.010503 -0.013257 0.042276 -0.010481
# 6 -0.003597 -0.003687 -0.010264 0.011901 -0.010481 0.038569
#
#
# Mechanical properties :
#
#
# Convention : Reuss Voigt Hill
#
# Bulk Modulus (GPa) = 36.66551 70.65882 53.66216
# Shear Modulus (GPa) = 28.98316 39.31103 34.14709
#
# Velocity S-wave (km/s) = 3.54718 4.13112 3.85024
# Velocity P-wave (km/s) = 5.71789 7.30959 6.56218
#
# Compressibility (1/GPa) = 0.02727359
#
# Stress axis : x y z
#
# Youngs Moduli (GPa) = 99.44251 76.03793 51.57364
#
# Poissons Ratio (x) = 0.17165 0.05190
# Poissons Ratio (y) = 0.22448 0.22683
# Poissons Ratio (z) = 0.10006 0.33443
#
# Static dielectric constant tensor:
#      x y z
#    x 4.459840 0.037490 -0.310760 
#    y 0.037490 4.215900 0.280430 
#    z -0.310760 0.280430 4.293910 
# 
# 
# High freq. dielectric constant tensor:
#      x y z
#    x 1.913110 0.007100 -0.019290 
#    y 0.007100 1.904010 0.012010 
#    z -0.019290 0.012010 1.920710 
# 
# From -- ./inp_files/185248.got.cif
#   From: 2010.06.25/outbox.cif.g09.slc.cpg/sg2_93_cif.got.tgz:185248.got - 2010.06.27 13:26:56.
