data_PCOD8020546
_publ_section_title
;
Structure prediction by ZEFSAII (Michael W. Deem and Ramdas Pophale) SiO2 
 PCOD8020546
Probable space group: P -1
;
_chemical_formula_sum "Si O2"
_cell_formula_units_Z 16
_cell_length_a 14.338690
_cell_length_b 13.892243
_cell_length_c 8.850391
_cell_angle_alpha 78.978522
_cell_angle_beta 45.220103
_cell_angle_gamma 44.357559
_cell_volume 679.704720
_symmetry_space_group_name_H-M "P -1"
_symmetry_group_IT_number 2
_symmetry_cell_setting 'triclinic'
loop_
_space_group_symop_operation_xyz
x,y,z
-x,-y,-z
loop_
_atom_site_type_symbol
_atom_site_label
_atom_site_fract_x
_atom_site_fract_y
_atom_site_fract_z
Si Si1 0.697850 0.061930 0.281860
Si Si2 0.719698 0.710854 0.515809
Si Si3 0.978747 0.314259 0.971111
Si Si4 0.391629 0.207276 0.039985
Si Si5 0.985082 0.986931 0.740717
Si Si6 0.015076 0.647979 0.702035
Si Si7 0.492771 0.317555 0.700553
Si Si8 0.083381 0.108815 0.422084
O O1 0.527727 0.114513 0.338286
O O2 0.543195 0.204487 0.548343
O O3 0.877644 0.868385 0.202557
O O4 0.847742 0.055322 0.032965
O O5 0.925311 0.644593 0.220703
O O6 0.714843 0.741295 0.687567
O O7 0.775009 0.561026 0.481291
O O8 0.010087 0.292063 0.121263
O O9 0.699211 0.482895 0.195699
O O10 0.237271 0.241736 0.087628
O O11 0.387206 0.324985 0.963269
O O12 0.664393 0.001535 0.781959
O O13 0.261220 0.782464 0.504984
O O14 0.863963 0.997788 0.745361
O O15 0.967275 0.114899 0.685332
O O16 0.080036 0.698267 0.499998
#
# Coordination Sequence:
#
# PCOD8020546 Si02
#       8
#     2   2   2   2   2   2   2   2
#     4  12  24  45  71  99 133 183 225 273 341 397
#     4  12  24  42  68  99 143 171 222 283 339 398
#     4  12  25  44  67 104 141 175 220 277 339 407
#     4  11  23  43  67  97 138 175 219 283 335 399
#     4  10  22  45  69  93 138 175 230 276 324 397
#     4  12  22  41  68 100 135 174 220 276 341 397
#     4  11  25  45  70  98 140 180 222 279 330 395
#     4  10  22  42  69  96 128 180 224 278 334 391
#
# _framework density 23.539634
#
# number of rings (size 3 to 8) (size 9 to 14) (size 15 to 20)
#    0.000    0.750    5.000    2.625    0.000    3.500 
#    0.000    0.625    2.750    0.000    0.000    0.000 
#    0.000    0.000    0.000    0.000    0.000    0.000 
#
# Total GULP energy -198434.032560 kJ/mol
# GULP energy per Si atom -12402.127035 kJ/mol
# Density = 2.348606 g / cm^3
# Si number density = 23.539634 Si / 1000 Ang^3
#
#
#
# Elastic Constant Matrix: (Units=GPa)
#
#
# Indices 1 2 3 4 5 6 
#
# 1 47.7708 4.4323 3.7924 4.5243 -10.8914 -24.5997
# 2 4.4323 144.3083 48.3354 12.7502 -2.9075 0.2313
# 3 3.7924 48.3354 66.1183 0.3083 -11.9729 -1.7991
# 4 4.5243 12.7502 0.3083 31.2551 4.5151 -4.2945
# 5 -10.8914 -2.9075 -11.9729 4.5151 29.2013 5.4767
# 6 -24.5997 0.2313 -1.7991 -4.2945 5.4767 37.2748
#
#
#
# Elastic Compliance Matrix: (Units=1/GPa)
#
#
# Indices 1 2 3 4 5 6 
#
# 1 0.034157 -0.000979 0.001087 -0.003090 0.009660 0.020825
# 2 -0.000979 0.009720 -0.007358 -0.003690 -0.001609 -0.001250
# 3 0.001087 -0.007358 0.021956 0.001537 0.008291 0.000782
# 4 -0.003090 -0.003690 0.001537 0.035370 -0.006950 0.003154
# 5 0.009660 -0.001609 0.008291 -0.006950 0.042202 -0.000216
# 6 0.020825 -0.001250 0.000782 0.003154 -0.000216 0.041012
#
#
# Mechanical properties :
#
#
# Convention : Reuss Voigt Hill
#
# Bulk Modulus (GPa) = 19.48051 41.25750 30.36901
# Shear Modulus (GPa) = 23.14524 32.98872 28.06698
#
# Velocity S-wave (km/s) = 3.13908 3.74760 3.45676
# Velocity P-wave (km/s) = 4.62947 6.02420 5.37229
#
# Compressibility (1/GPa) = 0.05133336
#
# Stress axis : x y z
#
# Youngs Moduli (GPa) = 29.27671 102.88420 45.54523
#
# Poissons Ratio (x) = 0.10071 -0.04949
# Poissons Ratio (y) = 0.02866 0.33510
# Poissons Ratio (z) = -0.03182 0.75697
#
# Static dielectric constant tensor:
#      x y z
#    x 4.064180 -0.278200 -0.171400 
#    y -0.278200 4.537010 -0.169860 
#    z -0.171400 -0.169860 4.034790 
# 
# 
# High freq. dielectric constant tensor:
#      x y z
#    x 1.924610 -0.020720 -0.010960 
#    y -0.020720 1.947540 -0.013670 
#    z -0.010960 -0.013670 1.914750 
# 
# From -- ./inp_files/297965.got.cif
#   From: 2010.06.25/outbox.cif.g09.slc.cpg/sg2_149_cif.got.tgz:297965.got - 2010.06.27 13:26:56.
