data_PCOD8020608
_publ_section_title
;
Structure prediction by ZEFSAII (Michael W. Deem and Ramdas Pophale) SiO2 
 PCOD8020608
Probable space group: P -1
;
_chemical_formula_sum "Si O2"
_cell_formula_units_Z 14
_cell_length_a 9.166740
_cell_length_b 16.393668
_cell_length_c 16.725511
_cell_angle_alpha 24.919643
_cell_angle_beta 131.934518
_cell_angle_gamma 115.504586
_cell_volume 652.789275
_symmetry_space_group_name_H-M "P -1"
_symmetry_group_IT_number 2
_symmetry_cell_setting 'triclinic'
loop_
_space_group_symop_operation_xyz
x,y,z
-x,-y,-z
loop_
_atom_site_type_symbol
_atom_site_label
_atom_site_fract_x
_atom_site_fract_y
_atom_site_fract_z
Si Si1 0.361777 0.737499 0.786452
Si Si2 0.023057 0.901546 0.783803
Si Si3 0.254366 0.631017 0.451095
Si Si4 0.624827 0.987162 0.682297
Si Si5 0.601900 0.494273 0.832117
Si Si6 0.452714 0.876737 0.022962
Si Si7 0.267314 0.060013 0.054979
O O1 0.496543 0.865594 0.714851
O O2 0.500000 0.500000 0.000000
O O3 0.336005 0.685278 0.914441
O O4 0.103584 0.906437 0.503200
O O5 0.833595 0.910161 0.764977
O O6 0.189321 0.642640 0.035672
O O7 0.179384 0.965768 0.835947
O O8 0.353015 0.568812 0.633743
O O9 0.389330 0.398175 0.654321
O O10 0.976741 0.737238 0.255491
O O11 0.306835 0.811729 0.271313
O O12 0.427901 0.267980 0.360489
O O13 0.740084 0.896903 0.891654
O O14 0.524344 0.930960 0.915989
O O15 0.500000 0.000000 0.000000
#
# Coordination Sequence:
#
# PCOD8020608 Si02
#       7
#     2   2   2   2   2   2   2
#     4  12  25  45  70  97 132 176 222 270 336 391
#     4  11  25  46  66 100 133 172 225 274 324 393
#     4   9  21  42  66  94 129 174 220 262 326 388
#     4  11  24  46  69  95 135 174 222 270 331 392
#     4  10  23  45  68  97 135 170 223 273 323 391
#     4  11  25  41  65 100 135 169 218 271 328 388
#     4  10  22  42  70  91 133 177 215 267 332 381
#
# _framework density 21.446431
#
# number of rings (size 3 to 8) (size 9 to 14) (size 15 to 20)
#    0.000    1.429    1.429    3.000    6.000    2.286 
#   15.429    0.000    0.000    0.000    0.000    0.000 
#    0.000    0.000    0.000    0.000    0.000    0.000 
#
# Total GULP energy -173629.610735 kJ/mol
# GULP energy per Si atom -12402.115053 kJ/mol
# Density = 2.139762 g / cm^3
# Si number density = 21.446431 Si / 1000 Ang^3
#
#
#
# Elastic Constant Matrix: (Units=GPa)
#
#
# Indices 1 2 3 4 5 6 
#
# 1 95.3474 53.1277 51.7471 -9.6661 2.0403 -6.5098
# 2 53.1277 149.5625 75.1890 -12.6277 8.6512 9.7924
# 3 51.7471 75.1890 138.1055 4.6493 -0.3225 0.0906
# 4 -9.6661 -12.6277 4.6493 35.9047 -6.5657 -4.2095
# 5 2.0403 8.6512 -0.3225 -6.5657 26.4399 0.4853
# 6 -6.5098 9.7924 0.0906 -4.2095 0.4853 36.7696
#
#
#
# Elastic Compliance Matrix: (Units=1/GPa)
#
#
# Indices 1 2 3 4 5 6 
#
# 1 0.015202 -0.003355 -0.004007 0.004054 0.000808 0.004048
# 2 -0.003355 0.010844 -0.004741 0.002678 -0.002625 -0.003129
# 3 -0.004007 -0.004741 0.011462 -0.004042 0.000995 0.000049
# 4 0.004054 0.002678 -0.004042 0.032046 0.006654 0.003595
# 5 0.000808 -0.002625 0.000995 0.006654 0.040263 0.001070
# 6 0.004048 -0.003129 0.000049 0.003595 0.001070 0.029144
#
#
# Mechanical properties :
#
#
# Convention : Reuss Voigt Hill
#
# Bulk Modulus (GPa) = 75.17610 82.57145 78.87377
# Shear Modulus (GPa) = 29.83279 33.35294 31.59287
#
# Velocity S-wave (km/s) = 3.73371 3.94785 3.84227
# Velocity P-wave (km/s) = 7.32915 7.70490 7.51938
#
# Compressibility (1/GPa) = 0.01330210
#
# Stress axis : x y z
#
# Youngs Moduli (GPa) = 65.78029 92.21466 87.24830
#
# Poissons Ratio (x) = 0.30942 0.34956
# Poissons Ratio (y) = 0.22072 0.41364
# Poissons Ratio (z) = 0.26355 0.43718
#
# Static dielectric constant tensor:
#      x y z
#    x 3.709330 0.035510 -0.089230 
#    y 0.035510 4.042610 -0.007900 
#    z -0.089230 -0.007900 4.233120 
# 
# 
# High freq. dielectric constant tensor:
#      x y z
#    x 1.827860 0.002290 -0.005020 
#    y 0.002290 1.854800 0.000150 
#    z -0.005020 0.000150 1.854810 
# 
# From -- ./inp_files/337950.got.cif
#   From: 2010.06.25/outbox.cif.g09.slc.cpg/sg2_169_cif.got.tgz:337950.got - 2010.06.27 13:26:56.
