data_PCOD8020035
_publ_section_title
;
Structure prediction by ZEFSAII (Michael W. Deem and Ramdas Pophale) SiO2 
 PCOD8020035
Probable space group: P -1
;
_chemical_formula_sum "Si O2"
_cell_formula_units_Z 16
_cell_length_a 12.408431
_cell_length_b 8.680667
_cell_length_c 8.930169
_cell_angle_alpha 113.495457
_cell_angle_beta 60.692090
_cell_angle_gamma 104.887863
_cell_volume 766.937747
_symmetry_space_group_name_H-M "P -1"
_symmetry_group_IT_number 2
_symmetry_cell_setting 'triclinic'
loop_
_space_group_symop_operation_xyz
x,y,z
-x,-y,-z
loop_
_atom_site_type_symbol
_atom_site_label
_atom_site_fract_x
_atom_site_fract_y
_atom_site_fract_z
Si Si1 0.123081 0.477598 0.497601
Si Si2 0.241173 0.177848 0.770470
Si Si3 0.472814 0.307113 0.481786
Si Si4 0.226329 0.837065 0.033293
Si Si5 0.269606 0.797108 0.646235
Si Si6 0.509530 0.193709 0.094261
Si Si7 0.723379 0.773998 0.889186
Si Si8 0.026614 0.340718 0.821751
O O1 0.195724 0.659885 0.539458
O O2 0.202073 0.357769 0.300518
O O3 0.096765 0.393769 0.643312
O O4 0.000000 0.500000 0.500000
O O5 0.349840 0.287547 0.655747
O O6 0.108840 0.219289 0.813132
O O7 0.255138 0.980771 0.658547
O O8 0.247349 0.234287 0.959921
O O9 0.500000 0.500000 0.500000
O O10 0.585418 0.234123 0.467228
O O11 0.449601 0.212798 0.305101
O O12 0.102972 0.762889 0.171814
O O13 0.241071 0.037936 0.124376
O O14 0.215057 0.788737 0.847413
O O15 0.343846 0.744445 0.985969
O O16 0.423990 0.277117 0.060604
O O17 0.500000 0.000000 0.000000
O O18 0.000000 0.500000 0.000000
#
# Coordination Sequence:
#
# PCOD8020035 Si02
#       8
#     2   2   2   2   2   2   2   2
#     4  12  26  45  63  95 137 166 219 282 327 378
#     4  11  25  42  71  95 130 178 220 263 326 405
#     4  11  22  42  70  97 128 177 222 264 323 395
#     4   9  21  39  70  92 127 177 215 261 323 394
#     4  10  22  43  66  96 131 174 220 268 323 392
#     4   9  19  40  64  94 132 159 207 273 321 372
#     4  10  22  42  64  99 133 165 214 277 328 373
#     4  12  24  43  68  94 127 176 230 258 327 406
#
# _framework density 20.862189000000001
#
# number of rings (size 3 to 8) (size 9 to 14) (size 15 to 20)
#    0.000    1.500    1.250    4.125    3.500    1.500 
#    6.750    1.250    0.000    0.000    0.000    0.000 
#    0.000    0.000    0.000    0.000    0.000    0.000 
#
# Total GULP energy -198411.093908 kJ/mol
# GULP energy per Si atom -12400.693369 kJ/mol
# Density = 2.081471 g / cm^3
# Si number density = 20.862189 Si / 1000 Ang^3
#
#
#
# Elastic Constant Matrix: (Units=GPa)
#
#
# Indices 1 2 3 4 5 6 
#
# 1 170.7578 49.5594 48.9966 8.3095 -9.2783 -6.8482
# 2 49.5594 108.3296 60.7943 9.2748 -7.6936 5.1245
# 3 48.9966 60.7943 126.5560 20.0644 -3.6289 3.3380
# 4 8.3095 9.2748 20.0644 39.2078 1.7083 -3.7784
# 5 -9.2783 -7.6936 -3.6289 1.7083 38.2631 3.5454
# 6 -6.8482 5.1245 3.3380 -3.7784 3.5454 36.5861
#
#
#
# Elastic Compliance Matrix: (Units=1/GPa)
#
#
# Indices 1 2 3 4 5 6 
#
# 1 0.007133 -0.002352 -0.001653 0.000016 0.000939 0.001726
# 2 -0.002352 0.013641 -0.005505 -0.000189 0.001848 -0.002047
# 3 -0.001653 -0.005505 0.011935 -0.004557 -0.000071 -0.001091
# 4 0.000016 -0.000189 -0.004557 0.028312 -0.002061 0.003569
# 5 0.000939 0.001848 -0.000071 -0.002061 0.027090 -0.002915
# 6 0.001726 -0.002047 -0.001091 0.003569 -0.002915 0.028693
#
#
# Mechanical properties :
#
#
# Convention : Reuss Voigt Hill
#
# Bulk Modulus (GPa) = 73.05079 80.48266 76.76673
# Shear Modulus (GPa) = 35.61597 39.23094 37.42346
#
# Velocity S-wave (km/s) = 4.13631 4.34116 4.23997
# Velocity P-wave (km/s) = 7.60947 7.98683 7.80043
#
# Compressibility (1/GPa) = 0.01368911
#
# Stress axis : x y z
#
# Youngs Moduli (GPa) = 140.20264 73.30925 83.78474
#
# Poissons Ratio (x) = 0.17241 0.13847
# Poissons Ratio (y) = 0.32973 0.46126
# Poissons Ratio (z) = 0.23172 0.40359
#
# Static dielectric constant tensor:
#      x y z
#    x -0.757200 -0.430240 2.548640 
#    y -0.430240 3.570980 0.499530 
#    z 2.548640 0.499530 2.382800 
# 
# 
# High freq. dielectric constant tensor:
#      x y z
#    x 1.837300 0.002610 -0.006030 
#    y 0.002610 1.806710 0.019020 
#    z -0.006030 0.019020 1.821710 
# 
# From -- ./inp_files/189786.got.cif
#   From: 2010.06.25/outbox.cif.g09.slc.cpg/sg2_95_cif.got.tgz:189786.got - 2010.06.27 13:26:56.
