data_PCOD8020834
_publ_section_title
;
Structure prediction by ZEFSAII (Michael W. Deem and Ramdas Pophale) SiO2 
 PCOD8020834
Probable space group: P -1
;
_chemical_formula_sum "Si O2"
_cell_formula_units_Z 14
_cell_length_a 11.668492
_cell_length_b 14.502579
_cell_length_c 11.686816
_cell_angle_alpha 72.448095
_cell_angle_beta 155.123999
_cell_angle_gamma 93.699990
_cell_volume 676.914193
_symmetry_space_group_name_H-M "P -1"
_symmetry_group_IT_number 2
_symmetry_cell_setting 'triclinic'
loop_
_space_group_symop_operation_xyz
x,y,z
-x,-y,-z
loop_
_atom_site_type_symbol
_atom_site_label
_atom_site_fract_x
_atom_site_fract_y
_atom_site_fract_z
Si Si1 0.384055 0.555759 0.692767
Si Si2 0.584776 0.054681 0.716233
Si Si3 0.467195 0.696005 0.072796
Si Si4 0.331136 0.903646 0.472992
Si Si5 0.359868 0.311610 0.014404
Si Si6 0.845736 0.747218 0.582373
Si Si7 0.746563 0.475610 0.830301
O O1 0.447211 0.431995 0.818772
O O2 0.552203 0.591028 0.928286
O O3 0.546179 0.560310 0.719774
O O4 0.008520 0.643471 0.315659
O O5 0.520999 0.118649 0.512673
O O6 0.431537 0.143832 0.646319
O O7 0.439795 0.974942 0.618415
O O8 0.954306 0.975330 0.103020
O O9 0.683738 0.700388 0.367907
O O10 0.545886 0.736974 0.010967
O O11 0.087177 0.775377 0.724128
O O12 0.440533 0.785262 0.676099
O O13 0.069430 0.653789 0.913144
O O14 0.500000 0.500000 0.500000
O O15 0.000000 0.500000 0.000000
#
# Coordination Sequence:
#
# PCOD8020834 Si02
#       7
#     2   2   2   2   2   2   2
#     4  11  23  38  61  92 128 167 202 248 314 357
#     4  10  22  43  64  86 126 157 205 259 324 356
#     4  11  23  42  61  94 127 166 209 249 299 384
#     4  10  23  41  63  93 117 159 212 264 297 373
#     4  12  23  41  65  91 125 166 215 253 301 358
#     4  11  23  41  65  87 126 171 197 251 329 356
#     4  11  23  38  57  93 127 155 204 250 291 386
#
# _framework density 20.682089000000001
#
# number of rings (size 3 to 8) (size 9 to 14) (size 15 to 20)
#    0.000    1.143    0.000    7.714    4.000    0.000 
#    0.000    4.286    0.000    0.000    0.000    0.000 
#    0.000    0.000    0.000    0.000    0.000    0.000 
#
# Total GULP energy -173635.807637 kJ/mol
# GULP energy per Si atom -12402.557688 kJ/mol
# Density = 2.063502 g / cm^3
# Si number density = 20.682089 Si / 1000 Ang^3
#
#
#
# Elastic Constant Matrix: (Units=GPa)
#
#
# Indices 1 2 3 4 5 6 
#
# 1 126.6980 37.1893 45.9925 -4.2604 15.9209 -6.1256
# 2 37.1893 72.1288 30.5744 16.5316 6.4666 -11.3152
# 3 45.9925 30.5744 94.9082 28.2401 16.3514 -5.0791
# 4 -4.2604 16.5316 28.2401 37.9228 -2.6222 1.8320
# 5 15.9209 6.4666 16.3514 -2.6222 36.8737 4.8156
# 6 -6.1256 -11.3152 -5.0791 1.8320 4.8156 30.2658
#
#
#
# Elastic Compliance Matrix: (Units=1/GPa)
#
#
# Indices 1 2 3 4 5 6 
#
# 1 0.012325 -0.005672 -0.006775 0.008925 -0.000528 -0.001219
# 2 -0.005672 0.020558 0.000081 -0.010230 -0.002917 0.007635
# 3 -0.006775 0.000081 0.020352 -0.016706 -0.007868 0.004338
# 4 0.008925 -0.010230 -0.016706 0.045388 0.009768 -0.009123
# 5 -0.000528 -0.002917 -0.007868 0.009768 0.033138 -0.008382
# 6 -0.001219 0.007635 0.004338 -0.009123 -0.008382 0.038262
#
#
# Mechanical properties :
#
#
# Convention : Reuss Voigt Hill
#
# Bulk Modulus (GPa) = 35.08451 57.91636 46.50044
# Shear Modulus (GPa) = 24.47907 33.01103 28.74505
#
# Velocity S-wave (km/s) = 3.44406 3.99948 3.73212
# Velocity P-wave (km/s) = 5.72852 7.02792 6.41123
#
# Compressibility (1/GPa) = 0.02850261
#
# Stress axis : x y z
#
# Youngs Moduli (GPa) = 81.13800 48.64250 49.13467
#
# Poissons Ratio (x) = 0.27591 0.33289
# Poissons Ratio (y) = 0.46022 -0.00398
# Poissons Ratio (z) = 0.54972 -0.00394
#
# Static dielectric constant tensor:
#      x y z
#    x 4.359860 -0.008120 0.184150 
#    y -0.008120 3.549000 0.166890 
#    z 0.184150 0.166890 3.797020 
# 
# 
# High freq. dielectric constant tensor:
#      x y z
#    x 1.824220 -0.003200 0.011040 
#    y -0.003200 1.793460 0.018620 
#    z 0.011040 0.018620 1.824100 
# 
# From -- ./inp_files/363633.got.cif
#   From: 2010.06.25/outbox.cif.g09.slc.cpg/sg2_182_cif.got.tgz:363633.got - 2010.06.27 13:26:56.
