data_PCOD8020916
_publ_section_title
;
Structure prediction by ZEFSAII (Michael W. Deem and Ramdas Pophale) SiO2 
 PCOD8020916
Probable space group: P -1
;
_chemical_formula_sum "Si O2"
_cell_formula_units_Z 16
_cell_length_a 8.853332
_cell_length_b 17.641183
_cell_length_c 6.361249
_cell_angle_alpha 121.209840
_cell_angle_beta 80.207054
_cell_angle_gamma 118.320898
_cell_volume 744.229777
_symmetry_space_group_name_H-M "P -1"
_symmetry_group_IT_number 2
_symmetry_cell_setting 'triclinic'
loop_
_space_group_symop_operation_xyz
x,y,z
-x,-y,-z
loop_
_atom_site_type_symbol
_atom_site_label
_atom_site_fract_x
_atom_site_fract_y
_atom_site_fract_z
Si Si1 0.241329 0.393048 0.938761
Si Si2 0.934799 0.282965 0.594525
Si Si3 0.406847 0.069750 0.648456
Si Si4 0.001446 0.603252 0.666641
Si Si5 0.109399 0.921645 0.788088
Si Si6 0.863544 0.964283 0.663995
Si Si7 0.453289 0.553509 0.782662
Si Si8 0.684652 0.289887 0.984119
O O1 0.312506 0.470126 0.841886
O O2 0.084424 0.293289 0.739090
O O3 0.388381 0.376957 0.000677
O O4 0.162780 0.431577 0.195913
O O5 0.031068 0.359127 0.494035
O O6 0.844734 0.168794 0.380744
O O7 0.788943 0.308676 0.765760
O O8 0.327707 0.085584 0.467426
O O9 0.535259 0.177167 0.866421
O O10 0.500000 0.000000 0.500000
O O11 0.253459 0.018933 0.778658
O O12 0.000000 0.500000 0.500000
O O13 0.178056 0.693040 0.840460
O O14 0.917095 0.895808 0.705813
O O15 0.117366 0.942190 0.064768
O O16 0.000000 0.000000 0.500000
O O17 0.500000 0.500000 0.500000
O O18 0.383942 0.629902 0.834201
#
# Coordination Sequence:
#
# PCOD8020916 Si02
#       8
#     2   2   2   2   2   2   2   2
#     4  10  23  41  65  92 126 163 212 272 324 387
#     4  11  23  40  67  94 125 176 219 266 322 389
#     4  11  23  42  65  97 138 168 213 274 324 384
#     4  11  23  42  66  93 127 169 219 268 325 392
#     4  10  22  43  65  94 128 174 223 260 324 384
#     4   9  22  42  65  87 128 172 212 270 316 377
#     4  11  23  44  66  96 131 167 210 277 332 393
#     4  11  25  41  65  97 130 172 218 263 338 384
#
# _framework density 21.498739
#
# number of rings (size 3 to 8) (size 9 to 14) (size 15 to 20)
#    0.000    1.500    1.250    3.000    3.500    5.500 
#   11.250    0.000    0.000    0.000    0.000    0.000 
#    0.000    0.000    0.000    0.000    0.000    0.000 
#
# Total GULP energy -198239.378615 kJ/mol
# GULP energy per Si atom -12389.961163 kJ/mol
# Density = 2.144981 g / cm^3
# Si number density = 21.498739 Si / 1000 Ang^3
#
#
#
# Elastic Constant Matrix: (Units=GPa)
#
#
# Indices 1 2 3 4 5 6 
#
# 1 108.9921 25.6700 43.3123 5.0909 5.5348 5.3229
# 2 25.6700 74.7010 44.5759 -4.5076 -5.1328 9.1745
# 3 43.3123 44.5759 127.3661 -1.6852 -11.6974 3.3216
# 4 5.0909 -4.5076 -1.6852 33.6435 2.3069 -3.1037
# 5 5.5348 -5.1328 -11.6974 2.3069 46.8294 2.5284
# 6 5.3229 9.1745 3.3216 -3.1037 2.5284 27.7633
#
#
#
# Elastic Compliance Matrix: (Units=1/GPa)
#
#
# Indices 1 2 3 4 5 6 
#
# 1 0.011233 -0.002023 -0.003313 -0.002088 -0.002214 -0.001120
# 2 -0.002023 0.018081 -0.005393 0.001943 0.001038 -0.004819
# 3 -0.003313 -0.005393 0.011076 0.000244 0.002507 0.000891
# 4 -0.002088 0.001943 0.000244 0.030693 -0.001168 0.003267
# 5 -0.002214 0.001038 0.002507 -0.001168 0.022543 -0.002402
# 6 -0.001120 -0.004819 0.000891 0.003267 -0.002402 0.038303
#
#
# Mechanical properties :
#
#
# Convention : Reuss Voigt Hill
#
# Bulk Modulus (GPa) = 52.82731 59.79729 56.31230
# Shear Modulus (GPa) = 31.30894 34.81398 33.06146
#
# Velocity S-wave (km/s) = 3.82031 4.02848 3.92578
# Velocity P-wave (km/s) = 6.63968 7.03654 6.84099
#
# Compressibility (1/GPa) = 0.01892960
#
# Stress axis : x y z
#
# Youngs Moduli (GPa) = 89.02395 55.30791 90.28619
#
# Poissons Ratio (x) = 0.11191 0.29916
# Poissons Ratio (y) = 0.18012 0.48692
# Poissons Ratio (z) = 0.29498 0.29828
#
# Static dielectric constant tensor:
#      x y z
#    x 4.451810 0.116210 0.337190 
#    y 0.116210 3.475070 -0.045450 
#    z 0.337190 -0.045450 4.235690 
# 
# 
# High freq. dielectric constant tensor:
#      x y z
#    x 1.859450 0.008830 0.004600 
#    y 0.008830 1.815200 -0.005170 
#    z 0.004600 -0.005170 1.862630 
# 
# From -- ./inp_files/46204.got.cif
#   From: 2010.06.25/outbox.cif.g09.slc.cpg/sg2_24_cif.got.tgz:46204.got - 2010.06.27 13:26:56.
