data_PCOD8020923
_publ_section_title
;
Structure prediction by ZEFSAII (Michael W. Deem and Ramdas Pophale) SiO2 
 PCOD8020923
Probable space group: P -1
;
_chemical_formula_sum "Si O2"
_cell_formula_units_Z 16
_cell_length_a 9.599602
_cell_length_b 16.179694
_cell_length_c 10.373429
_cell_angle_alpha 70.273629
_cell_angle_beta 114.688777
_cell_angle_gamma 54.762982
_cell_volume 748.890429
_symmetry_space_group_name_H-M "P -1"
_symmetry_group_IT_number 2
_symmetry_cell_setting 'triclinic'
loop_
_space_group_symop_operation_xyz
x,y,z
-x,-y,-z
loop_
_atom_site_type_symbol
_atom_site_label
_atom_site_fract_x
_atom_site_fract_y
_atom_site_fract_z
Si Si1 0.271588 0.489197 0.333664
Si Si2 0.748025 0.343683 0.259437
Si Si3 0.334765 0.125739 0.526491
Si Si4 0.309579 0.206739 0.188756
Si Si5 0.399922 0.505136 0.622177
Si Si6 0.805210 0.158526 0.015588
Si Si7 0.410042 0.834539 0.316199
Si Si8 0.695445 0.177397 0.257653
O O1 0.194637 0.548961 0.422521
O O2 0.521680 0.436912 0.430362
O O3 0.405095 0.328710 0.455336
O O4 0.015634 0.624430 0.064933
O O5 0.778456 0.387037 0.376743
O O6 0.665264 0.281409 0.274056
O O7 0.040287 0.216251 0.365431
O O8 0.500000 0.500000 0.000000
O O9 0.358429 0.167107 0.379395
O O10 0.387913 0.178065 0.621662
O O11 0.568284 0.940441 0.749654
O O12 0.462559 0.221095 0.192173
O O13 0.689844 0.311551 0.860427
O O14 0.680048 0.195832 0.087692
O O15 0.685885 0.146725 0.872701
O O16 0.145634 0.990381 0.224213
O O17 0.000000 0.000000 0.500000
#
# Coordination Sequence:
#
# PCOD8020923 Si02
#       8
#     2   2   2   2   2   2   2   2
#     4  10  23  40  67 100 126 166 215 266 311 373
#     4  12  25  42  67  95 127 173 211 258 321 380
#     4  11  25  44  64  93 130 171 210 259 326 380
#     4  11  25  44  66  92 132 168 209 269 317 375
#     4  10  22  43  65  94 135 168 209 260 320 381
#     4  10  22  44  65  92 134 171 206 260 324 379
#     4  10  23  40  69  97 124 170 215 259 318 381
#     4  12  25  43  65  96 128 168 216 262 315 377
#
# _framework density 21.364943
#
# number of rings (size 3 to 8) (size 9 to 14) (size 15 to 20)
#    0.000    1.250    2.500    2.250    7.000    2.500 
#    0.000    3.750    0.000    0.000    0.000    0.000 
#    0.000    0.000    0.000    0.000    0.000    0.000 
#
# Total GULP energy -198293.526039 kJ/mol
# GULP energy per Si atom -12393.345377 kJ/mol
# Density = 2.131632 g / cm^3
# Si number density = 21.364943 Si / 1000 Ang^3
#
#
#
# Elastic Constant Matrix: (Units=GPa)
#
#
# Indices 1 2 3 4 5 6 
#
# 1 92.9346 32.7582 15.3125 1.9282 -2.8416 20.6780
# 2 32.7582 108.1444 21.2047 -12.7502 -7.2210 18.9891
# 3 15.3125 21.2047 104.7684 -16.0010 -2.6259 14.6818
# 4 1.9282 -12.7502 -16.0010 31.1318 3.4747 -6.5943
# 5 -2.8416 -7.2210 -2.6259 3.4747 28.4693 1.5817
# 6 20.6780 18.9891 14.6818 -6.5943 1.5817 42.2645
#
#
#
# Elastic Compliance Matrix: (Units=1/GPa)
#
#
# Indices 1 2 3 4 5 6 
#
# 1 0.013423 -0.003298 -0.001128 -0.004032 0.001189 -0.005367
# 2 -0.003298 0.011473 -0.000842 0.003638 0.002213 -0.002764
# 3 -0.001128 -0.000842 0.010925 0.004870 0.000205 -0.002113
# 4 -0.004032 0.003638 0.004870 0.037793 -0.003904 0.004689
# 5 0.001189 0.002213 0.000205 -0.003904 0.036502 -0.003622
# 6 -0.005367 -0.002764 -0.002113 0.004689 -0.003622 0.029129
#
#
# Mechanical properties :
#
#
# Convention : Reuss Voigt Hill
#
# Bulk Modulus (GPa) = 39.54913 49.37758 44.46336
# Shear Modulus (GPa) = 31.60362 36.14459 33.87410
#
# Velocity S-wave (km/s) = 3.85025 4.11758 3.98615
# Velocity P-wave (km/s) = 6.19009 6.76517 6.48401
#
# Compressibility (1/GPa) = 0.02528500
#
# Stress axis : x y z
#
# Youngs Moduli (GPa) = 74.49960 87.16125 91.53245
#
# Poissons Ratio (x) = 0.28748 0.10326
# Poissons Ratio (y) = 0.24572 0.07703
# Poissons Ratio (z) = 0.08404 0.07336
#
# Static dielectric constant tensor:
#      x y z
#    x 3.338070 0.182390 -0.098600 
#    y 0.182390 3.772340 -0.082460 
#    z -0.098600 -0.082460 3.871950 
# 
# 
# High freq. dielectric constant tensor:
#      x y z
#    x 1.824950 0.016470 -0.009700 
#    y 0.016470 1.855020 -0.001440 
#    z -0.009700 -0.001440 1.844920 
# 
# From -- ./inp_files/398816.got.cif
#   From: 2010.06.25/outbox.cif.g09.slc.cpg/sg2_200_cif.got.tgz:398816.got - 2010.06.27 13:26:56.
