data_PCOD8020646
_publ_section_title
;
Structure prediction by ZEFSAII (Michael W. Deem and Ramdas Pophale) SiO2 
 PCOD8020646
Probable space group: P -1
;
_chemical_formula_sum "Si O2"
_cell_formula_units_Z 16
_cell_length_a 11.965906
_cell_length_b 16.495335
_cell_length_c 8.083408
_cell_angle_alpha 135.033018
_cell_angle_beta 95.806045
_cell_angle_gamma 50.952896
_cell_volume 681.638129
_symmetry_space_group_name_H-M "P -1"
_symmetry_group_IT_number 2
_symmetry_cell_setting 'triclinic'
loop_
_space_group_symop_operation_xyz
x,y,z
-x,-y,-z
loop_
_atom_site_type_symbol
_atom_site_label
_atom_site_fract_x
_atom_site_fract_y
_atom_site_fract_z
Si Si1 0.494895 0.559241 0.762985
Si Si2 0.326434 0.951230 0.671624
Si Si3 0.511233 0.021449 0.722036
Si Si4 0.756671 0.015338 0.659826
Si Si5 0.132468 0.675197 0.356233
Si Si6 0.076598 0.281053 0.339868
Si Si7 0.760087 0.634369 0.601276
Si Si8 0.623162 0.557335 0.240728
O O1 0.500000 0.500000 0.500000
O O2 0.705879 0.389421 0.616387
O O3 0.376166 0.574543 0.889243
O O4 0.398990 0.760564 0.028090
O O5 0.489325 0.917230 0.662880
O O6 0.220575 0.042075 0.610859
O O7 0.424065 0.747684 0.403240
O O8 0.187395 0.081471 0.993737
O O9 0.500000 0.000000 0.500000
O O10 0.695368 0.952533 0.671823
O O11 0.340321 0.239897 0.066450
O O12 0.954680 0.896655 0.591863
O O13 0.053799 0.640404 0.412328
O O14 0.215077 0.552260 0.025430
O O15 0.212061 0.279455 0.396607
O O16 0.955358 0.420942 0.368072
O O17 0.638151 0.633183 0.502940
#
# Coordination Sequence:
#
# PCOD8020646 Si02
#       8
#     2   2   2   2   2   2   2   2
#     4  12  28  51  72 100 142 189 236 292 351 419
#     4  10  23  43  71 101 147 186 224 291 351 428
#     4   9  20  39  70 104 140 189 225 279 361 408
#     4  11  24  45  73 102 143 183 235 296 347 413
#     4  12  27  45  73 108 135 186 240 292 352 417
#     4  10  23  42  68 107 141 177 239 285 354 416
#     4  10  22  42  70  99 148 189 225 296 346 420
#     4  12  26  46  71 102 142 188 236 281 358 418
#
# _framework density 23.472864999999999
#
# number of rings (size 3 to 8) (size 9 to 14) (size 15 to 20)
#    0.000    1.250    1.250    3.375    7.000    3.500 
#    2.250    0.000    0.000    0.000    0.000    0.000 
#    0.000    0.000    0.000    0.000    0.000    0.000 
#
# Total GULP energy -198283.248962 kJ/mol
# GULP energy per Si atom -12392.703060 kJ/mol
# Density = 2.341944 g / cm^3
# Si number density = 23.472865 Si / 1000 Ang^3
#
#
#
# Elastic Constant Matrix: (Units=GPa)
#
#
# Indices 1 2 3 4 5 6 
#
# 1 120.6631 48.6265 51.8680 -10.0021 -8.3675 5.7187
# 2 48.6265 75.8416 34.3474 1.8813 -3.2161 -12.7088
# 3 51.8680 34.3474 113.6682 -10.5196 -13.9810 4.4703
# 4 -10.0021 1.8813 -10.5196 37.1664 3.2467 -3.7542
# 5 -8.3675 -3.2161 -13.9810 3.2467 34.7756 -2.5407
# 6 5.7187 -12.7088 4.4703 -3.7542 -2.5407 48.3676
#
#
#
# Elastic Compliance Matrix: (Units=1/GPa)
#
#
# Indices 1 2 3 4 5 6 
#
# 1 0.013106 -0.007447 -0.003288 0.002615 0.000682 -0.002964
# 2 -0.007447 0.020653 -0.003463 -0.003346 -0.000498 0.006341
# 3 -0.003288 -0.003463 0.012025 0.002266 0.003418 -0.001277
# 4 0.002615 -0.003346 0.002266 0.028617 -0.001386 0.000751
# 5 0.000682 -0.000498 0.003418 -0.001386 0.030448 0.000964
# 6 -0.002964 0.006341 -0.001277 0.000751 0.000964 0.022919
#
#
# Mechanical properties :
#
#
# Convention : Reuss Voigt Hill
#
# Bulk Modulus (GPa) = 57.50941 64.42853 60.96897
# Shear Modulus (GPa) = 30.87204 35.75068 33.31136
#
# Velocity S-wave (km/s) = 3.63053 3.90688 3.77124
# Velocity P-wave (km/s) = 6.49060 6.91804 6.70773
#
# Compressibility (1/GPa) = 0.01738846
#
# Stress axis : x y z
#
# Youngs Moduli (GPa) = 76.29875 48.41986 83.16260
#
# Poissons Ratio (x) = 0.36057 0.27343
# Poissons Ratio (y) = 0.56818 0.28799
# Poissons Ratio (z) = 0.25086 0.16768
#
# Static dielectric constant tensor:
#      x y z
#    x 4.384710 -0.000830 -0.077740 
#    y -0.000830 4.279910 -0.059510 
#    z -0.077740 -0.059510 4.134910 
# 
# 
# High freq. dielectric constant tensor:
#      x y z
#    x 1.922240 0.001930 -0.008340 
#    y 0.001930 1.935050 -0.005850 
#    z -0.008340 -0.005850 1.928920 
# 
# From -- ./inp_files/274861.got.cif
#   From: 2010.06.25/outbox.cif.g09.slc.cpg/sg2_138_cif.got.tgz:274861.got - 2010.06.27 13:26:56.
