data_PCOD8020064
_publ_section_title
;
Structure prediction by ZEFSAII (Michael W. Deem and Ramdas Pophale) SiO2 
 PCOD8020064
Probable space group: P -1
;
_chemical_formula_sum "Si O2"
_cell_formula_units_Z 12
_cell_length_a 26.278147
_cell_length_b 21.225156
_cell_length_c 5.422782
_cell_angle_alpha 49.357687
_cell_angle_beta 49.702356
_cell_angle_gamma 12.798947
_cell_volume 507.207310
_symmetry_space_group_name_H-M "P -1"
_symmetry_group_IT_number 2
_symmetry_cell_setting 'triclinic'
loop_
_space_group_symop_operation_xyz
x,y,z
-x,-y,-z
loop_
_atom_site_type_symbol
_atom_site_label
_atom_site_fract_x
_atom_site_fract_y
_atom_site_fract_z
Si Si1 0.460437 0.161850 0.311320
Si Si2 0.246520 0.726652 0.321323
Si Si3 0.280803 0.171577 0.156285
Si Si4 0.983493 0.659239 0.631158
Si Si5 0.548132 0.369961 0.870337
Si Si6 0.392730 0.826527 0.170631
O O1 0.191309 0.461878 0.358692
O O2 0.560621 0.001284 0.659503
O O3 0.488437 0.226307 0.088661
O O4 0.583374 0.980466 0.143275
O O5 0.284722 0.781560 0.073683
O O6 0.418048 0.466754 0.607424
O O7 0.305166 0.632370 0.094176
O O8 0.000000 0.000000 0.500000
O O9 0.162514 0.220885 0.417244
O O10 0.079446 0.480239 0.994475
O O11 0.819218 0.919597 0.623371
O O12 0.500000 0.500000 0.500000
O O13 0.680691 0.127789 0.978730
#
# Coordination Sequence:
#
# PCOD8020064 Si02
#       6
#     2   2   2   2   2   2
#     4  11  24  42  67  99 136 178 228 269 333 400
#     4  10  22  42  65  90 126 169 213 269 339 408
#     4  10  24  44  65  99 133 185 227 266 333 401
#     4  10  23  43  67  94 140 173 221 282 325 388
#     4   9  21  41  63  87 124 161 212 266 332 397
#     4  10  24  39  60  99 123 165 219 270 330 398
#
# _framework density 23.658965999999999
#
# number of rings (size 3 to 8) (size 9 to 14) (size 15 to 20)
#    0.000    2.000    0.000    1.000    4.667   16.667 
#    0.000    0.000    0.000    0.000    0.000    0.000 
#    0.000    0.000    0.000    0.000    0.000    0.000 
#
# Total GULP energy -148677.143956 kJ/mol
# GULP energy per Si atom -12389.761996 kJ/mol
# Density = 2.360512 g / cm^3
# Si number density = 23.658966 Si / 1000 Ang^3
#
#
#
# Elastic Constant Matrix: (Units=GPa)
#
#
# Indices 1 2 3 4 5 6 
#
# 1 103.1884 45.2744 10.1953 12.3810 9.8725 21.3740
# 2 45.2744 131.3673 12.9998 29.7824 -6.2771 3.3451
# 3 10.1953 12.9998 62.1358 25.1275 7.4927 1.4644
# 4 12.3810 29.7824 25.1275 37.7522 2.5429 -11.4568
# 5 9.8725 -6.2771 7.4927 2.5429 29.8172 -4.9129
# 6 21.3740 3.3451 1.4644 -11.4568 -4.9129 34.7751
#
#
#
# Elastic Compliance Matrix: (Units=1/GPa)
#
#
# Indices 1 2 3 4 5 6 
#
# 1 0.015408 -0.004117 0.002236 -0.006533 -0.008025 -0.012454
# 2 -0.004117 0.011144 0.001559 -0.009058 0.003919 -0.001038
# 3 0.002236 0.001559 0.025127 -0.021453 -0.006641 -0.010589
# 4 -0.006533 -0.009058 -0.021453 0.057434 0.004936 0.025409
# 5 -0.008025 0.003919 -0.006641 0.004936 0.040270 0.012150
# 6 -0.012454 -0.001038 -0.010589 0.025409 0.012150 0.047045
#
#
# Mechanical properties :
#
#
# Convention : Reuss Voigt Hill
#
# Bulk Modulus (GPa) = 19.59437 48.18116 33.88777
# Shear Modulus (GPa) = 23.35557 35.68369 29.51963
#
# Velocity S-wave (km/s) = 3.14534 3.88784 3.53613
# Velocity P-wave (km/s) = 4.63583 6.36889 5.57017
#
# Compressibility (1/GPa) = 0.05103505
#
# Stress axis : x y z
#
# Youngs Moduli (GPa) = 64.90302 89.73516 39.79823
#
# Poissons Ratio (x) = 0.36941 -0.08900
# Poissons Ratio (y) = 0.26718 -0.06204
# Poissons Ratio (z) = -0.14514 -0.13988
#
# Static dielectric constant tensor:
#      x y z
#    x 5.885800 0.334210 0.061960 
#    y 0.334210 4.303410 0.063910 
#    z 0.061960 0.063910 4.297590 
# 
# 
# High freq. dielectric constant tensor:
#      x y z
#    x 1.955090 0.014860 -0.009610 
#    y 0.014860 1.921900 0.012760 
#    z -0.009610 0.012760 1.938450 
# 
# From -- ./inp_files/128818.got.cif
#   From: 2010.06.25/outbox.cif.g09.slc.cpg/sg2_65_cif.got.tgz:128818.got - 2010.06.27 13:26:56.
