data_PCOD8020570
_publ_section_title
;
Structure prediction by ZEFSAII (Michael W. Deem and Ramdas Pophale) SiO2 
 PCOD8020570
Probable space group: P -1
;
_chemical_formula_sum "Si O2"
_cell_formula_units_Z 16
_cell_length_a 13.143334
_cell_length_b 14.030509
_cell_length_c 15.352583
_cell_angle_alpha 31.044230
_cell_angle_beta 51.921171
_cell_angle_gamma 32.272438
_cell_volume 717.500916
_symmetry_space_group_name_H-M "P -1"
_symmetry_group_IT_number 2
_symmetry_cell_setting 'triclinic'
loop_
_space_group_symop_operation_xyz
x,y,z
-x,-y,-z
loop_
_atom_site_type_symbol
_atom_site_label
_atom_site_fract_x
_atom_site_fract_y
_atom_site_fract_z
Si Si1 0.277795 0.435415 0.568239
Si Si2 0.868142 0.359765 0.896114
Si Si3 0.916555 0.629906 0.537378
Si Si4 0.904612 0.403606 0.117550
Si Si5 0.393842 0.315247 0.797875
Si Si6 0.302311 0.833211 0.868206
Si Si7 0.453720 0.173562 0.158912
Si Si8 0.799107 0.077245 0.801568
O O1 0.345110 0.408515 0.650782
O O2 0.215565 0.690332 0.351456
O O3 0.079367 0.524323 0.604242
O O4 0.461960 0.129184 0.657535
O O5 0.851919 0.500619 0.707358
O O6 0.671208 0.658286 0.818426
O O7 0.865774 0.142083 0.044891
O O8 0.071603 0.168650 0.997971
O O9 0.000000 0.500000 0.500000
O O10 0.745257 0.980269 0.336082
O O11 0.825501 0.422626 0.239257
O O12 0.690065 0.627340 0.003174
O O13 0.082382 0.082085 0.229667
O O14 0.000000 0.500000 0.000000
O O15 0.563794 0.271751 0.773300
O O16 0.500000 0.000000 0.000000
O O17 0.349295 0.903071 0.876449
O O18 0.500000 0.500000 0.000000
#
# Coordination Sequence:
#
# PCOD8020570 Si02
#       8
#     2   2   2   2   2   2   2   2
#     4  12  24  44  66 102 140 175 234 292 344 415
#     4  10  24  45  72  97 139 188 226 284 354 407
#     4  12  25  45  67 101 139 179 227 284 349 418
#     4  11  23  43  70 100 135 185 232 285 349 412
#     4  12  23  42  71 100 138 186 231 283 352 412
#     4  10  22  45  69  98 134 178 231 283 335 416
#     4  10  22  42  69  99 135 180 230 286 346 417
#     4  11  24  45  70 103 141 182 238 286 345 419
#
# _framework density 22.299623
#
# number of rings (size 3 to 8) (size 9 to 14) (size 15 to 20)
#    0.000    1.000    5.000    1.125    1.750    3.000 
#    4.500    0.000    0.000    0.000    0.000    0.000 
#    0.000    0.000    0.000    0.000    0.000    0.000 
#
# Total GULP energy -198260.098102 kJ/mol
# GULP energy per Si atom -12391.256131 kJ/mol
# Density = 2.224887 g / cm^3
# Si number density = 22.299623 Si / 1000 Ang^3
#
#
#
# Elastic Constant Matrix: (Units=GPa)
#
#
# Indices 1 2 3 4 5 6 
#
# 1 139.5132 34.0953 41.9787 8.6355 -1.9259 -10.4692
# 2 34.0953 99.0063 38.0869 2.7082 -9.9317 4.7602
# 3 41.9787 38.0869 142.4970 5.9371 -13.1007 3.5727
# 4 8.6355 2.7082 5.9371 34.8496 1.9065 -3.2989
# 5 -1.9259 -9.9317 -13.1007 1.9065 38.8504 -6.2864
# 6 -10.4692 4.7602 3.5727 -3.2989 -6.2864 32.3504
#
#
#
# Elastic Compliance Matrix: (Units=1/GPa)
#
#
# Indices 1 2 3 4 5 6 
#
# 1 0.008654 -0.002367 -0.001966 -0.001310 -0.000260 0.003182
# 2 -0.002367 0.012091 -0.002301 -0.000249 0.001895 -0.001948
# 3 -0.001966 -0.002301 0.008466 -0.000977 0.002066 -0.000931
# 4 -0.001310 -0.000249 -0.000977 0.029519 -0.001513 0.002437
# 5 -0.000260 0.001895 0.002066 -0.001513 0.027734 0.004644
# 6 0.003182 -0.001948 -0.000931 0.002437 0.004644 0.033482
#
#
# Mechanical properties :
#
#
# Convention : Reuss Voigt Hill
#
# Bulk Modulus (GPa) = 62.72269 67.70423 65.21346
# Shear Modulus (GPa) = 36.09384 39.00046 37.54715
#
# Velocity S-wave (km/s) = 4.02753 4.18656 4.10781
# Velocity P-wave (km/s) = 7.05807 7.33463 7.19767
#
# Compressibility (1/GPa) = 0.01594319
#
# Stress axis : x y z
#
# Youngs Moduli (GPa) = 115.55235 82.70394 118.12149
#
# Poissons Ratio (x) = 0.19578 0.23220
# Poissons Ratio (y) = 0.27354 0.27180
# Poissons Ratio (z) = 0.22715 0.19030
#
# Static dielectric constant tensor:
#      x y z
#    x 4.950710 -0.215480 -0.473970 
#    y -0.215480 4.191240 -0.380640 
#    z -0.473970 -0.380640 2.344950 
# 
# 
# High freq. dielectric constant tensor:
#      x y z
#    x 1.899460 -0.001540 0.000290 
#    y -0.001540 1.864410 -0.018960 
#    z 0.000290 -0.018960 1.872700 
# 
# From -- ./inp_files/534121.got.cif
#   From: 2010.06.25/outbox.cif.g09.slc.cpg/sg2_268_cif.got.tgz:534121.got - 2010.06.27 13:26:56.
