data_PCOD8020942
_publ_section_title
;
Structure prediction by ZEFSAII (Michael W. Deem and Ramdas Pophale) SiO2 
 PCOD8020942
Probable space group: P -1
;
_chemical_formula_sum "Si O2"
_cell_formula_units_Z 16
_cell_length_a 7.156756
_cell_length_b 16.091010
_cell_length_c 7.722116
_cell_angle_alpha 100.809353
_cell_angle_beta 118.725195
_cell_angle_gamma 116.578148
_cell_volume 598.531740
_symmetry_space_group_name_H-M "P -1"
_symmetry_group_IT_number 2
_symmetry_cell_setting 'triclinic'
loop_
_space_group_symop_operation_xyz
x,y,z
-x,-y,-z
loop_
_atom_site_type_symbol
_atom_site_label
_atom_site_fract_x
_atom_site_fract_y
_atom_site_fract_z
Si Si1 0.140979 0.340376 0.207024
Si Si2 0.632106 0.170931 0.705577
Si Si3 0.549587 0.644871 0.986624
Si Si4 0.780301 0.004362 0.321182
Si Si5 0.954498 0.228941 0.519844
Si Si6 0.516059 0.811614 0.888537
Si Si7 0.044777 0.506148 0.225448
Si Si8 0.572652 0.736751 0.554103
O O1 0.163914 0.444042 0.311800
O O2 0.230600 0.298282 0.390563
O O3 0.340069 0.369960 0.145491
O O4 0.831355 0.246110 0.980297
O O5 0.456091 0.050001 0.657538
O O6 0.786089 0.181627 0.606403
O O7 0.444810 0.208976 0.602531
O O8 0.736667 0.668479 0.247756
O O9 0.545401 0.745843 0.018174
O O10 0.239808 0.536714 0.830344
O O11 0.918632 0.127040 0.380689
O O12 0.657678 0.932851 0.062905
O O13 0.000000 0.000000 0.500000
O O14 0.806589 0.255890 0.330183
O O15 0.677693 0.820655 0.792335
O O16 0.266538 0.630334 0.427843
O O17 0.000000 0.500000 0.000000
#
# Coordination Sequence:
#
# PCOD8020942 Si02
#       8
#     2   2   2   2   2   2   2   2
#     4  10  22  43  68  96 134 176 224 272 335 390
#     4  10  22  45  65  97 134 173 220 280 329 403
#     4  10  23  45  67  97 140 174 220 282 330 392
#     4  12  23  41  69  97 135 173 219 277 342 397
#     4  10  22  44  69  95 132 179 219 277 341 388
#     4  10  22  43  65  98 133 168 227 273 326 405
#     4  12  24  43  68 101 136 177 229 272 329 408
#     4  10  23  45  67  95 138 175 221 277 331 392
#
# _framework density 26.732084
#
# number of rings (size 3 to 8) (size 9 to 14) (size 15 to 20)
#    0.000    1.500    2.500    1.875    0.000    2.500 
#   13.500    1.250    0.000    0.000    0.000    0.000 
#    0.000    0.000    0.000    0.000    0.000    0.000 
#
# Total GULP energy -198372.040518 kJ/mol
# GULP energy per Si atom -12398.252532 kJ/mol
# Density = 2.667124 g / cm^3
# Si number density = 26.732084 Si / 1000 Ang^3
#
#
#
# Elastic Constant Matrix: (Units=GPa)
#
#
# Indices 1 2 3 4 5 6 
#
# 1 80.3345 -4.1738 16.5361 1.8405 15.7781 -9.6675
# 2 -4.1738 61.4986 2.9577 -6.6049 0.4721 -10.7378
# 3 16.5361 2.9577 114.2707 -19.6713 3.1151 -12.5671
# 4 1.8405 -6.6049 -19.6713 44.3442 -13.2346 8.4525
# 5 15.7781 0.4721 3.1151 -13.2346 30.0827 2.3940
# 6 -9.6675 -10.7378 -12.5671 8.4525 2.3940 31.7298
#
#
#
# Elastic Compliance Matrix: (Units=1/GPa)
#
#
# Indices 1 2 3 4 5 6 
#
# 1 0.016361 0.001901 -0.002391 -0.006340 -0.011730 0.007256
# 2 0.001901 0.017625 0.000186 0.000988 -0.001372 0.006458
# 3 -0.002391 0.000186 0.010080 0.004908 0.002219 0.001852
# 4 -0.006340 0.000988 0.004908 0.032267 0.017760 -0.009589
# 5 -0.011730 -0.001372 0.002219 0.017760 0.047915 -0.011506
# 6 0.007256 0.006458 0.001852 -0.009589 -0.011506 0.040068
#
#
# Mechanical properties :
#
#
# Convention : Reuss Voigt Hill
#
# Bulk Modulus (GPa) = 23.00928 31.86043 27.43486
# Shear Modulus (GPa) = 27.86931 37.28359 32.57645
#
# Velocity S-wave (km/s) = 3.23234 3.73864 3.49467
# Velocity P-wave (km/s) = 4.74940 5.53000 5.15449
#
# Compressibility (1/GPa) = 0.04346072
#
# Stress axis : x y z
#
# Youngs Moduli (GPa) = 61.12067 56.73808 99.20281
#
# Poissons Ratio (x) = -0.10788 0.23715
# Poissons Ratio (y) = -0.11621 -0.01850
# Poissons Ratio (z) = 0.14611 -0.01058
#
# Static dielectric constant tensor:
#      x y z
#    x 5.599520 0.450800 -0.499820 
#    y 0.450800 5.457070 -0.735650 
#    z -0.499820 -0.735650 6.151410 
# 
# 
# High freq. dielectric constant tensor:
#      x y z
#    x 2.091120 0.000270 0.005640 
#    y 0.000270 2.057100 -0.012700 
#    z 0.005640 -0.012700 2.085100 
# 
# From -- ./inp_files/217745.got.cif
#   From: 2010.06.25/outbox.cif.g09.slc.cpg/sg2_109_cif.got.tgz:217745.got - 2010.06.27 13:26:56.
