data_PCOD8020404
_publ_section_title
;
Structure prediction by ZEFSAII (Michael W. Deem and Ramdas Pophale) SiO2 
 PCOD8020404
Probable space group: P -1
;
_chemical_formula_sum "Si O2"
_cell_formula_units_Z 16
_cell_length_a 13.731240
_cell_length_b 14.145977
_cell_length_c 11.415651
_cell_angle_alpha 43.823510
_cell_angle_beta 117.444248
_cell_angle_gamma 149.303819
_cell_volume 699.473065
_symmetry_space_group_name_H-M "P -1"
_symmetry_group_IT_number 2
_symmetry_cell_setting 'triclinic'
loop_
_space_group_symop_operation_xyz
x,y,z
-x,-y,-z
loop_
_atom_site_type_symbol
_atom_site_label
_atom_site_fract_x
_atom_site_fract_y
_atom_site_fract_z
Si Si1 0.752610 0.269319 0.907973
Si Si2 0.003044 0.601836 0.520957
Si Si3 0.412021 0.201967 0.269860
Si Si4 0.730567 0.974261 0.281162
Si Si5 0.330642 0.539192 0.599221
Si Si6 0.861533 0.679443 0.678921
Si Si7 0.281241 0.352417 0.139499
Si Si8 0.182708 0.164259 0.698254
O O1 0.875813 0.394432 0.741018
O O2 0.803853 0.460069 0.836129
O O3 0.834006 0.222975 0.065093
O O4 0.500000 0.000000 0.000000
O O5 0.888938 0.618732 0.405105
O O6 0.000000 0.500000 0.500000
O O7 0.243711 0.899583 0.427589
O O8 0.603420 0.361532 0.319639
O O9 0.301900 0.211849 0.264232
O O10 0.519304 0.356987 0.068100
O O11 0.890754 0.057422 0.377487
O O12 0.519440 0.795512 0.391651
O O13 0.667890 0.800339 0.297576
O O14 0.283551 0.329225 0.728033
O O15 0.718421 0.603385 0.764259
O O16 0.836565 0.728416 0.498247
O O17 0.055608 0.151952 0.132093
#
# Coordination Sequence:
#
# PCOD8020404 Si02
#       8
#     2   2   2   2   2   2   2   2
#     4  12  24  44  64 100 141 181 238 295 344 416
#     4  12  28  49  70  99 148 190 236 291 355 426
#     4  11  25  45  68 101 145 192 231 286 363 423
#     4  11  23  38  71 105 135 183 237 289 361 411
#     4  12  23  44  72  98 141 186 235 289 352 429
#     4  11  22  41  74 101 145 177 236 303 353 415
#     4  10  22  42  68 105 142 182 234 298 351 418
#     4  11  21  42  69 108 137 178 236 300 356 411
#
# _framework density 22.874362999999999
#
# number of rings (size 3 to 8) (size 9 to 14) (size 15 to 20)
#    0.000    0.750    3.750    4.500    1.750    4.000 
#    2.250    0.000    0.000    0.000    0.000    0.000 
#    0.000    0.000    0.000    0.000    0.000    0.000 
#
# Total GULP energy -198401.815110 kJ/mol
# GULP energy per Si atom -12400.113444 kJ/mol
# Density = 2.282230 g / cm^3
# Si number density = 22.874363 Si / 1000 Ang^3
#
#
#
# Elastic Constant Matrix: (Units=GPa)
#
#
# Indices 1 2 3 4 5 6 
#
# 1 102.8786 20.8196 33.0894 -3.1963 -2.7788 -26.9686
# 2 20.8196 83.0041 15.9295 -10.6069 -6.8494 -21.7347
# 3 33.0894 15.9295 92.5745 -13.6732 -3.7436 -10.5979
# 4 -3.1963 -10.6069 -13.6732 23.2379 1.4806 9.9436
# 5 -2.7788 -6.8494 -3.7436 1.4806 39.8361 -3.2906
# 6 -26.9686 -21.7347 -10.5979 9.9436 -3.2906 39.1822
#
#
#
# Elastic Compliance Matrix: (Units=1/GPa)
#
#
# Indices 1 2 3 4 5 6 
#
# 1 0.013541 -0.000695 -0.004360 -0.005019 0.001357 0.009143
# 2 -0.000695 0.014851 -0.000955 0.002944 0.002884 0.006997
# 3 -0.004360 -0.000955 0.013461 0.007630 0.000365 -0.001795
# 4 -0.005019 0.002944 0.007630 0.054183 -0.002272 -0.013699
# 5 0.001357 0.002884 0.000365 -0.002272 0.026259 0.005414
# 6 0.009143 0.006997 -0.001795 -0.013699 0.005414 0.039141
#
#
# Mechanical properties :
#
#
# Convention : Reuss Voigt Hill
#
# Bulk Modulus (GPa) = 33.51931 46.45935 39.98933
# Shear Modulus (GPa) = 27.26277 34.35915 30.81096
#
# Velocity S-wave (km/s) = 3.45606 3.87987 3.67408
# Velocity P-wave (km/s) = 5.53275 6.35814 5.95975
#
# Compressibility (1/GPa) = 0.02983355
#
# Stress axis : x y z
#
# Youngs Moduli (GPa) = 73.85226 67.33373 74.28871
#
# Poissons Ratio (x) = 0.04679 0.32390
# Poissons Ratio (y) = 0.05132 0.07092
# Poissons Ratio (z) = 0.32200 0.06428
#
# Static dielectric constant tensor:
#      x y z
#    x 4.615140 -0.606630 0.311890 
#    y -0.606630 4.976920 -0.588800 
#    z 0.311890 -0.588800 4.252550 
# 
# 
# High freq. dielectric constant tensor:
#      x y z
#    x 1.909440 -0.003990 -0.004750 
#    y -0.003990 1.906500 -0.013370 
#    z -0.004750 -0.013370 1.891440 
# 
# From -- ./inp_files/455497.got.cif
#   From: 2010.06.25/outbox.cif.g09.slc.cpg/sg2_228_cif.got.tgz:455497.got - 2010.06.27 13:26:56.
