data_PCOD8020779
_publ_section_title
;
Structure prediction by ZEFSAII (Michael W. Deem and Ramdas Pophale) SiO2 
 PCOD8020779
Probable space group: P -1
;
_chemical_formula_sum "Si O2"
_cell_formula_units_Z 16
_cell_length_a 17.530034
_cell_length_b 6.979550
_cell_length_c 7.625713
_cell_angle_alpha 71.248746
_cell_angle_beta 96.635156
_cell_angle_gamma 114.097432
_cell_volume 806.369844
_symmetry_space_group_name_H-M "P -1"
_symmetry_group_IT_number 2
_symmetry_cell_setting 'triclinic'
loop_
_space_group_symop_operation_xyz
x,y,z
-x,-y,-z
loop_
_atom_site_type_symbol
_atom_site_label
_atom_site_fract_x
_atom_site_fract_y
_atom_site_fract_z
Si Si1 0.885638 0.444881 0.834384
Si Si2 0.142047 0.500017 0.580238
Si Si3 0.251329 0.985354 0.447493
Si Si4 0.457493 0.630557 0.562199
Si Si5 0.276741 0.298318 0.675553
Si Si6 0.265515 0.972929 0.073426
Si Si7 0.408080 0.000850 0.318395
Si Si8 0.976412 0.743082 0.072178
O O1 0.893175 0.547533 0.612592
O O2 0.789904 0.285242 0.899283
O O3 0.939931 0.298877 0.914744
O O4 0.914230 0.642388 0.922536
O O5 0.177162 0.760170 0.558184
O O6 0.218168 0.427298 0.649764
O O7 0.066229 0.365649 0.725532
O O8 0.232094 0.041293 0.226385
O O9 0.340016 0.955919 0.472126
O O10 0.257974 0.185894 0.513309
O O11 0.500000 0.500000 0.500000
O O12 0.372325 0.462135 0.672984
O O13 0.441288 0.806051 0.379769
O O14 0.516729 0.762812 0.699209
O O15 0.255604 0.112168 0.870303
O O16 0.362284 0.002846 0.120028
O O17 0.000000 0.000000 0.000000
#
# Coordination Sequence:
#
# PCOD8020779 Si02
#       8
#     2   2   2   2   2   2   2   2
#     4  10  22  43  62  84 126 155 190 240 299 347
#     4  11  23  39  62  89 118 159 196 237 293 353
#     4   9  20  40  57  83 117 156 191 241 288 343
#     4  11  19  35  62  84 117 159 195 241 296 346
#     4  12  21  35  63  89 114 158 204 236 294 344
#     4   9  20  40  60  85 117 153 197 243 285 350
#     4   9  20  39  56  81 121 152 190 243 293 335
#     4  11  24  40  62  93 118 153 194 245 290 350
#
# _framework density 19.842010999999999
#
# number of rings (size 3 to 8) (size 9 to 14) (size 15 to 20)
#    0.750    1.000    2.500    1.875    0.000    5.000 
#    0.000    3.125    0.000    0.000    0.000    0.000 
#    0.000    0.000    0.000    0.000    0.000    0.000 
#
# Total GULP energy -198362.008815 kJ/mol
# GULP energy per Si atom -12397.625551 kJ/mol
# Density = 1.979685 g / cm^3
# Si number density = 19.842011 Si / 1000 Ang^3
#
#
#
# Elastic Constant Matrix: (Units=GPa)
#
#
# Indices 1 2 3 4 5 6 
#
# 1 47.1677 23.5148 3.8538 8.7860 8.8660 8.4249
# 2 23.5148 115.6409 34.9290 5.2353 -2.0850 20.3344
# 3 3.8538 34.9290 82.0809 5.8926 1.9146 18.2266
# 4 8.7860 5.2353 5.8926 21.3283 7.8701 3.2495
# 5 8.8660 -2.0850 1.9146 7.8701 25.3237 1.7794
# 6 8.4249 20.3344 18.2266 3.2495 1.7794 37.5120
#
#
#
# Elastic Compliance Matrix: (Units=1/GPa)
#
#
# Indices 1 2 3 4 5 6 
#
# 1 0.027110 -0.005494 0.002501 -0.007171 -0.007669 -0.003340
# 2 -0.005494 0.011630 -0.004030 -0.000273 0.003499 -0.003254
# 3 0.002501 -0.004030 0.015237 -0.003037 -0.001031 -0.005468
# 4 -0.007171 -0.000273 -0.003037 0.056322 -0.014719 -0.000946
# 5 -0.007669 0.003499 -0.001031 -0.014719 0.047159 -0.000635
# 6 -0.003340 -0.003254 -0.005468 -0.000946 -0.000635 0.031942
#
#
# Mechanical properties :
#
#
# Convention : Reuss Voigt Hill
#
# Bulk Modulus (GPa) = 25.04455 41.05384 33.04919
# Shear Modulus (GPa) = 23.06737 29.00559 26.03648
#
# Velocity S-wave (km/s) = 3.41332 3.82753 3.62635
# Velocity P-wave (km/s) = 5.30883 6.34576 5.85031
#
# Compressibility (1/GPa) = 0.03992884
#
# Stress axis : x y z
#
# Youngs Moduli (GPa) = 36.88717 85.98660 65.62908
#
# Poissons Ratio (x) = 0.47242 -0.16411
# Poissons Ratio (y) = 0.20266 0.26451
# Poissons Ratio (z) = -0.09224 0.34656
#
# Static dielectric constant tensor:
#      x y z
#    x 3.675790 0.222970 0.063370 
#    y 0.222970 3.623770 0.018340 
#    z 0.063370 0.018340 3.425370 
# 
# 
# High freq. dielectric constant tensor:
#      x y z
#    x 1.776130 0.017270 0.008690 
#    y 0.017270 1.779240 -0.002880 
#    z 0.008690 -0.002880 1.757380 
# 
# From -- ./inp_files/323447.got.cif
#   From: 2010.06.25/outbox.cif.g09.slc.cpg/sg2_162_cif.got.tgz:323447.got - 2010.06.27 13:26:56.
