data_PCOD8020863
_publ_section_title
;
Structure prediction by ZEFSAII (Michael W. Deem and Ramdas Pophale) SiO2 
 PCOD8020863
Probable space group: P -1
;
_chemical_formula_sum "Si O2"
_cell_formula_units_Z 16
_cell_length_a 19.538665
_cell_length_b 10.879695
_cell_length_c 9.396917
_cell_angle_alpha 52.666292
_cell_angle_beta 139.581992
_cell_angle_gamma 144.819180
_cell_volume 745.530605
_symmetry_space_group_name_H-M "P -1"
_symmetry_group_IT_number 2
_symmetry_cell_setting 'triclinic'
loop_
_space_group_symop_operation_xyz
x,y,z
-x,-y,-z
loop_
_atom_site_type_symbol
_atom_site_label
_atom_site_fract_x
_atom_site_fract_y
_atom_site_fract_z
Si Si1 0.536313 0.165093 0.548158
Si Si2 0.398598 0.784582 0.072999
Si Si3 0.160597 0.640066 0.597385
Si Si4 0.798723 0.634378 0.278326
Si Si5 0.439448 0.504891 0.216508
Si Si6 0.271479 0.368783 0.519347
Si Si7 0.735105 0.959516 0.685973
Si Si8 0.006243 0.957986 0.875738
O O1 0.590198 0.151293 0.792308
O O2 0.665879 0.397315 0.529490
O O3 0.500000 0.000000 0.500000
O O4 0.383983 0.100242 0.352338
O O5 0.457000 0.667193 0.237845
O O6 0.237753 0.643662 0.855227
O O7 0.500000 0.000000 0.000000
O O8 0.177075 0.529355 0.573038
O O9 0.230826 0.877612 0.496565
O O10 0.000000 0.500000 0.500000
O O11 0.798090 0.719733 0.371335
O O12 0.648158 0.527490 0.038438
O O13 0.937043 0.841701 0.267681
O O14 0.598591 0.615305 0.332794
O O15 0.344262 0.284152 0.314830
O O16 0.150433 0.245975 0.290330
O O17 0.882184 0.074340 0.928043
O O18 0.000000 0.000000 0.000000
#
# Coordination Sequence:
#
# PCOD8020863 Si02
#       8
#     2   2   2   2   2   2   2   2
#     4  11  25  44  67  98 135 174 223 277 337 392
#     4  11  24  44  68  99 131 175 226 278 333 399
#     4  11  23  41  67  96 135 179 222 271 335 392
#     4  10  22  45  65  98 140 171 222 279 331 397
#     4   9  23  41  74  97 130 171 230 276 337 390
#     4  11  24  41  73  98 132 181 221 272 341 398
#     4  10  22  43  64  96 138 169 217 281 324 388
#     4  11  25  41  67  99 138 174 225 271 329 399
#
# _framework density 21.461226
#
# number of rings (size 3 to 8) (size 9 to 14) (size 15 to 20)
#    0.000    1.500    1.250    2.250   10.500    2.000 
#    2.250    1.250    0.000    0.000    0.000    0.000 
#    0.000    0.000    0.000    0.000    0.000    0.000 
#
# Total GULP energy -198239.107061 kJ/mol
# GULP energy per Si atom -12389.944191 kJ/mol
# Density = 2.141238 g / cm^3
# Si number density = 21.461226 Si / 1000 Ang^3
#
#
#
# Elastic Constant Matrix: (Units=GPa)
#
#
# Indices 1 2 3 4 5 6 
#
# 1 115.3362 66.0649 65.4895 10.9445 -9.5117 -3.4367
# 2 66.0649 137.3911 43.6062 -6.5001 6.9986 -7.3089
# 3 65.4895 43.6062 113.1456 12.2101 7.3226 -6.7879
# 4 10.9445 -6.5001 12.2101 46.2289 4.0681 2.7049
# 5 -9.5117 6.9986 7.3226 4.0681 41.4748 4.5619
# 6 -3.4367 -7.3089 -6.7879 2.7049 4.5619 36.4868
#
#
#
# Elastic Compliance Matrix: (Units=1/GPa)
#
#
# Indices 1 2 3 4 5 6 
#
# 1 0.017933 -0.006726 -0.007970 -0.003616 0.007205 -0.001774
# 2 -0.006726 0.011097 -0.000406 0.003499 -0.003878 0.001739
# 3 -0.007970 -0.000406 0.014222 -0.001687 -0.004378 0.002486
# 4 -0.003616 0.003499 -0.001687 0.023793 -0.003313 -0.001303
# 5 0.007205 -0.003878 -0.004378 -0.003313 0.027974 -0.004165
# 6 -0.001774 0.001739 0.002486 -0.001303 -0.004165 0.028668
#
#
# Mechanical properties :
#
#
# Convention : Reuss Voigt Hill
#
# Bulk Modulus (GPa) = 76.63795 79.57711 78.10753
# Shear Modulus (GPa) = 31.59741 37.55227 34.57484
#
# Velocity S-wave (km/s) = 3.84122 4.18757 4.01813
# Velocity P-wave (km/s) = 7.44720 7.78080 7.61583
#
# Compressibility (1/GPa) = 0.01304837
#
# Stress axis : x y z
#
# Youngs Moduli (GPa) = 55.76361 90.11266 70.31228
#
# Poissons Ratio (x) = 0.60609 0.56038
# Poissons Ratio (y) = 0.37506 0.02856
# Poissons Ratio (z) = 0.44443 0.03660
#
# Static dielectric constant tensor:
#      x y z
#    x 3.694120 0.087390 0.073150 
#    y 0.087390 4.167830 -0.173970 
#    z 0.073150 -0.173970 5.461810 
# 
# 
# High freq. dielectric constant tensor:
#      x y z
#    x 1.836610 0.005830 0.011020 
#    y 0.005830 1.855940 0.002230 
#    z 0.011020 0.002230 1.847110 
# 
# From -- ./inp_files/345983.got.cif
#   From: 2010.06.25/outbox.cif.g09.slc.cpg/sg2_173_cif.got.tgz:345983.got - 2010.06.27 13:26:56.
