data_PCOD8020900
_publ_section_title
;
Structure prediction by ZEFSAII (Michael W. Deem and Ramdas Pophale) SiO2 
 PCOD8020900
Probable space group: P -1
;
_chemical_formula_sum "Si O2"
_cell_formula_units_Z 12
_cell_length_a 16.118324
_cell_length_b 5.299074
_cell_length_c 15.540633
_cell_angle_alpha 117.957849
_cell_angle_beta 26.098343
_cell_angle_gamma 125.660527
_cell_volume 468.836169
_symmetry_space_group_name_H-M "P -1"
_symmetry_group_IT_number 2
_symmetry_cell_setting 'triclinic'
loop_
_space_group_symop_operation_xyz
x,y,z
-x,-y,-z
loop_
_atom_site_type_symbol
_atom_site_label
_atom_site_fract_x
_atom_site_fract_y
_atom_site_fract_z
Si Si1 0.262625 0.428484 0.209065
Si Si2 0.031360 0.865001 0.055908
Si Si3 0.257994 0.864155 0.689491
Si Si4 0.278164 0.463552 0.012642
Si Si5 0.242780 0.093817 0.341888
Si Si6 0.970058 0.703140 0.284071
O O1 0.185309 0.274979 0.160944
O O2 0.152128 0.197805 0.356240
O O3 0.226539 0.743805 0.296321
O O4 0.500000 0.500000 0.000000
O O5 0.978571 0.755440 0.183662
O O6 0.212958 0.224217 0.955631
O O7 0.139468 0.692944 0.864011
O O8 0.826433 0.865434 0.200412
O O9 0.199988 0.662823 0.622429
O O10 0.500000 0.000000 0.500000
O O11 0.184303 0.722382 0.128580
O O12 0.523207 0.653427 0.822827
O O13 0.114155 0.094207 0.546548
#
# Coordination Sequence:
#
# PCOD8020900 Si02
#       6
#     2   2   2   2   2   2
#     4  10  23  43  68  97 134 181 226 268 326 390
#     4  10  23  40  64  95 131 164 221 271 331 395
#     4  10  22  43  65  91 129 170 215 272 335 399
#     4  10  23  41  64  93 133 174 218 275 326 386
#     4  11  25  42  68  98 136 179 225 269 327 393
#     4  11  25  39  65 100 127 172 221 274 333 396
#
# _framework density 25.595296000000001
#
# number of rings (size 3 to 8) (size 9 to 14) (size 15 to 20)
#    0.000    1.667    0.000    3.500   11.667    3.333 
#    0.000    0.000    0.000    0.000    0.000    0.000 
#    0.000    0.000    0.000    0.000    0.000    0.000 
#
# Total GULP energy -148721.452733 kJ/mol
# GULP energy per Si atom -12393.454394 kJ/mol
# Density = 2.553704 g / cm^3
# Si number density = 25.595296 Si / 1000 Ang^3
#
#
#
# Elastic Constant Matrix: (Units=GPa)
#
#
# Indices 1 2 3 4 5 6 
#
# 1 176.7945 43.4085 84.6950 8.3444 13.0271 -1.4618
# 2 43.4085 66.4781 38.2028 19.3786 11.1343 8.4406
# 3 84.6950 38.2028 150.0462 16.0354 16.6367 0.2554
# 4 8.3444 19.3786 16.0354 52.0888 -0.6750 10.9875
# 5 13.0271 11.1343 16.6367 -0.6750 46.4481 -1.9868
# 6 -1.4618 8.4406 0.2554 10.9875 -1.9868 56.9586
#
#
#
# Elastic Compliance Matrix: (Units=1/GPa)
#
#
# Indices 1 2 3 4 5 6 
#
# 1 0.008375 -0.003593 -0.003925 0.001086 -0.000042 0.000554
# 2 -0.003593 0.021431 -0.002372 -0.006254 -0.003464 -0.002172
# 3 -0.003925 -0.002372 0.009867 -0.001647 -0.001869 0.000459
# 4 0.001086 -0.006254 -0.001647 0.022585 0.001970 -0.003326
# 5 -0.000042 -0.003464 -0.001869 0.001970 0.023110 0.000947
# 6 0.000554 -0.002172 0.000459 -0.003326 0.000947 0.018565
#
#
# Mechanical properties :
#
#
# Convention : Reuss Voigt Hill
#
# Bulk Modulus (GPa) = 50.27112 80.65904 65.46508
# Shear Modulus (GPa) = 38.36004 46.23324 42.29664
#
# Velocity S-wave (km/s) = 3.87552 4.25469 4.06953
# Velocity P-wave (km/s) = 6.30156 7.46446 6.90753
#
# Compressibility (1/GPa) = 0.01989214
#
# Stress axis : x y z
#
# Youngs Moduli (GPa) = 119.39970 46.66166 101.35272
#
# Poissons Ratio (x) = 0.16766 0.39781
# Poissons Ratio (y) = 0.42901 0.24043
# Poissons Ratio (z) = 0.46864 0.11069
#
# Static dielectric constant tensor:
#      x y z
#    x 6.018380 0.716510 0.403030 
#    y 0.716510 5.786680 0.231760 
#    z 0.403030 0.231760 4.953320 
# 
# 
# High freq. dielectric constant tensor:
#      x y z
#    x 2.051810 0.014850 0.007830 
#    y 0.014850 2.049780 0.000930 
#    z 0.007830 0.000930 2.023680 
# 
# From -- ./inp_files/26660.got.cif
#   From: 2010.06.25/outbox.cif.g09.slc.cpg/sg2_14_cif.got.tgz:26660.got - 2010.06.27 13:26:56.
