data_PCOD8020953
_publ_section_title
;
Structure prediction by ZEFSAII (Michael W. Deem and Ramdas Pophale) SiO2 
 PCOD8020953
Probable space group: P -1
;
_chemical_formula_sum "Si O2"
_cell_formula_units_Z 14
_cell_length_a 16.054883
_cell_length_b 12.544562
_cell_length_c 9.614746
_cell_angle_alpha 45.515830
_cell_angle_beta 124.794473
_cell_angle_gamma 152.939396
_cell_volume 619.948878
_symmetry_space_group_name_H-M "P -1"
_symmetry_group_IT_number 2
_symmetry_cell_setting 'triclinic'
loop_
_space_group_symop_operation_xyz
x,y,z
-x,-y,-z
loop_
_atom_site_type_symbol
_atom_site_label
_atom_site_fract_x
_atom_site_fract_y
_atom_site_fract_z
Si Si1 0.638010 0.473961 0.914129
Si Si2 0.797987 0.745155 0.101638
Si Si3 0.755570 0.474839 0.552287
Si Si4 0.589268 0.093844 0.151966
Si Si5 0.220130 0.015616 0.920436
Si Si6 0.705317 0.689252 0.510265
Si Si7 0.971742 0.440270 0.187934
O O1 0.422956 0.199954 0.916757
O O2 0.762700 0.725649 0.692379
O O3 0.657875 0.565122 0.003115
O O4 0.700649 0.379464 0.045897
O O5 0.773379 0.568002 0.332855
O O6 0.759448 0.844131 0.062711
O O7 0.000000 0.000000 0.000000
O O8 0.715461 0.545549 0.569536
O O9 0.942406 0.610169 0.633710
O O10 0.575618 0.145825 0.678749
O O11 0.749535 0.164458 0.253140
O O12 0.500000 0.000000 0.000000
O O13 0.164510 0.032289 0.705608
O O14 0.077766 0.712331 0.109962
O O15 0.500000 0.500000 0.500000
O O16 0.000000 0.500000 0.000000
#
# Coordination Sequence:
#
# PCOD8020953 Si02
#       7
#     2   2   2   2   2   2   2
#     4  11  20  42  69  95 134 183 222 279 331 399
#     4  11  26  46  64  94 139 181 229 273 332 405
#     4  11  24  46  67 102 137 176 225 276 338 399
#     4  12  22  42  71 101 138 171 223 283 339 392
#     4  10  22  43  66 101 135 171 229 279 334 395
#     4   9  20  38  72  99 130 176 224 276 336 392
#     4  12  23  40  72 103 134 175 221 284 335 398
#
# _framework density 22.582505999999999
#
# number of rings (size 3 to 8) (size 9 to 14) (size 15 to 20)
#    0.000    1.143    4.286    1.286    2.000    1.714 
#    7.714    5.000    0.000    0.000    0.000    0.000 
#    0.000    0.000    0.000    0.000    0.000    0.000 
#
# Total GULP energy -173524.810048 kJ/mol
# GULP energy per Si atom -12394.629289 kJ/mol
# Density = 2.253111 g / cm^3
# Si number density = 22.582506 Si / 1000 Ang^3
#
#
#
# Elastic Constant Matrix: (Units=GPa)
#
#
# Indices 1 2 3 4 5 6 
#
# 1 107.2127 32.0977 45.2917 13.5659 9.1850 8.1947
# 2 32.0977 80.8984 35.4653 10.1163 -0.4421 9.6551
# 3 45.2917 35.4653 141.5096 13.6109 -11.1228 -7.9804
# 4 13.5659 10.1163 13.6109 29.7283 -1.1976 -7.6260
# 5 9.1850 -0.4421 -11.1228 -1.1976 37.2888 3.0803
# 6 8.1947 9.6551 -7.9804 -7.6260 3.0803 46.5456
#
#
#
# Elastic Compliance Matrix: (Units=1/GPa)
#
#
# Indices 1 2 3 4 5 6 
#
# 1 0.012673 -0.002701 -0.003454 -0.004132 -0.004096 -0.002669
# 2 -0.002701 0.015639 -0.002899 -0.003753 0.000187 -0.003893
# 3 -0.003454 -0.002899 0.009396 -0.000978 0.003387 0.002436
# 4 -0.004132 -0.003753 -0.000978 0.039273 0.001308 0.007686
# 5 -0.004096 0.000187 0.003387 0.001308 0.028917 -0.000436
# 6 -0.002669 -0.003893 0.002436 0.007686 -0.000436 0.024468
#
#
# Mechanical properties :
#
#
# Convention : Reuss Voigt Hill
#
# Bulk Modulus (GPa) = 51.02057 61.70334 56.36195
# Shear Modulus (GPa) = 32.25672 37.16360 34.71016
#
# Velocity S-wave (km/s) = 3.78351 4.06110 3.92476
# Velocity P-wave (km/s) = 6.45977 7.02658 6.74913
#
# Compressibility (1/GPa) = 0.01959994
#
# Stress axis : x y z
#
# Youngs Moduli (GPa) = 78.90862 63.94464 106.42431
#
# Poissons Ratio (x) = 0.17271 0.36761
# Poissons Ratio (y) = 0.21313 0.30849
# Poissons Ratio (z) = 0.27257 0.18536
#
# Static dielectric constant tensor:
#      x y z
#    x 3.642050 -0.243670 0.347400 
#    y -0.243670 4.054970 0.165910 
#    z 0.347400 0.165910 4.762680 
# 
# 
# High freq. dielectric constant tensor:
#      x y z
#    x 1.903420 0.010210 0.010450 
#    y 0.010210 1.876570 -0.007930 
#    z 0.010450 -0.007930 1.888550 
# 
# From -- ./inp_files/187732.got.cif
#   From: 2010.06.25/outbox.cif.g09.slc.cpg/sg2_94_cif.got.tgz:187732.got - 2010.06.27 13:26:56.
