data_PCOD8020006
_publ_section_title
;
Structure prediction by ZEFSAII (Michael W. Deem and Ramdas Pophale) SiO2 
 PCOD8020006
Probable space group: P -1
;
_chemical_formula_sum "Si O2"
_cell_formula_units_Z 16
_cell_length_a 9.054114
_cell_length_b 7.869285
_cell_length_c 16.555771
_cell_angle_alpha 99.164513
_cell_angle_beta 124.592441
_cell_angle_gamma 48.936690
_cell_volume 687.406388
_symmetry_space_group_name_H-M "P -1"
_symmetry_group_IT_number 2
_symmetry_cell_setting 'triclinic'
loop_
_space_group_symop_operation_xyz
x,y,z
-x,-y,-z
loop_
_atom_site_type_symbol
_atom_site_label
_atom_site_fract_x
_atom_site_fract_y
_atom_site_fract_z
Si Si1 0.237624 0.137159 0.755357
Si Si2 0.800126 0.583584 0.378306
Si Si3 0.739789 0.031106 0.774420
Si Si4 0.569202 0.347808 0.902743
Si Si5 0.912181 0.259657 0.812401
Si Si6 0.822281 0.451222 0.082319
Si Si7 0.305022 0.156429 0.021408
Si Si8 0.634496 0.319104 0.269679
O O1 0.143717 0.349980 0.682353
O O2 0.057594 0.267921 0.788075
O O3 0.538673 0.955407 0.854750
O O4 0.212273 0.961975 0.694520
O O5 0.524772 0.832683 0.340091
O O6 0.797593 0.377174 0.352918
O O7 0.000000 0.500000 0.500000
O O8 0.688198 0.153970 0.855150
O O9 0.893387 0.068922 0.772000
O O10 0.897563 0.750361 0.809748
O O11 0.372922 0.358661 0.893415
O O12 0.424131 0.608233 0.837953
O O13 0.761621 0.296459 0.023403
O O14 0.629537 0.519624 0.752423
O O15 0.077749 0.170541 0.940936
O O16 0.827280 0.570084 0.014868
O O17 0.500000 0.000000 0.000000
#
# Coordination Sequence:
#
# PCOD8020006 Si02
#       8
#     2   2   2   2   2   2   2   2
#     4  11  22  43  66  90 130 175 204 254 320 372
#     4  10  25  46  69  94 121 160 223 281 324 372
#     4  10  23  40  62  88 126 165 214 262 314 368
#     4   9  20  34  57  89 130 169 201 246 306 372
#     4   9  22  39  58  95 137 160 208 252 303 386
#     4  11  20  34  59  89 129 169 209 238 303 382
#     4  10  23  34  55  96 133 169 206 242 299 383
#     4  10  22  42  64  94 125 166 209 260 324 374
#
# _framework density 23.275897000000001
#
# number of rings (size 3 to 8) (size 9 to 14) (size 15 to 20)
#    0.000    2.250    1.250    1.125   14.000    3.000 
#    0.000    3.125    0.000   15.750    0.000    0.000 
#    0.000    0.000    0.000    0.000    0.000    0.000 
#
# Total GULP energy -198209.686609 kJ/mol
# GULP energy per Si atom -12388.105413 kJ/mol
# Density = 2.322292 g / cm^3
# Si number density = 23.275897 Si / 1000 Ang^3
#
#
#
# Elastic Constant Matrix: (Units=GPa)
#
#
# Indices 1 2 3 4 5 6 
#
# 1 127.0397 10.7840 41.4182 -2.4907 4.7710 6.3274
# 2 10.7840 60.2369 21.9888 -5.0970 6.9599 12.2021
# 3 41.4182 21.9888 140.4199 -2.2386 16.4897 10.6432
# 4 -2.4907 -5.0970 -2.2386 19.2939 4.7588 -0.8216
# 5 4.7710 6.9599 16.4897 4.7588 29.4543 1.1075
# 6 6.3274 12.2021 10.6432 -0.8216 1.1075 24.3091
#
#
#
# Elastic Compliance Matrix: (Units=1/GPa)
#
#
# Indices 1 2 3 4 5 6 
#
# 1 0.008763 -0.000419 -0.002429 0.000706 -0.000038 -0.000981
# 2 -0.000419 0.020084 -0.001758 0.005730 -0.004288 -0.008813
# 3 -0.002429 -0.001758 0.008788 0.001194 -0.004225 -0.002100
# 4 0.000706 0.005730 0.001194 0.056282 -0.011186 -0.001171
# 5 -0.000038 -0.004288 -0.004225 -0.011186 0.039073 0.001854
# 6 -0.000981 -0.008813 -0.002100 -0.001171 0.001854 0.046611
#
#
# Mechanical properties :
#
#
# Convention : Reuss Voigt Hill
#
# Bulk Modulus (GPa) = 35.18538 52.89760 44.04149
# Shear Modulus (GPa) = 25.21581 31.51181 28.36381
#
# Velocity S-wave (km/s) = 3.29499 3.68345 3.49462
# Velocity P-wave (km/s) = 5.44292 6.39266 5.93681
#
# Compressibility (1/GPa) = 0.02842090
#
# Stress axis : x y z
#
# Youngs Moduli (GPa) = 114.11325 49.79200 113.79626
#
# Poissons Ratio (x) = 0.02087 0.27642
# Poissons Ratio (y) = 0.04784 0.20011
# Poissons Ratio (z) = 0.27719 0.08756
#
# Static dielectric constant tensor:
#      x y z
#    x 56.842820 49.987170 33.027860 
#    y 49.987170 51.399020 31.080640 
#    z 33.027860 31.080640 24.444510 
# 
# 
# High freq. dielectric constant tensor:
#      x y z
#    x 1.944140 0.016160 0.014720 
#    y 0.016160 1.919240 -0.012200 
#    z 0.014720 -0.012200 1.854100 
# 
# From -- ./inp_files/556242.got.cif
#   From: 2010.06.25/outbox.cif.g09.slc.cpg/sg2_279_cif.got.tgz:556242.got - 2010.06.27 13:26:56.
