data_PCOD8020964
_publ_section_title
;
Structure prediction by ZEFSAII (Michael W. Deem and Ramdas Pophale) SiO2 
 PCOD8020964
Probable space group: P -1
;
_chemical_formula_sum "Si O2"
_cell_formula_units_Z 14
_cell_length_a 12.673197
_cell_length_b 12.107553
_cell_length_c 8.637128
_cell_angle_alpha 36.051759
_cell_angle_beta 79.694958
_cell_angle_gamma 63.059256
_cell_volume 649.437123
_symmetry_space_group_name_H-M "P -1"
_symmetry_group_IT_number 2
_symmetry_cell_setting 'triclinic'
loop_
_space_group_symop_operation_xyz
x,y,z
-x,-y,-z
loop_
_atom_site_type_symbol
_atom_site_label
_atom_site_fract_x
_atom_site_fract_y
_atom_site_fract_z
Si Si1 0.258289 0.501472 0.788395
Si Si2 0.372142 0.225712 0.777621
Si Si3 0.355369 0.685453 0.790549
Si Si4 0.649384 0.903614 0.573736
Si Si5 0.263698 0.641978 0.178706
Si Si6 0.225186 0.091190 0.778765
Si Si7 0.049927 0.752173 0.315231
O O1 0.354340 0.332048 0.829406
O O2 0.312440 0.644032 0.684126
O O3 0.121762 0.671625 0.554044
O O4 0.260929 0.343504 0.102034
O O5 0.381835 0.394042 0.464973
O O6 0.267777 0.162209 0.840120
O O7 0.500000 0.000000 0.000000
O O8 0.333003 0.928019 0.517135
O O9 0.500000 0.500000 0.000000
O O10 0.262266 0.687172 0.946314
O O11 0.701172 0.882283 0.412251
O O12 0.500000 0.000000 0.500000
O O13 0.147524 0.616162 0.302294
O O14 0.263610 0.833977 0.062527
O O15 0.073054 0.264387 0.616238
O O16 0.000000 0.000000 0.000000
#
# Coordination Sequence:
#
# PCOD8020964 Si02
#       7
#     2   2   2   2   2   2   2
#     4  11  24  40  63 101 126 167 215 265 316 379
#     4  11  24  38  62  95 128 161 219 265 314 384
#     4  11  23  40  67  91 131 171 200 259 331 378
#     4  11  22  40  65  97 132 164 213 260 320 387
#     4   9  22  42  63  92 123 170 207 265 316 372
#     4  10  22  43  66  87 124 179 204 263 323 363
#     4   9  21  46  66  88 131 167 223 263 305 380
#
# _framework density 21.557130000000001
#
# number of rings (size 3 to 8) (size 9 to 14) (size 15 to 20)
#    0.000    1.714    1.429    1.714    4.000    6.857 
#    0.000    9.286    0.000    0.000    0.000    0.000 
#    0.000    0.000    0.000    0.000    0.000    0.000 
#
# Total GULP energy -173456.509888 kJ/mol
# GULP energy per Si atom -12389.750706 kJ/mol
# Density = 2.150807 g / cm^3
# Si number density = 21.557130 Si / 1000 Ang^3
#
#
#
# Elastic Constant Matrix: (Units=GPa)
#
#
# Indices 1 2 3 4 5 6 
#
# 1 148.2809 64.4171 53.2538 10.4738 11.4272 2.2953
# 2 64.4171 114.8909 18.8255 1.3238 -0.7286 16.2216
# 3 53.2538 18.8255 128.8214 -14.9752 10.2819 1.0183
# 4 10.4738 1.3238 -14.9752 25.7852 2.5180 -5.6843
# 5 11.4272 -0.7286 10.2819 2.5180 34.1259 0.6779
# 6 2.2953 16.2216 1.0183 -5.6843 0.6779 43.2628
#
#
#
# Elastic Compliance Matrix: (Units=1/GPa)
#
#
# Indices 1 2 3 4 5 6 
#
# 1 0.011479 -0.005751 -0.004508 -0.006596 -0.002138 0.000820
# 2 -0.005751 0.012452 0.000527 0.000855 0.002055 -0.004296
# 3 -0.004508 0.000527 0.010713 0.008462 -0.002350 0.000938
# 4 -0.006596 0.000855 0.008462 0.048091 -0.003994 0.006211
# 5 -0.002138 0.002055 -0.002350 -0.003994 0.031098 -0.001614
# 6 0.000820 -0.004296 0.000938 0.006211 -0.001614 0.025501
#
#
# Mechanical properties :
#
#
# Convention : Reuss Voigt Hill
#
# Bulk Modulus (GPa) = 65.87198 73.88734 69.87966
# Shear Modulus (GPa) = 30.51451 37.66791 34.09121
#
# Velocity S-wave (km/s) = 3.76642 4.18467 3.98104
# Velocity P-wave (km/s) = 7.03831 7.59593 7.32243
#
# Compressibility (1/GPa) = 0.01518096
#
# Stress axis : x y z
#
# Youngs Moduli (GPa) = 87.11485 80.31037 93.34587
#
# Poissons Ratio (x) = 0.46186 0.42076
# Poissons Ratio (y) = 0.50099 -0.04920
# Poissons Ratio (z) = 0.39267 -0.04233
#
# Static dielectric constant tensor:
#      x y z
#    x 3.904350 -0.098090 -0.524200 
#    y -0.098090 4.203810 -0.249020 
#    z -0.524200 -0.249020 3.814010 
# 
# 
# High freq. dielectric constant tensor:
#      x y z
#    x 1.833670 0.000690 -0.013280 
#    y 0.000690 1.852900 -0.014060 
#    z -0.013280 -0.014060 1.855270 
# 
# From -- ./inp_files/255873.got.cif
#   From: 2010.06.25/outbox.cif.g09.slc.cpg/sg2_128_cif.got.tgz:255873.got - 2010.06.27 13:26:56.
