data_PCOD8020384
_publ_section_title
;
Structure prediction by ZEFSAII (Michael W. Deem and Ramdas Pophale) SiO2 
 PCOD8020384
Probable space group: P -1
;
_chemical_formula_sum "Si O2"
_cell_formula_units_Z 16
_cell_length_a 17.560868
_cell_length_b 5.043333
_cell_length_c 9.100426
_cell_angle_alpha 86.634145
_cell_angle_beta 60.590832
_cell_angle_gamma 64.201018
_cell_volume 619.669549
_symmetry_space_group_name_H-M "P -1"
_symmetry_group_IT_number 2
_symmetry_cell_setting 'triclinic'
loop_
_space_group_symop_operation_xyz
x,y,z
-x,-y,-z
loop_
_atom_site_type_symbol
_atom_site_label
_atom_site_fract_x
_atom_site_fract_y
_atom_site_fract_z
Si Si1 0.366397 0.149700 0.266226
Si Si2 0.559622 0.598432 0.050010
Si Si3 0.817700 0.908534 0.625188
Si Si4 0.908622 0.241962 0.669926
Si Si5 0.304823 0.804787 0.815801
Si Si6 0.911560 0.914393 0.938316
Si Si7 0.721585 0.663191 0.351119
Si Si8 0.085888 0.302802 0.755433
O O1 0.296241 0.999360 0.298905
O O2 0.326388 0.346298 0.445844
O O3 0.479404 0.902181 0.195189
O O4 0.361490 0.347759 0.122235
O O5 0.612899 0.355435 0.133664
O O6 0.500000 0.500000 0.000000
O O7 0.879304 0.582512 0.652350
O O8 0.873911 0.900334 0.420247
O O9 0.818455 0.170878 0.714982
O O10 0.928691 0.173125 0.829264
O O11 0.000000 0.000000 0.500000
O O12 0.286213 0.576754 0.738896
O O13 0.338287 0.005740 0.676676
O O14 0.201196 0.022530 0.985905
O O15 0.983792 0.595533 0.806127
O O16 0.930381 0.899915 0.096829
O O17 0.835475 0.587134 0.267415
#
# Coordination Sequence:
#
# PCOD8020384 Si02
#       8
#     2   2   2   2   2   2   2   2
#     4  10  26  46  74 102 139 188 231 299 356 424
#     4  11  27  47  73 108 140 183 236 298 365 424
#     4  11  25  45  70  98 141 185 237 286 348 424
#     4  12  25  43  66 104 140 187 235 287 346 412
#     4  11  26  46  70 102 142 184 236 290 351 417
#     4  10  22  42  67  99 139 187 225 288 340 410
#     4  10  25  47  71 104 138 185 234 286 351 422
#     4   9  21  43  67 101 139 183 235 281 346 415
#
# _framework density 25.820211
#
# number of rings (size 3 to 8) (size 9 to 14) (size 15 to 20)
#    0.000    1.500    1.250    1.125    8.750    9.500 
#    2.250    0.000    0.000    0.000    0.000    0.000 
#    0.000    0.000    0.000    0.000    0.000    0.000 
#
# Total GULP energy -198399.765782 kJ/mol
# GULP energy per Si atom -12399.985361 kJ/mol
# Density = 2.576144 g / cm^3
# Si number density = 25.820211 Si / 1000 Ang^3
#
#
#
# Elastic Constant Matrix: (Units=GPa)
#
#
# Indices 1 2 3 4 5 6 
#
# 1 96.2082 35.1706 36.1997 9.0314 19.9939 -9.0352
# 2 35.1706 51.6743 19.4710 1.3552 -14.9037 -15.4552
# 3 36.1997 19.4710 149.1962 -16.8810 -12.0340 -12.3172
# 4 9.0314 1.3552 -16.8810 36.2313 -2.0415 0.4699
# 5 19.9939 -14.9037 -12.0340 -2.0415 27.5071 -1.3875
# 6 -9.0352 -15.4552 -12.3172 0.4699 -1.3875 46.7342
#
#
#
# Elastic Compliance Matrix: (Units=1/GPa)
#
#
# Indices 1 2 3 4 5 6 
#
# 1 0.058584 -0.062596 -0.017201 -0.024950 -0.086693 -0.016231
# 2 -0.062596 0.093622 0.016623 0.025520 0.106710 0.026152
# 3 -0.017201 0.016623 0.012759 0.011120 0.028232 0.006261
# 4 -0.024950 0.025520 0.011120 0.040215 0.040182 0.007335
# 5 -0.086693 0.106710 0.028232 0.040182 0.174070 0.030734
# 6 -0.016231 0.026152 0.006261 0.007335 0.030734 0.029397
#
#
# Mechanical properties :
#
#
# Convention : Reuss Voigt Hill
#
# Bulk Modulus (GPa) = 25.89494 53.19571 39.54532
# Shear Modulus (GPa) = 9.12632 35.84368 22.48500
#
# Velocity S-wave (km/s) = 1.88208 3.72990 2.95418
# Velocity P-wave (km/s) = 3.84366 6.26072 5.19472
#
# Compressibility (1/GPa) = 0.03861758
#
# Stress axis : x y z
#
# Youngs Moduli (GPa) = 17.06964 10.68124 78.37696
#
# Poissons Ratio (x) = 0.66860 1.34814
# Poissons Ratio (y) = 1.06849 -1.30288
# Poissons Ratio (z) = 0.29361 -0.17756
#
# Static dielectric constant tensor:
#      x y z
#    x 4.753370 -0.288320 -0.118400 
#    y -0.288320 4.742940 -0.215150 
#    z -0.118400 -0.215150 5.000060 
# 
# 
# High freq. dielectric constant tensor:
#      x y z
#    x 2.028040 -0.011620 -0.000830 
#    y -0.011620 2.031030 -0.011410 
#    z -0.000830 -0.011410 2.047900 
# 
# From -- ./inp_files/323540.got.cif
#   From: 2010.06.25/outbox.cif.g09.slc.cpg/sg2_162_cif.got.tgz:323540.got - 2010.06.27 13:26:56.
