data_PCOD8020630
_publ_section_title
;
Structure prediction by ZEFSAII (Michael W. Deem and Ramdas Pophale) SiO2 
 PCOD8020630
Probable space group: P -1
;
_chemical_formula_sum "Si O2"
_cell_formula_units_Z 14
_cell_length_a 8.983127
_cell_length_b 12.328545
_cell_length_c 14.765925
_cell_angle_alpha 118.036149
_cell_angle_beta 31.821787
_cell_angle_gamma 131.775928
_cell_volume 623.559159
_symmetry_space_group_name_H-M "P -1"
_symmetry_group_IT_number 2
_symmetry_cell_setting 'triclinic'
loop_
_space_group_symop_operation_xyz
x,y,z
-x,-y,-z
loop_
_atom_site_type_symbol
_atom_site_label
_atom_site_fract_x
_atom_site_fract_y
_atom_site_fract_z
Si Si1 0.376549 0.148238 0.870553
Si Si2 0.418709 0.665517 0.670674
Si Si3 0.574081 0.291419 0.639066
Si Si4 0.261708 0.638911 0.068063
Si Si5 0.665547 0.974645 0.703165
Si Si6 0.305072 0.394168 0.318835
Si Si7 0.089093 0.203020 0.705474
O O1 0.444535 0.255283 0.794352
O O2 0.461819 0.246746 0.955593
O O3 0.606452 0.083652 0.720012
O O4 0.000000 0.000000 0.000000
O O5 0.369353 0.797127 0.778259
O O6 0.623158 0.645599 0.636087
O O7 0.639830 0.706689 0.481156
O O8 0.033844 0.519132 0.795011
O O9 0.636925 0.446773 0.639092
O O10 0.271225 0.173803 0.681129
O O11 0.902990 0.283310 0.454142
O O12 0.064250 0.703508 0.147791
O O13 0.456054 0.609936 0.880364
O O14 0.000000 0.000000 0.500000
O O15 0.761431 0.036527 0.780973
#
# Coordination Sequence:
#
# PCOD8020630 Si02
#       7
#     2   2   2   2   2   2   2
#     4  11  27  47  66  96 137 175 216 277 334 390
#     4  11  22  42  72  97 133 174 228 268 327 395
#     4  11  25  44  65  99 139 172 218 274 338 388
#     4  11  24  42  69  97 128 177 228 266 325 393
#     4   9  21  42  66  93 127 177 217 260 322 394
#     4  11  25  41  67 104 135 168 220 283 326 390
#     4  10  22  42  70  98 134 180 217 271 331 393
#
# _framework density 22.451758000000002
#
# number of rings (size 3 to 8) (size 9 to 14) (size 15 to 20)
#    0.000    1.429    1.429    3.429    6.000    4.000 
#    0.000    7.143    0.000    0.000    0.000    0.000 
#    0.000    0.000    0.000    0.000    0.000    0.000 
#
# Total GULP energy -173514.791582 kJ/mol
# GULP energy per Si atom -12393.913684 kJ/mol
# Density = 2.240066 g / cm^3
# Si number density = 22.451758 Si / 1000 Ang^3
#
#
#
# Elastic Constant Matrix: (Units=GPa)
#
#
# Indices 1 2 3 4 5 6 
#
# 1 136.8456 12.2288 21.2242 2.0693 -1.4423 6.8136
# 2 12.2288 87.1400 3.6278 5.2150 -6.2488 17.2394
# 3 21.2242 3.6278 92.1639 15.2107 -2.7354 12.4203
# 4 2.0693 5.2150 15.2107 31.1842 5.4382 -6.9118
# 5 -1.4423 -6.2488 -2.7354 5.4382 20.1196 -10.4463
# 6 6.8136 17.2394 12.4203 -6.9118 -10.4463 32.5108
#
#
#
# Elastic Compliance Matrix: (Units=1/GPa)
#
#
# Indices 1 2 3 4 5 6 
#
# 1 0.007678 -0.000972 -0.001761 0.000477 -0.000343 -0.000430
# 2 -0.000972 0.013589 0.001692 -0.005122 0.001475 -0.008263
# 3 -0.001761 0.001692 0.013607 -0.008555 0.000773 -0.007297
# 4 0.000477 -0.005122 -0.008555 0.041077 -0.007481 0.012214
# 5 -0.000343 0.001475 0.000773 -0.007481 0.061111 0.017040
# 6 -0.000430 -0.008263 -0.007297 0.012214 0.017040 0.046091
#
#
# Mechanical properties :
#
#
# Convention : Reuss Voigt Hill
#
# Bulk Modulus (GPa) = 30.49568 43.36789 36.93179
# Shear Modulus (GPa) = 25.48858 35.36751 30.42804
#
# Velocity S-wave (km/s) = 3.37302 3.97327 3.68538
# Velocity P-wave (km/s) = 5.36488 6.35666 5.88171
#
# Compressibility (1/GPa) = 0.03279153
#
# Stress axis : x y z
#
# Youngs Moduli (GPa) = 130.24125 73.58976 73.48916
#
# Poissons Ratio (x) = 0.07155 0.12940
# Poissons Ratio (y) = 0.12663 -0.12432
# Poissons Ratio (z) = 0.22933 -0.12449
#
# Static dielectric constant tensor:
#      x y z
#    x 4.089400 0.319190 -0.418320 
#    y 0.319190 5.949990 0.420690 
#    z -0.418320 0.420690 4.089740 
# 
# 
# High freq. dielectric constant tensor:
#      x y z
#    x 1.889160 0.007680 -0.013910 
#    y 0.007680 1.892730 0.002580 
#    z -0.013910 0.002580 1.877730 
# 
# From -- ./inp_files/206757.got.cif
#   From: 2010.06.25/outbox.cif.g09.slc.cpg/sg2_104_cif.got.tgz:206757.got - 2010.06.27 13:26:56.
