data_PCOD8020620
_publ_section_title
;
Structure prediction by ZEFSAII (Michael W. Deem and Ramdas Pophale) SiO2 
 PCOD8020620
Probable space group: P -1
;
_chemical_formula_sum "Si O2"
_cell_formula_units_Z 16
_cell_length_a 19.880214
_cell_length_b 7.854942
_cell_length_c 8.666135
_cell_angle_alpha 127.850376
_cell_angle_beta 119.065801
_cell_angle_gamma 46.849390
_cell_volume 774.430059
_symmetry_space_group_name_H-M "P -1"
_symmetry_group_IT_number 2
_symmetry_cell_setting 'triclinic'
loop_
_space_group_symop_operation_xyz
x,y,z
-x,-y,-z
loop_
_atom_site_type_symbol
_atom_site_label
_atom_site_fract_x
_atom_site_fract_y
_atom_site_fract_z
Si Si1 0.545102 0.705902 0.333880
Si Si2 0.272529 0.547396 0.144026
Si Si3 0.903551 0.660345 0.893886
Si Si4 0.737208 0.282055 0.441302
Si Si5 0.909795 0.253310 0.472064
Si Si6 0.601691 0.404220 0.929895
Si Si7 0.905701 0.136558 0.063806
Si Si8 0.277053 0.082888 0.983275
O O1 0.641088 0.550579 0.445929
O O2 0.480686 0.600917 0.247567
O O3 0.500000 0.000000 0.500000
O O4 0.563306 0.652633 0.139388
O O5 0.245782 0.733246 0.365785
O O6 0.340578 0.576006 0.128836
O O7 0.177846 0.633153 0.999182
O O8 0.321464 0.245397 0.080428
O O9 0.905635 0.505047 0.661604
O O10 0.824105 0.703680 0.944064
O O11 0.000000 0.500000 0.000000
O O12 0.878907 0.935373 0.962547
O O13 0.818783 0.266154 0.427317
O O14 0.732348 0.040683 0.251891
O O15 0.916936 0.255818 0.297746
O O16 0.000000 0.000000 0.500000
O O17 0.661636 0.138599 0.946389
O O18 0.000000 0.000000 0.000000
#
# Coordination Sequence:
#
# PCOD8020620 Si02
#       8
#     2   2   2   2   2   2   2   2
#     4  10  22  42  70  95 134 179 222 272 342 397
#     4  12  24  41  68  99 135 173 225 277 329 401
#     4  12  22  40  68  91 129 177 214 271 330 387
#     4  11  23  41  67  99 130 178 223 271 336 401
#     4  12  23  42  69  94 133 178 221 270 333 394
#     4  10  23  44  65  98 134 171 224 282 326 397
#     4  12  25  40  62 100 135 171 230 275 325 400
#     4  11  22  44  66  94 134 178 217 271 341 385
#
# _framework density 20.660357000000001
#
# number of rings (size 3 to 8) (size 9 to 14) (size 15 to 20)
#    0.000    0.750    5.000    3.000    0.000    3.000 
#    0.000    8.750    0.000    0.000    0.000    0.000 
#    0.000    0.000    0.000    0.000    0.000    0.000 
#
# Total GULP energy -198446.374539 kJ/mol
# GULP energy per Si atom -12402.898409 kJ/mol
# Density = 2.061333 g / cm^3
# Si number density = 20.660357 Si / 1000 Ang^3
#
#
#
# Elastic Constant Matrix: (Units=GPa)
#
#
# Indices 1 2 3 4 5 6 
#
# 1 123.0386 39.0786 40.9464 -7.6325 -15.6744 -6.0027
# 2 39.0786 96.1006 41.8233 1.9567 -2.6065 -10.7008
# 3 40.9464 41.8233 167.3169 8.4501 -14.9511 3.5137
# 4 -7.6325 1.9567 8.4501 36.3915 0.0825 6.2265
# 5 -15.6744 -2.6065 -14.9511 0.0825 35.6955 2.3018
# 6 -6.0027 -10.7008 3.5137 6.2265 2.3018 41.8350
#
#
#
# Elastic Compliance Matrix: (Units=1/GPa)
#
#
# Indices 1 2 3 4 5 6 
#
# 1 0.010374 -0.003522 -0.001468 0.002679 0.003670 0.000110
# 2 -0.003522 0.013351 -0.002645 -0.001428 -0.001899 0.003449
# 3 -0.001468 -0.002645 0.007316 -0.001632 0.002320 -0.001386
# 4 0.002679 -0.001428 -0.001632 0.029218 0.000593 -0.004225
# 5 0.003670 -0.001899 0.002320 0.000593 0.030582 -0.001925
# 6 0.000110 0.003449 -0.001386 -0.004225 -0.001925 0.025653
#
#
# Mechanical properties :
#
#
# Convention : Reuss Voigt Hill
#
# Bulk Modulus (GPa) = 63.41258 70.01698 66.71478
# Shear Modulus (GPa) = 36.49071 40.42490 38.45780
#
# Velocity S-wave (km/s) = 4.20720 4.42819 4.31911
# Velocity P-wave (km/s) = 7.37294 7.75295 7.56533
#
# Compressibility (1/GPa) = 0.01576974
#
# Stress axis : x y z
#
# Youngs Moduli (GPa) = 96.39599 74.90126 136.68698
#
# Poissons Ratio (x) = 0.26383 0.20065
# Poissons Ratio (y) = 0.33954 0.36157
# Poissons Ratio (z) = 0.14150 0.19813
#
# Static dielectric constant tensor:
#      x y z
#    x 8.267570 4.433960 -0.396680 
#    y 4.433960 8.625690 -0.355480 
#    z -0.396680 -0.355480 4.145220 
# 
# 
# High freq. dielectric constant tensor:
#      x y z
#    x 1.808180 -0.017710 0.004200 
#    y -0.017710 1.807140 0.004330 
#    z 0.004200 0.004330 1.827690 
# 
# From -- ./inp_files/215327.got.cif
#   From: 2010.06.25/outbox.cif.g09.slc.cpg/sg2_108_cif.got.tgz:215327.got - 2010.06.27 13:26:56.
