data_PCOD8020751
_publ_section_title
;
Structure prediction by ZEFSAII (Michael W. Deem and Ramdas Pophale) SiO2 
 PCOD8020751
Probable space group: P -1
;
_chemical_formula_sum "Si O2"
_cell_formula_units_Z 16
_cell_length_a 11.995083
_cell_length_b 9.187957
_cell_length_c 8.142495
_cell_angle_alpha 116.837390
_cell_angle_beta 122.429156
_cell_angle_gamma 76.067608
_cell_volume 675.859734
_symmetry_space_group_name_H-M "P -1"
_symmetry_group_IT_number 2
_symmetry_cell_setting 'triclinic'
loop_
_space_group_symop_operation_xyz
x,y,z
-x,-y,-z
loop_
_atom_site_type_symbol
_atom_site_label
_atom_site_fract_x
_atom_site_fract_y
_atom_site_fract_z
Si Si1 0.056544 0.284386 0.269741
Si Si2 0.007541 0.691617 0.125140
Si Si3 0.260500 0.171613 0.921138
Si Si4 0.370921 0.470926 0.991293
Si Si5 0.586243 0.216277 0.629117
Si Si6 0.171796 0.600835 0.648113
Si Si7 0.693355 0.902878 0.700203
Si Si8 0.738974 0.172119 0.418932
O O1 0.108329 0.471948 0.404451
O O2 0.178704 0.160322 0.332299
O O3 0.942530 0.274991 0.313407
O O4 0.994488 0.232812 0.020577
O O5 0.880661 0.742899 0.155445
O O6 0.133694 0.764953 0.351102
O O7 0.000000 0.500000 0.000000
O O8 0.366902 0.292833 0.981298
O O9 0.250269 0.012555 0.721886
O O10 0.300021 0.132118 0.118946
O O11 0.239774 0.499456 0.794750
O O12 0.500000 0.500000 0.000000
O O13 0.369911 0.601152 0.203625
O O14 0.430769 0.192496 0.526400
O O15 0.611698 0.185357 0.440873
O O16 0.673047 0.094934 0.749932
O O17 0.279157 0.711342 0.694394
#
# Coordination Sequence:
#
# PCOD8020751 Si02
#       8
#     2   2   2   2   2   2   2   2
#     4  10  22  42  74 101 140 187 237 290 350 421
#     4  11  21  44  68 103 141 186 234 289 352 416
#     4  11  27  44  70 105 142 185 240 291 352 424
#     4  12  28  47  73 104 143 191 239 288 354 423
#     4  11  26  47  72 103 142 186 236 291 358 421
#     4  11  24  42  71 106 146 183 234 290 357 412
#     4  10  25  47  74  99 142 184 240 293 354 415
#     4  12  26  42  72 106 145 185 232 293 355 418
#
# _framework density 23.673549000000001
#
# number of rings (size 3 to 8) (size 9 to 14) (size 15 to 20)
#    0.000    1.000    1.250    4.125   10.500    2.000 
#    0.000    3.125    0.000    0.000    0.000    0.000 
#    0.000    0.000    0.000    0.000    0.000    0.000 
#
# Total GULP energy -198444.893354 kJ/mol
# GULP energy per Si atom -12402.805835 kJ/mol
# Density = 2.361967 g / cm^3
# Si number density = 23.673549 Si / 1000 Ang^3
#
#
#
# Elastic Constant Matrix: (Units=GPa)
#
#
# Indices 1 2 3 4 5 6 
#
# 1 93.1951 35.0511 15.2697 -5.6702 -12.3252 -1.4213
# 2 35.0511 105.9660 40.0316 11.3459 -8.2936 7.3271
# 3 15.2697 40.0316 101.8583 19.5759 -7.8996 -4.6045
# 4 -5.6702 11.3459 19.5759 40.6436 -1.6187 3.7690
# 5 -12.3252 -8.2936 -7.8996 -1.6187 34.8643 0.3288
# 6 -1.4213 7.3271 -4.6045 3.7690 0.3288 43.0127
#
#
#
# Elastic Compliance Matrix: (Units=1/GPa)
#
#
# Indices 1 2 3 4 5 6 
#
# 1 0.013126 -0.004231 -0.000641 0.003395 0.003639 0.000761
# 2 -0.004231 0.012818 -0.004107 -0.001927 0.000558 -0.002598
# 3 -0.000641 -0.004107 0.012763 -0.005265 0.001420 0.002495
# 4 0.003395 -0.001927 -0.005265 0.028430 0.000894 -0.002621
# 5 0.003639 0.000558 0.001420 0.000894 0.030466 -0.000134
# 6 0.000761 -0.002598 0.002495 -0.002621 -0.000134 0.024215
#
#
# Mechanical properties :
#
#
# Convention : Reuss Voigt Hill
#
# Bulk Modulus (GPa) = 48.19659 53.52491 50.86075
# Shear Modulus (GPa) = 34.08523 37.74859 35.91691
#
# Velocity S-wave (km/s) = 3.79859 3.99751 3.89932
# Velocity P-wave (km/s) = 6.29619 6.63064 6.46558
#
# Compressibility (1/GPa) = 0.02074836
#
# Stress axis : x y z
#
# Youngs Moduli (GPa) = 76.18525 78.01703 78.35429
#
# Poissons Ratio (x) = 0.33009 0.05021
# Poissons Ratio (y) = 0.32234 0.32181
# Poissons Ratio (z) = 0.04882 0.32042
#
# Static dielectric constant tensor:
#      x y z
#    x 4.438100 -0.001760 -0.132120 
#    y -0.001760 4.244680 -0.025940 
#    z -0.132120 -0.025940 4.341310 
# 
# 
# High freq. dielectric constant tensor:
#      x y z
#    x 1.944790 -0.002130 -0.005270 
#    y -0.002130 1.933650 0.003140 
#    z -0.005270 0.003140 1.947010 
# 
# From -- ./inp_files/245666.got.cif
#   From: 2010.06.25/outbox.cif.g09.slc.cpg/sg2_123_cif.got.tgz:245666.got - 2010.06.27 13:26:56.
