data_PCOD8020361
_publ_section_title
;
Structure prediction by ZEFSAII (Michael W. Deem and Ramdas Pophale) SiO2 
 PCOD8020361
Probable space group: P -1
;
_chemical_formula_sum "Si O2"
_cell_formula_units_Z 12
_cell_length_a 8.313672
_cell_length_b 6.342842
_cell_length_c 14.831633
_cell_angle_alpha 108.470755
_cell_angle_beta 46.739140
_cell_angle_gamma 100.978479
_cell_volume 539.817941
_symmetry_space_group_name_H-M "P -1"
_symmetry_group_IT_number 2
_symmetry_cell_setting 'triclinic'
loop_
_space_group_symop_operation_xyz
x,y,z
-x,-y,-z
loop_
_atom_site_type_symbol
_atom_site_label
_atom_site_fract_x
_atom_site_fract_y
_atom_site_fract_z
Si Si1 0.563200 0.357715 0.369345
Si Si2 0.261263 0.358417 0.022082
Si Si3 0.745784 0.006043 0.623152
Si Si4 0.044760 0.960458 0.832947
Si Si5 0.718995 0.182171 0.856114
Si Si6 0.633634 0.665463 0.218571
O O1 0.500000 0.500000 0.500000
O O2 0.351412 0.232602 0.395607
O O3 0.660385 0.494361 0.266762
O O4 0.755034 0.187509 0.307787
O O5 0.064789 0.183238 0.064096
O O6 0.171655 0.574829 0.142759
O O7 0.849859 0.812493 0.146859
O O8 0.357393 0.443002 0.899779
O O9 0.733562 0.063242 0.739315
O O10 0.595790 0.195055 0.655034
O O11 0.000000 0.000000 0.500000
O O12 0.845882 0.005288 0.846409
O O13 0.460249 0.230976 0.984069
#
# Coordination Sequence:
#
# PCOD8020361 Si02
#       6
#     2   2   2   2   2   2
#     4  11  27  45  66  95 133 178 222 266 326 387
#     4  10  22  42  67  97 135 170 216 263 332 393
#     4  10  25  43  69  94 130 172 224 271 323 382
#     4  11  23  39  69  96 134 173 215 269 327 383
#     4  10  23  40  65 101 133 166 219 269 326 389
#     4  10  24  44  64  98 133 171 219 269 324 391
#
# _framework density 22.229717999999998
#
# number of rings (size 3 to 8) (size 9 to 14) (size 15 to 20)
#    0.000    1.667    0.000    2.000    7.000   12.667 
#    0.000    0.000    0.000    0.000    0.000    0.000 
#    0.000    0.000    0.000    0.000    0.000    0.000 
#
# Total GULP energy -148668.404925 kJ/mol
# GULP energy per Si atom -12389.033744 kJ/mol
# Density = 2.217912 g / cm^3
# Si number density = 22.229718 Si / 1000 Ang^3
#
#
#
# Elastic Constant Matrix: (Units=GPa)
#
#
# Indices 1 2 3 4 5 6 
#
# 1 107.9948 60.1201 63.1437 -1.1336 -0.3509 -0.1920
# 2 60.1201 103.5745 54.3203 -1.4303 3.7508 21.3610
# 3 63.1437 54.3203 100.8961 11.2177 11.6133 8.4185
# 4 -1.1336 -1.4303 11.2177 26.4673 6.5407 -1.4899
# 5 -0.3509 3.7508 11.6133 6.5407 37.7613 3.7663
# 6 -0.1920 21.3610 8.4185 -1.4899 3.7663 46.8107
#
#
#
# Elastic Compliance Matrix: (Units=1/GPa)
#
#
# Indices 1 2 3 4 5 6 
#
# 1 0.018424 -0.007103 -0.008814 0.003808 0.002446 0.004826
# 2 -0.007103 0.017814 -0.004793 0.002293 -0.000038 -0.007220
# 3 -0.008814 -0.004793 0.019468 -0.007949 -0.004089 -0.001274
# 4 0.003808 0.002293 -0.007949 0.042896 -0.005397 0.002198
# 5 0.002446 -0.000038 -0.004089 -0.005397 0.028874 -0.001732
# 6 0.004826 -0.007220 -0.001274 0.002198 -0.001732 0.025116
#
#
# Mechanical properties :
#
#
# Convention : Reuss Voigt Hill
#
# Bulk Modulus (GPa) = 69.99939 74.18150 72.09045
# Shear Modulus (GPa) = 25.15425 31.19995 28.17710
#
# Velocity S-wave (km/s) = 3.36752 3.75043 3.56412
# Velocity P-wave (km/s) = 6.83211 7.22476 7.03117
#
# Compressibility (1/GPa) = 0.01428584
#
# Stress axis : x y z
#
# Youngs Moduli (GPa) = 54.27792 56.13571 51.36537
#
# Poissons Ratio (x) = 0.39874 0.45271
# Poissons Ratio (y) = 0.38554 0.24622
# Poissons Ratio (z) = 0.47838 0.26908
#
# Static dielectric constant tensor:
#      x y z
#    x 4.053920 0.160260 0.262920 
#    y 0.160260 3.938630 -0.122560 
#    z 0.262920 -0.122560 3.110320 
# 
# 
# High freq. dielectric constant tensor:
#      x y z
#    x 1.895260 0.003220 -0.008650 
#    y 0.003220 1.869320 0.016200 
#    z -0.008650 0.016200 1.863150 
# 
# From -- ./inp_files/488611.got.cif
#   From: 2010.06.25/outbox.cif.g09.slc.cpg/sg2_245_cif.got.tgz:488611.got - 2010.06.27 13:26:56.
