data_PCOD8020752
_publ_section_title
;
Structure prediction by ZEFSAII (Michael W. Deem and Ramdas Pophale) SiO2 
 PCOD8020752
Probable space group: P -1
;
_chemical_formula_sum "Si O2"
_cell_formula_units_Z 16
_cell_length_a 9.394510
_cell_length_b 8.826971
_cell_length_c 11.544605
_cell_angle_alpha 79.871193
_cell_angle_beta 126.455519
_cell_angle_gamma 87.978636
_cell_volume 746.099824
_symmetry_space_group_name_H-M "P -1"
_symmetry_group_IT_number 2
_symmetry_cell_setting 'triclinic'
loop_
_space_group_symop_operation_xyz
x,y,z
-x,-y,-z
loop_
_atom_site_type_symbol
_atom_site_label
_atom_site_fract_x
_atom_site_fract_y
_atom_site_fract_z
Si Si1 0.811431 0.610889 0.382370
Si Si2 0.054465 0.078702 0.133001
Si Si3 0.191334 0.384506 0.094532
Si Si4 0.475567 0.559754 0.609448
Si Si5 0.661033 0.083206 0.535347
Si Si6 0.292499 0.916815 0.912348
Si Si7 0.335235 0.247911 0.941813
Si Si8 0.815409 0.945376 0.402337
O O1 0.647355 0.534077 0.360728
O O2 0.787859 0.662629 0.230402
O O3 0.828977 0.760482 0.447815
O O4 0.000000 0.500000 0.500000
O O5 0.166126 0.214882 0.147933
O O6 0.875033 0.151889 0.108313
O O7 0.173754 0.950956 0.289939
O O8 0.000000 0.000000 0.000000
O O9 0.331098 0.453421 0.233848
O O10 0.279628 0.357614 0.012311
O O11 0.000000 0.500000 0.000000
O O12 0.500000 0.500000 0.500000
O O13 0.377516 0.734076 0.522623
O O14 0.500000 0.000000 0.500000
O O15 0.688573 0.021072 0.429444
O O16 0.313359 0.067473 0.982395
O O17 0.270852 0.992442 0.766770
O O18 0.458135 0.770964 0.002846
O O19 0.000000 0.000000 0.500000
#
# Coordination Sequence:
#
# PCOD8020752 Si02
#       8
#     2   2   2   2   2   2   2   2
#     4  11  27  44  73 105 145 192 234 299 369 437
#     4  12  26  44  77 107 140 196 244 299 365 431
#     4  12  29  49  72 109 152 194 243 302 371 441
#     4  12  29  48  71 107 148 194 243 303 371 436
#     4  12  25  46  72 103 144 186 246 302 355 438
#     4  10  22  42  74 102 137 180 243 302 350 425
#     4  10  24  47  69 103 142 186 239 297 360 430
#     4  11  22  43  72 104 134 183 244 292 360 429
#
# _framework density 21.444852000000001
#
# number of rings (size 3 to 8) (size 9 to 14) (size 15 to 20)
#    0.000    0.750    3.750    2.250    7.000    1.500 
#    2.250    0.000    0.000    0.000    0.000    0.000 
#    0.000    0.000    0.000    0.000    0.000    0.000 
#
# Total GULP energy -198318.008971 kJ/mol
# GULP energy per Si atom -12394.875561 kJ/mol
# Density = 2.139604 g / cm^3
# Si number density = 21.444852 Si / 1000 Ang^3
#
#
#
# Elastic Constant Matrix: (Units=GPa)
#
#
# Indices 1 2 3 4 5 6 
#
# 1 153.1704 58.4280 48.2600 10.6092 8.2103 -8.9092
# 2 58.4280 136.1029 51.9463 7.1503 -0.2936 -9.4898
# 3 48.2600 51.9463 116.6161 3.1203 16.1519 -16.8356
# 4 10.6092 7.1503 3.1203 41.1721 -3.6545 3.4282
# 5 8.2103 -0.2936 16.1519 -3.6545 40.3683 5.7334
# 6 -8.9092 -9.4898 -16.8356 3.4282 5.7334 52.8540
#
#
#
# Elastic Compliance Matrix: (Units=1/GPa)
#
#
# Indices 1 2 3 4 5 6 
#
# 1 0.008404 -0.002729 -0.001978 -0.001689 -0.001166 0.000532
# 2 -0.002729 0.009906 -0.003542 -0.000573 0.001991 0.000012
# 3 -0.001978 -0.003542 0.012190 -0.000538 -0.005046 0.003496
# 4 -0.001689 -0.000573 -0.000538 0.025362 0.003213 -0.002552
# 5 -0.001166 0.001991 -0.005046 0.003213 0.028000 -0.004692
# 6 0.000532 0.000012 0.003496 -0.002552 -0.004692 0.020800
#
#
# Mechanical properties :
#
#
# Convention : Reuss Voigt Hill
#
# Bulk Modulus (GPa) = 71.42821 80.35089 75.88955
# Shear Modulus (GPa) = 39.73747 43.36255 41.55001
#
# Velocity S-wave (km/s) = 4.30933 4.50160 4.40651
# Velocity P-wave (km/s) = 7.62500 8.03549 7.83293
#
# Compressibility (1/GPa) = 0.01400007
#
# Stress axis : x y z
#
# Youngs Moduli (GPa) = 118.99731 100.94883 82.03763
#
# Poissons Ratio (x) = 0.27550 0.16231
# Poissons Ratio (y) = 0.32476 0.29057
# Poissons Ratio (z) = 0.23543 0.35755
#
# Static dielectric constant tensor:
#      x y z
#    x 4.181780 -0.001130 0.088420 
#    y -0.001130 3.661970 -0.159420 
#    z 0.088420 -0.159420 3.903050 
# 
# 
# High freq. dielectric constant tensor:
#      x y z
#    x 1.863060 -0.001250 0.001260 
#    y -0.001250 1.843560 0.002450 
#    z 0.001260 0.002450 1.853370 
# 
# From -- ./inp_files/382114.got.cif
#   From: 2010.06.25/outbox.cif.g09.slc.cpg/sg2_192_cif.got.tgz:382114.got - 2010.06.27 13:26:56.
