data_PCOD8020285
_publ_section_title
;
Structure prediction by ZEFSAII (Michael W. Deem and Ramdas Pophale) SiO2 
 PCOD8020285
Probable space group: P -1
;
_chemical_formula_sum "Si O2"
_cell_formula_units_Z 10
_cell_length_a 13.826555
_cell_length_b 14.512778
_cell_length_c 5.542952
_cell_angle_alpha 80.262864
_cell_angle_beta 79.486278
_cell_angle_gamma 19.572628
_cell_volume 366.339317
_symmetry_space_group_name_H-M "P -1"
_symmetry_group_IT_number 2
_symmetry_cell_setting 'triclinic'
loop_
_space_group_symop_operation_xyz
x,y,z
-x,-y,-z
loop_
_atom_site_type_symbol
_atom_site_label
_atom_site_fract_x
_atom_site_fract_y
_atom_site_fract_z
Si Si1 0.916085 0.193368 0.373306
Si Si2 0.505341 0.702014 0.116297
Si Si3 0.182225 0.245336 0.534442
Si Si4 0.457542 0.617346 0.775590
Si Si5 0.317095 0.069276 0.050593
O O1 0.803048 0.378621 0.164019
O O2 0.765069 0.354612 0.620598
O O3 0.811826 0.180525 0.353549
O O4 0.266692 0.886012 0.350290
O O5 0.540883 0.781964 0.069762
O O6 0.377122 0.785507 0.875674
O O7 0.129947 0.231968 0.315561
O O8 0.000000 0.500000 0.500000
O O9 0.500000 0.000000 0.500000
O O10 0.123617 0.240226 0.814712
O O11 0.500000 0.500000 0.000000
O O12 0.500000 0.000000 0.000000
#
# Coordination Sequence:
#
# PCOD8020285 Si02
#       5
#     2   2   2   2   2
#     4  10  23  41  65  96 131 170 221 272 340 401
#     4  11  24  40  65  97 132 172 224 274 333 401
#     4  10  22  42  67  91 127 173 226 274 333 391
#     4   9  21  42  66  94 131 172 214 276 337 404
#     4  10  24  45  68 100 136 183 226 281 338 401
#
# _framework density 27.297096
#
# number of rings (size 3 to 8) (size 9 to 14) (size 15 to 20)
#    0.000    2.000    0.000    1.200    2.800   16.800 
#    3.600    0.000    0.000    0.000    0.000    0.000 
#    0.000    0.000    0.000    0.000    0.000    0.000 
#
# Total GULP energy -123911.580433 kJ/mol
# GULP energy per Si atom -12391.158043 kJ/mol
# Density = 2.723497 g / cm^3
# Si number density = 27.297096 Si / 1000 Ang^3
#
#
#
# Elastic Constant Matrix: (Units=GPa)
#
#
# Indices 1 2 3 4 5 6 
#
# 1 114.3295 1.5045 12.8062 7.1783 7.6598 47.2551
# 2 1.5045 79.6720 -12.0648 11.1258 13.9146 7.5897
# 3 12.8062 -12.0648 175.2635 14.0491 24.4505 13.2131
# 4 7.1783 11.1258 14.0491 37.7916 8.3878 1.9185
# 5 7.6598 13.9146 24.4505 8.3878 35.7917 7.6085
# 6 47.2551 7.5897 13.2131 1.9185 7.6085 52.6173
#
#
#
# Elastic Compliance Matrix: (Units=1/GPa)
#
#
# Indices 1 2 3 4 5 6 
#
# 1 0.014205 0.001433 0.000297 -0.002469 -0.000484 -0.012879
# 2 0.001433 0.014769 0.002300 -0.003980 -0.006055 -0.002974
# 3 0.000297 0.002300 0.006794 -0.002121 -0.004775 -0.001537
# 4 -0.002469 -0.003980 -0.002121 0.029640 -0.004021 0.002825
# 5 -0.000484 -0.006055 -0.004775 -0.004021 0.035117 -0.002425
# 6 -0.012879 -0.002974 -0.001537 0.002825 -0.002425 0.031634
#
#
# Mechanical properties :
#
#
# Convention : Reuss Voigt Hill
#
# Bulk Modulus (GPa) = 22.81624 41.52852 32.17238
# Shear Modulus (GPa) = 36.04672 49.70804 42.87738
#
# Velocity S-wave (km/s) = 3.63786 4.27195 3.96759
# Velocity P-wave (km/s) = 5.10117 6.29121 5.72718
#
# Compressibility (1/GPa) = 0.04382842
#
# Stress axis : x y z
#
# Youngs Moduli (GPa) = 70.39747 67.70810 147.17953
#
# Poissons Ratio (x) = -0.09702 -0.04372
# Poissons Ratio (y) = -0.10087 -0.33850
# Poissons Ratio (z) = -0.02091 -0.15572
#
# Static dielectric constant tensor:
#      x y z
#    x 6.487660 -0.328750 1.365820 
#    y -0.328750 5.262280 -1.170200 
#    z 1.365820 -1.170200 6.474520 
# 
# 
# High freq. dielectric constant tensor:
#      x y z
#    x 2.085980 0.025290 -0.002330 
#    y 0.025290 2.091030 -0.002040 
#    z -0.002330 -0.002040 2.128280 
# 
# From -- ./inp_files/2297.got.cif
#   From: 2010.06.25/outbox.cif.g09.slc.cpg/sg2_2_cif.got.tgz:2297.got - 2010.06.27 13:26:56.
