data_PCOD8020838
_publ_section_title
;
Structure prediction by ZEFSAII (Michael W. Deem and Ramdas Pophale) SiO2 
 PCOD8020838
Probable space group: P -1
;
_chemical_formula_sum "Si O2"
_cell_formula_units_Z 16
_cell_length_a 11.321023
_cell_length_b 11.618268
_cell_length_c 14.474363
_cell_angle_alpha 80.214935
_cell_angle_beta 32.381472
_cell_angle_gamma 59.881236
_cell_volume 737.781857
_symmetry_space_group_name_H-M "P -1"
_symmetry_group_IT_number 2
_symmetry_cell_setting 'triclinic'
loop_
_space_group_symop_operation_xyz
x,y,z
-x,-y,-z
loop_
_atom_site_type_symbol
_atom_site_label
_atom_site_fract_x
_atom_site_fract_y
_atom_site_fract_z
Si Si1 0.842763 0.817759 0.067806
Si Si2 0.315301 0.977386 0.685520
Si Si3 0.615231 0.206602 0.656888
Si Si4 0.519244 0.487539 0.272340
Si Si5 0.309410 0.587080 0.204342
Si Si6 0.706071 0.673250 0.589338
Si Si7 0.781463 0.122146 0.760410
Si Si8 0.288367 0.917163 0.990838
O O1 0.647856 0.772083 0.220673
O O2 0.855631 0.895027 0.137641
O O3 0.712063 0.944834 0.053654
O O4 0.180366 0.653487 0.852077
O O5 0.558025 0.800157 0.588115
O O6 0.054437 0.006028 0.797500
O O7 0.500000 0.000000 0.500000
O O8 0.599291 0.350315 0.625473
O O9 0.581576 0.189164 0.790610
O O10 0.922181 0.057338 0.429114
O O11 0.553173 0.498643 0.138287
O O12 0.289383 0.461505 0.432751
O O13 0.133585 0.773370 0.290395
O O14 0.053755 0.580999 0.388879
O O15 0.500000 0.500000 0.000000
O O16 0.514140 0.761308 0.798537
O O17 0.608978 0.132258 0.962916
#
# Coordination Sequence:
#
# PCOD8020838 Si02
#       8
#     2   2   2   2   2   2   2   2
#     4  11  21  39  61  92 127 166 211 256 318 375
#     4  11  21  35  66  95 124 163 203 266 321 374
#     4  10  23  42  64  88 124 182 214 251 311 366
#     4  11  22  40  60  88 134 166 208 259 310 384
#     4  11  24  40  65  96 125 165 207 265 330 372
#     4  11  21  39  63  97 129 159 203 269 325 371
#     4  10  22  43  64  89 126 163 224 260 300 389
#     4  11  20  39  67  95 125 156 208 273 320 365
#
# _framework density 21.686629
#
# number of rings (size 3 to 8) (size 9 to 14) (size 15 to 20)
#    0.000    1.250    2.500    5.250    1.750    0.500 
#    0.000    3.125    0.000    0.000    0.000    0.000 
#    0.000    0.000    0.000    0.000    0.000    0.000 
#
# Total GULP energy -198358.570979 kJ/mol
# GULP energy per Si atom -12397.410686 kJ/mol
# Density = 2.163727 g / cm^3
# Si number density = 21.686629 Si / 1000 Ang^3
#
#
#
# Elastic Constant Matrix: (Units=GPa)
#
#
# Indices 1 2 3 4 5 6 
#
# 1 31.4858 25.6723 -6.4543 6.4149 1.2910 5.1507
# 2 25.6723 136.8504 24.5550 4.4052 7.1123 27.2474
# 3 -6.4543 24.5550 53.8117 -3.4038 -4.2494 4.3639
# 4 6.4149 4.4052 -3.4038 30.4467 -7.7196 5.1780
# 5 1.2910 7.1123 -4.2494 -7.7196 32.9408 -7.3490
# 6 5.1507 27.2474 4.3639 5.1780 -7.3490 39.1211
#
#
#
# Elastic Compliance Matrix: (Units=1/GPa)
#
#
# Indices 1 2 3 4 5 6 
#
# 1 0.042636 -0.009611 0.009012 -0.006700 0.000220 0.001003
# 2 -0.009611 0.011950 -0.006422 -0.000400 -0.004727 -0.007176
# 3 0.009012 -0.006422 0.023044 0.002633 0.004911 0.001290
# 4 -0.006700 -0.000400 0.002633 0.037269 0.008888 -0.002396
# 5 0.000220 -0.004727 0.004911 0.008888 0.035935 0.008289
# 6 0.001003 -0.007176 0.001290 -0.002396 0.008289 0.032158
#
#
# Mechanical properties :
#
#
# Convention : Reuss Voigt Hill
#
# Bulk Modulus (GPa) = 15.72638 34.41044 25.06841
# Shear Modulus (GPa) = 22.91156 32.39338 27.65247
#
# Velocity S-wave (km/s) = 3.25388 3.86904 3.57472
# Velocity P-wave (km/s) = 4.62433 5.98839 5.35001
#
# Compressibility (1/GPa) = 0.06358743
#
# Stress axis : x y z
#
# Youngs Moduli (GPa) = 23.45453 83.68347 43.39438
#
# Poissons Ratio (x) = 0.80425 -0.39105
# Poissons Ratio (y) = 0.22541 0.27869
# Poissons Ratio (z) = -0.21136 0.53743
#
# Static dielectric constant tensor:
#      x y z
#    x 4.184740 -0.109740 0.160310 
#    y -0.109740 4.425350 -0.142190 
#    z 0.160310 -0.142190 3.714340 
# 
# 
# High freq. dielectric constant tensor:
#      x y z
#    x 1.844820 -0.000520 -0.004560 
#    y -0.000520 1.875850 0.002520 
#    z -0.004560 0.002520 1.826480 
# 
# From -- ./inp_files/390807.got.cif
#   From: 2010.06.25/outbox.cif.g09.slc.cpg/sg2_196_cif.got.tgz:390807.got - 2010.06.27 13:26:56.
