data_PCOD8020060
_publ_section_title
;
Structure prediction by ZEFSAII (Michael W. Deem and Ramdas Pophale) SiO2 
 PCOD8020060
Probable space group: P -1
;
_chemical_formula_sum "Si O2"
_cell_formula_units_Z 14
_cell_length_a 9.505946
_cell_length_b 18.630864
_cell_length_c 5.327391
_cell_angle_alpha 115.804151
_cell_angle_beta 55.580684
_cell_angle_gamma 131.863618
_cell_volume 577.044382
_symmetry_space_group_name_H-M "P -1"
_symmetry_group_IT_number 2
_symmetry_cell_setting 'triclinic'
loop_
_space_group_symop_operation_xyz
x,y,z
-x,-y,-z
loop_
_atom_site_type_symbol
_atom_site_label
_atom_site_fract_x
_atom_site_fract_y
_atom_site_fract_z
Si Si1 0.969807 0.867826 0.582984
Si Si2 0.970166 0.305709 0.742449
Si Si3 0.850620 0.799710 0.099579
Si Si4 0.567497 0.972802 0.640510
Si Si5 0.222086 0.518498 0.810480
Si Si6 0.463373 0.583571 0.165863
Si Si7 0.209287 0.770152 0.692065
O O1 0.841228 0.854385 0.438884
O O2 0.987747 0.776511 0.424601
O O3 0.840447 0.853903 0.945165
O O4 0.185724 0.971994 0.524490
O O5 0.840180 0.294527 0.606216
O O6 0.185373 0.412433 0.686893
O O7 0.841355 0.295065 0.107210
O O8 0.681078 0.686073 0.098134
O O9 0.076614 0.817017 0.896889
O O10 0.453209 0.856659 0.578935
O O11 0.500000 0.000000 0.500000
O O12 0.500000 0.000000 0.000000
O O13 0.346300 0.577887 0.528869
O O14 0.338828 0.576481 0.032701
O O15 0.000000 0.500000 0.000000
O O16 0.500000 0.500000 0.000000
#
# Coordination Sequence:
#
# PCOD8020060 Si02
#       7
#     2   2   2   2   2   2   2
#     4  10  17  28  46  75 115 145 179 231 292 348
#     4  10  18  32  49  69 103 146 188 224 288 338
#     4  10  18  29  46  73 105 141 180 227 283 337
#     4  12  16  27  43  74 118 152 178 218 303 356
#     4  12  26  43  61  86 122 162 206 258 303 357
#     4  12  23  40  64  89 116 155 208 254 309 366
#     4  10  18  29  47  78 113 147 179 236 290 352
#
# _framework density 24.261565999999998
#
# number of rings (size 3 to 8) (size 9 to 14) (size 15 to 20)
#    0.000    1.143    5.714    6.000    0.000    0.000 
#    0.000    0.000    0.000    0.000    0.000    0.000 
#    0.000   38.857    0.000    0.000    0.000    0.000 
#
# Total GULP energy -173535.016015 kJ/mol
# GULP energy per Si atom -12395.358287 kJ/mol
# Density = 2.420635 g / cm^3
# Si number density = 24.261566 Si / 1000 Ang^3
#
#
#
# Elastic Constant Matrix: (Units=GPa)
#
#
# Indices 1 2 3 4 5 6 
#
# 1 58.5554 5.8633 61.5091 11.3031 36.3772 26.0932
# 2 5.8633 124.6294 26.8170 -22.5457 28.4010 32.1422
# 3 61.5091 26.8170 147.2667 -22.3507 79.0605 10.1653
# 4 11.3031 -22.5457 -22.3507 31.8619 6.6641 6.8547
# 5 36.3772 28.4010 79.0605 6.6641 66.1870 12.2196
# 6 26.0932 32.1422 10.1653 6.8547 12.2196 28.3812
#
#
#
# Elastic Compliance Matrix: (Units=1/GPa)
#
#
# Indices 1 2 3 4 5 6 
#
# 1 -0.056736 0.095635 0.195822 0.297831 -0.257636 -0.087290
# 2 0.095635 0.025974 -0.064569 -0.047264 0.036355 -0.098452
# 3 0.195822 -0.064569 -0.256381 -0.340898 0.269672 -0.048856
# 4 0.297831 -0.047264 -0.340898 -0.384099 0.329674 -0.147368
# 5 -0.257636 0.036355 0.269672 0.329674 -0.236614 0.121357
# 6 -0.087290 -0.098452 -0.048856 -0.147368 0.121357 0.227827
#
#
# Mechanical properties :
#
#
# Convention : Reuss Voigt Hill
#
# Bulk Modulus (GPa) = 6.00119 57.64780 31.82449
# Shear Modulus (GPa) = -4.63710 41.03684 18.19987
#
# Velocity S-wave (km/s) = -1.38400 4.11717 2.74186
# Velocity P-wave (km/s) = 0.27389 6.81278 4.81347
#
# Compressibility (1/GPa) = 0.16663373
#
# Stress axis : x y z
#
# Youngs Moduli (GPa) = -17.62544 38.49970 -3.90045
#
# Poissons Ratio (x) = -3.68191 0.76379
# Poissons Ratio (y) = 1.68561 -0.25185
# Poissons Ratio (z) = 3.45145 2.48587
#
# Static dielectric constant tensor:
#      x y z
#    x 4.802050 0.384600 1.830520 
#    y 0.384600 4.738530 0.022370 
#    z 1.830520 0.022370 6.119690 
# 
# 
# High freq. dielectric constant tensor:
#      x y z
#    x 1.928470 0.019700 0.056170 
#    y 0.019700 1.975200 -0.010820 
#    z 0.056170 -0.010820 1.970320 
# 
# From -- ./inp_files/32553.got.cif
#   From: 2010.06.25/outbox.cif.g09.slc.cpg/sg2_17_cif.got.tgz:32553.got - 2010.06.27 13:26:56.
