data_PCOD8020929
_publ_section_title
;
Structure prediction by ZEFSAII (Michael W. Deem and Ramdas Pophale) SiO2 
 PCOD8020929
Probable space group: P -1
;
_chemical_formula_sum "Si O2"
_cell_formula_units_Z 16
_cell_length_a 8.535930
_cell_length_b 16.023152
_cell_length_c 13.128824
_cell_angle_alpha 25.161847
_cell_angle_beta 81.515281
_cell_angle_gamma 88.502588
_cell_volume 730.068984
_symmetry_space_group_name_H-M "P -1"
_symmetry_group_IT_number 2
_symmetry_cell_setting 'triclinic'
loop_
_space_group_symop_operation_xyz
x,y,z
-x,-y,-z
loop_
_atom_site_type_symbol
_atom_site_label
_atom_site_fract_x
_atom_site_fract_y
_atom_site_fract_z
Si Si1 0.446914 0.656539 0.761224
Si Si2 0.147359 0.745586 0.792116
Si Si3 0.219258 0.413366 0.634676
Si Si4 0.686434 0.383351 0.389845
Si Si5 0.012674 0.697898 0.640656
Si Si6 0.218628 0.029704 0.651859
Si Si7 0.395462 0.137324 0.809991
Si Si8 0.154827 0.791179 0.115398
O O1 0.329981 0.755609 0.728922
O O2 0.348259 0.530298 0.813199
O O3 0.596064 0.839038 0.511027
O O4 0.500000 0.500000 0.000000
O O5 0.041044 0.763857 0.682837
O O6 0.157236 0.939635 0.647269
O O7 0.070517 0.542485 0.088800
O O8 0.245378 0.451006 0.711944
O O9 0.357367 0.304074 0.705979
O O10 0.240649 0.623158 0.338407
O O11 0.039872 0.274365 0.782316
O O12 0.823211 0.257394 0.494635
O O13 0.508824 0.245176 0.588205
O O14 0.896388 0.825718 0.461014
O O15 0.204422 0.839829 0.939434
O O16 0.500000 0.000000 0.000000
O O17 0.222371 0.000633 0.938530
#
# Coordination Sequence:
#
# PCOD8020929 Si02
#       8
#     2   2   2   2   2   2   2   2
#     4  11  23  44  67 100 139 176 222 289 338 399
#     4  10  22  43  65  95 135 182 226 275 341 405
#     4  11  26  49  70 101 136 184 232 282 344 414
#     4  11  24  45  68  99 137 183 223 280 346 401
#     4  10  23  42  66  94 141 172 232 281 332 407
#     4  12  23  41  69 101 130 185 226 278 343 408
#     4  12  25  46  71 101 139 180 229 286 346 404
#     4  11  26  44  71 102 139 177 233 283 344 401
#
# _framework density 21.915738999999999
#
# number of rings (size 3 to 8) (size 9 to 14) (size 15 to 20)
#    0.000    1.000    3.750    2.250    1.750    4.000 
#    2.250    0.000    0.000    0.000    0.000    0.000 
#    0.000    0.000    0.000    0.000    0.000    0.000 
#
# Total GULP energy -198365.691774 kJ/mol
# GULP energy per Si atom -12397.855736 kJ/mol
# Density = 2.186586 g / cm^3
# Si number density = 21.915739 Si / 1000 Ang^3
#
#
#
# Elastic Constant Matrix: (Units=GPa)
#
#
# Indices 1 2 3 4 5 6 
#
# 1 99.7939 43.1515 44.4288 -5.5571 -2.4822 -5.6598
# 2 43.1515 131.0954 37.2818 -3.5753 0.9764 1.7756
# 3 44.4288 37.2818 71.0865 4.7194 -3.8481 -10.5838
# 4 -5.5571 -3.5753 4.7194 28.2439 4.7355 -4.6397
# 5 -2.4822 0.9764 -3.8481 4.7355 38.3526 -0.9130
# 6 -5.6598 1.7756 -10.5838 -4.6397 -0.9130 38.1926
#
#
#
# Elastic Compliance Matrix: (Units=1/GPa)
#
#
# Indices 1 2 3 4 5 6 
#
# 1 0.015053 -0.002480 -0.008321 0.004177 -0.000300 0.000540
# 2 -0.002480 0.009617 -0.003894 0.001257 -0.000993 -0.001765
# 3 -0.008321 -0.003894 0.022502 -0.005578 0.002616 0.004569
# 4 0.004177 0.001257 -0.005578 0.038752 -0.005020 0.003602
# 5 -0.000300 -0.000993 0.002616 -0.005020 0.026980 0.000762
# 6 0.000540 -0.001765 0.004569 0.003602 0.000762 0.028067
#
#
# Mechanical properties :
#
#
# Convention : Reuss Voigt Hill
#
# Bulk Modulus (GPa) = 56.23149 61.29999 58.76574
# Shear Modulus (GPa) = 28.36252 32.76543 30.56398
#
# Velocity S-wave (km/s) = 3.60135 3.87080 3.73850
# Velocity P-wave (km/s) = 6.55795 6.92885 6.74595
#
# Compressibility (1/GPa) = 0.01778363
#
# Stress axis : x y z
#
# Youngs Moduli (GPa) = 66.43122 103.98014 44.44022
#
# Poissons Ratio (x) = 0.25784 0.36978
# Poissons Ratio (y) = 0.16473 0.17305
# Poissons Ratio (z) = 0.55276 0.40489
#
# Static dielectric constant tensor:
#      x y z
#    x 3.921830 0.091050 -0.257130 
#    y 0.091050 3.832510 -0.160060 
#    z -0.257130 -0.160060 3.300340 
# 
# 
# High freq. dielectric constant tensor:
#      x y z
#    x 1.877080 0.008540 -0.012580 
#    y 0.008540 1.864060 0.008750 
#    z -0.012580 0.008750 1.853470 
# 
# From -- ./inp_files/398133.got.cif
#   From: 2010.06.25/outbox.cif.g09.slc.cpg/sg2_200_cif.got.tgz:398133.got - 2010.06.27 13:26:56.
