data_PCOD8020831
_publ_section_title
;
Structure prediction by ZEFSAII (Michael W. Deem and Ramdas Pophale) SiO2 
 PCOD8020831
Probable space group: P -1
;
_chemical_formula_sum "Si O2"
_cell_formula_units_Z 14
_cell_length_a 16.519487
_cell_length_b 5.363132
_cell_length_c 13.937262
_cell_angle_alpha 123.831122
_cell_angle_beta 145.532243
_cell_angle_gamma 72.216604
_cell_volume 548.643516
_symmetry_space_group_name_H-M "P -1"
_symmetry_group_IT_number 2
_symmetry_cell_setting 'triclinic'
loop_
_space_group_symop_operation_xyz
x,y,z
-x,-y,-z
loop_
_atom_site_type_symbol
_atom_site_label
_atom_site_fract_x
_atom_site_fract_y
_atom_site_fract_z
Si Si1 0.014597 0.654533 0.651872
Si Si2 0.973861 0.697319 0.158369
Si Si3 0.825915 0.139851 0.781273
Si Si4 0.450793 0.101837 0.072404
Si Si5 0.313871 0.645566 0.003637
Si Si6 0.775377 0.473530 0.536311
Si Si7 0.479247 0.837464 0.548149
O O1 0.000000 0.500000 0.500000
O O2 0.850358 0.582018 0.526640
O O3 0.129011 0.535248 0.805719
O O4 0.091879 0.040805 0.803863
O O5 0.017644 0.781030 0.107468
O O6 0.127383 0.730173 0.371039
O O7 0.850485 0.340126 0.949852
O O8 0.693922 0.203516 0.600784
O O9 0.780500 0.763014 0.675211
O O10 0.359215 0.341496 0.010756
O O11 0.599760 0.271395 0.316441
O O12 0.351965 0.779589 0.960774
O O13 0.500000 0.000000 0.000000
O O14 0.396333 0.940357 0.213569
O O15 0.500000 0.500000 0.500000
O O16 0.500000 0.000000 0.500000
#
# Coordination Sequence:
#
# PCOD8020831 Si02
#       7
#     2   2   2   2   2   2   2
#     4  11  27  45  69 105 144 190 244 300 362 431
#     4  10  23  41  71  95 141 181 235 294 362 426
#     4  10  22  43  64 104 132 182 236 292 358 435
#     4  12  27  47  77 105 144 196 246 303 365 434
#     4  12  27  49  72 108 151 187 246 305 365 436
#     4  11  24  43  74  99 138 188 240 295 362 432
#     4  12  26  42  71 101 146 186 234 292 367 431
#
# _framework density 25.517481
#
# number of rings (size 3 to 8) (size 9 to 14) (size 15 to 20)
#    0.000    0.857    1.429    4.286   10.000    0.571 
#    0.000    0.000    0.000    0.000    0.000    0.000 
#    0.000    0.000    0.000    0.000    0.000    0.000 
#
# Total GULP energy -173538.107359 kJ/mol
# GULP energy per Si atom -12395.579097 kJ/mol
# Density = 2.545940 g / cm^3
# Si number density = 25.517481 Si / 1000 Ang^3
#
#
#
# Elastic Constant Matrix: (Units=GPa)
#
#
# Indices 1 2 3 4 5 6 
#
# 1 59.2617 13.1340 6.8218 9.4385 7.6900 -3.3548
# 2 13.1340 131.1046 33.4589 -15.4916 -0.3617 -14.0336
# 3 6.8218 33.4589 118.1148 -11.7648 -4.2684 -24.2602
# 4 9.4385 -15.4916 -11.7648 49.2059 -11.6336 -5.1003
# 5 7.6900 -0.3617 -4.2684 -11.6336 48.1218 3.3029
# 6 -3.3548 -14.0336 -24.2602 -5.1003 3.3029 40.6751
#
#
#
# Elastic Compliance Matrix: (Units=1/GPa)
#
#
# Indices 1 2 3 4 5 6 
#
# 1 0.019025 -0.002319 -0.001251 -0.005788 -0.004545 -0.000334
# 2 -0.002319 0.008898 -0.001548 0.003339 0.000950 0.002297
# 3 -0.001251 -0.001548 0.010580 0.003256 0.001505 0.005959
# 4 -0.005788 0.003339 0.003256 0.025469 0.007036 0.005238
# 5 -0.004545 0.000950 0.001505 0.007036 0.023360 -0.000164
# 6 -0.000334 0.002297 0.005959 0.005238 -0.000164 0.029574
#
#
# Mechanical properties :
#
#
# Convention : Reuss Voigt Hill
#
# Bulk Modulus (GPa) = 35.37758 46.14560 40.76159
# Shear Modulus (GPa) = 36.61301 44.60500 40.60900
#
# Velocity S-wave (km/s) = 3.79201 4.18547 3.99359
# Velocity P-wave (km/s) = 5.75036 6.44055 6.10521
#
# Compressibility (1/GPa) = 0.02826649
#
# Stress axis : x y z
#
# Youngs Moduli (GPa) = 52.56283 112.38718 94.52072
#
# Poissons Ratio (x) = 0.26059 0.11827
# Poissons Ratio (y) = 0.12188 0.14632
# Poissons Ratio (z) = 0.06577 0.17397
#
# Static dielectric constant tensor:
#      x y z
#    x 4.823990 -0.008760 0.228910 
#    y -0.008760 4.904620 -0.050200 
#    z 0.228910 -0.050200 5.180890 
# 
# 
# High freq. dielectric constant tensor:
#      x y z
#    x 2.028390 -0.002560 0.005370 
#    y -0.002560 2.027030 -0.001850 
#    z 0.005370 -0.001850 2.022190 
# 
# From -- ./inp_files/27032.got.cif
#   From: 2010.06.25/outbox.cif.g09.slc.cpg/sg2_14_cif.got.tgz:27032.got - 2010.06.27 13:26:56.
