data_PCOD8020735
_publ_section_title
;
Structure prediction by ZEFSAII (Michael W. Deem and Ramdas Pophale) SiO2 
 PCOD8020735
Probable space group: P -1
;
_chemical_formula_sum "Si O2"
_cell_formula_units_Z 12
_cell_length_a 7.839996
_cell_length_b 14.164288
_cell_length_c 10.428415
_cell_angle_alpha 29.403599
_cell_angle_beta 82.827831
_cell_angle_gamma 100.985213
_cell_volume 445.042638
_symmetry_space_group_name_H-M "P -1"
_symmetry_group_IT_number 2
_symmetry_cell_setting 'triclinic'
loop_
_space_group_symop_operation_xyz
x,y,z
-x,-y,-z
loop_
_atom_site_type_symbol
_atom_site_label
_atom_site_fract_x
_atom_site_fract_y
_atom_site_fract_z
Si Si1 0.567016 0.504759 0.649688
Si Si2 0.012515 0.738273 0.727676
Si Si3 0.711216 0.995759 0.837950
Si Si4 0.427274 0.146311 0.603053
Si Si5 0.352596 0.219944 0.248862
Si Si6 0.042431 0.745163 0.242562
O O1 0.489880 0.664043 0.510239
O O2 0.820418 0.696919 0.359087
O O3 0.535049 0.352684 0.961996
O O4 0.415674 0.300989 0.793146
O O5 0.072662 0.872701 0.424739
O O6 0.786102 0.676454 0.866647
O O7 0.199344 0.928219 0.586815
O O8 0.000000 0.500000 0.000000
O O9 0.551218 0.031268 0.737365
O O10 0.775530 0.118419 0.824517
O O11 0.471299 0.279181 0.304887
O O12 0.163878 0.932441 0.890943
O O13 0.000000 0.500000 0.500000
#
# Coordination Sequence:
#
# PCOD8020735 Si02
#       6
#     2   2   2   2   2   2
#     4  11  25  48  72 101 144 183 235 294 345 427
#     4  10  22  42  73 104 146 183 227 293 348 422
#     4  11  26  46  69 105 140 187 239 287 352 414
#     4  12  25  45  75 104 142 189 230 295 351 414
#     4  10  24  44  70 111 139 181 239 283 354 417
#     4  12  27  49  71 101 145 189 238 292 350 419
#
# _framework density 26.963709999999999
#
# number of rings (size 3 to 8) (size 9 to 14) (size 15 to 20)
#    0.000    1.000    1.667    3.500    2.333    6.000 
#    3.000    0.000    0.000    0.000    0.000    0.000 
#    0.000    0.000    0.000    0.000    0.000    0.000 
#
# Total GULP energy -148815.617089 kJ/mol
# GULP energy per Si atom -12401.301424 kJ/mol
# Density = 2.690234 g / cm^3
# Si number density = 26.963710 Si / 1000 Ang^3
#
#
#
# Elastic Constant Matrix: (Units=GPa)
#
#
# Indices 1 2 3 4 5 6 
#
# 1 79.2365 20.3219 18.7331 -3.6914 -2.3114 -4.8173
# 2 20.3219 143.3010 21.6282 -33.1695 -4.5494 -0.8338
# 3 18.7331 21.6282 115.7776 -17.2073 -23.3293 -1.6601
# 4 -3.6914 -33.1695 -17.2073 61.0962 -19.4628 3.1233
# 5 -2.3114 -4.5494 -23.3293 -19.4628 37.7334 -7.4765
# 6 -4.8173 -0.8338 -1.6601 3.1233 -7.4765 39.7228
#
#
#
# Elastic Compliance Matrix: (Units=1/GPa)
#
#
# Indices 1 2 3 4 5 6 
#
# 1 0.013638 -0.001926 -0.002262 -0.001311 -0.001195 0.001397
# 2 -0.001926 0.008756 0.000515 0.006206 0.004523 0.000335
# 3 -0.002262 0.000515 0.012366 0.007250 0.011681 0.001882
# 4 -0.001311 0.006206 0.007250 0.027956 0.019932 0.001828
# 5 -0.001195 0.004523 0.011681 0.019932 0.045968 0.007523
# 6 0.001397 0.000335 0.001882 0.001828 0.007523 0.026702
#
#
# Mechanical properties :
#
#
# Convention : Reuss Voigt Hill
#
# Bulk Modulus (GPa) = 36.48035 51.07574 43.77805
# Shear Modulus (GPa) = 32.92295 46.21926 39.57110
#
# Velocity S-wave (km/s) = 3.49809 4.14469 3.83504
# Velocity P-wave (km/s) = 5.46574 6.47211 5.99009
#
# Compressibility (1/GPa) = 0.02741201
#
# Stress axis : x y z
#
# Youngs Moduli (GPa) = 73.32299 114.21018 80.87011
#
# Poissons Ratio (x) = 0.21995 0.18297
# Poissons Ratio (y) = 0.14121 -0.04161
# Poissons Ratio (z) = 0.16589 -0.05877
#
# Static dielectric constant tensor:
#      x y z
#    x 4.349270 -0.299730 -0.280540 
#    y -0.299730 5.289810 0.126380 
#    z -0.280540 0.126380 5.529100 
# 
# 
# High freq. dielectric constant tensor:
#      x y z
#    x 2.050260 -0.015770 -0.005580 
#    y -0.015770 2.107740 -0.006150 
#    z -0.005580 -0.006150 2.122430 
# 
# From -- ./inp_files/396857.got.cif
#   From: 2010.06.25/outbox.cif.g09.slc.cpg/sg2_199_cif.got.tgz:396857.got - 2010.06.27 13:26:56.
