data_PCOD8020590
_publ_section_title
;
Structure prediction by ZEFSAII (Michael W. Deem and Ramdas Pophale) SiO2 
 PCOD8020590
Probable space group: P -1
;
_chemical_formula_sum "Si O2"
_cell_formula_units_Z 14
_cell_length_a 8.731328
_cell_length_b 11.628463
_cell_length_c 9.511587
_cell_angle_alpha 119.746956
_cell_angle_beta 131.304094
_cell_angle_gamma 81.813463
_cell_volume 603.974789
_symmetry_space_group_name_H-M "P -1"
_symmetry_group_IT_number 2
_symmetry_cell_setting 'triclinic'
loop_
_space_group_symop_operation_xyz
x,y,z
-x,-y,-z
loop_
_atom_site_type_symbol
_atom_site_label
_atom_site_fract_x
_atom_site_fract_y
_atom_site_fract_z
Si Si1 0.879575 0.486377 0.135098
Si Si2 0.749559 0.573371 0.835077
Si Si3 0.500234 0.278905 0.403452
Si Si4 0.601420 0.225617 0.938327
Si Si5 0.218707 0.012428 0.216866
Si Si6 0.866529 0.913524 0.491526
Si Si7 0.842851 0.271401 0.399139
O O1 0.036267 0.409250 0.112044
O O2 0.001692 0.573670 0.394166
O O3 0.809954 0.589838 0.046893
O O4 0.672255 0.368271 0.983150
O O5 0.585169 0.421273 0.626052
O O6 0.650757 0.694154 0.797633
O O7 0.378622 0.161660 0.366356
O O8 0.693582 0.231535 0.422928
O O9 0.347934 0.181949 0.764598
O O10 0.683823 0.107577 0.844686
O O11 0.690679 0.259291 0.168191
O O12 0.187848 0.998216 0.358336
O O13 0.000000 0.000000 0.000000
O O14 0.010766 0.827659 0.596385
O O15 0.000000 0.000000 0.500000
#
# Coordination Sequence:
#
# PCOD8020590 Si02
#       7
#     2   2   2   2   2   2   2
#     4  10  22  43  68 105 140 180 239 282 355 413
#     4   9  20  40  71 102 137 184 232 293 336 426
#     4  10  22  42  70 102 139 186 236 279 359 409
#     4  12  26  47  72 100 146 187 231 290 350 414
#     4  12  25  45  74 101 139 188 236 287 344 426
#     4  12  29  47  71 107 141 185 236 289 353 417
#     4  11  26  45  68 107 140 185 230 297 346 416
#
# _framework density 23.179777999999999
#
# number of rings (size 3 to 8) (size 9 to 14) (size 15 to 20)
#    0.000    1.143    1.429    3.429    4.000    5.143 
#    5.143    0.000    0.000    0.000    0.000    0.000 
#    0.000    0.000    0.000    0.000    0.000    0.000 
#
# Total GULP energy -173641.256705 kJ/mol
# GULP energy per Si atom -12402.946908 kJ/mol
# Density = 2.312702 g / cm^3
# Si number density = 23.179778 Si / 1000 Ang^3
#
#
#
# Elastic Constant Matrix: (Units=GPa)
#
#
# Indices 1 2 3 4 5 6 
#
# 1 103.2308 37.1645 35.8111 9.5947 5.7705 23.5189
# 2 37.1645 56.6182 18.6549 -4.0847 -3.7904 16.6760
# 3 35.8111 18.6549 125.7052 -12.4414 0.8281 19.8456
# 4 9.5947 -4.0847 -12.4414 34.9407 -2.5363 11.5876
# 5 5.7705 -3.7904 0.8281 -2.5363 44.3348 2.2373
# 6 23.5189 16.6760 19.8456 11.5876 2.2373 41.1130
#
#
#
# Elastic Compliance Matrix: (Units=1/GPa)
#
#
# Indices 1 2 3 4 5 6 
#
# 1 0.015186 -0.009066 -0.003329 -0.006128 -0.002964 -0.001515
# 2 -0.009066 0.026945 0.000899 0.009279 0.004454 -0.009035
# 3 -0.003329 0.000899 0.010240 0.006487 0.000957 -0.005284
# 4 -0.006128 0.009279 0.006487 0.038854 0.004428 -0.014582
# 5 -0.002964 0.004454 0.000957 0.004428 0.023715 -0.003112
# 6 -0.001515 -0.009035 -0.005284 -0.014582 -0.003112 0.035684
#
#
# Mechanical properties :
#
#
# Convention : Reuss Voigt Hill
#
# Bulk Modulus (GPa) = 34.03527 52.09056 43.06291
# Shear Modulus (GPa) = 27.26163 37.00595 32.13379
#
# Velocity S-wave (km/s) = 3.43315 3.99993 3.72732
# Velocity P-wave (km/s) = 5.51637 6.62222 6.09443
#
# Compressibility (1/GPa) = 0.02938129
#
# Stress axis : x y z
#
# Youngs Moduli (GPa) = 65.85086 37.11215 97.65770
#
# Poissons Ratio (x) = 0.33645 0.32506
# Poissons Ratio (y) = 0.59698 -0.08783
# Poissons Ratio (z) = 0.21919 -0.03338
#
# Static dielectric constant tensor:
#      x y z
#    x 4.254830 -0.092730 0.170510 
#    y -0.092730 4.034970 -0.095710 
#    z 0.170510 -0.095710 4.386230 
# 
# 
# High freq. dielectric constant tensor:
#      x y z
#    x 1.923600 -0.003140 0.008440 
#    y -0.003140 1.905010 -0.008120 
#    z 0.008440 -0.008120 1.931890 
# 
# From -- ./inp_files/190522.got.cif
#   From: 2010.06.25/outbox.cif.g09.slc.cpg/sg2_96_cif.got.tgz:190522.got - 2010.06.27 13:26:56.
