data_PCOD8020015
_publ_section_title
;
Structure prediction by ZEFSAII (Michael W. Deem and Ramdas Pophale) SiO2 
 PCOD8020015
Probable space group: P -1
;
_chemical_formula_sum "Si O2"
_cell_formula_units_Z 14
_cell_length_a 6.973624
_cell_length_b 13.370524
_cell_length_c 7.261823
_cell_angle_alpha 63.658171
_cell_angle_beta 64.527900
_cell_angle_gamma 80.286130
_cell_volume 547.603701
_symmetry_space_group_name_H-M "P -1"
_symmetry_group_IT_number 2
_symmetry_cell_setting 'triclinic'
loop_
_space_group_symop_operation_xyz
x,y,z
-x,-y,-z
loop_
_atom_site_type_symbol
_atom_site_label
_atom_site_fract_x
_atom_site_fract_y
_atom_site_fract_z
Si Si1 0.163394 0.751571 0.474495
Si Si2 0.128138 0.360472 0.892936
Si Si3 0.261836 0.965844 0.066825
Si Si4 0.681242 0.925787 0.413471
Si Si5 0.733085 0.683388 0.531013
Si Si6 0.087055 0.133070 0.264590
Si Si7 0.309148 0.577497 0.803220
O O1 0.234725 0.830686 0.209040
O O2 0.313810 0.650476 0.548416
O O3 0.929472 0.693870 0.583384
O O4 0.148222 0.829450 0.603973
O O5 0.171401 0.367938 0.652312
O O6 0.275452 0.449054 0.869548
O O7 0.200726 0.239009 0.031202
O O8 0.877412 0.382944 0.015196
O O9 0.090348 0.026509 0.217339
O O10 0.500000 0.000000 0.000000
O O11 0.205923 0.999637 0.854458
O O12 0.624881 0.804618 0.444581
O O13 0.818044 0.902192 0.552656
O O14 0.500000 0.000000 0.500000
O O15 0.549633 0.599746 0.762967
#
# Coordination Sequence:
#
# PCOD8020015 Si02
#       7
#     2   2   2   2   2   2   2
#     4  10  25  42  65 105 135 176 239 283 342 430
#     4  10  22  45  70  99 133 186 232 284 353 411
#     4  12  22  41  68  96 139 188 223 287 357 404
#     4  11  23  38  63 102 136 178 235 273 340 425
#     4  11  23  44  67 101 140 181 231 288 349 413
#     4  10  22  42  64  95 139 176 229 286 341 410
#     4  10  23  45  72  97 140 183 230 293 350 405
#
# _framework density 25.565933000000001
#
# number of rings (size 3 to 8) (size 9 to 14) (size 15 to 20)
#    0.000    1.429    2.857    1.714    0.000    4.000 
#    5.143   11.429    0.000    0.000    0.000    0.000 
#    0.000    0.000    0.000    0.000    0.000    0.000 
#
# Total GULP energy -173437.476024 kJ/mol
# GULP energy per Si atom -12388.391145 kJ/mol
# Density = 2.550774 g / cm^3
# Si number density = 25.565933 Si / 1000 Ang^3
#
#
#
# Elastic Constant Matrix: (Units=GPa)
#
#
# Indices 1 2 3 4 5 6 
#
# 1 56.1593 6.4373 4.5812 1.9400 -16.6001 15.5757
# 2 6.4373 91.6232 18.4055 7.0268 -9.1636 2.9481
# 3 4.5812 18.4055 95.1073 2.9147 -11.3639 18.6995
# 4 1.9400 7.0268 2.9147 52.1761 7.3726 1.3058
# 5 -16.6001 -9.1636 -11.3639 7.3726 42.3062 -5.3603
# 6 15.5757 2.9481 18.6995 1.3058 -5.3603 20.7159
#
#
#
# Elastic Compliance Matrix: (Units=1/GPa)
#
#
# Indices 1 2 3 4 5 6 
#
# 1 0.025989 -0.000971 0.004116 -0.001787 0.008777 -0.020734
# 2 -0.000971 0.011723 -0.002265 -0.001754 0.002078 0.001754
# 3 0.004116 -0.002265 0.014018 -0.000715 0.003169 -0.014561
# 4 -0.001787 -0.001754 -0.000715 0.020198 -0.004829 -0.000285
# 5 0.008777 0.002078 0.003169 -0.004829 0.028977 -0.001954
# 6 -0.020734 0.001754 -0.014561 -0.000285 -0.001954 0.076267
#
#
# Mechanical properties :
#
#
# Convention : Reuss Voigt Hill
#
# Bulk Modulus (GPa) = 18.69484 33.52644 26.11064
# Shear Modulus (GPa) = 25.87447 37.27071 31.57259
#
# Velocity S-wave (km/s) = 3.18475 3.82229 3.51799
# Velocity P-wave (km/s) = 4.56638 5.71157 5.17078
#
# Compressibility (1/GPa) = 0.05349068
#
# Stress axis : x y z
#
# Youngs Moduli (GPa) = 38.47845 85.30015 71.33724
#
# Poissons Ratio (x) = 0.08281 -0.29363
# Poissons Ratio (y) = 0.03735 0.16157
# Poissons Ratio (z) = -0.15838 0.19319
#
# Static dielectric constant tensor:
#      x y z
#    x 4.160550 0.146380 -0.074970 
#    y 0.146380 4.871870 0.136750 
#    z -0.074970 0.136750 5.079730 
# 
# 
# High freq. dielectric constant tensor:
#      x y z
#    x 2.004190 -0.003360 -0.000390 
#    y -0.003360 2.025620 -0.010080 
#    z -0.000390 -0.010080 2.033610 
# 
# From -- ./inp_files/195529.got.cif
#   From: 2010.06.25/outbox.cif.g09.slc.cpg/sg2_98_cif.got.tgz:195529.got - 2010.06.27 13:26:56.
