data_PCOD8020910
_publ_section_title
;
Structure prediction by ZEFSAII (Michael W. Deem and Ramdas Pophale) SiO2 
 PCOD8020910
Probable space group: P -1
;
_chemical_formula_sum "Si O2"
_cell_formula_units_Z 12
_cell_length_a 15.295756
_cell_length_b 7.902336
_cell_length_c 13.300792
_cell_angle_alpha 44.994247
_cell_angle_beta 25.105202
_cell_angle_gamma 40.436617
_cell_volume 441.481877
_symmetry_space_group_name_H-M "P -1"
_symmetry_group_IT_number 2
_symmetry_cell_setting 'triclinic'
loop_
_space_group_symop_operation_xyz
x,y,z
-x,-y,-z
loop_
_atom_site_type_symbol
_atom_site_label
_atom_site_fract_x
_atom_site_fract_y
_atom_site_fract_z
Si Si1 0.983540 0.870399 0.765623
Si Si2 0.316775 0.143135 0.760122
Si Si3 0.276329 0.239190 0.085835
Si Si4 0.533005 0.601482 0.665535
Si Si5 0.355014 0.049848 0.313689
Si Si6 0.868687 0.403817 0.582625
O O1 0.824504 0.185364 0.785048
O O2 0.933463 0.782245 0.965096
O O3 0.925108 0.713485 0.803491
O O4 0.240037 0.842753 0.502944
O O5 0.327433 0.390506 0.585048
O O6 0.374608 0.901342 0.726832
O O7 0.474685 0.071314 0.722970
O O8 0.358095 0.469844 0.886619
O O9 0.492722 0.962784 0.942378
O O10 0.138392 0.262962 0.325218
O O11 0.706574 0.467956 0.629523
O O12 0.174926 0.338190 0.414106
#
# Coordination Sequence:
#
# PCOD8020910 Si02
#       6
#     2   2   2   2   2   2
#     4  11  23  40  64  96 128 164 210 259 316 373
#     4   9  22  42  67  92 124 171 212 256 313 374
#     4  11  24  40  65  96 128 165 208 261 315 371
#     4  10  22  43  65  93 128 166 214 259 311 374
#     4  10  23  41  63  94 129 165 209 257 312 374
#     4  11  24  42  66  94 127 168 209 259 314 370
#
# _framework density 27.181183999999998
#
# number of rings (size 3 to 8) (size 9 to 14) (size 15 to 20)
#    0.000    1.667    0.000    3.000    0.000   14.000 
#    0.000   10.000    0.000    0.000    0.000    0.000 
#    0.000    0.000    0.000    0.000    0.000    0.000 
#
# Total GULP energy -148790.174260 kJ/mol
# GULP energy per Si atom -12399.181188 kJ/mol
# Density = 2.711932 g / cm^3
# Si number density = 27.181184 Si / 1000 Ang^3
#
#
#
# Elastic Constant Matrix: (Units=GPa)
#
#
# Indices 1 2 3 4 5 6 
#
# 1 120.2047 27.0317 66.6930 -15.2962 7.3657 31.7374
# 2 27.0317 83.0870 25.6047 -22.3789 -7.2475 9.6076
# 3 66.6930 25.6047 169.4005 -28.8306 10.7384 31.9659
# 4 -15.2962 -22.3789 -28.8306 53.5056 -1.2705 -1.7607
# 5 7.3657 -7.2475 10.7384 -1.2705 54.1104 -8.6908
# 6 31.7374 9.6076 31.9659 -1.7607 -8.6908 38.4376
#
#
#
# Elastic Compliance Matrix: (Units=1/GPa)
#
#
# Indices 1 2 3 4 5 6 
#
# 1 0.012896 -0.002389 -0.002831 0.000822 -0.002827 -0.008298
# 2 -0.002389 0.014630 -0.000428 0.005245 0.002405 -0.000544
# 3 -0.002831 -0.000428 0.008804 0.003533 -0.002172 -0.005206
# 4 0.000822 0.005245 0.003533 0.022888 -0.000203 -0.003925
# 5 -0.002827 0.002405 -0.002172 -0.000203 0.020942 0.008265
# 6 -0.008298 -0.000544 -0.005206 -0.003925 0.008265 0.039022
#
#
# Mechanical properties :
#
#
# Convention : Reuss Voigt Hill
#
# Bulk Modulus (GPa) = 39.94593 67.92787 53.93690
# Shear Modulus (GPa) = 36.01743 46.10158 41.05951
#
# Velocity S-wave (km/s) = 3.64412 4.12282 3.89084
# Velocity P-wave (km/s) = 5.69511 6.90714 6.33020
#
# Compressibility (1/GPa) = 0.02503384
#
# Stress axis : x y z
#
# Youngs Moduli (GPa) = 77.54459 68.35253 113.58714
#
# Poissons Ratio (x) = 0.16328 0.32158
# Poissons Ratio (y) = 0.18524 0.04861
# Poissons Ratio (z) = 0.21954 0.02925
#
# Static dielectric constant tensor:
#      x y z
#    x 5.188300 0.209600 0.181330 
#    y 0.209600 4.919110 0.264220 
#    z 0.181330 0.264220 5.338810 
# 
# 
# High freq. dielectric constant tensor:
#      x y z
#    x 2.129890 0.007050 -0.000210 
#    y 0.007050 2.105870 0.015340 
#    z -0.000210 0.015340 2.113950 
# 
# From -- ./inp_files/317994.got.cif
#   From: 2010.06.25/outbox.cif.g09.slc.cpg/sg2_159_cif.got.tgz:317994.got - 2010.06.27 13:26:56.
