data_PCOD8020687
_publ_section_title
;
Structure prediction by ZEFSAII (Michael W. Deem and Ramdas Pophale) SiO2 
 PCOD8020687
Probable space group: P -1
;
_chemical_formula_sum "Si O2"
_cell_formula_units_Z 14
_cell_length_a 8.382020
_cell_length_b 11.779836
_cell_length_c 18.567931
_cell_angle_alpha 21.232192
_cell_angle_beta 72.821967
_cell_angle_gamma 70.917571
_cell_volume 627.232716
_symmetry_space_group_name_H-M "P -1"
_symmetry_group_IT_number 2
_symmetry_cell_setting 'triclinic'
loop_
_space_group_symop_operation_xyz
x,y,z
-x,-y,-z
loop_
_atom_site_type_symbol
_atom_site_label
_atom_site_fract_x
_atom_site_fract_y
_atom_site_fract_z
Si Si1 0.334202 0.791140 0.314908
Si Si2 0.522253 0.074237 0.536662
Si Si3 0.881396 0.735045 0.686170
Si Si4 0.203250 0.264926 0.553739
Si Si5 0.989115 0.356827 0.766779
Si Si6 0.017816 0.269510 0.066342
Si Si7 0.364371 0.480906 0.639917
O O1 0.273584 0.458684 0.494321
O O2 0.362386 0.763111 0.413719
O O3 0.508511 0.819222 0.231886
O O4 0.211255 0.111633 0.125132
O O5 0.349750 0.041059 0.621475
O O6 0.560146 0.423879 0.349134
O O7 0.500000 0.000000 0.500000
O O8 0.693610 0.853556 0.671385
O O9 0.860526 0.572741 0.708514
O O10 0.000000 0.000000 0.500000
O O11 0.973858 0.473348 0.881416
O O12 0.086539 0.544588 0.359516
O O13 0.090806 0.015864 0.746011
O O14 0.177772 0.421330 0.712803
O O15 0.000000 0.000000 0.000000
O O16 0.000000 0.500000 0.000000
#
# Coordination Sequence:
#
# PCOD8020687 Si02
#       7
#     2   2   2   2   2   2   2
#     4  10  22  44  70 101 136 175 225 283 334 400
#     4  11  23  44  71  99 135 182 226 287 339 398
#     4  12  25  45  69  95 139 178 224 282 342 403
#     4  11  24  45  71  98 139 179 230 278 336 412
#     4  12  24  42  68 104 137 180 223 272 343 404
#     4  12  25  42  71 101 134 179 229 281 340 403
#     4  10  22  42  71  98 140 177 224 280 336 403
#
# _framework density 22.320264000000002
#
# number of rings (size 3 to 8) (size 9 to 14) (size 15 to 20)
#    0.000    0.857    4.286    3.000    2.000    0.571 
#    5.143    2.143    0.000    0.000    0.000    0.000 
#    0.000    0.000    0.000    0.000    0.000    0.000 
#
# Total GULP energy -173470.453217 kJ/mol
# GULP energy per Si atom -12390.746658 kJ/mol
# Density = 2.226946 g / cm^3
# Si number density = 22.320264 Si / 1000 Ang^3
#
#
#
# Elastic Constant Matrix: (Units=GPa)
#
#
# Indices 1 2 3 4 5 6 
#
# 1 105.0703 30.3545 31.3801 3.4537 20.2841 -20.0782
# 2 30.3545 112.1731 18.3240 -7.9646 6.3778 -6.7007
# 3 31.3801 18.3240 109.6219 4.2584 22.8836 -7.7093
# 4 3.4537 -7.9646 4.2584 27.2557 -3.4173 6.9679
# 5 20.2841 6.3778 22.8836 -3.4173 30.5326 -8.5916
# 6 -20.0782 -6.7007 -7.7093 6.9679 -8.5916 55.9014
#
#
#
# Elastic Compliance Matrix: (Units=1/GPa)
#
#
# Indices 1 2 3 4 5 6 
#
# 1 0.012826 -0.002942 -0.001472 -0.003954 -0.006237 0.003585
# 2 -0.002942 0.010098 -0.001244 0.003737 0.001108 -0.000314
# 3 -0.001472 -0.001244 0.011473 -0.002955 -0.007665 0.000095
# 4 -0.003954 0.003737 -0.002955 0.041018 0.007133 -0.005396
# 5 -0.006237 0.001108 -0.007665 0.007133 0.043968 0.002704
# 6 0.003585 -0.000314 0.000095 -0.005396 0.002704 0.020240
#
#
# Mechanical properties :
#
#
# Convention : Reuss Voigt Hill
#
# Bulk Modulus (GPa) = 43.32742 54.10917 48.71829
# Shear Modulus (GPa) = 31.51913 39.19172 35.35543
#
# Velocity S-wave (km/s) = 3.76191 4.19487 3.98427
# Velocity P-wave (km/s) = 6.19057 6.91067 6.56051
#
# Compressibility (1/GPa) = 0.02308007
#
# Stress axis : x y z
#
# Youngs Moduli (GPa) = 77.96519 99.03100 87.15976
#
# Poissons Ratio (x) = 0.29138 0.12831
# Poissons Ratio (y) = 0.22940 0.10844
# Poissons Ratio (z) = 0.11478 0.12321
#
# Static dielectric constant tensor:
#      x y z
#    x 4.374120 -0.020290 0.308070 
#    y -0.020290 4.599300 0.007660 
#    z 0.308070 0.007660 3.774130 
# 
# 
# High freq. dielectric constant tensor:
#      x y z
#    x 1.903090 -0.009770 0.012210 
#    y -0.009770 1.908560 -0.005360 
#    z 0.012210 -0.005360 1.837170 
# 
# From -- ./inp_files/174116.got.cif
#   From: 2010.06.25/outbox.cif.g09.slc.cpg/sg2_88_cif.got.tgz:174116.got - 2010.06.27 13:26:56.
