data_PCOD8020937
_publ_section_title
;
Structure prediction by ZEFSAII (Michael W. Deem and Ramdas Pophale) SiO2 
 PCOD8020937
Probable space group: P -1
;
_chemical_formula_sum "Si O2"
_cell_formula_units_Z 14
_cell_length_a 7.382592
_cell_length_b 5.306720
_cell_length_c 18.797893
_cell_angle_alpha 124.731577
_cell_angle_beta 66.861526
_cell_angle_gamma 116.653989
_cell_volume 531.375809
_symmetry_space_group_name_H-M "P -1"
_symmetry_group_IT_number 2
_symmetry_cell_setting 'triclinic'
loop_
_space_group_symop_operation_xyz
x,y,z
-x,-y,-z
loop_
_atom_site_type_symbol
_atom_site_label
_atom_site_fract_x
_atom_site_fract_y
_atom_site_fract_z
Si Si1 0.893493 0.849173 0.879798
Si Si2 0.813004 0.436123 0.421195
Si Si3 0.000615 0.306381 0.701895
Si Si4 0.459368 0.713017 0.891027
Si Si5 0.612894 0.752229 0.296891
Si Si6 0.247186 0.348598 0.386326
Si Si7 0.256956 0.256961 0.965867
O O1 0.951665 0.638772 0.774968
O O2 0.694830 0.943314 0.896913
O O3 0.080391 0.167267 0.917259
O O4 0.837098 0.652357 0.931875
O O5 0.707864 0.564329 0.523588
O O6 0.879682 0.703210 0.392598
O O7 0.022086 0.367788 0.402724
O O8 0.641327 0.131179 0.362591
O O9 0.158700 0.279284 0.733577
O O10 0.779913 0.027179 0.686505
O O11 0.449670 0.398482 0.795190
O O12 0.327191 0.933799 0.916880
O O13 0.418570 0.572223 0.956875
O O14 0.438752 0.567426 0.349258
#
# Coordination Sequence:
#
# PCOD8020937 Si02
#       7
#     2   2   2   2   2   2   2
#     4  11  25  45  74 101 148 186 240 298 364 420
#     4  10  22  43  65  97 137 181 233 295 353 427
#     4  11  23  42  65 102 137 183 234 297 355 428
#     4  12  26  47  74 105 148 186 246 292 366 425
#     4  11  24  40  67  99 141 182 239 290 355 431
#     4  10  23  41  67  97 134 183 235 288 363 424
#     4  11  27  49  71 110 141 193 241 301 354 438
#
# _framework density 26.346702000000001
#
# number of rings (size 3 to 8) (size 9 to 14) (size 15 to 20)
#    0.000    1.143    1.429    3.429    2.000    6.286 
#    5.143    0.000    0.000    0.000    0.000    0.000 
#    0.000    0.000    0.000    0.000    0.000    0.000 
#
# Total GULP energy -173521.877605 kJ/mol
# GULP energy per Si atom -12394.419829 kJ/mol
# Density = 2.628674 g / cm^3
# Si number density = 26.346702 Si / 1000 Ang^3
#
#
#
# Elastic Constant Matrix: (Units=GPa)
#
#
# Indices 1 2 3 4 5 6 
#
# 1 25.8407 13.6224 5.6096 1.8440 -1.0907 8.2879
# 2 13.6224 80.1386 -2.9528 2.8000 -12.0788 14.0645
# 3 5.6096 -2.9528 112.4424 8.6887 -0.2007 1.1285
# 4 1.8440 2.8000 8.6887 37.4485 11.1357 9.8789
# 5 -1.0907 -12.0788 -0.2007 11.1357 29.3156 -4.3034
# 6 8.2879 14.0645 1.1285 9.8789 -4.3034 40.3498
#
#
#
# Elastic Compliance Matrix: (Units=1/GPa)
#
#
# Indices 1 2 3 4 5 6 
#
# 1 0.045058 -0.006941 -0.002495 0.001741 -0.002964 -0.007508
# 2 -0.006941 0.015216 0.000957 -0.002241 0.006478 -0.002665
# 3 -0.002495 0.000957 0.009250 -0.002745 0.001519 0.000754
# 4 0.001741 -0.002241 -0.002745 0.034535 -0.015405 -0.009598
# 5 -0.002964 0.006478 0.001519 -0.015405 0.043519 0.006721
# 6 -0.007508 -0.002665 0.000754 -0.009598 0.006721 0.030300
#
#
# Mechanical properties :
#
#
# Convention : Reuss Voigt Hill
#
# Bulk Modulus (GPa) = 19.02311 27.88667 23.45489
# Shear Modulus (GPa) = 23.54523 34.89895 29.22209
#
# Velocity S-wave (km/s) = 2.99267 3.64346 3.33398
# Velocity P-wave (km/s) = 4.37920 5.32045 4.87261
#
# Compressibility (1/GPa) = 0.05256765
#
# Stress axis : x y z
#
# Youngs Moduli (GPa) = 22.19364 65.72055 108.10430
#
# Poissons Ratio (x) = 0.45617 0.26968
# Poissons Ratio (y) = 0.15405 -0.10349
# Poissons Ratio (z) = 0.05537 -0.06292
#
# Static dielectric constant tensor:
#      x y z
#    x 4.754430 0.404980 0.230830 
#    y 0.404980 4.579640 0.103540 
#    z 0.230830 0.103540 5.005900 
# 
# 
# High freq. dielectric constant tensor:
#      x y z
#    x 2.061520 0.028620 0.012220 
#    y 0.028620 2.048460 0.005110 
#    z 0.012220 0.005110 2.068930 
# 
# From -- ./inp_files/553828.got.cif
#   From: 2010.06.25/outbox.cif.g09.slc.cpg/sg2_277_cif.got.tgz:553828.got - 2010.06.27 13:26:56.
