data_PCOD8020702
_publ_section_title
;
Structure prediction by ZEFSAII (Michael W. Deem and Ramdas Pophale) SiO2 
 PCOD8020702
Probable space group: P -1
;
_chemical_formula_sum "Si O2"
_cell_formula_units_Z 16
_cell_length_a 17.595212
_cell_length_b 11.415438
_cell_length_c 9.649637
_cell_angle_alpha 81.107646
_cell_angle_beta 37.012619
_cell_angle_gamma 52.437625
_cell_volume 663.956139
_symmetry_space_group_name_H-M "P -1"
_symmetry_group_IT_number 2
_symmetry_cell_setting 'triclinic'
loop_
_space_group_symop_operation_xyz
x,y,z
-x,-y,-z
loop_
_atom_site_type_symbol
_atom_site_label
_atom_site_fract_x
_atom_site_fract_y
_atom_site_fract_z
Si Si1 0.346905 0.940966 0.064057
Si Si2 0.794307 0.586232 0.344177
Si Si3 0.790646 0.385547 0.160245
Si Si4 0.500422 0.585231 0.293393
Si Si5 0.769198 0.227443 0.751156
Si Si6 0.297587 0.976439 0.431883
Si Si7 0.003480 0.245180 0.279993
Si Si8 0.682643 0.910201 0.352171
O O1 0.369441 0.781201 0.087160
O O2 0.342973 0.002412 0.211674
O O3 0.125124 0.151700 0.268389
O O4 0.553196 0.822646 0.694268
O O5 0.764522 0.510831 0.284592
O O6 0.869363 0.661450 0.159169
O O7 0.894179 0.457251 0.366477
O O8 0.652866 0.527037 0.199728
O O9 0.697683 0.335435 0.366142
O O10 0.039953 0.170684 0.797688
O O11 0.396626 0.769217 0.320808
O O12 0.650684 0.385605 0.018357
O O13 0.817388 0.283857 0.544110
O O14 0.000000 0.000000 0.500000
O O15 0.413449 0.963623 0.388305
O O16 0.181350 0.089686 0.924942
O O17 0.500000 0.000000 0.500000
#
# Coordination Sequence:
#
# PCOD8020702 Si02
#       8
#     2   2   2   2   2   2   2   2
#     4  11  25  45  71 105 147 181 234 299 365 429
#     4  12  24  45  75 101 139 197 247 284 360 423
#     4  11  24  42  72 108 147 188 241 294 356 433
#     4  11  24  43  70 110 152 188 229 302 362 432
#     4  10  22  42  72 103 147 185 228 288 370 432
#     4  12  27  44  71 108 146 187 243 297 361 425
#     4  11  24  43  72 102 135 189 240 289 352 428
#     4  12  26  49  74 100 142 194 248 300 349 422
#
# _framework density 24.097978000000001
#
# number of rings (size 3 to 8) (size 9 to 14) (size 15 to 20)
#    0.000    0.750    3.750    3.750    1.750    3.500 
#    0.000    0.625    0.000    0.000    0.000    0.000 
#    0.000    0.000    0.000    0.000    0.000    0.000 
#
# Total GULP energy -198344.093240 kJ/mol
# GULP energy per Si atom -12396.505828 kJ/mol
# Density = 2.404313 g / cm^3
# Si number density = 24.097978 Si / 1000 Ang^3
#
#
#
# Elastic Constant Matrix: (Units=GPa)
#
#
# Indices 1 2 3 4 5 6 
#
# 1 131.1990 30.3682 37.4991 -6.1473 23.1002 -10.7868
# 2 30.3682 123.0169 30.1540 -8.9402 9.1986 -11.2205
# 3 37.4991 30.1540 92.4301 3.3331 13.1377 -6.6905
# 4 -6.1473 -8.9402 3.3331 44.4239 4.5390 2.7131
# 5 23.1002 9.1986 13.1377 4.5390 35.3330 -7.3798
# 6 -10.7868 -11.2205 -6.6905 2.7131 -7.3798 28.0275
#
#
#
# Elastic Compliance Matrix: (Units=1/GPa)
#
#
# Indices 1 2 3 4 5 6 
#
# 1 0.009757 -0.001096 -0.002870 0.001788 -0.005019 0.001137
# 2 -0.001096 0.009392 -0.002430 0.001828 -0.000551 0.002436
# 3 -0.002870 -0.002430 0.013176 -0.001711 -0.002024 0.000700
# 4 0.001788 0.001828 -0.001711 0.023878 -0.004601 -0.002511
# 5 -0.005019 -0.000551 -0.002024 -0.004601 0.034511 0.006897
# 6 0.001137 0.002436 0.000700 -0.002511 0.006897 0.039318
#
#
# Mechanical properties :
#
#
# Convention : Reuss Voigt Hill
#
# Bulk Modulus (GPa) = 51.19807 60.29871 55.74839
# Shear Modulus (GPa) = 33.48187 38.13187 35.80687
#
# Velocity S-wave (km/s) = 3.73152 3.98221 3.85890
# Velocity P-wave (km/s) = 6.31328 6.79858 6.56042
#
# Compressibility (1/GPa) = 0.01953198
#
# Stress axis : x y z
#
# Youngs Moduli (GPa) = 102.49231 106.47861 75.89439
#
# Poissons Ratio (x) = 0.11673 0.21778
# Poissons Ratio (y) = 0.11236 0.18446
# Poissons Ratio (z) = 0.29411 0.25879
#
# Static dielectric constant tensor:
#      x y z
#    x 4.376570 -0.033560 -0.207800 
#    y -0.033560 5.040290 -0.302700 
#    z -0.207800 -0.302700 4.882210 
# 
# 
# High freq. dielectric constant tensor:
#      x y z
#    x 1.943650 -0.015820 -0.009540 
#    y -0.015820 1.971490 -0.006910 
#    z -0.009540 -0.006910 1.980490 
# 
# From -- ./inp_files/333210.got.cif
#   From: 2010.06.25/outbox.cif.g09.slc.cpg/sg2_167_cif.got.tgz:333210.got - 2010.06.27 13:26:56.
