data_PCOD8020333
_publ_section_title
;
Structure prediction by ZEFSAII (Michael W. Deem and Ramdas Pophale) SiO2 
 PCOD8020333
Probable space group: P -1
;
_chemical_formula_sum "Si O2"
_cell_formula_units_Z 14
_cell_length_a 8.220651
_cell_length_b 12.950970
_cell_length_c 11.577280
_cell_angle_alpha 62.723485
_cell_angle_beta 144.378705
_cell_angle_gamma 119.072427
_cell_volume 622.567464
_symmetry_space_group_name_H-M "P -1"
_symmetry_group_IT_number 2
_symmetry_cell_setting 'triclinic'
loop_
_space_group_symop_operation_xyz
x,y,z
-x,-y,-z
loop_
_atom_site_type_symbol
_atom_site_label
_atom_site_fract_x
_atom_site_fract_y
_atom_site_fract_z
Si Si1 0.796342 0.584944 0.820883
Si Si2 0.235893 0.423705 0.657144
Si Si3 0.944369 0.819135 0.914958
Si Si4 0.924929 0.699417 0.609306
Si Si5 0.411923 0.247677 0.026738
Si Si6 0.898811 0.935088 0.608092
Si Si7 0.483175 0.997394 0.822568
O O1 0.506783 0.531999 0.747197
O O2 0.974297 0.706012 0.916879
O O3 0.751213 0.604161 0.648956
O O4 0.000000 0.500000 0.000000
O O5 0.203233 0.338061 0.570999
O O6 0.000000 0.500000 0.500000
O O7 0.254754 0.335815 0.820209
O O8 0.739620 0.779103 0.923965
O O9 0.803167 0.898604 0.702360
O O10 0.264010 0.885824 0.100191
O O11 0.883036 0.828401 0.559430
O O12 0.256110 0.690033 0.801230
O O13 0.384800 0.118162 0.019272
O O14 0.238911 0.002598 0.776194
O O15 0.687461 0.014028 0.394387
#
# Coordination Sequence:
#
# PCOD8020333 Si02
#       7
#     2   2   2   2   2   2   2
#     4  11  24  44  70  97 129 177 228 272 325 392
#     4  12  27  44  68  98 136 179 224 273 332 392
#     4  11  24  40  67  95 136 171 214 278 332 389
#     4  10  23  43  68  95 132 173 223 277 328 390
#     4  11  25  43  64 101 134 177 218 272 336 397
#     4   9  22  41  66 102 124 167 226 272 327 397
#     4  10  22  42  67  95 133 171 219 271 332 395
#
# _framework density 22.487524000000001
#
# number of rings (size 3 to 8) (size 9 to 14) (size 15 to 20)
#    0.000    1.429    1.429    2.143    4.000    8.571 
#    0.000    0.000    0.000    0.000    0.000    0.000 
#    0.000    0.000    0.000    0.000    0.000    0.000 
#
# Total GULP energy -173497.683559 kJ/mol
# GULP energy per Si atom -12392.691683 kJ/mol
# Density = 2.243634 g / cm^3
# Si number density = 22.487524 Si / 1000 Ang^3
#
#
#
# Elastic Constant Matrix: (Units=GPa)
#
#
# Indices 1 2 3 4 5 6 
#
# 1 123.6639 35.1734 41.9264 -14.4142 -17.5288 31.8729
# 2 35.1734 85.0457 46.2342 -3.0787 -0.4696 22.7309
# 3 41.9264 46.2342 85.0618 -22.7892 0.5981 10.0052
# 4 -14.4142 -3.0787 -22.7892 42.3516 5.0643 -7.2830
# 5 -17.5288 -0.4696 0.5981 5.0643 39.0539 -3.5869
# 6 31.8729 22.7309 10.0052 -7.2830 -3.5869 35.5747
#
#
#
# Elastic Compliance Matrix: (Units=1/GPa)
#
#
# Indices 1 2 3 4 5 6 
#
# 1 0.013172 0.000415 -0.005830 -0.000984 0.005206 -0.010104
# 2 0.000415 0.021099 -0.012147 -0.006946 0.000442 -0.011815
# 3 -0.005830 -0.012147 0.023385 0.011622 -0.003857 0.008398
# 4 -0.000984 -0.006946 0.011622 0.030871 -0.003974 0.007970
# 5 0.005206 0.000442 -0.003857 -0.003974 0.028355 -0.001817
# 6 -0.010104 -0.011815 0.008398 0.007970 -0.001817 0.043798
#
#
# Mechanical properties :
#
#
# Convention : Reuss Voigt Hill
#
# Bulk Modulus (GPa) = 44.38001 60.04883 52.21442
# Shear Modulus (GPa) = 24.59230 34.75852 29.67541
#
# Velocity S-wave (km/s) = 3.31055 3.93578 3.63662
# Velocity P-wave (km/s) = 5.86440 6.88585 6.39555
#
# Compressibility (1/GPa) = 0.02253267
#
# Stress axis : x y z
#
# Youngs Moduli (GPa) = 75.91694 47.39536 42.76253
#
# Poissons Ratio (x) = -0.01968 0.24930
# Poissons Ratio (y) = -0.03152 0.51944
# Poissons Ratio (z) = 0.44259 0.57572
#
# Static dielectric constant tensor:
#      x y z
#    x 4.002860 0.185680 -0.176660 
#    y 0.185680 4.114000 -0.148330 
#    z -0.176660 -0.148330 3.953230 
# 
# 
# High freq. dielectric constant tensor:
#      x y z
#    x 1.885580 0.019640 -0.007430 
#    y 0.019640 1.895670 -0.006090 
#    z -0.007430 -0.006090 1.886420 
# 
# From -- ./inp_files/138498.got.cif
#   From: 2010.06.25/outbox.cif.g09.slc.cpg/sg2_70_cif.got.tgz:138498.got - 2010.06.27 13:26:56.
