data_PCOD8020308
_publ_section_title
;
Structure prediction by ZEFSAII (Michael W. Deem and Ramdas Pophale) SiO2 
 PCOD8020308
Probable space group: P -1
;
_chemical_formula_sum "Si O2"
_cell_formula_units_Z 14
_cell_length_a 11.872510
_cell_length_b 15.025806
_cell_length_c 20.274362
_cell_angle_alpha 29.246269
_cell_angle_beta 159.951183
_cell_angle_gamma 151.440088
_cell_volume 567.408214
_symmetry_space_group_name_H-M "P -1"
_symmetry_group_IT_number 2
_symmetry_cell_setting 'triclinic'
loop_
_space_group_symop_operation_xyz
x,y,z
-x,-y,-z
loop_
_atom_site_type_symbol
_atom_site_label
_atom_site_fract_x
_atom_site_fract_y
_atom_site_fract_z
Si Si1 0.615741 0.048874 0.120426
Si Si2 0.570373 0.220504 0.375272
Si Si3 0.780566 0.185806 0.744038
Si Si4 0.686461 0.747099 0.269867
Si Si5 0.498517 0.801446 0.903170
Si Si6 0.355437 0.337291 0.314432
Si Si7 0.794642 0.600147 0.044438
O O1 0.609346 0.088797 0.167717
O O2 0.963629 0.192515 0.183580
O O3 0.604626 0.827922 0.243469
O O4 0.293265 0.086477 0.881277
O O5 0.567799 0.342902 0.360194
O O6 0.954698 0.299488 0.501671
O O7 0.500000 0.000000 0.500000
O O8 0.297846 0.252474 0.151691
O O9 0.523604 0.272482 0.511674
O O10 0.862406 0.273278 0.807421
O O11 0.575312 0.951043 0.786718
O O12 0.132358 0.234846 0.860899
O O13 0.367965 0.553463 0.198905
O O14 0.182139 0.592382 0.855613
O O15 0.500000 0.500000 0.000000
#
# Coordination Sequence:
#
# PCOD8020308 Si02
#       7
#     2   2   2   2   2   2   2
#     4  11  25  41  64  98 138 181 221 282 339 408
#     4  12  25  43  75 103 134 173 238 284 332 400
#     4  10  24  41  73  96 132 180 230 277 339 399
#     4  11  24  43  66  96 138 176 223 279 347 397
#     4  10  22  42  67  93 134 177 226 271 342 398
#     4  12  25  44  68 102 133 179 229 284 334 405
#     4  10  23  43  69 101 134 174 222 284 335 400
#
# _framework density 24.673594999999999
#
# number of rings (size 3 to 8) (size 9 to 14) (size 15 to 20)
#    0.000    1.143    1.429    4.286    8.000    2.857 
#    0.000    1.429    0.000    0.000    0.000    0.000 
#    0.000    0.000    0.000    0.000    0.000    0.000 
#
# Total GULP energy -173542.128369 kJ/mol
# GULP energy per Si atom -12395.866312 kJ/mol
# Density = 2.461744 g / cm^3
# Si number density = 24.673595 Si / 1000 Ang^3
#
#
#
# Elastic Constant Matrix: (Units=GPa)
#
#
# Indices 1 2 3 4 5 6 
#
# 1 109.6370 31.7092 37.7403 -13.8499 1.6340 -36.0578
# 2 31.7092 126.2147 16.2870 -23.8126 2.1623 -26.9612
# 3 37.7403 16.2870 80.5271 -8.6578 -19.2448 -14.5234
# 4 -13.8499 -23.8126 -8.6578 31.0719 -4.1912 3.1781
# 5 1.6340 2.1623 -19.2448 -4.1912 45.3850 -10.0616
# 6 -36.0578 -26.9612 -14.5234 3.1781 -10.0616 41.7765
#
#
#
# Elastic Compliance Matrix: (Units=1/GPa)
#
#
# Indices 1 2 3 4 5 6 
#
# 1 0.014790 0.000012 -0.004369 0.004318 0.000460 0.011036
# 2 0.000012 0.010833 0.000382 0.007959 0.001931 0.006994
# 3 -0.004369 0.000382 0.017815 0.004068 0.009077 0.004545
# 4 0.004318 0.007959 0.004068 0.041380 0.006964 0.008807
# 5 0.000460 0.001931 0.009077 0.006964 0.028907 0.011231
# 6 0.011036 0.006994 0.004545 0.008807 0.011231 0.041591
#
#
# Mechanical properties :
#
#
# Convention : Reuss Voigt Hill
#
# Bulk Modulus (GPa) = 28.17886 54.20574 41.19230
# Shear Modulus (GPa) = 28.55575 39.02284 33.78930
#
# Velocity S-wave (km/s) = 3.40566 3.98120 3.70462
# Velocity P-wave (km/s) = 5.18750 6.56887 5.91863
#
# Compressibility (1/GPa) = 0.03548759
#
# Stress axis : x y z
#
# Youngs Moduli (GPa) = 67.61416 92.30794 56.13225
#
# Poissons Ratio (x) = -0.00115 0.24527
# Poissons Ratio (y) = -0.00084 -0.02143
# Poissons Ratio (z) = 0.29544 -0.03524
#
# Static dielectric constant tensor:
#      x y z
#    x 4.370700 -0.435790 0.105190 
#    y -0.435790 5.486340 -0.089260 
#    z 0.105190 -0.089260 4.235640 
# 
# 
# High freq. dielectric constant tensor:
#      x y z
#    x 1.971730 -0.015350 -0.001000 
#    y -0.015350 1.999020 -0.012530 
#    z -0.001000 -0.012530 1.961950 
# 
# From -- ./inp_files/595638.got.cif
#   From: 2010.06.25/outbox.cif.g09.slc.cpg/sg2_298_cif.got.tgz:595638.got - 2010.06.27 13:26:56.
