data_PCOD8020600
_publ_section_title
;
Structure prediction by ZEFSAII (Michael W. Deem and Ramdas Pophale) SiO2 
 PCOD8020600
Probable space group: P -1
;
_chemical_formula_sum "Si O2"
_cell_formula_units_Z 14
_cell_length_a 9.110751
_cell_length_b 15.872386
_cell_length_c 5.227483
_cell_angle_alpha 104.811867
_cell_angle_beta 67.754200
_cell_angle_gamma 124.572720
_cell_volume 575.291560
_symmetry_space_group_name_H-M "P -1"
_symmetry_group_IT_number 2
_symmetry_cell_setting 'triclinic'
loop_
_space_group_symop_operation_xyz
x,y,z
-x,-y,-z
loop_
_atom_site_type_symbol
_atom_site_label
_atom_site_fract_x
_atom_site_fract_y
_atom_site_fract_z
Si Si1 0.844063 0.703720 0.128047
Si Si2 0.757197 0.903756 0.833623
Si Si3 0.618954 0.479388 0.104672
Si Si4 0.477326 0.307773 0.416856
Si Si5 0.929098 0.232314 0.483976
Si Si6 0.187799 0.980083 0.617138
Si Si7 0.186022 0.608246 0.402267
O O1 0.793378 0.589680 0.151385
O O2 0.668656 0.720283 0.273484
O O3 0.991183 0.775011 0.299621
O O4 0.917470 0.728853 0.811420
O O5 0.603861 0.783875 0.805072
O O6 0.963884 0.924816 0.731662
O O7 0.733200 0.962682 0.657831
O O8 0.711360 0.939928 0.156319
O O9 0.491052 0.410751 0.371749
O O10 0.500000 0.500000 0.000000
O O11 0.694895 0.410029 0.894845
O O12 0.684476 0.340220 0.393305
O O13 0.772208 0.112397 0.444499
O O14 0.851161 0.306711 0.616152
O O15 0.000000 0.500000 0.500000
#
# Coordination Sequence:
#
# PCOD8020600 Si02
#       7
#     2   2   2   2   2   2   2
#     4  12  25  44  74 103 145 186 243 285 354 432
#     4  10  23  41  73 104 138 180 245 297 349 414
#     4  12  26  45  72 105 142 190 242 296 347 432
#     4  12  27  44  73 107 143 192 240 298 356 424
#     4  12  26  46  73 108 146 191 230 299 365 420
#     4  10  22  42  70 106 139 179 239 302 352 415
#     4  12  28  46  70 105 151 191 235 293 361 433
#
# _framework density 24.335486
#
# number of rings (size 3 to 8) (size 9 to 14) (size 15 to 20)
#    0.000    0.571    4.286    3.000    8.000    1.143 
#    0.000    1.429    0.000    0.000    0.000    0.000 
#    0.000    0.000    0.000    0.000    0.000    0.000 
#
# Total GULP energy -173591.498633 kJ/mol
# GULP energy per Si atom -12399.392760 kJ/mol
# Density = 2.428010 g / cm^3
# Si number density = 24.335486 Si / 1000 Ang^3
#
#
#
# Elastic Constant Matrix: (Units=GPa)
#
#
# Indices 1 2 3 4 5 6 
#
# 1 89.0991 17.3456 24.8780 7.3916 4.3942 -0.0285
# 2 17.3456 122.5600 3.2246 30.9723 6.9568 -7.9293
# 3 24.8780 3.2246 81.1981 16.3992 11.0035 -1.9089
# 4 7.3916 30.9723 16.3992 43.4678 -1.1048 6.2824
# 5 4.3942 6.9568 11.0035 -1.1048 32.8978 11.6357
# 6 -0.0285 -7.9293 -1.9089 6.2824 11.6357 41.4995
#
#
#
# Elastic Compliance Matrix: (Units=1/GPa)
#
#
# Indices 1 2 3 4 5 6 
#
# 1 0.012647 -0.001994 -0.004058 0.000929 0.000409 -0.000814
# 2 -0.001994 0.011523 0.003015 -0.009920 -0.005407 0.005357
# 3 -0.004058 0.003015 0.016275 -0.008469 -0.007487 0.004703
# 4 0.000929 -0.009920 -0.008469 0.034837 0.009602 -0.010250
# 5 0.000409 -0.005407 -0.007487 0.009602 0.039201 -0.013822
# 6 -0.000814 0.005357 0.004703 -0.010250 -0.013822 0.030763
#
#
# Mechanical properties :
#
#
# Convention : Reuss Voigt Hill
#
# Bulk Modulus (GPa) = 29.09353 42.63930 35.86641
# Shear Modulus (GPa) = 30.71723 40.06697 35.39210
#
# Velocity S-wave (km/s) = 3.55666 4.06204 3.81772
# Velocity P-wave (km/s) = 5.37099 6.28965 5.84839
#
# Compressibility (1/GPa) = 0.03437190
#
# Stress axis : x y z
#
# Youngs Moduli (GPa) = 79.06919 86.78613 61.44544
#
# Poissons Ratio (x) = 0.17303 0.24934
# Poissons Ratio (y) = 0.15765 -0.18529
# Poissons Ratio (z) = 0.32085 -0.26170
#
# Static dielectric constant tensor:
#      x y z
#    x 4.190170 -0.013660 0.101740 
#    y -0.013660 4.794060 0.347860 
#    z 0.101740 0.347860 4.428070 
# 
# 
# High freq. dielectric constant tensor:
#      x y z
#    x 1.936520 -0.005470 0.014450 
#    y -0.005470 1.987290 0.015860 
#    z 0.014450 0.015860 1.972230 
# 
# From -- ./inp_files/39652.got.cif
#   From: 2010.06.25/outbox.cif.g09.slc.cpg/sg2_20_cif.got.tgz:39652.got - 2010.06.27 13:26:56.
