data_PCOD8020737
_publ_section_title
;
Structure prediction by ZEFSAII (Michael W. Deem and Ramdas Pophale) SiO2 
 PCOD8020737
Probable space group: P -1
;
_chemical_formula_sum "Si O2"
_cell_formula_units_Z 12
_cell_length_a 9.721264
_cell_length_b 9.097039
_cell_length_c 12.889781
_cell_angle_alpha 81.051429
_cell_angle_beta 35.808848
_cell_angle_gamma 60.982733
_cell_volume 516.378068
_symmetry_space_group_name_H-M "P -1"
_symmetry_group_IT_number 2
_symmetry_cell_setting 'triclinic'
loop_
_space_group_symop_operation_xyz
x,y,z
-x,-y,-z
loop_
_atom_site_type_symbol
_atom_site_label
_atom_site_fract_x
_atom_site_fract_y
_atom_site_fract_z
Si Si1 0.729753 0.220320 0.837511
Si Si2 0.279185 0.192219 0.051072
Si Si3 0.241426 0.287295 0.838677
Si Si4 0.151487 0.802253 0.560413
Si Si5 0.868406 0.184951 0.992977
Si Si6 0.774431 0.452904 0.637875
O O1 0.766339 0.378283 0.764958
O O2 0.378261 0.317880 0.017232
O O3 0.821449 0.153794 0.906860
O O4 0.932434 0.031062 0.663082
O O5 0.941429 0.273915 0.279710
O O6 0.334345 0.156539 0.898189
O O7 0.500000 0.000000 0.000000
O O8 0.513761 0.267372 0.620183
O O9 0.000000 0.500000 0.000000
O O10 0.102907 0.229239 0.846111
O O11 0.119767 0.717600 0.485405
O O12 0.551454 0.359022 0.216784
O O13 0.000000 0.000000 0.000000
O O14 0.000000 0.500000 0.500000
#
# Coordination Sequence:
#
# PCOD8020737 Si02
#       6
#     2   2   2   2   2   2
#     4  11  24  48  76 105 146 191 247 303 357 437
#     4  10  22  42  73 105 136 183 241 292 354 431
#     4  12  25  47  70 103 152 188 236 302 363 431
#     4  11  24  45  77 106 138 194 244 291 367 429
#     4  12  27  48  70 108 154 188 236 311 368 422
#     4  12  26  46  75 108 144 194 251 298 358 440
#
# _framework density 23.238788
#
# number of rings (size 3 to 8) (size 9 to 14) (size 15 to 20)
#    0.000    0.667    3.333    4.000    4.667    2.667 
#    6.000    0.000    0.000    0.000    0.000    0.000 
#    0.000    0.000    0.000    0.000    0.000    0.000 
#
# Total GULP energy -148762.558865 kJ/mol
# GULP energy per Si atom -12396.879905 kJ/mol
# Density = 2.318590 g / cm^3
# Si number density = 23.238788 Si / 1000 Ang^3
#
#
#
# Elastic Constant Matrix: (Units=GPa)
#
#
# Indices 1 2 3 4 5 6 
#
# 1 121.4464 34.3844 53.5467 -14.2092 -15.4896 17.3505
# 2 34.3844 122.6975 50.3721 -9.9451 -13.9190 2.7014
# 3 53.5467 50.3721 151.4715 -28.1646 -33.2170 13.9673
# 4 -14.2092 -9.9451 -28.1646 43.9308 12.5320 -7.9719
# 5 -15.4896 -13.9190 -33.2170 12.5320 48.5408 -15.8387
# 6 17.3505 2.7014 13.9673 -7.9719 -15.8387 45.4733
#
#
#
# Elastic Compliance Matrix: (Units=1/GPa)
#
#
# Indices 1 2 3 4 5 6 
#
# 1 0.010409 -0.001685 -0.002753 0.000740 -0.000205 -0.002968
# 2 -0.001685 0.009747 -0.002563 -0.000025 0.000887 0.001156
# 3 -0.002753 -0.002563 0.010067 0.003784 0.004399 0.000306
# 4 0.000740 -0.000025 0.003784 0.026773 -0.003421 0.002058
# 5 -0.000205 0.000887 0.004399 -0.003421 0.027140 0.007528
# 6 -0.002968 0.001156 0.000306 0.002058 0.007528 0.025943
#
#
# Mechanical properties :
#
#
# Convention : Reuss Voigt Hill
#
# Bulk Modulus (GPa) = 61.63911 74.69129 68.16520
# Shear Modulus (GPa) = 38.61330 44.74314 41.67822
#
# Velocity S-wave (km/s) = 4.08068 4.39266 4.23954
# Velocity P-wave (km/s) = 6.98458 7.61169 7.30487
#
# Compressibility (1/GPa) = 0.01622347
#
# Stress axis : x y z
#
# Youngs Moduli (GPa) = 96.06673 102.59061 99.33005
#
# Poissons Ratio (x) = 0.17283 0.27348
# Poissons Ratio (y) = 0.16184 0.25454
# Poissons Ratio (z) = 0.26449 0.26289
#
# Static dielectric constant tensor:
#      x y z
#    x 4.778870 0.249640 -0.108570 
#    y 0.249640 4.546150 -0.664110 
#    z -0.108570 -0.664110 5.317730 
# 
# 
# High freq. dielectric constant tensor:
#      x y z
#    x 1.917540 0.012710 -0.009510 
#    y 0.012710 1.930430 -0.015430 
#    z -0.009510 -0.015430 1.919660 
# 
# From -- ./inp_files/156299.got.cif
#   From: 2010.06.25/outbox.cif.g09.slc.cpg/sg2_79_cif.got.tgz:156299.got - 2010.06.27 13:26:56.
