data_PCOD8020272
_publ_section_title
;
Structure prediction by ZEFSAII (Michael W. Deem and Ramdas Pophale) SiO2 
 PCOD8020272
Probable space group: P -1
;
_chemical_formula_sum "Si O2"
_cell_formula_units_Z 14
_cell_length_a 12.540561
_cell_length_b 8.913630
_cell_length_c 12.858208
_cell_angle_alpha 120.309693
_cell_angle_beta 145.839727
_cell_angle_gamma 71.261575
_cell_volume 682.846216
_symmetry_space_group_name_H-M "P -1"
_symmetry_group_IT_number 2
_symmetry_cell_setting 'triclinic'
loop_
_space_group_symop_operation_xyz
x,y,z
-x,-y,-z
loop_
_atom_site_type_symbol
_atom_site_label
_atom_site_fract_x
_atom_site_fract_y
_atom_site_fract_z
Si Si1 0.474381 0.817429 0.854492
Si Si2 0.144113 0.513834 0.525609
Si Si3 0.467337 0.539768 0.183686
Si Si4 0.922090 0.295172 0.882156
Si Si5 0.519978 0.331261 0.525201
Si Si6 0.256500 0.101891 0.088256
Si Si7 0.862043 0.283954 0.070580
O O1 0.247375 0.714849 0.643132
O O2 0.600558 0.676264 0.950992
O O3 0.551789 0.861482 0.815883
O O4 0.500000 0.000000 0.000000
O O5 0.312059 0.410337 0.663137
O O6 0.000000 0.500000 0.500000
O O7 0.044336 0.420682 0.309763
O O8 0.476314 0.610721 0.333074
O O9 0.326676 0.630121 0.032665
O O10 0.717390 0.252824 0.639941
O O11 0.894584 0.246482 0.964050
O O12 0.000000 0.500000 0.000000
O O13 0.082815 0.189657 0.932621
O O14 0.500000 0.500000 0.500000
O O15 0.334474 0.178589 0.291582
O O16 0.169197 0.894879 0.951569
#
# Coordination Sequence:
#
# PCOD8020272 Si02
#       7
#     2   2   2   2   2   2   2
#     4  10  22  44  65  89 124 168 214 265 309 369
#     4  10  22  42  67  86 126 168 213 261 311 368
#     4   9  22  40  67  90 130 163 210 258 320 375
#     4  11  23  37  66  95 129 170 209 252 316 385
#     4  11  19  39  64  96 127 170 202 257 324 369
#     4  12  23  39  65  96 132 163 211 264 307 384
#     4  11  24  41  64  99 130 168 206 259 322 375
#
# _framework density 20.502420999999998
#
# number of rings (size 3 to 8) (size 9 to 14) (size 15 to 20)
#    0.857    0.571    2.857    3.000    2.000    4.000 
#    0.000    0.714    0.000    0.000    0.000    0.000 
#    0.000    0.000    0.000    0.000    0.000    0.000 
#
# Total GULP energy -173437.339780 kJ/mol
# GULP energy per Si atom -12388.381413 kJ/mol
# Density = 2.045576 g / cm^3
# Si number density = 20.502421 Si / 1000 Ang^3
#
#
#
# Elastic Constant Matrix: (Units=GPa)
#
#
# Indices 1 2 3 4 5 6 
#
# 1 91.8845 39.2789 21.7223 6.0827 23.0155 0.8984
# 2 39.2789 136.9755 62.1832 5.7545 8.0145 -10.2829
# 3 21.7223 62.1832 118.6494 8.1135 17.5325 -11.5125
# 4 6.0827 5.7545 8.1135 32.5269 -5.4065 3.4818
# 5 23.0155 8.0145 17.5325 -5.4065 30.3507 3.5027
# 6 0.8984 -10.2829 -11.5125 3.4818 3.5027 33.0155
#
#
#
# Elastic Compliance Matrix: (Units=1/GPa)
#
#
# Indices 1 2 3 4 5 6 
#
# 1 0.015832 -0.004278 0.001618 -0.004796 -0.012741 0.000658
# 2 -0.004278 0.010801 -0.005316 0.000660 0.003443 0.001192
# 3 0.001618 -0.005316 0.012888 -0.004443 -0.008541 0.004169
# 4 -0.004796 0.000660 -0.004443 0.035486 0.013082 -0.006344
# 5 -0.012741 0.003443 -0.008541 0.013082 0.049916 -0.008235
# 6 0.000658 0.001192 0.004169 -0.006344 -0.008235 0.033639
#
#
# Mechanical properties :
#
#
# Convention : Reuss Voigt Hill
#
# Bulk Modulus (GPa) = 42.42692 65.98648 54.20670
# Shear Modulus (GPa) = 27.41699 34.13360 30.77530
#
# Velocity S-wave (km/s) = 3.66082 4.08469 3.87855
# Velocity P-wave (km/s) = 6.21348 7.38247 6.82306
#
# Compressibility (1/GPa) = 0.02356994
#
# Stress axis : x y z
#
# Youngs Moduli (GPa) = 63.16334 92.58534 77.59011
#
# Poissons Ratio (x) = 0.39610 -0.12556
# Poissons Ratio (y) = 0.27022 0.41243
# Poissons Ratio (z) = -0.10221 0.49214
#
# Static dielectric constant tensor:
#      x y z
#    x 3.730550 -0.255200 0.059560 
#    y -0.255200 3.726390 -0.514420 
#    z 0.059560 -0.514420 3.798860 
# 
# 
# High freq. dielectric constant tensor:
#      x y z
#    x 1.796440 -0.008960 0.018040 
#    y -0.008960 1.795410 -0.001050 
#    z 0.018040 -0.001050 1.795670 
# 
# From -- ./inp_files/529000.got.cif
#   From: 2010.06.25/outbox.cif.g09.slc.cpg/sg2_265_cif.got.tgz:529000.got - 2010.06.27 13:26:56.
