data_PCOD8020489
_publ_section_title
;
Structure prediction by ZEFSAII (Michael W. Deem and Ramdas Pophale) SiO2 
 PCOD8020489
Probable space group: P -1
;
_chemical_formula_sum "Si O2"
_cell_formula_units_Z 14
_cell_length_a 16.639280
_cell_length_b 22.818774
_cell_length_c 13.507450
_cell_angle_alpha 162.224061
_cell_angle_beta 153.144187
_cell_angle_gamma 23.266201
_cell_volume 612.057264
_symmetry_space_group_name_H-M "P -1"
_symmetry_group_IT_number 2
_symmetry_cell_setting 'triclinic'
loop_
_space_group_symop_operation_xyz
x,y,z
-x,-y,-z
loop_
_atom_site_type_symbol
_atom_site_label
_atom_site_fract_x
_atom_site_fract_y
_atom_site_fract_z
Si Si1 0.609308 0.503820 0.403522
Si Si2 0.284084 0.170592 0.166431
Si Si3 0.963106 0.359496 0.410233
Si Si4 0.626048 0.741756 0.206218
Si Si5 0.316467 0.917025 0.614074
Si Si6 0.066358 0.000851 0.791799
Si Si7 0.204236 0.502202 0.198458
O O1 0.826653 0.381085 0.389671
O O2 0.443248 0.723246 0.519497
O O3 0.642859 0.564794 0.648839
O O4 0.519321 0.341241 0.042964
O O5 0.157666 0.436495 0.471798
O O6 0.529563 0.080973 0.296991
O O7 0.234725 0.038145 0.980572
O O8 0.222742 0.138645 0.935004
O O9 0.164501 0.363781 0.671908
O O10 0.017118 0.128298 0.046424
O O11 0.500000 0.000000 0.500000
O O12 0.673321 0.680988 0.044981
O O13 0.138761 0.892223 0.327828
O O14 0.149602 0.743162 0.485529
O O15 0.000000 0.500000 0.000000
#
# Coordination Sequence:
#
# PCOD8020489 Si02
#       7
#     2   2   2   2   2   2   2
#     4  11  25  47  71 102 143 181 238 283 356 408
#     4  10  22  42  68  99 137 177 236 282 351 407
#     4  11  25  44  69 106 143 181 225 302 343 414
#     4  12  26  44  72 103 140 186 234 288 348 419
#     4  10  23  42  73  99 134 184 234 287 339 422
#     4  12  25  43  71 100 143 185 230 283 354 409
#     4  12  27  48  73 100 144 186 234 289 350 412
#
# _framework density 22.873676
#
# number of rings (size 3 to 8) (size 9 to 14) (size 15 to 20)
#    0.000    0.857    1.429    4.714    6.000    5.714 
#    0.000    0.000    0.000    0.000    0.000    0.000 
#    0.000    0.000    0.000    0.000    0.000    0.000 
#
# Total GULP energy -173667.637331 kJ/mol
# GULP energy per Si atom -12404.831238 kJ/mol
# Density = 2.282161 g / cm^3
# Si number density = 22.873676 Si / 1000 Ang^3
#
#
#
# Elastic Constant Matrix: (Units=GPa)
#
#
# Indices 1 2 3 4 5 6 
#
# 1 110.3303 48.3145 52.6547 26.6668 6.2095 -1.8884
# 2 48.3145 96.1915 44.7651 0.5131 -0.4673 3.0479
# 3 52.6547 44.7651 128.2654 12.5660 0.0917 -3.5933
# 4 26.6668 0.5131 12.5660 36.7444 0.5488 -8.8668
# 5 6.2095 -0.4673 0.0917 0.5488 53.6471 -0.3876
# 6 -1.8884 3.0479 -3.5933 -8.8668 -0.3876 30.0246
#
#
#
# Elastic Compliance Matrix: (Units=1/GPa)
#
#
# Indices 1 2 3 4 5 6 
#
# 1 0.016237 -0.006466 -0.003387 -0.010990 -0.001832 -0.001997
# 2 -0.006466 0.015117 -0.003169 0.005379 0.000825 -0.000721
# 3 -0.003387 -0.003169 0.010401 -0.000789 0.000363 0.001125
# 4 -0.010990 0.005379 -0.000789 0.037742 0.001005 0.009827
# 5 -0.001832 0.000825 0.000363 0.001005 0.018851 0.000385
# 6 -0.001997 -0.000721 0.001125 0.009827 0.000385 0.036295
#
#
# Mechanical properties :
#
#
# Convention : Reuss Voigt Hill
#
# Bulk Modulus (GPa) = 63.65101 69.58397 66.61749
# Shear Modulus (GPa) = 30.13431 36.68675 33.41053
#
# Velocity S-wave (km/s) = 3.63357 4.00920 3.82600
# Velocity P-wave (km/s) = 6.74473 7.20546 6.97890
#
# Compressibility (1/GPa) = 0.01571067
#
# Stress axis : x y z
#
# Youngs Moduli (GPa) = 61.58900 66.15185 96.14304
#
# Poissons Ratio (x) = 0.42775 0.32560
# Poissons Ratio (y) = 0.39825 0.30469
# Poissons Ratio (z) = 0.20858 0.20964
#
# Static dielectric constant tensor:
#      x y z
#    x 4.443990 -0.206520 0.261260 
#    y -0.206520 4.084270 -0.001670 
#    z 0.261260 -0.001670 4.670290 
# 
# 
# High freq. dielectric constant tensor:
#      x y z
#    x 1.911090 -0.013270 0.009170 
#    y -0.013270 1.905360 0.001850 
#    z 0.009170 0.001850 1.917410 
# 
# From -- ./inp_files/242294.got.cif
#   From: 2010.06.25/outbox.cif.g09.slc.cpg/sg2_122_cif.got.tgz:242294.got - 2010.06.27 13:26:56.
