data_PCOD8020082
_publ_section_title
;
Structure prediction by ZEFSAII (Michael W. Deem and Ramdas Pophale) SiO2 
 PCOD8020082
Probable space group: P -1
;
_chemical_formula_sum "Si O2"
_cell_formula_units_Z 16
_cell_length_a 22.917685
_cell_length_b 16.061820
_cell_length_c 8.733283
_cell_angle_alpha 103.683802
_cell_angle_beta 64.298454
_cell_angle_gamma 160.517846
_cell_volume 791.545195
_symmetry_space_group_name_H-M "P -1"
_symmetry_group_IT_number 2
_symmetry_cell_setting 'triclinic'
loop_
_space_group_symop_operation_xyz
x,y,z
-x,-y,-z
loop_
_atom_site_type_symbol
_atom_site_label
_atom_site_fract_x
_atom_site_fract_y
_atom_site_fract_z
Si Si1 0.473744 0.124022 0.412403
Si Si2 0.824181 0.807470 0.988839
Si Si3 0.041183 0.133006 0.408612
Si Si4 0.142067 0.854972 0.686135
Si Si5 0.702339 0.244915 0.754841
Si Si6 0.262936 0.575118 0.477297
Si Si7 0.368340 0.282375 0.424482
Si Si8 0.017043 0.237188 0.898115
O O1 0.506298 0.125295 0.548224
O O2 0.726487 0.456846 0.194117
O O3 0.363568 0.076640 0.538650
O O4 0.320179 0.871101 0.365310
O O5 0.557362 0.471071 0.194740
O O6 0.841646 0.752530 0.827340
O O7 0.000000 0.000000 0.000000
O O8 0.882430 0.976266 0.931432
O O9 0.229473 0.435970 0.396265
O O10 0.000000 0.000000 0.500000
O O11 0.787529 0.852057 0.556015
O O12 0.928981 0.529073 0.724455
O O13 0.183411 0.983235 0.576123
O O14 0.103671 0.845908 0.893923
O O15 0.715003 0.335436 0.653174
O O16 0.500000 0.000000 0.000000
O O17 0.043149 0.311533 0.728795
O O18 0.500000 0.500000 0.500000
#
# Coordination Sequence:
#
# PCOD8020082 Si02
#       8
#     2   2   2   2   2   2   2   2
#     4  10  24  43  70  94 129 179 216 275 337 394
#     4  12  23  39  69  98 133 182 223 265 332 395
#     4  12  24  44  65  99 139 179 223 271 323 404
#     4  12  23  43  69 101 130 171 230 272 325 400
#     4  12  23  45  73  97 129 172 224 286 335 382
#     4  10  24  45  65  96 139 174 215 278 336 393
#     4  12  25  39  67  99 139 174 223 274 329 392
#     4  10  22  42  65  92 137 175 214 266 334 386
#
# _framework density 20.213628
#
# number of rings (size 3 to 8) (size 9 to 14) (size 15 to 20)
#    0.750    0.000    6.250    1.500    1.750    1.500 
#    2.250    3.750    0.000    0.000    0.000    0.000 
#    0.000    0.000    0.000    0.000    0.000    0.000 
#
# Total GULP energy -198294.952940 kJ/mol
# GULP energy per Si atom -12393.434559 kJ/mol
# Density = 2.016762 g / cm^3
# Si number density = 20.213628 Si / 1000 Ang^3
#
#
#
# Elastic Constant Matrix: (Units=GPa)
#
#
# Indices 1 2 3 4 5 6 
#
# 1 84.0914 1.4200 49.5464 4.2832 2.3122 0.7632
# 2 1.4200 80.6729 35.6409 12.1482 -7.4242 -11.0021
# 3 49.5464 35.6409 150.6459 9.7498 -7.3833 -5.2771
# 4 4.2832 12.1482 9.7498 35.4793 -1.7934 -3.6688
# 5 2.3122 -7.4242 -7.3833 -1.7934 43.0378 -1.8937
# 6 0.7632 -11.0021 -5.2771 -3.6688 -1.8937 31.2502
#
#
#
# Elastic Compliance Matrix: (Units=1/GPa)
#
#
# Indices 1 2 3 4 5 6 
#
# 1 0.015223 0.002110 -0.005529 -0.001198 -0.001487 -0.000793
# 2 0.002110 0.015421 -0.003841 -0.003929 0.001917 0.004384
# 3 -0.005529 -0.003841 0.009474 -0.000516 0.001256 0.000398
# 4 -0.001198 -0.003929 -0.000516 0.030070 0.000645 0.002128
# 5 -0.001487 0.001917 0.001256 0.000645 0.023996 0.002453
# 6 -0.000793 0.004384 0.000398 0.002128 0.002453 0.034028
#
#
# Mechanical properties :
#
#
# Convention : Reuss Voigt Hill
#
# Bulk Modulus (GPa) = 39.06353 54.29163 46.67758
# Shear Modulus (GPa) = 33.05439 37.20697 35.13068
#
# Velocity S-wave (km/s) = 4.04821 4.29498 4.17342
# Velocity P-wave (km/s) = 6.42012 7.17726 6.80922
#
# Compressibility (1/GPa) = 0.02559933
#
# Stress axis : x y z
#
# Youngs Moduli (GPa) = 65.68979 64.84478 105.55032
#
# Poissons Ratio (x) = -0.13683 0.58360
# Poissons Ratio (y) = -0.13862 0.40539
# Poissons Ratio (z) = 0.36321 0.24905
#
# Static dielectric constant tensor:
#      x y z
#    x 3.513280 -0.100390 -0.137190 
#    y -0.100390 3.800660 0.054260 
#    z -0.137190 0.054260 3.258500 
# 
# 
# High freq. dielectric constant tensor:
#      x y z
#    x 1.777440 -0.005550 0.001450 
#    y -0.005550 1.797440 0.011470 
#    z 0.001450 0.011470 1.797510 
# 
# From -- ./inp_files/347615.got.cif
#   From: 2010.06.25/outbox.cif.g09.slc.cpg/sg2_174_cif.got.tgz:347615.got - 2010.06.27 13:26:56.
