data_PCOD8020095
_publ_section_title
;
Structure prediction by ZEFSAII (Michael W. Deem and Ramdas Pophale) SiO2 
 PCOD8020095
Probable space group: P -1
;
_chemical_formula_sum "Si O2"
_cell_formula_units_Z 16
_cell_length_a 11.259503
_cell_length_b 14.269487
_cell_length_c 11.569583
_cell_angle_alpha 89.759051
_cell_angle_beta 109.805747
_cell_angle_gamma 32.162021
_cell_volume 757.633020
_symmetry_space_group_name_H-M "P -1"
_symmetry_group_IT_number 2
_symmetry_cell_setting 'triclinic'
loop_
_space_group_symop_operation_xyz
x,y,z
-x,-y,-z
loop_
_atom_site_type_symbol
_atom_site_label
_atom_site_fract_x
_atom_site_fract_y
_atom_site_fract_z
Si Si1 0.523962 0.227932 0.169535
Si Si2 0.092571 0.943998 0.401170
Si Si3 0.710196 0.949057 0.088599
Si Si4 0.220633 0.028934 0.301953
Si Si5 0.186798 0.527800 0.845879
Si Si6 0.267209 0.892039 0.085596
Si Si7 0.703700 0.541698 0.668233
Si Si8 0.155896 0.381112 0.430918
O O1 0.419493 0.316598 0.264088
O O2 0.578019 0.081463 0.162894
O O3 0.270848 0.434599 0.000793
O O4 0.843761 0.058306 0.243840
O O5 0.425510 0.679517 0.509755
O O6 0.094542 0.051064 0.364156
O O7 0.000000 0.000000 0.500000
O O8 0.051021 0.695895 0.212703
O O9 0.500000 0.000000 0.000000
O O10 0.711439 0.030246 0.991182
O O11 0.978203 0.265367 0.185680
O O12 0.304894 0.904001 0.226330
O O13 0.519996 0.876952 0.442038
O O14 0.472580 0.352070 0.863032
O O15 0.990052 0.588807 0.709157
O O16 0.000000 0.000000 0.000000
O O17 0.853353 0.510464 0.628138
O O18 0.000000 0.500000 0.500000
#
# Coordination Sequence:
#
# PCOD8020095 Si02
#       8
#     2   2   2   2   2   2   2   2
#     4  10  22  42  65  94 129 161 214 274 320 387
#     4   9  21  42  62  92 130 163 217 271 320 391
#     4  11  24  40  65  99 130 171 221 264 327 388
#     4  11  22  40  67  91 126 177 218 264 332 394
#     4  11  23  40  66  95 127 170 217 271 327 387
#     4  11  24  41  65  99 136 171 218 274 326 389
#     4  10  22  42  66  91 128 175 210 268 333 381
#     4  11  23  44  62  91 137 169 216 277 324 393
#
# _framework density 21.118403000000001
#
# number of rings (size 3 to 8) (size 9 to 14) (size 15 to 20)
#    0.000    1.500    1.250    4.125    0.000    7.500 
#    6.750    0.000    0.000    0.000    0.000    0.000 
#    0.000    0.000    0.000    0.000    0.000    0.000 
#
# Total GULP energy -198221.968949 kJ/mol
# GULP energy per Si atom -12388.873059 kJ/mol
# Density = 2.107034 g / cm^3
# Si number density = 21.118403 Si / 1000 Ang^3
#
#
#
# Elastic Constant Matrix: (Units=GPa)
#
#
# Indices 1 2 3 4 5 6 
#
# 1 107.9020 32.4646 41.3752 -5.2894 5.1536 -14.7019
# 2 32.4646 99.6817 33.0288 -11.5142 -10.7368 1.0086
# 3 41.3752 33.0288 125.2555 -10.5097 12.4962 1.6097
# 4 -5.2894 -11.5142 -10.5097 38.6433 -7.2576 -7.0341
# 5 5.1536 -10.7368 12.4962 -7.2576 31.7358 0.8707
# 6 -14.7019 1.0086 1.6097 -7.0341 0.8707 27.9218
#
#
#
# Elastic Compliance Matrix: (Units=1/GPa)
#
#
# Indices 1 2 3 4 5 6 
#
# 1 0.012548 -0.003230 -0.003124 0.000855 -0.001902 0.007179
# 2 -0.003230 0.013213 -0.002778 0.003821 0.006997 -0.001274
# 3 -0.003124 -0.002778 0.010235 0.000369 -0.004326 -0.001907
# 4 0.000855 0.003821 0.000369 0.030063 0.007675 0.007625
# 5 -0.001902 0.006997 -0.004326 0.007675 0.037652 -0.000245
# 6 0.007179 -0.001274 -0.001907 0.007625 -0.000245 0.041679
#
#
# Mechanical properties :
#
#
# Convention : Reuss Voigt Hill
#
# Bulk Modulus (GPa) = 56.39775 60.73071 58.56423
# Shear Modulus (GPa) = 29.48728 34.72488 32.10608
#
# Velocity S-wave (km/s) = 3.74074 4.05939 3.90332
# Velocity P-wave (km/s) = 6.73951 7.12679 6.93586
#
# Compressibility (1/GPa) = 0.01773120
#
# Stress axis : x y z
#
# Youngs Moduli (GPa) = 79.69156 75.68588 97.70212
#
# Poissons Ratio (x) = 0.24450 0.30522
# Poissons Ratio (y) = 0.25744 0.27142
# Poissons Ratio (z) = 0.24896 0.21026
#
# Static dielectric constant tensor:
#      x y z
#    x 4.096470 -0.130870 0.414670 
#    y -0.130870 3.804970 -0.108220 
#    z 0.414670 -0.108220 4.534430 
# 
# 
# High freq. dielectric constant tensor:
#      x y z
#    x 1.820810 -0.016500 0.005310 
#    y -0.016500 1.826890 -0.006550 
#    z 0.005310 -0.006550 1.853150 
# 
# From -- ./inp_files/434142.got.cif
#   From: 2010.06.25/outbox.cif.g09.slc.cpg/sg2_218_cif.got.tgz:434142.got - 2010.06.27 13:26:56.
