data_PCOD8020531
_publ_section_title
;
Structure prediction by ZEFSAII (Michael W. Deem and Ramdas Pophale) SiO2 
 PCOD8020531
Probable space group: P -1
;
_chemical_formula_sum "Si O2"
_cell_formula_units_Z 16
_cell_length_a 7.874217
_cell_length_b 19.129653
_cell_length_c 10.463802
_cell_angle_alpha 43.468147
_cell_angle_beta 134.416716
_cell_angle_gamma 132.913431
_cell_volume 724.941162
_symmetry_space_group_name_H-M "P -1"
_symmetry_group_IT_number 2
_symmetry_cell_setting 'triclinic'
loop_
_space_group_symop_operation_xyz
x,y,z
-x,-y,-z
loop_
_atom_site_type_symbol
_atom_site_label
_atom_site_fract_x
_atom_site_fract_y
_atom_site_fract_z
Si Si1 0.320555 0.562701 0.353621
Si Si2 0.368852 0.091224 0.743071
Si Si3 0.584212 0.040379 0.299057
Si Si4 0.887380 0.284026 0.078838
Si Si5 0.391413 0.318455 0.402891
Si Si6 0.064506 0.782464 0.083880
Si Si7 0.137697 0.035013 0.233710
Si Si8 0.900777 0.403648 0.477445
O O1 0.500000 0.500000 0.500000
O O2 0.442306 0.640346 0.435623
O O3 0.057805 0.459019 0.362671
O O4 0.284658 0.640307 0.119743
O O5 0.303935 0.188680 0.515006
O O6 0.648077 0.132008 0.897585
O O7 0.369891 0.001642 0.758689
O O8 0.156732 0.044653 0.804514
O O9 0.723986 0.169822 0.206548
O O10 0.284415 0.014226 0.211960
O O11 0.705801 0.980305 0.542008
O O12 0.135144 0.345111 0.217038
O O13 0.002294 0.279261 0.004629
O O14 0.600013 0.371457 0.331566
O O15 0.044422 0.701371 0.299397
O O16 0.866214 0.842793 0.929652
O O17 0.000000 0.500000 0.500000
#
# Coordination Sequence:
#
# PCOD8020531 Si02
#       8
#     2   2   2   2   2   2   2   2
#     4  11  25  45  66  93 133 163 213 281 325 383
#     4  11  20  43  63  93 135 173 216 262 321 385
#     4  11  25  39  62  98 135 172 220 266 315 397
#     4  12  22  42  69  93 128 177 213 262 338 380
#     4  10  22  42  69  94 125 168 217 266 321 397
#     4  11  22  38  67  92 124 175 219 268 322 384
#     4  11  23  40  60  95 134 171 217 271 317 385
#     4   9  19  43  61  93 120 156 221 266 314 386
#
# _framework density 22.070755999999999
#
# number of rings (size 3 to 8) (size 9 to 14) (size 15 to 20)
#    0.000    1.250    6.250    1.500    1.750    1.500 
#    4.500    1.250    0.000    0.000    0.000    0.000 
#    0.000    0.000    0.000    0.000    0.000    0.000 
#
# Total GULP energy -198213.599922 kJ/mol
# GULP energy per Si atom -12388.349995 kJ/mol
# Density = 2.202052 g / cm^3
# Si number density = 22.070756 Si / 1000 Ang^3
#
#
#
# Elastic Constant Matrix: (Units=GPa)
#
#
# Indices 1 2 3 4 5 6 
#
# 1 97.2079 37.9309 33.6339 -11.1091 21.4396 20.9033
# 2 37.9309 90.5697 48.6808 -13.3944 10.7172 29.0070
# 3 33.6339 48.6808 130.2217 -11.6335 32.6257 10.8939
# 4 -11.1091 -13.3944 -11.6335 30.2575 -4.2958 4.2018
# 5 21.4396 10.7172 32.6257 -4.2958 35.6156 -1.8458
# 6 20.9033 29.0070 10.8939 4.2018 -1.8458 29.4825
#
#
#
# Elastic Compliance Matrix: (Units=1/GPa)
#
#
# Indices 1 2 3 4 5 6 
#
# 1 0.015850 -0.001007 0.000082 0.005715 -0.009228 -0.011669
# 2 -0.001007 0.022834 -0.005212 0.010518 -0.001331 -0.021408
# 3 0.000082 -0.005212 0.012070 0.001044 -0.009419 -0.000129
# 4 0.005715 0.010518 0.001044 0.042635 -0.003512 -0.021083
# 5 -0.009228 -0.001331 -0.009419 -0.003512 0.042990 0.014525
# 6 -0.011669 -0.021408 -0.000129 -0.021083 0.014525 0.067216
#
#
# Mechanical properties :
#
#
# Convention : Reuss Voigt Hill
#
# Bulk Modulus (GPa) = 25.98826 62.05451 44.02139
# Shear Modulus (GPa) = 21.86305 32.25470 27.05887
#
# Velocity S-wave (km/s) = 3.15078 3.82700 3.50524
# Velocity P-wave (km/s) = 5.00371 6.90689 6.03085
#
# Compressibility (1/GPa) = 0.03847891
#
# Stress axis : x y z
#
# Youngs Moduli (GPa) = 63.09251 43.79451 82.84881
#
# Poissons Ratio (x) = 0.04412 -0.00677
# Poissons Ratio (y) = 0.06356 0.43178
# Poissons Ratio (z) = -0.00515 0.22824
#
# Static dielectric constant tensor:
#      x y z
#    x 3.702570 0.109370 0.298530 
#    y 0.109370 3.421910 -0.049200 
#    z 0.298530 -0.049200 4.045920 
# 
# 
# High freq. dielectric constant tensor:
#      x y z
#    x 1.850810 0.022050 0.018110 
#    y 0.022050 1.859880 -0.016240 
#    z 0.018110 -0.016240 1.880230 
# 
# From -- ./inp_files/404738.got.cif
#   From: 2010.06.25/outbox.cif.g09.slc.cpg/sg2_203_cif.got.tgz:404738.got - 2010.06.27 13:26:56.
