data_PCOD8020588
_publ_section_title
;
Structure prediction by ZEFSAII (Michael W. Deem and Ramdas Pophale) SiO2 
 PCOD8020588
Probable space group: P -1
;
_chemical_formula_sum "Si O2"
_cell_formula_units_Z 14
_cell_length_a 18.520257
_cell_length_b 8.489995
_cell_length_c 11.361912
_cell_angle_alpha 37.968582
_cell_angle_beta 146.734155
_cell_angle_gamma 137.167891
_cell_volume 588.144035
_symmetry_space_group_name_H-M "P -1"
_symmetry_group_IT_number 2
_symmetry_cell_setting 'triclinic'
loop_
_space_group_symop_operation_xyz
x,y,z
-x,-y,-z
loop_
_atom_site_type_symbol
_atom_site_label
_atom_site_fract_x
_atom_site_fract_y
_atom_site_fract_z
Si Si1 0.417050 0.370167 0.853665
Si Si2 0.756280 0.358141 0.690762
Si Si3 0.730588 0.194188 0.998237
Si Si4 0.838076 0.884505 0.968758
Si Si5 0.333999 0.658262 0.928325
Si Si6 0.968643 0.690586 0.643368
Si Si7 0.886963 0.253863 0.602318
O O1 0.360105 0.604268 0.579705
O O2 0.293435 0.124187 0.863820
O O3 0.500000 0.500000 0.000000
O O4 0.517760 0.255460 0.974972
O O5 0.883644 0.603269 0.698846
O O6 0.818306 0.102949 0.906045
O O7 0.685945 0.329071 0.740470
O O8 0.650034 0.234615 0.980677
O O9 0.882750 0.364685 0.117222
O O10 0.845308 0.001957 0.778333
O O11 0.706342 0.655448 0.936394
O O12 0.968900 0.762501 0.249299
O O13 0.224423 0.772493 0.636259
O O14 0.894284 0.523131 0.528932
O O15 0.000000 0.000000 0.500000
#
# Coordination Sequence:
#
# PCOD8020588 Si02
#       7
#     2   2   2   2   2   2   2
#     4  12  27  50  73 101 139 191 241 286 351 417
#     4  11  26  45  73 106 140 185 231 293 352 420
#     4  12  27  45  69 107 140 188 235 289 356 412
#     4  10  22  42  70 102 138 181 232 284 350 409
#     4  12  26  45  74 101 146 190 232 288 347 424
#     4  11  22  44  75 106 144 182 233 297 352 409
#     4  10  23  44  70 108 141 184 230 290 354 411
#
# _framework density 23.803692000000002
#
# number of rings (size 3 to 8) (size 9 to 14) (size 15 to 20)
#    0.000    0.857    2.857    3.857    2.000    5.143 
#    0.000    0.000    0.000    0.000    0.000    0.000 
#    0.000    0.000    0.000    0.000    0.000    0.000 
#
# Total GULP energy -173538.102713 kJ/mol
# GULP energy per Si atom -12395.578765 kJ/mol
# Density = 2.374951 g / cm^3
# Si number density = 23.803692 Si / 1000 Ang^3
#
#
#
# Elastic Constant Matrix: (Units=GPa)
#
#
# Indices 1 2 3 4 5 6 
#
# 1 138.4803 28.3088 57.8145 5.7440 -15.0006 -3.7683
# 2 28.3088 98.6129 31.4669 -11.1737 -8.9322 2.7284
# 3 57.8145 31.4669 96.9696 -6.2969 0.5877 -14.5554
# 4 5.7440 -11.1737 -6.2969 32.4774 0.5226 2.6786
# 5 -15.0006 -8.9322 0.5877 0.5226 36.3613 1.0269
# 6 -3.7683 2.7284 -14.5554 2.6786 1.0269 29.6396
#
#
#
# Elastic Compliance Matrix: (Units=1/GPa)
#
#
# Indices 1 2 3 4 5 6 
#
# 1 0.010740 -0.000922 -0.006599 -0.003432 0.004406 -0.001633
# 2 -0.000922 0.012406 -0.003771 0.003949 0.002772 -0.003564
# 3 -0.006599 -0.003771 0.016815 0.002564 -0.004174 0.007679
# 4 -0.003432 0.003949 0.002564 0.033477 -0.000897 -0.002535
# 5 0.004406 0.002772 -0.004174 -0.000897 0.030157 -0.002709
# 6 -0.001633 -0.003564 0.007679 -0.002535 -0.002709 0.037953
#
#
# Mechanical properties :
#
#
# Convention : Reuss Voigt Hill
#
# Bulk Modulus (GPa) = 57.54902 63.24925 60.39913
# Shear Modulus (GPa) = 29.42483 34.12717 31.77600
#
# Velocity S-wave (km/s) = 3.51970 3.79052 3.65762
# Velocity P-wave (km/s) = 6.38332 6.76656 6.57773
#
# Compressibility (1/GPa) = 0.01737649
#
# Stress axis : x y z
#
# Youngs Moduli (GPa) = 93.11091 80.60619 59.47111
#
# Poissons Ratio (x) = 0.07433 0.39243
# Poissons Ratio (y) = 0.08586 0.22429
# Poissons Ratio (z) = 0.61441 0.30399
#
# Static dielectric constant tensor:
#      x y z
#    x 4.610800 0.317310 0.063320 
#    y 0.317310 4.430980 -0.045170 
#    z 0.063320 -0.045170 4.229350 
# 
# 
# High freq. dielectric constant tensor:
#      x y z
#    x 1.954380 0.015050 -0.005030 
#    y 0.015050 1.944520 -0.008190 
#    z -0.005030 -0.008190 1.933030 
# 
# From -- ./inp_files/469177.got.cif
#   From: 2010.06.25/outbox.cif.g09.slc.cpg/sg2_235_cif.got.tgz:469177.got - 2010.06.27 13:26:56.
