data_PCOD8020200
_publ_section_title
;
Structure prediction by ZEFSAII (Michael W. Deem and Ramdas Pophale) SiO2 
 PCOD8020200
Probable space group: P -1
;
_chemical_formula_sum "Si O2"
_cell_formula_units_Z 14
_cell_length_a 14.990463
_cell_length_b 15.857958
_cell_length_c 24.649551
_cell_angle_alpha 161.182274
_cell_angle_beta 161.503153
_cell_angle_gamma 26.879849
_cell_volume 598.702764
_symmetry_space_group_name_H-M "P -1"
_symmetry_group_IT_number 2
_symmetry_cell_setting 'triclinic'
loop_
_space_group_symop_operation_xyz
x,y,z
-x,-y,-z
loop_
_atom_site_type_symbol
_atom_site_label
_atom_site_fract_x
_atom_site_fract_y
_atom_site_fract_z
Si Si1 0.966083 0.278972 0.752878
Si Si2 0.908008 0.291996 0.519903
Si Si3 0.935577 0.718581 0.518409
Si Si4 0.933808 0.160271 0.005830
Si Si5 0.400878 0.566263 0.763146
Si Si6 0.672071 0.661086 0.741251
Si Si7 0.556732 0.133500 0.514750
O O1 0.896467 0.473567 0.783161
O O2 0.738675 0.327031 0.697738
O O3 0.944472 0.970986 0.536163
O O4 0.277440 0.336169 0.990042
O O5 0.566361 0.236765 0.293761
O O6 0.974944 0.367417 0.542252
O O7 0.040391 0.529433 0.777286
O O8 0.727286 0.491243 0.286162
O O9 0.211200 0.772670 0.748432
O O10 0.774837 0.985085 0.587269
O O11 0.151044 0.109738 0.050402
O O12 0.625498 0.074052 0.753753
O O13 0.000000 0.000000 0.000000
O O14 0.365655 0.299856 0.544715
O O15 0.500000 0.500000 0.500000
#
# Coordination Sequence:
#
# PCOD8020200 Si02
#       7
#     2   2   2   2   2   2   2
#     4  11  24  40  65  97 128 170 211 261 323 376
#     4  10  24  43  65  96 131 164 214 265 317 381
#     4  10  23  40  63  94 125 170 213 261 319 369
#     4  11  23  42  69  95 127 170 211 263 322 378
#     4  11  23  41  63  92 130 167 215 261 311 381
#     4  10  22  42  66  94 130 169 209 260 321 381
#     4  11  23  41  64  92 129 170 213 260 315 377
#
# _framework density 23.383890999999998
#
# number of rings (size 3 to 8) (size 9 to 14) (size 15 to 20)
#    0.000    1.429    0.000    5.143    0.000   11.429 
#    0.000    2.857    0.000    0.000    0.000    0.000 
#    0.000    0.000    0.000    0.000    0.000    0.000 
#
# Total GULP energy -173551.870277 kJ/mol
# GULP energy per Si atom -12396.562163 kJ/mol
# Density = 2.333067 g / cm^3
# Si number density = 23.383891 Si / 1000 Ang^3
#
#
#
# Elastic Constant Matrix: (Units=GPa)
#
#
# Indices 1 2 3 4 5 6 
#
# 1 141.8102 51.1592 41.1462 -1.7816 33.6428 6.4374
# 2 51.1592 131.7939 26.6593 -12.4025 3.8395 15.9564
# 3 41.1462 26.6593 94.7692 -19.0830 17.0110 4.0759
# 4 -1.7816 -12.4025 -19.0830 36.6188 -5.9279 0.2585
# 5 33.6428 3.8395 17.0110 -5.9279 38.1059 -0.0259
# 6 6.4374 15.9564 4.0759 0.2585 -0.0259 37.5211
#
#
#
# Elastic Compliance Matrix: (Units=1/GPa)
#
#
# Indices 1 2 3 4 5 6 
#
# 1 0.011407 -0.003922 -0.003013 -0.003788 -0.008920 0.000058
# 2 -0.003922 0.009919 -0.000882 0.003278 0.003365 -0.003470
# 3 -0.003013 -0.000882 0.013862 0.006387 -0.002446 -0.000659
# 4 -0.003788 0.003278 0.006387 0.032417 0.005205 -0.001658
# 5 -0.008920 0.003365 -0.002446 0.005205 0.035680 0.000354
# 6 0.000058 -0.003470 -0.000659 -0.001658 0.000354 0.028201
#
#
# Mechanical properties :
#
#
# Convention : Reuss Voigt Hill
#
# Bulk Modulus (GPa) = 51.14385 67.36698 59.25541
# Shear Modulus (GPa) = 32.54406 39.07642 35.81024
#
# Velocity S-wave (km/s) = 3.73464 4.09232 3.91756
# Velocity P-wave (km/s) = 6.36518 7.15550 6.77188
#
# Compressibility (1/GPa) = 0.01955269
#
# Stress axis : x y z
#
# Youngs Moduli (GPa) = 87.66758 100.81677 72.14004
#
# Poissons Ratio (x) = 0.39539 0.21739
# Poissons Ratio (y) = 0.34382 0.06364
# Poissons Ratio (z) = 0.26418 0.08893
#
# Static dielectric constant tensor:
#      x y z
#    x 4.742140 -0.350010 0.456430 
#    y -0.350010 4.309990 -0.254900 
#    z 0.456430 -0.254900 4.180150 
# 
# 
# High freq. dielectric constant tensor:
#      x y z
#    x 1.942360 0.000130 0.019360 
#    y 0.000130 1.926780 -0.010540 
#    z 0.019360 -0.010540 1.913400 
# 
# From -- ./inp_files/427077.got.cif
#   From: 2010.06.25/outbox.cif.g09.slc.cpg/sg2_214_cif.got.tgz:427077.got - 2010.06.27 13:26:56.
