data_PCOD8020046
_publ_section_title
;
Structure prediction by ZEFSAII (Michael W. Deem and Ramdas Pophale) SiO2 
 PCOD8020046
Probable space group: P -1
;
_chemical_formula_sum "Si O2"
_cell_formula_units_Z 14
_cell_length_a 17.472693
_cell_length_b 12.547400
_cell_length_c 8.708985
_cell_angle_alpha 149.414380
_cell_angle_beta 135.745477
_cell_angle_gamma 38.274595
_cell_volume 596.817898
_symmetry_space_group_name_H-M "P -1"
_symmetry_group_IT_number 2
_symmetry_cell_setting 'triclinic'
loop_
_space_group_symop_operation_xyz
x,y,z
-x,-y,-z
loop_
_atom_site_type_symbol
_atom_site_label
_atom_site_fract_x
_atom_site_fract_y
_atom_site_fract_z
Si Si1 0.338184 0.336706 0.598842
Si Si2 0.492970 0.750757 0.777744
Si Si3 0.602617 0.989235 0.454661
Si Si4 0.982207 0.959432 0.178381
Si Si5 0.308825 0.240001 0.114974
Si Si6 0.933734 0.378842 0.849080
Si Si7 0.196995 0.876286 0.159249
O O1 0.484481 0.237482 0.644569
O O2 0.260982 0.341700 0.341993
O O3 0.324980 0.153559 0.467262
O O4 0.276030 0.596109 0.902269
O O5 0.500000 0.500000 0.500000
O O6 0.562872 0.745830 0.713572
O O7 0.559951 0.817039 0.092630
O O8 0.348282 0.957784 0.813548
O O9 0.701843 0.032834 0.552497
O O10 0.007673 0.728720 0.033509
O O11 0.110078 0.930579 0.251313
O O12 0.925095 0.181983 0.486800
O O13 0.885169 0.992548 0.946091
O O14 0.204472 0.404211 0.046999
O O15 0.000000 0.500000 0.000000
#
# Coordination Sequence:
#
# PCOD8020046 Si02
#       7
#     2   2   2   2   2   2   2
#     4  10  22  42  65 102 136 173 223 271 348 403
#     4  10  24  44  68 100 134 172 225 283 343 405
#     4  10  24  41  69 102 133 181 220 277 345 406
#     4  10  26  44  67 105 130 187 228 280 337 391
#     4  10  23  43  66 100 133 178 221 276 346 402
#     4  11  25  46  70  97 137 179 233 279 337 401
#     4  11  23  44  70  98 143 174 230 280 333 407
#
# _framework density 23.457743000000001
#
# number of rings (size 3 to 8) (size 9 to 14) (size 15 to 20)
#    0.000    1.714    1.429    0.429    6.000    9.143 
#    0.000    2.857    0.000    0.000    0.000    0.000 
#    0.000    0.000    0.000    0.000    0.000    0.000 
#
# Total GULP energy -173534.847342 kJ/mol
# GULP energy per Si atom -12395.346239 kJ/mol
# Density = 2.340435 g / cm^3
# Si number density = 23.457743 Si / 1000 Ang^3
#
#
#
# Elastic Constant Matrix: (Units=GPa)
#
#
# Indices 1 2 3 4 5 6 
#
# 1 99.1317 33.4682 20.3209 16.4606 1.3307 -0.3439
# 2 33.4682 142.1750 35.3900 35.3100 -1.3010 4.3731
# 3 20.3209 35.3900 82.2026 33.4632 -2.2076 -11.4321
# 4 16.4606 35.3100 33.4632 36.3751 3.6424 -3.8427
# 5 1.3307 -1.3010 -2.2076 3.6424 34.7656 -0.6835
# 6 -0.3439 4.3731 -11.4321 -3.8427 -0.6835 44.6666
#
#
#
# Elastic Compliance Matrix: (Units=1/GPa)
#
#
# Indices 1 2 3 4 5 6 
#
# 1 0.011316 -0.001802 -0.001108 -0.002343 -0.000330 -0.000227
# 2 -0.001802 0.009767 -0.000513 -0.008510 0.001258 -0.001814
# 3 -0.001108 -0.000513 0.020528 -0.017809 0.003268 0.003814
# 4 -0.002343 -0.008510 -0.017809 0.053981 -0.007000 0.000794
# 5 -0.000330 0.001258 0.003268 -0.007000 0.029776 0.000564
# 6 -0.000227 -0.001814 0.003814 0.000794 0.000564 0.023617
#
#
# Mechanical properties :
#
#
# Convention : Reuss Voigt Hill
#
# Bulk Modulus (GPa) = 28.76609 55.76304 42.26457
# Shear Modulus (GPa) = 29.86517 38.78347 34.32432
#
# Velocity S-wave (km/s) = 3.57199 4.07053 3.82938
# Velocity P-wave (km/s) = 5.41311 6.77611 6.13259
#
# Compressibility (1/GPa) = 0.03476316
#
# Stress axis : x y z
#
# Youngs Moduli (GPa) = 88.37175 102.39057 48.71406
#
# Poissons Ratio (x) = 0.18452 0.05398
# Poissons Ratio (y) = 0.15926 0.02500
# Poissons Ratio (z) = 0.09793 0.05255
#
# Static dielectric constant tensor:
#      x y z
#    x 4.393750 0.078110 -0.288980 
#    y 0.078110 4.928910 0.338970 
#    z -0.288980 0.338970 3.963760 
# 
# 
# High freq. dielectric constant tensor:
#      x y z
#    x 1.926990 0.009420 -0.020020 
#    y 0.009420 1.951050 0.012720 
#    z -0.020020 0.012720 1.909930 
# 
# From -- ./inp_files/334011.got.cif
#   From: 2010.06.25/outbox.cif.g09.slc.cpg/sg2_168_cif.got.tgz:334011.got - 2010.06.27 13:26:56.
