data_PCOD8020762
_publ_section_title
;
Structure prediction by ZEFSAII (Michael W. Deem and Ramdas Pophale) SiO2 
 PCOD8020762
Probable space group: P -1
;
_chemical_formula_sum "Si O2"
_cell_formula_units_Z 12
_cell_length_a 11.246111
_cell_length_b 7.389795
_cell_length_c 7.880411
_cell_angle_alpha 71.059502
_cell_angle_beta 51.790513
_cell_angle_gamma 91.585360
_cell_volume 463.176579
_symmetry_space_group_name_H-M "P -1"
_symmetry_group_IT_number 2
_symmetry_cell_setting 'triclinic'
loop_
_space_group_symop_operation_xyz
x,y,z
-x,-y,-z
loop_
_atom_site_type_symbol
_atom_site_label
_atom_site_fract_x
_atom_site_fract_y
_atom_site_fract_z
Si Si1 0.878486 0.972582 0.432199
Si Si2 0.180830 0.891222 0.219698
Si Si3 0.288837 0.151140 0.725170
Si Si4 0.109047 0.379556 0.012257
Si Si5 0.556695 0.422885 0.216505
Si Si6 0.550447 0.236670 0.928949
O O1 0.776464 0.964052 0.357139
O O2 0.990808 0.824720 0.370370
O O3 0.776968 0.947481 0.704910
O O4 0.003521 0.196789 0.275002
O O5 0.254018 0.709646 0.251859
O O6 0.280270 0.999300 0.933264
O O7 0.181371 0.293421 0.815542
O O8 0.470936 0.286560 0.492895
O O9 0.253527 0.522757 0.951950
O O10 0.000000 0.500000 0.000000
O O11 0.503268 0.626834 0.203334
O O12 0.490185 0.292536 0.146749
O O13 0.500000 0.000000 0.000000
#
# Coordination Sequence:
#
# PCOD8020762 Si02
#       6
#     2   2   2   2   2   2
#     4  10  23  45  75 108 149 198 255 312 373 461
#     4  10  22  42  75 106 144 196 251 302 382 443
#     4  11  24  47  76 107 150 195 253 321 371 450
#     4  11  25  44  72 108 150 197 253 309 383 450
#     4  11  27  47  73 117 152 191 263 315 371 463
#     4  11  24  45  75 108 154 202 245 312 388 447
#
# _framework density 25.908041999999998
#
# number of rings (size 3 to 8) (size 9 to 14) (size 15 to 20)
#    0.000    1.333    0.000    5.500    7.000    6.000 
#    0.000    1.667    0.000    0.000    0.000    0.000 
#    0.000    0.000    0.000    0.000    0.000    0.000 
#
# Total GULP energy -148682.719212 kJ/mol
# GULP energy per Si atom -12390.226601 kJ/mol
# Density = 2.584907 g / cm^3
# Si number density = 25.908042 Si / 1000 Ang^3
#
#
#
# Elastic Constant Matrix: (Units=GPa)
#
#
# Indices 1 2 3 4 5 6 
#
# 1 133.8280 31.2131 21.0825 -3.8247 2.3738 -4.6661
# 2 31.2131 76.6827 7.6896 1.2953 -4.2924 5.3954
# 3 21.0825 7.6896 86.7226 -2.4521 12.9290 9.8507
# 4 -3.8247 1.2953 -2.4521 26.1099 7.5430 -8.6567
# 5 2.3738 -4.2924 12.9290 7.5430 32.6872 21.3843
# 6 -4.6661 5.3954 9.8507 -8.6567 21.3843 56.6339
#
#
#
# Elastic Compliance Matrix: (Units=1/GPa)
#
#
# Indices 1 2 3 4 5 6 
#
# 1 0.008908 -0.003941 -0.001574 0.003397 -0.003414 0.003191
# 2 -0.003941 0.015630 -0.001092 -0.005344 0.007438 -0.005249
# 3 -0.001574 -0.001092 0.012958 0.002996 -0.006181 0.000512
# 4 0.003397 -0.005344 0.002996 0.053037 -0.026364 0.018329
# 5 -0.003414 0.007438 -0.006181 -0.026364 0.057009 -0.025471
# 6 0.003191 -0.005249 0.000512 0.018329 -0.025471 0.030750
#
#
# Mechanical properties :
#
#
# Convention : Reuss Voigt Hill
#
# Bulk Modulus (GPa) = 41.17907 46.35597 43.76752
# Shear Modulus (GPa) = 25.04991 38.90275 31.97633
#
# Velocity S-wave (km/s) = 3.11284 3.87921 3.51696
# Velocity P-wave (km/s) = 5.37108 6.16407 5.78119
#
# Compressibility (1/GPa) = 0.02428418
#
# Stress axis : x y z
#
# Youngs Moduli (GPa) = 112.25444 63.97775 77.17000
#
# Poissons Ratio (x) = 0.25215 0.12144
# Poissons Ratio (y) = 0.44243 0.08423
# Poissons Ratio (z) = 0.17665 0.06983
#
# Static dielectric constant tensor:
#      x y z
#    x 5.084000 -0.151790 -0.197320 
#    y -0.151790 4.638300 0.265420 
#    z -0.197320 0.265420 4.781970 
# 
# 
# High freq. dielectric constant tensor:
#      x y z
#    x 2.057680 -0.000700 -0.002910 
#    y -0.000700 2.013330 0.022940 
#    z -0.002910 0.022940 2.036330 
# 
# From -- ./inp_files/233729.got.cif
#   From: 2010.06.25/outbox.cif.g09.slc.cpg/sg2_117_cif.got.tgz:233729.got - 2010.06.27 13:26:56.
