data_PCOD8020777
_publ_section_title
;
Structure prediction by ZEFSAII (Michael W. Deem and Ramdas Pophale) SiO2 
 PCOD8020777
Probable space group: P -1
;
_chemical_formula_sum "Si O2"
_cell_formula_units_Z 16
_cell_length_a 11.921850
_cell_length_b 14.138220
_cell_length_c 9.582563
_cell_angle_alpha 29.144683
_cell_angle_beta 102.243158
_cell_angle_gamma 106.051762
_cell_volume 754.452872
_symmetry_space_group_name_H-M "P -1"
_symmetry_group_IT_number 2
_symmetry_cell_setting 'triclinic'
loop_
_space_group_symop_operation_xyz
x,y,z
-x,-y,-z
loop_
_atom_site_type_symbol
_atom_site_label
_atom_site_fract_x
_atom_site_fract_y
_atom_site_fract_z
Si Si1 0.228930 0.708962 0.752728
Si Si2 0.138533 0.831222 0.302368
Si Si3 0.124017 0.260294 0.700599
Si Si4 0.499533 0.535497 0.721427
Si Si5 0.751293 0.692165 0.606354
Si Si6 0.714257 0.359922 0.627120
Si Si7 0.513360 0.205682 0.347343
Si Si8 0.301021 0.926838 0.752341
O O1 0.132658 0.742511 0.571757
O O2 0.353383 0.820637 0.581562
O O3 0.208894 0.802849 0.778040
O O4 0.224840 0.474182 0.064485
O O5 0.238643 0.759724 0.330335
O O6 0.014358 0.758442 0.288161
O O7 0.167603 0.068500 0.018943
O O8 0.146646 0.268315 0.530711
O O9 0.187174 0.452805 0.550600
O O10 0.630136 0.606775 0.599543
O O11 0.402214 0.565276 0.547160
O O12 0.506930 0.670877 0.683449
O O13 0.480779 0.309941 0.061260
O O14 0.752013 0.890600 0.439259
O O15 0.677578 0.216064 0.933021
O O16 0.424172 0.995537 0.612297
#
# Coordination Sequence:
#
# PCOD8020777 Si02
#       8
#     2   2   2   2   2   2   2   2
#     4  11  22  42  65  94 123 171 211 251 316 372
#     4  11  26  44  69  89 122 168 217 261 313 364
#     4  11  25  46  64  92 127 162 216 267 305 370
#     4   9  20  36  65  94 129 166 200 255 315 369
#     4  10  22  43  61  94 138 157 201 268 305 371
#     4  12  23  43  66  95 125 168 210 254 321 370
#     4   9  19  38  59  95 134 161 202 257 304 378
#     4  11  23  37  64  95 130 165 206 251 313 376
#
# _framework density 21.207422000000001
#
# number of rings (size 3 to 8) (size 9 to 14) (size 15 to 20)
#    0.000    1.500    3.750    1.500    1.750    4.000 
#    0.000    0.625    0.000    0.000    0.000    0.000 
#    0.000    0.000    0.000    0.000    0.000    0.000 
#
# Total GULP energy -198400.234412 kJ/mol
# GULP energy per Si atom -12400.014651 kJ/mol
# Density = 2.115915 g / cm^3
# Si number density = 21.207422 Si / 1000 Ang^3
#
#
#
# Elastic Constant Matrix: (Units=GPa)
#
#
# Indices 1 2 3 4 5 6 
#
# 1 47.7340 -1.3331 27.3734 -0.7288 2.0677 0.6694
# 2 -1.3331 39.2404 62.5339 -11.9247 22.1072 12.9809
# 3 27.3734 62.5339 136.9091 1.8187 7.2885 11.0944
# 4 -0.7288 -11.9247 1.8187 34.8321 2.4125 -0.2411
# 5 2.0677 22.1072 7.2885 2.4125 25.8907 -0.8293
# 6 0.6694 12.9809 11.0944 -0.2411 -0.8293 18.1253
#
#
#
# Elastic Compliance Matrix: (Units=1/GPa)
#
#
# Indices 1 2 3 4 5 6 
#
# 1 0.017771 -0.018051 0.003150 -0.006873 0.014097 0.010897
# 2 -0.018051 -0.054330 0.024246 -0.023108 0.044007 0.026441
# 3 0.003150 0.024246 -0.001978 0.009866 -0.021866 -0.017139
# 4 -0.006873 -0.023108 0.009866 0.019105 0.016099 0.011755
# 5 0.014097 0.044007 -0.021866 0.016099 0.003993 -0.018256
# 6 0.010897 0.026441 -0.017139 0.011755 -0.018256 0.045644
#
#
# Mechanical properties :
#
#
# Convention : Reuss Voigt Hill
#
# Bulk Modulus (GPa) = -50.38186 44.55911 -2.91137
# Shear Modulus (GPa) = 1020.61008 24.79025 522.70017
#
# Velocity S-wave (km/s) = 21.96124 3.42269 15.71641
# Velocity P-wave (km/s) = 24.88480 6.05611 18.10980
#
# Compressibility (1/GPa) = -0.01984841
#
# Stress axis : x y z
#
# Youngs Moduli (GPa) = 56.27266 -18.40599 -505.45701
#
# Poissons Ratio (x) = -0.33225 1.59209
# Poissons Ratio (y) = 1.01580 12.25545
# Poissons Ratio (z) = -0.17725 0.44628
#
# Static dielectric constant tensor:
#      x y z
#    x 3.783210 -0.130490 -0.091990 
#    y -0.130490 3.776360 -0.154220 
#    z -0.091990 -0.154220 3.962500 
# 
# 
# High freq. dielectric constant tensor:
#      x y z
#    x 1.819620 -0.014830 -0.004280 
#    y -0.014830 1.830880 -0.011260 
#    z -0.004280 -0.011260 1.840110 
# 
# From -- ./inp_files/271414.got.cif
#   From: 2010.06.25/outbox.cif.g09.slc.cpg/sg2_136_cif.got.tgz:271414.got - 2010.06.27 13:26:56.
