data_PCOD8020809
_publ_section_title
;
Structure prediction by ZEFSAII (Michael W. Deem and Ramdas Pophale) SiO2 
 PCOD8020809
Probable space group: P -1
;
_chemical_formula_sum "Si O2"
_cell_formula_units_Z 12
_cell_length_a 12.260346
_cell_length_b 7.933449
_cell_length_c 5.275920
_cell_angle_alpha 94.882603
_cell_angle_beta 101.153669
_cell_angle_gamma 88.995636
_cell_volume 501.651837
_symmetry_space_group_name_H-M "P -1"
_symmetry_group_IT_number 2
_symmetry_cell_setting 'triclinic'
loop_
_space_group_symop_operation_xyz
x,y,z
-x,-y,-z
loop_
_atom_site_type_symbol
_atom_site_label
_atom_site_fract_x
_atom_site_fract_y
_atom_site_fract_z
Si Si1 0.240113 0.634790 0.431368
Si Si2 0.858771 0.070712 0.839387
Si Si3 0.804362 0.731420 0.587569
Si Si4 0.591377 0.826379 0.256916
Si Si5 0.458846 0.787917 0.704674
Si Si6 0.954609 0.188647 0.403615
O O1 0.228112 0.772358 0.213366
O O2 0.225737 0.442606 0.301638
O O3 0.359010 0.653574 0.623137
O O4 0.141487 0.669269 0.593615
O O5 0.936606 0.056946 0.616111
O O6 0.794126 0.890759 0.800573
O O7 0.937944 0.097072 0.115286
O O8 0.717873 0.760914 0.322348
O O9 0.927355 0.717317 0.522893
O O10 0.529908 0.774245 0.480368
O O11 0.595104 0.028306 0.254227
O O12 0.533533 0.740635 0.976127
#
# Coordination Sequence:
#
# PCOD8020809 Si02
#       6
#     2   2   2   2   2   2
#     4  10  25  43  70  97 137 170 216 276 325 385
#     4  10  24  44  64  98 132 177 213 267 326 384
#     4  12  23  45  68 104 127 177 222 265 329 395
#     4  10  23  40  68  90 128 173 215 266 321 390
#     4  10  22  43  63  93 129 170 214 269 327 374
#     4  10  24  45  67  96 138 173 212 274 326 385
#
# _framework density 23.920971000000002
#
# number of rings (size 3 to 8) (size 9 to 14) (size 15 to 20)
#    1.000    0.667    1.667    1.500    2.333    6.000 
#    6.000    0.000    0.000    0.000    0.000    0.000 
#    0.000    0.000    0.000    0.000    0.000    0.000 
#
# Total GULP energy -148785.908951 kJ/mol
# GULP energy per Si atom -12398.825746 kJ/mol
# Density = 2.386653 g / cm^3
# Si number density = 23.920971 Si / 1000 Ang^3
#
#
#
# Elastic Constant Matrix: (Units=GPa)
#
#
# Indices 1 2 3 4 5 6 
#
# 1 122.6474 44.6957 58.7728 7.1373 49.7714 8.9742
# 2 44.6957 149.9841 62.2740 23.3261 22.9477 18.0903
# 3 58.7728 62.2740 158.8195 -9.8673 26.8118 2.4621
# 4 7.1373 23.3261 -9.8673 21.4884 0.6600 11.5727
# 5 49.7714 22.9477 26.8118 0.6600 38.1554 4.0085
# 6 8.9742 18.0903 2.4621 11.5727 4.0085 27.2075
#
#
#
# Elastic Compliance Matrix: (Units=1/GPa)
#
#
# Indices 1 2 3 4 5 6 
#
# 1 0.019833 0.000739 -0.004275 -0.008954 -0.023218 0.000583
# 2 0.000739 0.011467 -0.004978 -0.014503 -0.004043 -0.000653
# 3 -0.004275 -0.004978 0.010430 0.012502 0.001205 -0.001719
# 4 -0.008954 -0.014503 0.012502 0.084898 0.012938 -0.026552
# 5 -0.023218 -0.004043 0.001205 0.012938 0.058260 -0.003849
# 6 0.000583 -0.000653 -0.001719 -0.026552 -0.003849 0.049013
#
#
# Mechanical properties :
#
#
# Convention : Reuss Voigt Hill
#
# Bulk Modulus (GPa) = 40.48152 84.77068 62.62610
# Shear Modulus (GPa) = 19.29280 35.08416 27.18848
#
# Velocity S-wave (km/s) = 2.84302 3.83387 3.37500
# Velocity P-wave (km/s) = 5.26657 7.42380 6.43621
#
# Compressibility (1/GPa) = 0.02470263
#
# Stress axis : x y z
#
# Youngs Moduli (GPa) = 50.42064 87.20640 95.87390
#
# Poissons Ratio (x) = -0.06447 0.40986
# Poissons Ratio (y) = -0.03728 0.47728
# Poissons Ratio (z) = 0.21555 0.43413
#
# Static dielectric constant tensor:
#      x y z
#    x 4.266030 -0.127140 0.229120 
#    y -0.127140 4.164700 -0.012140 
#    z 0.229120 -0.012140 4.003430 
# 
# 
# High freq. dielectric constant tensor:
#      x y z
#    x 1.958580 -0.014650 0.021420 
#    y -0.014650 1.944810 0.000470 
#    z 0.021420 0.000470 1.930840 
# 
# From -- ./inp_files/59994.got.cif
#   From: 2010.06.25/outbox.cif.g09.slc.cpg/sg2_30_cif.got.tgz:59994.got - 2010.06.27 13:26:56.
