data_PCOD8020309
_publ_section_title
;
Structure prediction by ZEFSAII (Michael W. Deem and Ramdas Pophale) SiO2 
 PCOD8020309
Probable space group: P -1
;
_chemical_formula_sum "Si O2"
_cell_formula_units_Z 16
_cell_length_a 8.432531
_cell_length_b 17.773663
_cell_length_c 14.085224
_cell_angle_alpha 30.375369
_cell_angle_beta 42.617159
_cell_angle_gamma 45.911572
_cell_volume 711.265432
_symmetry_space_group_name_H-M "P -1"
_symmetry_group_IT_number 2
_symmetry_cell_setting 'triclinic'
loop_
_space_group_symop_operation_xyz
x,y,z
-x,-y,-z
loop_
_atom_site_type_symbol
_atom_site_label
_atom_site_fract_x
_atom_site_fract_y
_atom_site_fract_z
Si Si1 0.395440 0.275285 0.927861
Si Si2 0.651846 0.756312 0.382291
Si Si3 0.815263 0.597539 0.298465
Si Si4 0.837866 0.006270 0.655552
Si Si5 0.239421 0.492452 0.091740
Si Si6 0.112310 0.736120 0.315862
Si Si7 0.682117 0.449370 0.213216
Si Si8 0.989753 0.232406 0.463978
O O1 0.379903 0.377401 0.727329
O O2 0.673091 0.196663 0.902483
O O3 0.331123 0.377270 0.938483
O O4 0.213461 0.159862 0.120139
O O5 0.753421 0.733904 0.253710
O O6 0.577062 0.600982 0.624459
O O7 0.861761 0.799357 0.307639
O O8 0.420447 0.886847 0.352303
O O9 0.820133 0.445835 0.521875
O O10 0.065798 0.585957 0.144060
O O11 0.000000 0.000000 0.500000
O O12 0.012695 0.064420 0.593060
O O13 0.218924 0.313314 0.290213
O O14 0.500000 0.500000 0.000000
O O15 0.187155 0.567784 0.928107
O O16 0.120194 0.788121 0.363608
O O17 0.817702 0.343661 0.349598
#
# Coordination Sequence:
#
# PCOD8020309 Si02
#       8
#     2   2   2   2   2   2   2   2
#     4  12  23  39  72  96 137 178 234 271 337 402
#     4  11  25  43  71  97 144 174 222 284 346 395
#     4  11  23  41  65 110 134 171 224 289 332 404
#     4  11  27  47  66  96 136 187 229 273 334 414
#     4  11  23  36  65 105 137 168 225 283 342 391
#     4  11  22  41  70 107 133 172 224 295 338 391
#     4  11  20  38  69  98 127 180 224 277 331 398
#     4  10  22  42  67  93 135 171 228 277 332 395
#
# _framework density 22.495117
#
# number of rings (size 3 to 8) (size 9 to 14) (size 15 to 20)
#    0.000    1.000    3.750    4.875    5.250    2.500 
#    0.000    0.625    0.000    0.000    0.000    0.000 
#    0.000    0.000    0.000    0.000    0.000    0.000 
#
# Total GULP energy -198215.317003 kJ/mol
# GULP energy per Si atom -12388.457313 kJ/mol
# Density = 2.244392 g / cm^3
# Si number density = 22.495117 Si / 1000 Ang^3
#
#
#
# Elastic Constant Matrix: (Units=GPa)
#
#
# Indices 1 2 3 4 5 6 
#
# 1 76.2736 38.7073 20.5104 9.8313 -15.8423 0.4775
# 2 38.7073 116.1617 31.0916 23.6558 -2.5447 16.9558
# 3 20.5104 31.0916 84.5780 12.5411 -22.9196 10.6813
# 4 9.8313 23.6558 12.5411 38.4447 4.8674 0.9470
# 5 -15.8423 -2.5447 -22.9196 4.8674 43.6129 8.5093
# 6 0.4775 16.9558 10.6813 0.9470 8.5093 33.2041
#
#
#
# Elastic Compliance Matrix: (Units=1/GPa)
#
#
# Indices 1 2 3 4 5 6 
#
# 1 0.017363 -0.005336 -0.000649 -0.001685 0.005589 0.001300
# 2 -0.005336 0.012892 -0.002048 -0.005695 -0.000545 -0.005546
# 3 -0.000649 -0.002048 0.017354 -0.005422 0.010761 -0.007131
# 4 -0.001685 -0.005695 -0.005422 0.032657 -0.008599 0.005948
# 5 0.005589 -0.000545 0.010761 -0.008599 0.033823 -0.011686
# 6 0.001300 -0.005546 -0.007131 0.005948 -0.011686 0.038049
#
#
# Mechanical properties :
#
#
# Convention : Reuss Voigt Hill
#
# Bulk Modulus (GPa) = 31.70222 50.84798 41.27510
# Shear Modulus (GPa) = 27.97691 35.49928 31.73810
#
# Velocity S-wave (km/s) = 3.53042 3.97683 3.76025
# Velocity P-wave (km/s) = 5.54455 6.61362 6.10254
#
# Compressibility (1/GPa) = 0.03154353
#
# Stress axis : x y z
#
# Youngs Moduli (GPa) = 57.59340 77.56586 57.62279
#
# Poissons Ratio (x) = 0.41391 0.03737
# Poissons Ratio (y) = 0.30733 0.11802
# Poissons Ratio (z) = 0.03735 0.15887
#
# Static dielectric constant tensor:
#      x y z
#    x 4.271770 0.260110 -0.367740 
#    y 0.260110 4.158840 0.089360 
#    z -0.367740 0.089360 4.245190 
# 
# 
# High freq. dielectric constant tensor:
#      x y z
#    x 1.885660 0.017160 -0.017920 
#    y 0.017160 1.880790 0.026980 
#    z -0.017920 0.026980 1.876140 
# 
# From -- ./inp_files/381056.got.cif
#   From: 2010.06.25/outbox.cif.g09.slc.cpg/sg2_191_cif.got.tgz:381056.got - 2010.06.27 13:26:56.
