data_PCOD8020068
_publ_section_title
;
Structure prediction by ZEFSAII (Michael W. Deem and Ramdas Pophale) SiO2 
 PCOD8020068
Probable space group: P -1
;
_chemical_formula_sum "Si O2"
_cell_formula_units_Z 10
_cell_length_a 8.862067
_cell_length_b 9.086643
_cell_length_c 24.524478
_cell_angle_alpha 148.972990
_cell_angle_beta 150.011644
_cell_angle_gamma 50.203336
_cell_volume 467.091868
_symmetry_space_group_name_H-M "P -1"
_symmetry_group_IT_number 2
_symmetry_cell_setting 'triclinic'
loop_
_space_group_symop_operation_xyz
x,y,z
-x,-y,-z
loop_
_atom_site_type_symbol
_atom_site_label
_atom_site_fract_x
_atom_site_fract_y
_atom_site_fract_z
Si Si1 0.728590 0.792604 0.199712
Si Si2 0.113475 0.892832 0.841720
Si Si3 0.888919 0.120183 0.950095
Si Si4 0.836991 0.145441 0.738008
Si Si5 0.088494 0.787825 0.418231
O O1 0.507817 0.987263 0.205716
O O2 0.046266 0.973914 0.318741
O O3 0.836858 0.691955 0.258400
O O4 0.500000 0.500000 0.000000
O O5 0.945106 0.524484 0.659930
O O6 0.967503 0.950609 0.870444
O O7 0.029872 0.083954 0.829327
O O8 0.500000 0.000000 0.000000
O O9 0.082297 0.489656 0.122670
O O10 0.000000 0.000000 0.000000
O O11 0.451161 0.963450 0.564600
O O12 0.000000 0.000000 0.500000
#
# Coordination Sequence:
#
# PCOD8020068 Si02
#       5
#     2   2   2   2   2
#     4  10  22  42  65  91 126 170 214 257 313 385
#     4  12  23  41  66  95 130 174 215 260 320 390
#     4  11  22  41  66  94 127 172 217 260 315 388
#     4  11  23  41  64  97 130 166 213 270 320 375
#     4  12  25  43  65  97 133 168 212 271 325 374
#
# _framework density 21.409063
#
# number of rings (size 3 to 8) (size 9 to 14) (size 15 to 20)
#    0.000    0.800    0.000   10.200    0.000    0.000 
#    0.000    3.000    0.000    0.000    0.000    0.000 
#    0.000    0.000    0.000    0.000    0.000    0.000 
#
# Total GULP energy -124025.686149 kJ/mol
# GULP energy per Si atom -12402.568615 kJ/mol
# Density = 2.136034 g / cm^3
# Si number density = 21.409063 Si / 1000 Ang^3
#
#
#
# Elastic Constant Matrix: (Units=GPa)
#
#
# Indices 1 2 3 4 5 6 
#
# 1 161.5881 52.9915 45.0480 3.3002 5.1326 -22.2750
# 2 52.9915 163.6677 55.4299 2.3586 1.2969 11.9948
# 3 45.0480 55.4299 100.4248 6.0821 11.5836 -6.0548
# 4 3.3002 2.3586 6.0821 47.2994 1.4833 -0.1579
# 5 5.1326 1.2969 11.5836 1.4833 45.3037 -11.5448
# 6 -22.2750 11.9948 -6.0548 -0.1579 -11.5448 53.3594
#
#
#
# Elastic Compliance Matrix: (Units=1/GPa)
#
#
# Indices 1 2 3 4 5 6 
#
# 1 0.008002 -0.002093 -0.002280 -0.000170 0.000685 0.003700
# 2 -0.002093 0.008328 -0.003882 0.000214 0.000182 -0.003146
# 3 -0.002280 -0.003882 0.013581 -0.001302 -0.002846 0.000842
# 4 -0.000170 0.000214 -0.001302 0.021323 -0.000428 -0.000296
# 5 0.000685 0.000182 -0.002846 -0.000428 0.024037 0.005121
# 6 0.003700 -0.003146 0.000842 -0.000296 0.005121 0.022195
#
#
# Mechanical properties :
#
#
# Convention : Reuss Voigt Hill
#
# Bulk Modulus (GPa) = 74.61485 81.40216 78.00850
# Shear Modulus (GPa) = 42.21423 47.33991 44.77707
#
# Velocity S-wave (km/s) = 4.44530 4.70745 4.57825
# Velocity P-wave (km/s) = 7.82785 8.22506 8.02891
#
# Compressibility (1/GPa) = 0.01340216
#
# Stress axis : x y z
#
# Youngs Moduli (GPa) = 124.96355 120.07358 73.63312
#
# Poissons Ratio (x) = 0.25130 0.16789
# Poissons Ratio (y) = 0.26154 0.28582
# Poissons Ratio (z) = 0.28493 0.46608
#
# Static dielectric constant tensor:
#      x y z
#    x 4.590700 -0.204710 0.208810 
#    y -0.204710 4.260100 -0.099440 
#    z 0.208810 -0.099440 3.716950 
# 
# 
# High freq. dielectric constant tensor:
#      x y z
#    x 1.869060 -0.005320 0.007970 
#    y -0.005320 1.856150 -0.012250 
#    z 0.007970 -0.012250 1.828330 
# 
# From -- ./inp_files/15624.got.cif
#   From: 2010.06.25/outbox.cif.g09.slc.cpg/sg2_8_cif.got.tgz:15624.got - 2010.06.27 13:26:56.
