data_PCOD8020832
_publ_section_title
;
Structure prediction by ZEFSAII (Michael W. Deem and Ramdas Pophale) SiO2 
 PCOD8020832
Probable space group: P -1
;
_chemical_formula_sum "Si O2"
_cell_formula_units_Z 16
_cell_length_a 14.571997
_cell_length_b 4.975720
_cell_length_c 13.396756
_cell_angle_alpha 71.996847
_cell_angle_beta 74.835839
_cell_angle_gamma 64.995021
_cell_volume 827.486004
_symmetry_space_group_name_H-M "P -1"
_symmetry_group_IT_number 2
_symmetry_cell_setting 'triclinic'
loop_
_space_group_symop_operation_xyz
x,y,z
-x,-y,-z
loop_
_atom_site_type_symbol
_atom_site_label
_atom_site_fract_x
_atom_site_fract_y
_atom_site_fract_z
Si Si1 0.604796 0.829946 0.435965
Si Si2 0.232239 0.370836 0.300134
Si Si3 0.545087 0.570815 0.123887
Si Si4 0.879681 0.229709 0.359662
Si Si5 0.251800 0.753749 0.425650
Si Si6 0.410335 0.247775 0.120496
Si Si7 0.004180 0.573629 0.373444
Si Si8 0.331396 0.618845 0.694942
O O1 0.663003 0.545726 0.521503
O O2 0.592179 0.679006 0.351768
O O3 0.500000 0.000000 0.500000
O O4 0.662910 0.063723 0.380734
O O5 0.223663 0.658852 0.337065
O O6 0.295250 0.375022 0.182077
O O7 0.115236 0.404032 0.310473
O O8 0.289918 0.036299 0.372461
O O9 0.488375 0.333679 0.158858
O O10 0.636544 0.441003 0.192285
O O11 0.455410 0.885011 0.142855
O O12 0.599266 0.597827 0.002554
O O13 0.845196 0.133768 0.486291
O O14 0.923116 0.489766 0.340202
O O15 0.784882 0.357791 0.294112
O O16 0.970120 0.934828 0.325648
O O17 0.000000 0.500000 0.500000
#
# Coordination Sequence:
#
# PCOD8020832 Si02
#       8
#     2   2   2   2   2   2   2   2
#     4  11  24  36  51  83 119 156 190 231 272 352
#     4  12  23  34  59  85 114 154 187 244 288 330
#     4  10  22  43  64  83 113 153 191 243 300 338
#     4  11  21  38  53  80 117 152 199 225 271 352
#     4  11  21  35  52  80 121 152 188 227 279 338
#     4  10  23  40  62  90 113 142 200 247 286 352
#     4  12  21  36  57  80 117 159 190 234 285 336
#     4  11  23  39  59  81 112 159 196 230 286 347
#
# _framework density 19.335674000000001
#
# number of rings (size 3 to 8) (size 9 to 14) (size 15 to 20)
#    0.000    1.000    2.500    6.000    5.250    0.000 
#    0.000    0.000    0.000    1.500    0.000    0.000 
#    0.000    0.000    0.000    0.000    0.000    0.000 
#
# Total GULP energy -198372.661373 kJ/mol
# GULP energy per Si atom -12398.291336 kJ/mol
# Density = 1.929166 g / cm^3
# Si number density = 19.335674 Si / 1000 Ang^3
#
#
#
# Elastic Constant Matrix: (Units=GPa)
#
#
# Indices 1 2 3 4 5 6 
#
# 1 105.6899 33.7702 57.5553 10.1528 9.1803 -7.4363
# 2 33.7702 103.0706 30.4571 6.9525 -1.4518 2.9613
# 3 57.5553 30.4571 82.2143 12.9364 -1.2444 -15.4762
# 4 10.1528 6.9525 12.9364 22.1558 -2.0491 -0.2396
# 5 9.1803 -1.4518 -1.2444 -2.0491 30.0796 7.8290
# 6 -7.4363 2.9613 -15.4762 -0.2396 7.8290 34.6595
#
#
#
# Elastic Compliance Matrix: (Units=1/GPa)
#
#
# Indices 1 2 3 4 5 6 
#
# 1 0.016627 -0.002320 -0.010614 -0.001226 -0.005794 0.000327
# 2 -0.002320 0.011561 -0.003171 -0.000568 0.001968 -0.003350
# 3 -0.010614 -0.003171 0.023524 -0.007657 0.001424 0.008123
# 4 -0.001226 -0.000568 -0.007657 0.050726 0.004611 -0.004325
# 5 -0.005794 0.001968 0.001424 0.004611 0.037904 -0.009306
# 6 0.000327 -0.003350 0.008123 -0.004325 -0.009306 0.034908
#
#
# Mechanical properties :
#
#
# Convention : Reuss Voigt Hill
#
# Bulk Modulus (GPa) = 51.27151 59.39334 55.33242
# Shear Modulus (GPa) = 23.36913 28.65844 26.01378
#
# Velocity S-wave (km/s) = 3.48027 3.85405 3.67192
# Velocity P-wave (km/s) = 6.53634 7.11257 6.83053
#
# Compressibility (1/GPa) = 0.01950401
#
# Stress axis : x y z
#
# Youngs Moduli (GPa) = 60.14402 86.49609 42.51041
#
# Poissons Ratio (x) = 0.20063 0.45119
# Poissons Ratio (y) = 0.13951 0.13478
# Poissons Ratio (z) = 0.63835 0.27424
#
# Static dielectric constant tensor:
#      x y z
#    x 3.557720 0.271300 0.013890 
#    y 0.271300 3.615870 0.094480 
#    z 0.013890 0.094480 3.281310 
# 
# 
# High freq. dielectric constant tensor:
#      x y z
#    x 1.751110 0.014680 0.001980 
#    y 0.014680 1.779110 0.009630 
#    z 0.001980 0.009630 1.710300 
# 
# From -- ./inp_files/441022.got.cif
#   From: 2010.06.25/outbox.cif.g09.slc.cpg/sg2_221_cif.got.tgz:441022.got - 2010.06.27 13:26:56.
