data_PCOD8020519
_publ_section_title
;
Structure prediction by ZEFSAII (Michael W. Deem and Ramdas Pophale) SiO2 
 PCOD8020519
Probable space group: P -1
;
_chemical_formula_sum "Si O2"
_cell_formula_units_Z 16
_cell_length_a 15.898777
_cell_length_b 13.125395
_cell_length_c 8.596865
_cell_angle_alpha 106.087913
_cell_angle_beta 29.377680
_cell_angle_gamma 117.643039
_cell_volume 745.468792
_symmetry_space_group_name_H-M "P -1"
_symmetry_group_IT_number 2
_symmetry_cell_setting 'triclinic'
loop_
_space_group_symop_operation_xyz
x,y,z
-x,-y,-z
loop_
_atom_site_type_symbol
_atom_site_label
_atom_site_fract_x
_atom_site_fract_y
_atom_site_fract_z
Si Si1 0.116311 0.705211 0.154832
Si Si2 0.331173 0.897995 0.637808
Si Si3 0.801451 0.763666 0.839906
Si Si4 0.167272 0.062981 0.879860
Si Si5 0.529092 0.275338 0.221433
Si Si6 0.759095 0.489428 0.532512
Si Si7 0.519295 0.230186 0.859605
Si Si8 0.466638 0.495934 0.797730
O O1 0.983947 0.757484 0.466707
O O2 0.986782 0.573568 0.231766
O O3 0.235861 0.782455 0.850410
O O4 0.257733 0.697875 0.054374
O O5 0.429539 0.874309 0.316688
O O6 0.500000 0.000000 0.500000
O O7 0.181818 0.945613 0.856657
O O8 0.892345 0.879732 0.855214
O O9 0.674561 0.781594 0.916081
O O10 0.662348 0.642241 0.112850
O O11 0.367067 0.170639 0.540318
O O12 0.000000 0.000000 0.000000
O O13 0.521123 0.402486 0.300442
O O14 0.489175 0.225896 0.090070
O O15 0.709348 0.351027 0.548687
O O16 0.685410 0.524336 0.506070
O O17 0.641378 0.501581 0.871556
#
# Coordination Sequence:
#
# PCOD8020519 Si02
#       8
#     2   2   2   2   2   2   2   2
#     4  11  23  39  67  95 126 160 204 256 311 363
#     4  12  25  47  61  86 127 168 207 258 304 362
#     4  10  22  44  66  92 124 168 202 247 317 372
#     4  12  29  45  61  90 125 163 217 258 298 367
#     4  11  23  41  64  97 125 159 204 262 309 355
#     4   8  17  36  62  96 121 159 202 244 310 378
#     4  10  22  42  69  90 126 166 202 250 311 370
#     4   8  17  36  64  91 126 157 200 250 306 374
#
# _framework density 21.463004000000002
#
# number of rings (size 3 to 8) (size 9 to 14) (size 15 to 20)
#    0.000    1.750    2.500    2.250    5.250    7.500 
#    0.000    0.000    0.000    0.000    0.000    0.000 
#    0.000    0.000    0.000    0.000    0.000    0.000 
#
# Total GULP energy -198315.558657 kJ/mol
# GULP energy per Si atom -12394.722416 kJ/mol
# Density = 2.141415 g / cm^3
# Si number density = 21.463004 Si / 1000 Ang^3
#
#
#
# Elastic Constant Matrix: (Units=GPa)
#
#
# Indices 1 2 3 4 5 6 
#
# 1 98.1292 16.3595 16.3245 2.3900 -25.0185 -1.4042
# 2 16.3595 67.9694 -2.3343 11.2254 -10.8835 0.2654
# 3 16.3245 -2.3343 52.8942 -5.1365 -17.0143 2.2343
# 4 2.3900 11.2254 -5.1365 33.1565 -0.5705 -2.3617
# 5 -25.0185 -10.8835 -17.0143 -0.5705 33.0827 -10.1842
# 6 -1.4042 0.2654 2.2343 -2.3617 -10.1842 32.3085
#
#
#
# Elastic Compliance Matrix: (Units=1/GPa)
#
#
# Indices 1 2 3 4 5 6 
#
# 1 0.013283 -0.001603 -0.001083 -0.000134 0.010145 0.003853
# 2 -0.001603 0.016975 0.002632 -0.005040 0.005986 0.001127
# 3 -0.001083 0.002632 0.023798 0.003291 0.013167 0.002677
# 4 -0.000134 -0.005040 0.003291 0.032593 0.001295 0.002599
# 5 0.010145 0.005986 0.013167 0.001295 0.051533 0.015820
# 6 0.003853 0.001127 0.002677 0.002599 0.015820 0.036101
#
#
# Mechanical properties :
#
#
# Convention : Reuss Voigt Hill
#
# Bulk Modulus (GPa) = 18.53574 31.07693 24.80633
# Shear Modulus (GPa) = 25.99117 32.28574 29.13846
#
# Velocity S-wave (km/s) = 3.48368 3.88267 3.68858
# Velocity P-wave (km/s) = 4.98360 5.88311 5.45194
#
# Compressibility (1/GPa) = 0.05394984
#
# Stress axis : x y z
#
# Youngs Moduli (GPa) = 75.28521 58.90913 42.02053
#
# Poissons Ratio (x) = 0.09442 0.04549
# Poissons Ratio (y) = 0.12067 -0.11061
# Poissons Ratio (z) = 0.08151 -0.15507
#
# Static dielectric constant tensor:
#      x y z
#    x 3.869430 0.227130 -0.129260 
#    y 0.227130 4.268390 -0.022400 
#    z -0.129260 -0.022400 3.563200 
# 
# 
# High freq. dielectric constant tensor:
#      x y z
#    x 1.844230 0.007620 -0.007980 
#    y 0.007620 1.855920 0.002790 
#    z -0.007980 0.002790 1.828160 
# 
# From -- ./inp_files/242655.got.cif
#   From: 2010.06.25/outbox.cif.g09.slc.cpg/sg2_122_cif.got.tgz:242655.got - 2010.06.27 13:26:56.
