data_PCOD8020467
_publ_section_title
;
Structure prediction by ZEFSAII (Michael W. Deem and Ramdas Pophale) SiO2 
 PCOD8020467
Probable space group: P -1
;
_chemical_formula_sum "Si O2"
_cell_formula_units_Z 16
_cell_length_a 13.641426
_cell_length_b 7.864366
_cell_length_c 16.000226
_cell_angle_alpha 41.814226
_cell_angle_beta 44.080033
_cell_angle_gamma 46.376024
_cell_volume 750.662912
_symmetry_space_group_name_H-M "P -1"
_symmetry_group_IT_number 2
_symmetry_cell_setting 'triclinic'
loop_
_space_group_symop_operation_xyz
x,y,z
-x,-y,-z
loop_
_atom_site_type_symbol
_atom_site_label
_atom_site_fract_x
_atom_site_fract_y
_atom_site_fract_z
Si Si1 0.843360 0.591206 0.725624
Si Si2 0.704252 0.752638 0.918048
Si Si3 0.529040 0.375767 0.783136
Si Si4 0.314815 0.217511 0.406243
Si Si5 0.467102 0.370591 0.484377
Si Si6 0.861874 0.597919 0.304461
Si Si7 0.922610 0.880199 0.301173
Si Si8 0.986820 0.375638 0.141504
O O1 0.744059 0.580586 0.870877
O O2 0.741718 0.813952 0.641941
O O3 0.996607 0.635553 0.651328
O O4 0.901089 0.306985 0.741837
O O5 0.848560 0.766134 0.873293
O O6 0.614382 0.058756 0.836480
O O7 0.618413 0.596526 0.083147
O O8 0.626356 0.528935 0.715596
O O9 0.478841 0.505885 0.675063
O O10 0.172884 0.268356 0.534287
O O11 0.449694 0.950391 0.447430
O O12 0.500000 0.500000 0.500000
O O13 0.289418 0.447342 0.559875
O O14 0.863377 0.886258 0.237977
O O15 0.885410 0.590777 0.192174
O O16 0.901417 0.163095 0.253758
O O17 0.000000 0.500000 0.000000
#
# Coordination Sequence:
#
# PCOD8020467 Si02
#       8
#     2   2   2   2   2   2   2   2
#     4   9  21  44  65  97 131 171 230 270 331 398
#     4  10  24  44  64  96 136 183 220 271 337 407
#     4  11  24  43  67  95 140 175 222 273 339 409
#     4  12  23  41  73  99 132 176 223 286 338 390
#     4  12  25  42  66 102 135 175 223 281 342 395
#     4   9  23  43  64 100 132 172 227 274 337 394
#     4  10  22  42  68  97 133 169 232 273 338 388
#     4  11  24  42  68  95 134 182 223 276 334 399
#
# _framework density 21.314494
#
# number of rings (size 3 to 8) (size 9 to 14) (size 15 to 20)
#    0.750    0.750    1.250    3.000    3.500    2.000 
#    2.250    5.000    0.000    0.000    0.000    0.000 
#    0.000    0.000    0.000    0.000    0.000    0.000 
#
# Total GULP energy -198212.883283 kJ/mol
# GULP energy per Si atom -12388.305205 kJ/mol
# Density = 2.126598 g / cm^3
# Si number density = 21.314494 Si / 1000 Ang^3
#
#
#
# Elastic Constant Matrix: (Units=GPa)
#
#
# Indices 1 2 3 4 5 6 
#
# 1 125.2933 41.2012 64.8729 10.1035 13.5576 15.2294
# 2 41.2012 73.4794 59.8242 22.2604 4.8093 9.2299
# 3 64.8729 59.8242 143.6573 21.9051 8.2808 8.6412
# 4 10.1035 22.2604 21.9051 34.6545 4.1907 4.2346
# 5 13.5576 4.8093 8.2808 4.1907 41.5304 0.6730
# 6 15.2294 9.2299 8.6412 4.2346 0.6730 36.2913
#
#
#
# Elastic Compliance Matrix: (Units=1/GPa)
#
#
# Indices 1 2 3 4 5 6 
#
# 1 0.011593 -0.003452 -0.003736 0.001935 -0.002782 -0.003272
# 2 -0.003452 0.024554 -0.007042 -0.010167 0.000745 -0.001947
# 3 -0.003736 -0.007042 0.011839 -0.001948 -0.000142 0.000769
# 4 0.001935 -0.010167 -0.001948 0.036627 -0.002730 -0.001986
# 5 -0.002782 0.000745 -0.000142 -0.002730 0.025190 0.000863
# 6 -0.003272 -0.001947 0.000769 -0.001986 0.000863 0.029455
#
#
# Mechanical properties :
#
#
# Convention : Reuss Voigt Hill
#
# Bulk Modulus (GPa) = 51.21035 74.91408 63.06222
# Shear Modulus (GPa) = 28.69801 34.26401 31.48101
#
# Velocity S-wave (km/s) = 3.67332 4.01377 3.84731
# Velocity P-wave (km/s) = 6.48609 7.53019 7.02756
#
# Compressibility (1/GPa) = 0.01952730
#
# Stress axis : x y z
#
# Youngs Moduli (GPa) = 86.25588 40.72649 84.46468
#
# Poissons Ratio (x) = 0.14061 0.31552
# Poissons Ratio (y) = 0.29780 0.59478
# Poissons Ratio (z) = 0.32221 0.28678
#
# Static dielectric constant tensor:
#      x y z
#    x 4.202010 0.124590 0.020290 
#    y 0.124590 4.091520 0.225500 
#    z 0.020290 0.225500 3.808760 
# 
# 
# High freq. dielectric constant tensor:
#      x y z
#    x 1.849190 0.003710 0.006680 
#    y 0.003710 1.831420 0.031500 
#    z 0.006680 0.031500 1.823210 
# 
# From -- ./inp_files/528049.got.cif
#   From: 2010.06.25/outbox.cif.g09.slc.cpg/sg2_265_cif.got.tgz:528049.got - 2010.06.27 13:26:56.
