data_PCOD8020826
_publ_section_title
;
Structure prediction by ZEFSAII (Michael W. Deem and Ramdas Pophale) SiO2 
 PCOD8020826
Probable space group: P -1
;
_chemical_formula_sum "Si O2"
_cell_formula_units_Z 16
_cell_length_a 9.147684
_cell_length_b 10.476282
_cell_length_c 15.104859
_cell_angle_alpha 68.288369
_cell_angle_beta 140.177746
_cell_angle_gamma 90.142266
_cell_volume 758.655580
_symmetry_space_group_name_H-M "P -1"
_symmetry_group_IT_number 2
_symmetry_cell_setting 'triclinic'
loop_
_space_group_symop_operation_xyz
x,y,z
-x,-y,-z
loop_
_atom_site_type_symbol
_atom_site_label
_atom_site_fract_x
_atom_site_fract_y
_atom_site_fract_z
Si Si1 0.570066 0.642425 0.781681
Si Si2 0.964059 0.403218 0.699188
Si Si3 0.804670 0.647765 0.427852
Si Si4 0.805459 0.937266 0.165910
Si Si5 0.259931 0.799318 0.039474
Si Si6 0.534693 0.562228 0.092404
Si Si7 0.026969 0.884120 0.464006
Si Si8 0.056495 0.621554 0.101281
O O1 0.409585 0.566982 0.773974
O O2 0.332339 0.804499 0.598256
O O3 0.737028 0.542903 0.801963
O O4 0.761611 0.659051 0.937348
O O5 0.010268 0.248746 0.707093
O O6 0.236503 0.399058 0.824358
O O7 0.756804 0.566034 0.514593
O O8 0.878244 0.393372 0.761183
O O9 0.540316 0.745025 0.226933
O O10 0.000000 0.500000 0.500000
O O11 0.920310 0.764297 0.475356
O O12 0.864726 0.983464 0.278304
O O13 0.500000 0.000000 0.000000
O O14 0.879437 0.018159 0.098126
O O15 0.287237 0.714436 0.978326
O O16 0.082003 0.765157 0.033077
O O17 0.500000 0.500000 0.000000
O O18 0.000000 0.000000 0.500000
#
# Coordination Sequence:
#
# PCOD8020826 Si02
#       8
#     2   2   2   2   2   2   2   2
#     4  10  22  43  63  99 142 171 224 286 348 397
#     4  12  23  38  71 100 127 180 237 279 341 403
#     4  12  20  43  67 101 132 174 232 297 330 393
#     4  12  24  43  67 100 134 180 228 287 343 403
#     4  11  24  42  64  92 140 180 227 277 345 407
#     4  11  19  33  67  95 120 167 230 281 319 398
#     4  12  26  41  72 106 140 174 228 300 345 397
#     4  10  24  42  67  96 139 186 221 282 341 424
#
# _framework density 21.089939999999999
#
# number of rings (size 3 to 8) (size 9 to 14) (size 15 to 20)
#    0.000    0.750    7.500    0.750    3.500    1.000 
#    0.000    0.625    0.000    0.000    0.000    0.000 
#    0.000    0.000    0.000    0.000    0.000    0.000 
#
# Total GULP energy -198280.447779 kJ/mol
# GULP energy per Si atom -12392.527986 kJ/mol
# Density = 2.104194 g / cm^3
# Si number density = 21.089940 Si / 1000 Ang^3
#
#
#
# Elastic Constant Matrix: (Units=GPa)
#
#
# Indices 1 2 3 4 5 6 
#
# 1 95.6397 38.6161 39.1110 0.1353 -19.2138 4.5393
# 2 38.6161 122.4665 48.6527 1.3934 -13.9592 7.1968
# 3 39.1110 48.6527 116.1005 -9.4436 -19.9661 -3.7192
# 4 0.1353 1.3934 -9.4436 31.5524 0.5712 -14.3651
# 5 -19.2138 -13.9592 -19.9661 0.5712 34.6118 0.8458
# 6 4.5393 7.1968 -3.7192 -14.3651 0.8458 29.8557
#
#
#
# Elastic Compliance Matrix: (Units=1/GPa)
#
#
# Indices 1 2 3 4 5 6 
#
# 1 0.013850 -0.002328 -0.003124 -0.002470 0.005068 -0.003266
# 2 -0.002328 0.010958 -0.004110 -0.003851 0.000934 -0.004679
# 3 -0.003124 -0.004110 0.012778 0.006782 0.003715 0.006215
# 4 -0.002470 -0.003851 0.006782 0.044679 -0.000328 0.023655
# 5 0.005068 0.000934 0.003715 -0.000328 0.034271 -0.001661
# 6 -0.003266 -0.004679 0.006215 0.023655 -0.001661 0.047322
#
#
# Mechanical properties :
#
#
# Convention : Reuss Voigt Hill
#
# Bulk Modulus (GPa) = 54.16971 65.21846 59.69409
# Shear Modulus (GPa) = 26.43592 33.05910 29.74751
#
# Velocity S-wave (km/s) = 3.54430 3.96350 3.75975
# Velocity P-wave (km/s) = 6.51846 7.20672 6.87121
#
# Compressibility (1/GPa) = 0.01846050
#
# Stress axis : x y z
#
# Youngs Moduli (GPa) = 72.20087 91.25976 78.26194
#
# Poissons Ratio (x) = 0.21250 0.24449
# Poissons Ratio (y) = 0.16812 0.32166
# Poissons Ratio (z) = 0.22555 0.37508
#
# Static dielectric constant tensor:
#      x y z
#    x 4.037820 0.022950 -0.493810 
#    y 0.022950 4.172600 0.068020 
#    z -0.493810 0.068020 4.131220 
# 
# 
# High freq. dielectric constant tensor:
#      x y z
#    x 1.814090 0.010160 -0.015930 
#    y 0.010160 1.827170 0.006450 
#    z -0.015930 0.006450 1.826810 
# 
# From -- ./inp_files/499017.got.cif
#   From: 2010.06.25/outbox.cif.g09.slc.cpg/sg2_250_cif.got.tgz:499017.got - 2010.06.27 13:26:56.
