data_PCOD8020295
_publ_section_title
;
Structure prediction by ZEFSAII (Michael W. Deem and Ramdas Pophale) SiO2 
 PCOD8020295
Probable space group: P -1
;
_chemical_formula_sum "Si O2"
_cell_formula_units_Z 16
_cell_length_a 16.363052
_cell_length_b 9.261971
_cell_length_c 21.892830
_cell_angle_alpha 137.108493
_cell_angle_beta 18.073606
_cell_angle_gamma 133.194372
_cell_volume 699.456121
_symmetry_space_group_name_H-M "P -1"
_symmetry_group_IT_number 2
_symmetry_cell_setting 'triclinic'
loop_
_space_group_symop_operation_xyz
x,y,z
-x,-y,-z
loop_
_atom_site_type_symbol
_atom_site_label
_atom_site_fract_x
_atom_site_fract_y
_atom_site_fract_z
Si Si1 0.791190 0.987655 0.902364
Si Si2 0.139153 0.818855 0.207046
Si Si3 0.833231 0.810997 0.089523
Si Si4 0.095815 0.259072 0.848427
Si Si5 0.039896 0.266465 0.471949
Si Si6 0.769834 0.596621 0.326337
Si Si7 0.264444 0.686682 0.416036
Si Si8 0.344674 0.691911 0.138866
O O1 0.030113 0.824409 0.659940
O O2 0.716878 0.154949 0.952161
O O3 0.525996 0.886747 0.077620
O O4 0.857686 0.112638 0.955299
O O5 0.285305 0.645030 0.094377
O O6 0.843908 0.751416 0.377849
O O7 0.157187 0.033810 0.299536
O O8 0.773586 0.845024 0.215374
O O9 0.547873 0.788398 0.254318
O O10 0.001039 0.589128 0.896482
O O11 0.000000 0.000000 0.000000
O O12 0.273660 0.262909 0.661381
O O13 0.000000 0.500000 0.000000
O O14 0.798839 0.324365 0.614453
O O15 0.931307 0.259300 0.615655
O O16 0.259746 0.443862 0.368526
O O17 0.500000 0.500000 0.500000
O O18 0.500000 0.500000 0.000000
#
# Coordination Sequence:
#
# PCOD8020295 Si02
#       8
#     2   2   2   2   2   2   2   2
#     4  10  22  42  67  92 137 172 218 271 332 394
#     4  10  24  42  66  95 133 180 212 267 337 396
#     4  11  26  41  70  96 130 176 227 271 336 391
#     4   9  22  43  61  93 128 175 216 272 326 387
#     4  10  23  42  67  93 139 172 216 270 332 397
#     4  10  24  45  68  96 131 174 226 276 324 394
#     4  10  23  43  64  97 134 176 214 277 335 389
#     4  12  24  39  67 104 130 166 226 271 329 388
#
# _framework density 22.874915000000001
#
# number of rings (size 3 to 8) (size 9 to 14) (size 15 to 20)
#    0.000    1.750    1.250    0.750    8.750    5.500 
#    0.000    0.000    0.000    0.000    0.000    0.000 
#    0.000    0.000    0.000    0.000    0.000    0.000 
#
# Total GULP energy -198218.471838 kJ/mol
# GULP energy per Si atom -12388.654490 kJ/mol
# Density = 2.282285 g / cm^3
# Si number density = 22.874915 Si / 1000 Ang^3
#
#
#
# Elastic Constant Matrix: (Units=GPa)
#
#
# Indices 1 2 3 4 5 6 
#
# 1 141.2545 60.1892 19.7083 -16.4230 -13.1725 -7.8010
# 2 60.1892 120.6888 25.5136 -36.8861 -10.1946 3.6919
# 3 19.7083 25.5136 55.6380 -24.7372 -12.5202 -1.8031
# 4 -16.4230 -36.8861 -24.7372 49.1859 6.1422 -2.5821
# 5 -13.1725 -10.1946 -12.5202 6.1422 21.4842 0.7404
# 6 -7.8010 3.6919 -1.8031 -2.5821 0.7404 41.6543
#
#
#
# Elastic Compliance Matrix: (Units=1/GPa)
#
#
# Indices 1 2 3 4 5 6 
#
# 1 0.009482 -0.004651 -0.000892 -0.001080 0.003326 0.002023
# 2 -0.004651 0.013285 -0.000854 0.007798 0.000781 -0.001616
# 3 -0.000892 -0.000854 0.026050 0.010860 0.011072 0.001513
# 4 -0.001080 0.007798 0.010860 0.031314 0.000362 0.001511
# 5 0.003326 0.000781 0.011072 0.000362 0.055301 0.000072
# 6 0.002023 -0.001616 0.001513 0.001511 0.000072 0.024687
#
#
# Mechanical properties :
#
#
# Convention : Reuss Voigt Hill
#
# Bulk Modulus (GPa) = 27.76094 58.71151 43.23623
# Shear Modulus (GPa) = 27.03854 36.60956 31.82405
#
# Velocity S-wave (km/s) = 3.44178 4.00487 3.73395
# Velocity P-wave (km/s) = 5.28742 6.86348 6.12634
#
# Compressibility (1/GPa) = 0.03602183
#
# Stress axis : x y z
#
# Youngs Moduli (GPa) = 105.46117 75.27548 38.38798
#
# Poissons Ratio (x) = 0.35013 0.03424
# Poissons Ratio (y) = 0.49053 0.03278
# Poissons Ratio (z) = 0.09407 0.06429
#
# Static dielectric constant tensor:
#      x y z
#    x 4.641390 -0.123140 0.519970 
#    y -0.123140 3.792830 1.633560 
#    z 0.519970 1.633560 -0.397230 
# 
# 
# High freq. dielectric constant tensor:
#      x y z
#    x 1.914200 -0.001790 -0.002890 
#    y -0.001790 1.923190 -0.008050 
#    z -0.002890 -0.008050 1.873670 
# 
# From -- ./inp_files/316215.got.cif
#   From: 2010.06.25/outbox.cif.g09.slc.cpg/sg2_159_cif.got.tgz:316215.got - 2010.06.27 13:26:56.
