data_PCOD8020097
_publ_section_title
;
Structure prediction by ZEFSAII (Michael W. Deem and Ramdas Pophale) SiO2 
 PCOD8020097
Probable space group: P -1
;
_chemical_formula_sum "Si O2"
_cell_formula_units_Z 12
_cell_length_a 7.688161
_cell_length_b 14.372597
_cell_length_c 12.689471
_cell_angle_alpha 148.251084
_cell_angle_beta 126.447664
_cell_angle_gamma 52.928251
_cell_volume 577.500583
_symmetry_space_group_name_H-M "P -1"
_symmetry_group_IT_number 2
_symmetry_cell_setting 'triclinic'
loop_
_space_group_symop_operation_xyz
x,y,z
-x,-y,-z
loop_
_atom_site_type_symbol
_atom_site_label
_atom_site_fract_x
_atom_site_fract_y
_atom_site_fract_z
Si Si1 0.027033 0.700374 0.226548
Si Si2 0.733581 0.864471 0.465533
Si Si3 0.033794 0.838137 0.131884
Si Si4 0.463061 0.577311 0.389638
Si Si5 0.715849 0.665113 0.747614
Si Si6 0.197889 0.498967 0.741173
O O1 0.258441 0.695824 0.365119
O O2 0.822678 0.795574 0.316893
O O3 0.015835 0.819578 0.232987
O O4 0.000000 0.500000 0.000000
O O5 0.701383 0.697995 0.363997
O O6 0.500000 0.000000 0.500000
O O7 0.898532 0.973571 0.687241
O O8 0.218791 0.662252 0.986418
O O9 0.798068 0.841059 0.990637
O O10 0.545602 0.710152 0.631846
O O11 0.391737 0.415728 0.270588
O O12 0.665348 0.482006 0.295751
O O13 0.065125 0.483168 0.357908
#
# Coordination Sequence:
#
# PCOD8020097 Si02
#       6
#     2   2   2   2   2   2
#     4  12  21  41  64  95 128 168 212 262 319 376
#     4  12  25  40  62 100 135 165 214 269 321 377
#     4  10  23  41  65  93 133 162 219 262 314 384
#     4  11  20  38  73  88 129 176 208 262 323 379
#     4   9  21  41  64  98 122 175 214 256 323 383
#     4  10  22  42  65  94 130 168 215 260 323 376
#
# _framework density 20.779198999999998
#
# number of rings (size 3 to 8) (size 9 to 14) (size 15 to 20)
#    1.000    0.333    5.000    2.000    2.333    1.333 
#    0.000    1.667    0.000    0.000    0.000    0.000 
#    0.000    0.000    0.000    0.000    0.000    0.000 
#
# Total GULP energy -148740.840029 kJ/mol
# GULP energy per Si atom -12395.070002 kJ/mol
# Density = 2.073190 g / cm^3
# Si number density = 20.779199 Si / 1000 Ang^3
#
#
#
# Elastic Constant Matrix: (Units=GPa)
#
#
# Indices 1 2 3 4 5 6 
#
# 1 146.1015 22.0649 43.6643 -8.4802 -20.0070 7.8688
# 2 22.0649 42.5333 26.1396 -16.3131 -6.8453 -11.4019
# 3 43.6643 26.1396 122.6084 -7.9532 1.4504 -8.3861
# 4 -8.4802 -16.3131 -7.9532 41.9367 -1.7681 4.7383
# 5 -20.0070 -6.8453 1.4504 -1.7681 26.9850 -5.5609
# 6 7.8688 -11.4019 -8.3861 4.7383 -5.5609 20.0930
#
#
#
# Elastic Compliance Matrix: (Units=1/GPa)
#
#
# Indices 1 2 3 4 5 6 
#
# 1 0.009288 -0.003317 -0.002985 0.000865 0.005117 -0.005553
# 2 -0.003317 0.042159 -0.005525 0.012583 0.014282 0.023902
# 3 -0.002985 -0.005525 0.010480 -0.001110 -0.003924 0.001583
# 4 0.000865 0.012583 -0.001110 0.028822 0.006031 0.001211
# 5 0.005117 0.014282 -0.003924 0.006031 0.048472 0.016456
# 6 -0.005553 0.023902 0.001583 0.001211 0.016456 0.070436
#
#
# Mechanical properties :
#
#
# Convention : Reuss Voigt Hill
#
# Bulk Modulus (GPa) = 26.12792 54.99787 40.56290
# Shear Modulus (GPa) = 20.31971 32.42791 26.37381
#
# Velocity S-wave (km/s) = 3.13051 3.95472 3.56651
# Velocity P-wave (km/s) = 5.06638 6.88319 6.04345
#
# Compressibility (1/GPa) = 0.03827323
#
# Stress axis : x y z
#
# Youngs Moduli (GPa) = 107.67140 23.71973 95.42415
#
# Poissons Ratio (x) = 0.07868 0.28480
# Poissons Ratio (y) = 0.35716 0.52719
# Poissons Ratio (z) = 0.32135 0.13104
#
# Static dielectric constant tensor:
#      x y z
#    x 3.938680 0.032870 0.098620 
#    y 0.032870 3.443630 -0.194560 
#    z 0.098620 -0.194560 3.908180 
# 
# 
# High freq. dielectric constant tensor:
#      x y z
#    x 1.828480 0.002800 0.003080 
#    y 0.002800 1.782400 -0.014520 
#    z 0.003080 -0.014520 1.815070 
# 
# From -- ./inp_files/397985.got.cif
#   From: 2010.06.25/outbox.cif.g09.slc.cpg/sg2_199_cif.got.tgz:397985.got - 2010.06.27 13:26:56.
