data_PCOD8020563
_publ_section_title
;
Structure prediction by ZEFSAII (Michael W. Deem and Ramdas Pophale) SiO2 
 PCOD8020563
Probable space group: P -1
;
_chemical_formula_sum "Si O2"
_cell_formula_units_Z 14
_cell_length_a 19.730594
_cell_length_b 9.461616
_cell_length_c 19.046684
_cell_angle_alpha 36.134894
_cell_angle_beta 16.210709
_cell_angle_gamma 35.047465
_cell_volume 564.880694
_symmetry_space_group_name_H-M "P -1"
_symmetry_group_IT_number 2
_symmetry_cell_setting 'triclinic'
loop_
_space_group_symop_operation_xyz
x,y,z
-x,-y,-z
loop_
_atom_site_type_symbol
_atom_site_label
_atom_site_fract_x
_atom_site_fract_y
_atom_site_fract_z
Si Si1 0.700920 0.114177 0.823998
Si Si2 0.900528 0.264360 0.704909
Si Si3 0.948832 0.369022 0.361097
Si Si4 0.287107 0.553190 0.038272
Si Si5 0.183893 0.738091 0.663629
Si Si6 0.243495 0.525080 0.837342
Si Si7 0.482231 0.723657 0.641228
O O1 0.740127 0.242578 0.805750
O O2 0.829583 0.191868 0.596673
O O3 0.405453 0.249692 0.050771
O O4 0.798786 0.812697 0.854725
O O5 0.000000 0.500000 0.500000
O O6 0.731835 0.300277 0.928708
O O7 0.132161 0.023516 0.579012
O O8 0.750982 0.521856 0.438336
O O9 0.019757 0.571508 0.260440
O O10 0.441866 0.687490 0.778743
O O11 0.159152 0.719309 0.779838
O O12 0.469945 0.628600 0.399311
O O13 0.966099 0.629816 0.887165
O O14 0.256118 0.669307 0.840625
O O15 0.500000 0.000000 0.500000
#
# Coordination Sequence:
#
# PCOD8020563 Si02
#       7
#     2   2   2   2   2   2   2
#     4  10  22  42  69  97 138 182 235 288 354 436
#     4  12  25  44  70 106 146 187 236 302 373 434
#     4  10  22  45  66 103 135 183 236 290 353 446
#     4  11  25  43  68 101 140 183 239 293 369 436
#     4  10  25  47  76 106 145 193 251 310 359 457
#     4  10  24  49  74 106 142 196 254 304 371 432
#     4  11  27  43  72 102 143 188 241 308 372 435
#
# _framework density 24.783995000000001
#
# number of rings (size 3 to 8) (size 9 to 14) (size 15 to 20)
#    0.000    1.429    1.429    1.714    6.000    6.286 
#    0.000    0.000    0.000    0.000    0.000    0.000 
#    0.000    0.000    0.000    0.000    0.000    0.000 
#
# Total GULP energy -173456.720017 kJ/mol
# GULP energy per Si atom -12389.765715 kJ/mol
# Density = 2.472759 g / cm^3
# Si number density = 24.783995 Si / 1000 Ang^3
#
#
#
# Elastic Constant Matrix: (Units=GPa)
#
#
# Indices 1 2 3 4 5 6 
#
# 1 143.7760 56.1771 32.4604 0.7879 -17.2430 1.3477
# 2 56.1771 113.0129 49.2181 -25.2447 -8.8125 -16.9627
# 3 32.4604 49.2181 87.1891 3.7714 -19.4668 -6.6069
# 4 0.7879 -25.2447 3.7714 24.9477 -0.2537 1.1711
# 5 -17.2430 -8.8125 -19.4668 -0.2537 42.3379 -1.1175
# 6 1.3477 -16.9627 -6.6069 1.1711 -1.1175 37.9899
#
#
#
# Elastic Compliance Matrix: (Units=1/GPa)
#
#
# Indices 1 2 3 4 5 6 
#
# 1 0.010071 -0.007637 0.001337 -0.008067 0.002994 -0.003198
# 2 -0.007637 0.025293 -0.012718 0.027329 -0.003307 0.008413
# 3 0.001337 -0.012718 0.020308 -0.015839 0.007100 -0.001497
# 4 -0.008067 0.027329 -0.015839 0.069994 -0.004263 0.007451
# 5 0.002994 -0.003307 0.007100 -0.004263 0.027405 0.000589
# 6 -0.003198 0.008413 -0.001497 0.007451 0.000589 0.029720
#
#
# Mechanical properties :
#
#
# Convention : Reuss Voigt Hill
#
# Bulk Modulus (GPa) = 56.70288 68.85436 62.77862
# Shear Modulus (GPa) = 22.05514 34.79657 28.42586
#
# Velocity S-wave (km/s) = 2.98635 3.75106 3.39033
# Velocity P-wave (km/s) = 5.90081 6.82661 6.38052
#
# Compressibility (1/GPa) = 0.01763579
#
# Stress axis : x y z
#
# Youngs Moduli (GPa) = 99.29974 39.53685 49.24215
#
# Poissons Ratio (x) = 0.30193 -0.06582
# Poissons Ratio (y) = 0.75831 0.62625
# Poissons Ratio (z) = -0.13273 0.50282
#
# Static dielectric constant tensor:
#      x y z
#    x 5.169000 0.095320 0.295270 
#    y 0.095320 4.767130 0.480580 
#    z 0.295270 0.480580 4.260610 
# 
# 
# High freq. dielectric constant tensor:
#      x y z
#    x 2.016090 -0.014670 -0.001010 
#    y -0.014670 1.977440 0.010420 
#    z -0.001010 0.010420 1.974050 
# 
# From -- ./inp_files/123677.got.cif
#   From: 2010.06.25/outbox.cif.g09.slc.cpg/sg2_62_cif.got.tgz:123677.got - 2010.06.27 13:26:56.
