data_PCOD8020651
_publ_section_title
;
Structure prediction by ZEFSAII (Michael W. Deem and Ramdas Pophale) SiO2 
 PCOD8020651
Probable space group: P -1
;
_chemical_formula_sum "Si O2"
_cell_formula_units_Z 12
_cell_length_a 21.822644
_cell_length_b 14.251287
_cell_length_c 18.264405
_cell_angle_alpha 160.391257
_cell_angle_beta 163.021791
_cell_angle_gamma 21.107286
_cell_volume 526.212652
_symmetry_space_group_name_H-M "P -1"
_symmetry_group_IT_number 2
_symmetry_cell_setting 'triclinic'
loop_
_space_group_symop_operation_xyz
x,y,z
-x,-y,-z
loop_
_atom_site_type_symbol
_atom_site_label
_atom_site_fract_x
_atom_site_fract_y
_atom_site_fract_z
Si Si1 0.347272 0.222005 0.224753
Si Si2 0.574635 0.463531 0.327067
Si Si3 0.220265 0.698909 0.201024
Si Si4 0.825779 0.836193 0.161927
Si Si5 0.138160 0.678417 0.749482
Si Si6 0.595023 0.441463 0.169701
O O1 0.258252 0.445604 0.357458
O O2 0.579822 0.260748 0.490563
O O3 0.162111 0.300932 0.007135
O O4 0.406673 0.892067 0.080471
O O5 0.320181 0.650345 0.196111
O O6 0.633349 0.538520 0.367127
O O7 0.596478 0.117204 0.105663
O O8 0.167640 0.405494 0.947946
O O9 0.001451 0.977346 0.161923
O O10 0.000000 0.000000 0.500000
O O11 0.208300 0.541947 0.647734
O O12 0.000000 0.500000 0.500000
O O13 0.358906 0.658268 0.031906
#
# Coordination Sequence:
#
# PCOD8020651 Si02
#       6
#     2   2   2   2   2   2
#     4   9  21  44  69  95 139 182 230 280 342 412
#     4   9  22  44  65  98 138 179 227 280 349 405
#     4  10  22  42  71 100 137 184 236 276 348 411
#     4  11  23  41  67 106 140 181 228 288 347 412
#     4  11  22  44  71 102 136 187 230 288 346 410
#     4  10  22  44  70  99 142 175 232 290 345 415
#
# _framework density 22.804469999999998
#
# number of rings (size 3 to 8) (size 9 to 14) (size 15 to 20)
#    1.000    1.000    1.667    1.000    2.333    1.333 
#    9.000    7.500    0.000    0.000    0.000    0.000 
#    0.000    0.000    0.000    0.000    0.000    0.000 
#
# Total GULP energy -148677.897238 kJ/mol
# GULP energy per Si atom -12389.824770 kJ/mol
# Density = 2.275257 g / cm^3
# Si number density = 22.804470 Si / 1000 Ang^3
#
#
#
# Elastic Constant Matrix: (Units=GPa)
#
#
# Indices 1 2 3 4 5 6 
#
# 1 188.7346 75.9144 77.5218 -3.9878 -18.2622 -16.3079
# 2 75.9144 87.7156 29.1161 2.9721 -5.8548 -11.3490
# 3 77.5218 29.1161 114.6562 7.9746 -2.6303 -4.4527
# 4 -3.9878 2.9721 7.9746 16.4912 -9.4578 2.1322
# 5 -18.2622 -5.8548 -2.6303 -9.4578 46.1788 3.8313
# 6 -16.3079 -11.3490 -4.4527 2.1322 3.8313 35.0442
#
#
#
# Elastic Compliance Matrix: (Units=1/GPa)
#
#
# Indices 1 2 3 4 5 6 
#
# 1 0.012220 -0.008208 -0.006764 0.010762 0.005535 0.000909
# 2 -0.008208 0.018515 0.001464 -0.007992 -0.002713 0.003145
# 3 -0.006764 0.001464 0.013585 -0.010738 -0.003926 0.000135
# 4 0.010762 -0.007992 -0.010738 0.082110 0.019956 -0.006122
# 5 0.005535 -0.002713 -0.003926 0.019956 0.027615 -0.003035
# 6 0.000909 0.003145 0.000135 -0.006122 -0.003035 0.030698
#
#
# Mechanical properties :
#
#
# Convention : Reuss Voigt Hill
#
# Bulk Modulus (GPa) = 57.79185 84.02345 70.90765
# Shear Modulus (GPa) = 22.98548 33.44645 28.21596
#
# Velocity S-wave (km/s) = 3.17825 3.83386 3.52134
# Velocity P-wave (km/s) = 6.23424 7.51818 6.90611
#
# Compressibility (1/GPa) = 0.01730348
#
# Stress axis : x y z
#
# Youngs Moduli (GPa) = 81.83457 54.01004 73.60887
#
# Poissons Ratio (x) = 0.44332 0.49789
# Poissons Ratio (y) = 0.67171 -0.10774
# Poissons Ratio (z) = 0.55352 -0.07905
#
# Static dielectric constant tensor:
#      x y z
#    x 4.090480 -0.111250 -0.063580 
#    y -0.111250 4.390930 0.123830 
#    z -0.063580 0.123830 3.914630 
# 
# 
# High freq. dielectric constant tensor:
#      x y z
#    x 1.893670 -0.007160 -0.000950 
#    y -0.007160 1.912840 0.009020 
#    z -0.000950 0.009020 1.882630 
# 
# From -- ./inp_files/578247.got.cif
#   From: 2010.06.25/outbox.cif.g09.slc.cpg/sg2_290_cif.got.tgz:578247.got - 2010.06.27 13:26:56.
