data_PCOD8020041
_publ_section_title
;
Structure prediction by ZEFSAII (Michael W. Deem and Ramdas Pophale) SiO2 
 PCOD8020041
Probable space group: P -1
;
_chemical_formula_sum "Si O2"
_cell_formula_units_Z 16
_cell_length_a 11.407951
_cell_length_b 12.278957
_cell_length_c 13.871693
_cell_angle_alpha 32.236482
_cell_angle_beta 116.118477
_cell_angle_gamma 131.623371
_cell_volume 737.886305
_symmetry_space_group_name_H-M "P -1"
_symmetry_group_IT_number 2
_symmetry_cell_setting 'triclinic'
loop_
_space_group_symop_operation_xyz
x,y,z
-x,-y,-z
loop_
_atom_site_type_symbol
_atom_site_label
_atom_site_fract_x
_atom_site_fract_y
_atom_site_fract_z
Si Si1 0.756750 0.775206 0.273938
Si Si2 0.911455 0.626352 0.729778
Si Si3 0.039524 0.691130 0.130254
Si Si4 0.536087 0.256684 0.864626
Si Si5 0.978012 0.940103 0.694581
Si Si6 0.166839 0.616101 0.419404
Si Si7 0.268506 0.404450 0.971428
Si Si8 0.441315 0.195228 0.099058
O O1 0.568894 0.673009 0.283819
O O2 0.769995 0.552251 0.417136
O O3 0.840502 0.898112 0.314988
O O4 0.852250 0.000230 0.059110
O O5 0.943086 0.414849 0.885317
O O6 0.722551 0.500090 0.732648
O O7 0.951148 0.714267 0.789062
O O8 0.031900 0.869761 0.519785
O O9 0.116857 0.610745 0.295340
O O10 0.846973 0.567378 0.161399
O O11 0.495524 0.223905 0.987359
O O12 0.500000 0.000000 0.000000
O O13 0.842329 0.821565 0.819742
O O14 0.000000 0.500000 0.500000
O O15 0.311289 0.896078 0.302457
O O16 0.358437 0.335120 0.983943
O O17 0.400286 0.673994 0.871694
#
# Coordination Sequence:
#
# PCOD8020041 Si02
#       8
#     2   2   2   2   2   2   2   2
#     4  11  24  42  68 101 134 181 226 280 346 404
#     4  11  22  42  67  99 138 179 229 289 332 410
#     4  11  23  44  69 103 132 182 233 281 345 406
#     4  12  24  44  69 101 143 181 225 284 347 413
#     4  10  22  42  65 101 131 180 232 279 337 406
#     4  12  25  44  70 102 139 175 232 282 340 414
#     4  10  24  45  73  97 136 186 229 283 345 408
#     4  11  24  47  68 103 140 179 228 284 347 407
#
# _framework density 21.683558000000001
#
# number of rings (size 3 to 8) (size 9 to 14) (size 15 to 20)
#    0.000    1.000    5.000    1.500    1.750    4.500 
#    4.500    0.625    0.000    0.000    0.000    0.000 
#    0.000    0.000    0.000    0.000    0.000    0.000 
#
# Total GULP energy -198370.464685 kJ/mol
# GULP energy per Si atom -12398.154043 kJ/mol
# Density = 2.163421 g / cm^3
# Si number density = 21.683558 Si / 1000 Ang^3
#
#
#
# Elastic Constant Matrix: (Units=GPa)
#
#
# Indices 1 2 3 4 5 6 
#
# 1 101.5282 44.1698 34.4223 -11.2491 15.1353 5.0276
# 2 44.1698 109.1255 29.2830 -28.9193 15.5880 3.4398
# 3 34.4223 29.2830 88.4305 -14.7207 12.3315 -4.1129
# 4 -11.2491 -28.9193 -14.7207 33.6346 1.7617 -1.4936
# 5 15.1353 15.5880 12.3315 1.7617 41.7147 2.5300
# 6 5.0276 3.4398 -4.1129 -1.4936 2.5300 45.0565
#
#
#
# Elastic Compliance Matrix: (Units=1/GPa)
#
#
# Indices 1 2 3 4 5 6 
#
# 1 0.013218 -0.004247 -0.003654 -0.000787 -0.002011 -0.001397
# 2 -0.004247 0.014604 -0.000778 0.011008 -0.004145 -0.000114
# 3 -0.003654 -0.000778 0.014257 0.004594 -0.002918 0.002085
# 4 -0.000787 0.011008 0.004594 0.041375 -0.007020 0.001433
# 5 -0.002011 -0.004145 -0.002918 -0.007020 0.027501 -0.001503
# 6 -0.001397 -0.000114 0.002085 0.001433 -0.001503 0.022681
#
#
# Mechanical properties :
#
#
# Convention : Reuss Voigt Hill
#
# Bulk Modulus (GPa) = 40.45129 57.20383 48.82756
# Shear Modulus (GPa) = 31.40015 36.82844 34.11430
#
# Velocity S-wave (km/s) = 3.80953 4.12570 3.97076
# Velocity P-wave (km/s) = 6.16813 7.00954 6.60225
#
# Compressibility (1/GPa) = 0.02472109
#
# Stress axis : x y z
#
# Youngs Moduli (GPa) = 75.65576 68.47301 70.14012
#
# Poissons Ratio (x) = 0.29078 0.25633
# Poissons Ratio (y) = 0.32128 0.05456
# Poissons Ratio (z) = 0.27648 0.05327
#
# Static dielectric constant tensor:
#      x y z
#    x 3.963680 0.088570 -0.069760 
#    y 0.088570 4.306810 -0.097980 
#    z -0.069760 -0.097980 3.777830 
# 
# 
# High freq. dielectric constant tensor:
#      x y z
#    x 1.852610 0.001020 0.002710 
#    y 0.001020 1.869580 -0.011620 
#    z 0.002710 -0.011620 1.839120 
# 
# From -- ./inp_files/455366.got.cif
#   From: 2010.06.25/outbox.cif.g09.slc.cpg/sg2_228_cif.got.tgz:455366.got - 2010.06.27 13:26:56.
