data_PCOD8020599
_publ_section_title
;
Structure prediction by ZEFSAII (Michael W. Deem and Ramdas Pophale) SiO2 
 PCOD8020599
Probable space group: P -1
;
_chemical_formula_sum "Si O2"
_cell_formula_units_Z 16
_cell_length_a 10.995926
_cell_length_b 11.762772
_cell_length_c 11.553481
_cell_angle_alpha 32.147664
_cell_angle_beta 113.292568
_cell_angle_gamma 100.707865
_cell_volume 695.577776
_symmetry_space_group_name_H-M "P -1"
_symmetry_group_IT_number 2
_symmetry_cell_setting 'triclinic'
loop_
_space_group_symop_operation_xyz
x,y,z
-x,-y,-z
loop_
_atom_site_type_symbol
_atom_site_label
_atom_site_fract_x
_atom_site_fract_y
_atom_site_fract_z
Si Si1 0.093771 0.122808 0.216460
Si Si2 0.589141 0.994319 0.339128
Si Si3 0.186278 0.678056 0.156518
Si Si4 0.703485 0.719471 0.003413
Si Si5 0.840254 0.576513 0.412428
Si Si6 0.730186 0.309521 0.222731
Si Si7 0.347790 0.000100 0.901188
Si Si8 0.813835 0.582351 0.839092
O O1 0.072928 0.303089 0.162286
O O2 0.162641 0.870660 0.500620
O O3 0.176111 0.203921 0.076633
O O4 0.949966 0.120710 0.105395
O O5 0.610542 0.214805 0.214132
O O6 0.661243 0.947153 0.282642
O O7 0.664102 0.778114 0.632563
O O8 0.423068 0.051279 0.222218
O O9 0.183982 0.607070 0.350145
O O10 0.177238 0.473404 0.246076
O O11 0.323480 0.757587 0.122395
O O12 0.749506 0.589954 0.252329
O O13 0.659595 0.539707 0.064604
O O14 0.781132 0.820756 0.238602
O O15 0.000000 0.500000 0.500000
O O16 0.815000 0.360919 0.100780
O O17 0.500000 0.000000 0.000000
#
# Coordination Sequence:
#
# PCOD8020599 Si02
#       8
#     2   2   2   2   2   2   2   2
#     4  10  24  42  69 106 142 185 231 294 352 431
#     4  11  22  45  69 102 143 182 234 300 347 424
#     4  12  25  45  75 101 141 191 234 293 365 413
#     4  11  24  44  69 102 147 183 236 290 356 418
#     4  12  27  48  73 104 146 188 239 295 353 434
#     4  10  23  42  69 107 137 185 236 288 360 418
#     4  12  27  48  71 104 143 191 247 296 348 424
#     4  10  22  42  70 106 138 181 236 291 358 422
#
# _framework density 23.002461
#
# number of rings (size 3 to 8) (size 9 to 14) (size 15 to 20)
#    0.000    1.000    5.000    0.750    1.750    8.000 
#    2.250    0.000    0.000    0.000    0.000    0.000 
#    0.000    0.000    0.000    0.000    0.000    0.000 
#
# Total GULP energy -198327.765944 kJ/mol
# GULP energy per Si atom -12395.485371 kJ/mol
# Density = 2.295011 g / cm^3
# Si number density = 23.002461 Si / 1000 Ang^3
#
#
#
# Elastic Constant Matrix: (Units=GPa)
#
#
# Indices 1 2 3 4 5 6 
#
# 1 96.4133 48.1245 27.9116 2.0843 -6.6859 2.9117
# 2 48.1245 89.5807 31.7138 12.9127 -5.8858 -1.1803
# 3 27.9116 31.7138 101.9855 14.1746 -21.3471 7.9683
# 4 2.0843 12.9127 14.1746 35.3882 -3.7953 2.7458
# 5 -6.6859 -5.8858 -21.3471 -3.7953 29.5469 4.9941
# 6 2.9117 -1.1803 7.9683 2.7458 4.9941 42.3077
#
#
#
# Elastic Compliance Matrix: (Units=1/GPa)
#
#
# Indices 1 2 3 4 5 6 
#
# 1 0.014750 -0.007667 -0.001711 0.002832 0.001145 -0.001226
# 2 -0.007667 0.016965 -0.002969 -0.004866 -0.001472 0.002050
# 3 -0.001711 -0.002969 0.013821 -0.003098 0.009193 -0.003452
# 4 0.002832 -0.004866 -0.003098 0.031458 0.001812 -0.002003
# 5 0.001145 -0.001472 0.009193 0.001812 0.041853 -0.006909
# 6 -0.001226 0.002050 -0.003452 -0.002003 -0.006909 0.025374
#
#
# Mechanical properties :
#
#
# Convention : Reuss Voigt Hill
#
# Bulk Modulus (GPa) = 47.97996 55.94215 51.96106
# Shear Modulus (GPa) = 28.43159 33.46386 30.94773
#
# Velocity S-wave (km/s) = 3.51953 3.81832 3.67196
# Velocity P-wave (km/s) = 6.11719 6.61908 6.37308
#
# Compressibility (1/GPa) = 0.02084203
#
# Stress axis : x y z
#
# Youngs Moduli (GPa) = 67.79865 58.94486 72.35255
#
# Poissons Ratio (x) = 0.45195 0.12376
# Poissons Ratio (y) = 0.51983 0.21482
# Poissons Ratio (z) = 0.11597 0.17501
#
# Static dielectric constant tensor:
#      x y z
#    x 3.981610 -0.185220 0.054220 
#    y -0.185220 4.211640 0.158760 
#    z 0.054220 0.158760 4.223020 
# 
# 
# High freq. dielectric constant tensor:
#      x y z
#    x 1.900950 -0.011690 0.007100 
#    y -0.011690 1.909820 0.011300 
#    z 0.007100 0.011300 1.919820 
# 
# From -- ./inp_files/427300.got.cif
#   From: 2010.06.25/outbox.cif.g09.slc.cpg/sg2_214_cif.got.tgz:427300.got - 2010.06.27 13:26:56.
