data_PCOD8020997
_publ_section_title
;
Structure prediction by ZEFSAII (Michael W. Deem and Ramdas Pophale) SiO2 
 PCOD8020997
Probable space group: P -1
;
_chemical_formula_sum "Si O2"
_cell_formula_units_Z 16
_cell_length_a 11.816965
_cell_length_b 8.839189
_cell_length_c 13.096933
_cell_angle_alpha 50.999867
_cell_angle_beta 73.720184
_cell_angle_gamma 112.324279
_cell_volume 679.971157
_symmetry_space_group_name_H-M "P -1"
_symmetry_group_IT_number 2
_symmetry_cell_setting 'triclinic'
loop_
_space_group_symop_operation_xyz
x,y,z
-x,-y,-z
loop_
_atom_site_type_symbol
_atom_site_label
_atom_site_fract_x
_atom_site_fract_y
_atom_site_fract_z
Si Si1 0.692825 0.821332 0.434863
Si Si2 0.029528 0.183506 0.289725
Si Si3 0.571503 0.256572 0.079113
Si Si4 0.826723 0.865848 0.044115
Si Si5 0.477724 0.775381 0.661314
Si Si6 0.968435 0.676163 0.559300
Si Si7 0.425840 0.180209 0.738551
Si Si8 0.225967 0.915391 0.216060
O O1 0.621053 0.796792 0.574668
O O2 0.620953 0.514290 0.560175
O O3 0.621210 0.882929 0.342536
O O4 0.907633 0.101083 0.260290
O O5 0.005271 0.315256 0.328971
O O6 0.235123 0.405700 0.114784
O O7 0.931303 0.859938 0.479522
O O8 0.492142 0.161310 0.252942
O O9 0.580734 0.047702 0.123147
O O10 0.437069 0.206376 0.058206
O O11 0.719204 0.543358 0.175984
O O12 0.719284 0.868717 0.147338
O O13 0.860226 0.032862 0.861123
O O14 0.000000 0.000000 0.000000
O O15 0.500000 0.000000 0.500000
O O16 0.803056 0.338817 0.711278
O O17 0.137647 0.820990 0.389738
#
# Coordination Sequence:
#
# PCOD8020997 Si02
#       8
#     2   2   2   2   2   2   2   2
#     4  10  22  43  66  94 140 181 227 267 340 406
#     4  11  24  40  68 105 135 175 225 290 333 401
#     4  12  25  42  72 106 137 175 229 284 344 393
#     4  11  27  45  70 101 137 178 230 282 339 400
#     4  11  24  44  67 102 138 182 218 282 340 406
#     4  10  24  44  67  99 130 184 221 274 344 403
#     4  10  23  42  68  98 131 188 223 275 333 408
#     4  11  25  47  69  98 138 182 226 280 337 416
#
# _framework density 23.53041
#
# number of rings (size 3 to 8) (size 9 to 14) (size 15 to 20)
#    0.000    1.250    1.250    3.000    3.500   12.500 
#    0.000    0.000    0.000    0.000    0.000    0.000 
#    0.000    0.000    0.000    0.000    0.000    0.000 
#
# Total GULP energy -198346.411764 kJ/mol
# GULP energy per Si atom -12396.650735 kJ/mol
# Density = 2.347685 g / cm^3
# Si number density = 23.530410 Si / 1000 Ang^3
#
#
#
# Elastic Constant Matrix: (Units=GPa)
#
#
# Indices 1 2 3 4 5 6 
#
# 1 106.0126 47.7479 39.1697 -14.7770 -14.8423 28.0620
# 2 47.7479 121.0806 34.6844 -1.1544 -9.6782 8.2328
# 3 39.1697 34.6844 95.1588 -11.8163 -9.4368 22.6392
# 4 -14.7770 -1.1544 -11.8163 39.6770 4.6541 -0.8959
# 5 -14.8423 -9.6782 -9.4368 4.6541 42.3599 -12.7490
# 6 28.0620 8.2328 22.6392 -0.8959 -12.7490 34.7853
#
#
#
# Elastic Compliance Matrix: (Units=1/GPa)
#
#
# Indices 1 2 3 4 5 6 
#
# 1 0.015694 -0.004967 -0.001571 0.004955 0.000404 -0.010187
# 2 -0.004967 0.010917 -0.003020 -0.002523 0.001527 0.003884
# 3 -0.001571 -0.003020 0.014427 0.003534 -0.000693 -0.007571
# 4 0.004955 -0.002523 0.003534 0.028241 -0.002981 -0.006066
# 5 0.000404 0.001527 -0.000693 -0.002981 0.027174 0.009647
# 6 -0.010187 0.003884 -0.007571 -0.006066 0.009647 0.044354
#
#
# Mechanical properties :
#
#
# Convention : Reuss Voigt Hill
#
# Bulk Modulus (GPa) = 45.61506 62.82846 54.22176
# Shear Modulus (GPa) = 29.89888 36.74111 33.31999
#
# Velocity S-wave (km/s) = 3.56848 3.95578 3.76711
# Velocity P-wave (km/s) = 6.03377 6.90096 6.48188
#
# Compressibility (1/GPa) = 0.02192259
#
# Stress axis : x y z
#
# Youngs Moduli (GPa) = 63.71811 91.60219 69.31220
#
# Poissons Ratio (x) = 0.45497 0.10887
# Poissons Ratio (y) = 0.31648 0.20935
# Poissons Ratio (z) = 0.10008 0.27667
#
# Static dielectric constant tensor:
#      x y z
#    x 3.875300 0.068100 0.033100 
#    y 0.068100 4.603990 -0.079770 
#    z 0.033100 -0.079770 4.188990 
# 
# 
# High freq. dielectric constant tensor:
#      x y z
#    x 1.911990 -0.000650 -0.001230 
#    y -0.000650 1.956920 -0.005060 
#    z -0.001230 -0.005060 1.923460 
# 
# From -- ./inp_files/515056.got.cif
#   From: 2010.06.25/outbox.cif.g09.slc.cpg/sg2_258_cif.got.tgz:515056.got - 2010.06.27 13:26:56.
