data_PCOD8020715
_publ_section_title
;
Structure prediction by ZEFSAII (Michael W. Deem and Ramdas Pophale) SiO2 
 PCOD8020715
Probable space group: P -1
;
_chemical_formula_sum "Si O2"
_cell_formula_units_Z 14
_cell_length_a 9.481041
_cell_length_b 14.096517
_cell_length_c 17.196151
_cell_angle_alpha 157.769264
_cell_angle_beta 46.938742
_cell_angle_gamma 130.619801
_cell_volume 633.786568
_symmetry_space_group_name_H-M "P -1"
_symmetry_group_IT_number 2
_symmetry_cell_setting 'triclinic'
loop_
_space_group_symop_operation_xyz
x,y,z
-x,-y,-z
loop_
_atom_site_type_symbol
_atom_site_label
_atom_site_fract_x
_atom_site_fract_y
_atom_site_fract_z
Si Si1 0.886891 0.737408 0.196597
Si Si2 0.285235 0.334794 0.226673
Si Si3 0.077410 0.472704 0.546825
Si Si4 0.630229 0.708229 0.412859
Si Si5 0.723333 0.595855 0.983794
Si Si6 0.049291 0.274500 0.569716
Si Si7 0.696070 0.009225 0.181813
O O1 0.710033 0.786376 0.357655
O O2 0.037074 0.980593 0.329948
O O3 0.797613 0.710651 0.124508
O O4 0.000000 0.500000 0.000000
O O5 0.169586 0.267121 0.299636
O O6 0.494759 0.456350 0.262062
O O7 0.156162 0.531372 0.377156
O O8 0.317693 0.094464 0.979550
O O9 0.135839 0.425081 0.576658
O O10 0.158424 0.745625 0.691767
O O11 0.807785 0.652420 0.358545
O O12 0.515755 0.928880 0.661847
O O13 0.839528 0.356233 0.735689
O O14 0.500000 0.500000 0.000000
O O15 0.770683 0.806034 0.059371
#
# Coordination Sequence:
#
# PCOD8020715 Si02
#       7
#     2   2   2   2   2   2   2
#     4  12  28  46  71  99 140 186 228 289 348 407
#     4  10  22  42  72  97 141 178 226 283 335 405
#     4  10  24  44  70 106 138 181 235 280 345 408
#     4  11  26  45  69 102 141 181 232 285 347 405
#     4  12  27  44  75 107 134 184 235 280 349 409
#     4  12  27  46  71 102 144 181 230 286 345 422
#     4  11  24  43  76 102 145 178 227 292 340 413
#
# _framework density 22.089455000000001
#
# number of rings (size 3 to 8) (size 9 to 14) (size 15 to 20)
#    0.000    0.857    2.857    2.571   10.000    3.429 
#    0.000    1.429    0.000    0.000    0.000    0.000 
#    0.000    0.000    0.000    0.000    0.000    0.000 
#
# Total GULP energy -173594.006560 kJ/mol
# GULP energy per Si atom -12399.571897 kJ/mol
# Density = 2.203918 g / cm^3
# Si number density = 22.089455 Si / 1000 Ang^3
#
#
#
# Elastic Constant Matrix: (Units=GPa)
#
#
# Indices 1 2 3 4 5 6 
#
# 1 123.2796 49.2074 49.3571 2.8714 14.8585 3.2804
# 2 49.2074 102.7081 50.7463 -4.5683 7.4642 -3.0715
# 3 49.3571 50.7463 129.0741 -20.3937 8.2157 -3.4918
# 4 2.8714 -4.5683 -20.3937 43.5505 -6.5889 4.5861
# 5 14.8585 7.4642 8.2157 -6.5889 37.2833 -7.5125
# 6 3.2804 -3.0715 -3.4918 4.5861 -7.5125 35.9624
#
#
#
# Elastic Compliance Matrix: (Units=1/GPa)
#
#
# Indices 1 2 3 4 5 6 
#
# 1 0.011549 -0.003866 -0.003175 -0.003047 -0.004103 -0.002160
# 2 -0.003866 0.013517 -0.003838 -0.000265 -0.000137 0.001140
# 3 -0.003175 -0.003838 0.011256 0.005108 0.000561 0.000521
# 4 -0.003047 -0.000265 0.005108 0.026379 0.004465 -0.001680
# 5 -0.004103 -0.000137 0.000561 0.004465 0.030398 0.006198
# 6 -0.002160 0.001140 0.000521 -0.001680 0.006198 0.029661
#
#
# Mechanical properties :
#
#
# Convention : Reuss Voigt Hill
#
# Bulk Modulus (GPa) = 68.66657 72.63150 70.64903
# Shear Modulus (GPa) = 33.47293 37.07597 35.27445
#
# Velocity S-wave (km/s) = 3.89695 4.10133 4.00045
# Velocity P-wave (km/s) = 7.16948 7.44177 7.30689
#
# Compressibility (1/GPa) = 0.01456313
#
# Stress axis : x y z
#
# Youngs Moduli (GPa) = 86.58760 73.97862 88.84155
#
# Poissons Ratio (x) = 0.28603 0.28206
# Poissons Ratio (y) = 0.33479 0.34100
# Poissons Ratio (z) = 0.27490 0.28395
#
# Static dielectric constant tensor:
#      x y z
#    x 3.923550 -0.069560 0.148000 
#    y -0.069560 4.061300 -0.341910 
#    z 0.148000 -0.341910 4.127540 
# 
# 
# High freq. dielectric constant tensor:
#      x y z
#    x 1.871120 -0.000680 0.017000 
#    y -0.000680 1.872790 -0.023290 
#    z 0.017000 -0.023290 1.876300 
# 
# From -- ./inp_files/561459.got.cif
#   From: 2010.06.25/outbox.cif.g09.slc.cpg/sg2_281_cif.got.tgz:561459.got - 2010.06.27 13:26:56.
