data_PCOD8020319
_publ_section_title
;
Structure prediction by ZEFSAII (Michael W. Deem and Ramdas Pophale) SiO2 
 PCOD8020319
Probable space group: P -1
;
_chemical_formula_sum "Si O2"
_cell_formula_units_Z 14
_cell_length_a 12.540580
_cell_length_b 9.262381
_cell_length_c 9.390329
_cell_angle_alpha 88.201948
_cell_angle_beta 83.158703
_cell_angle_gamma 36.619548
_cell_volume 642.182082
_symmetry_space_group_name_H-M "P -1"
_symmetry_group_IT_number 2
_symmetry_cell_setting 'triclinic'
loop_
_space_group_symop_operation_xyz
x,y,z
-x,-y,-z
loop_
_atom_site_type_symbol
_atom_site_label
_atom_site_fract_x
_atom_site_fract_y
_atom_site_fract_z
Si Si1 0.665271 0.353786 0.080162
Si Si2 0.207183 0.822991 0.437635
Si Si3 0.160937 0.024530 0.144074
Si Si4 0.430102 0.720974 0.635195
Si Si5 0.683893 0.838216 0.895083
Si Si6 0.785500 0.537207 0.118837
Si Si7 0.521321 0.011216 0.331111
O O1 0.628555 0.339187 0.244493
O O2 0.692708 0.494325 0.074878
O O3 0.500000 0.500000 0.000000
O O4 0.834168 0.083747 0.992682
O O5 0.283961 0.867086 0.525633
O O6 0.358403 0.530917 0.437964
O O7 0.213874 0.872398 0.275251
O O8 0.000000 0.000000 0.500000
O O9 0.296214 0.011921 0.106984
O O10 0.963200 0.304481 0.184854
O O11 0.408603 0.901597 0.701329
O O12 0.667312 0.803447 0.733752
O O13 0.832698 0.588157 0.971721
O O14 0.500000 0.000000 0.000000
O O15 0.664019 0.747052 0.249133
O O16 0.500000 0.000000 0.500000
#
# Coordination Sequence:
#
# PCOD8020319 Si02
#       7
#     2   2   2   2   2   2   2
#     4  12  22  42  71  98 130 179 231 272 345 405
#     4  11  26  45  71 103 140 178 235 283 338 410
#     4  12  24  44  70 101 135 175 228 288 343 402
#     4  11  25  45  72  96 140 185 226 284 344 404
#     4  10  22  42  67  94 135 174 222 272 338 411
#     4  11  25  42  66 102 138 170 222 294 337 405
#     4  11  24  43  67  95 133 184 229 264 346 413
#
# _framework density 21.80067
#
# number of rings (size 3 to 8) (size 9 to 14) (size 15 to 20)
#    0.000    0.857    1.429    6.857    6.000    0.000 
#    2.571    1.429    0.000    0.000    0.000    0.000 
#    0.000    0.000    0.000    0.000    0.000    0.000 
#
# Total GULP energy -173542.398888 kJ/mol
# GULP energy per Si atom -12395.885635 kJ/mol
# Density = 2.175105 g / cm^3
# Si number density = 21.800670 Si / 1000 Ang^3
#
#
#
# Elastic Constant Matrix: (Units=GPa)
#
#
# Indices 1 2 3 4 5 6 
#
# 1 127.3518 53.1075 31.4512 16.2856 10.3900 12.7176
# 2 53.1075 106.8991 40.4881 6.9346 12.8244 -1.7207
# 3 31.4512 40.4881 127.1656 3.1641 10.1718 0.8304
# 4 16.2856 6.9346 3.1641 34.5352 5.1481 10.1672
# 5 10.3900 12.8244 10.1718 5.1481 39.9847 -0.0394
# 6 12.7176 -1.7207 0.8304 10.1672 -0.0394 41.6956
#
#
#
# Elastic Compliance Matrix: (Units=1/GPa)
#
#
# Indices 1 2 3 4 5 6 
#
# 1 0.010808 -0.004749 -0.001015 -0.003162 -0.000623 -0.002702
# 2 -0.004749 0.013111 -0.002828 -0.000441 -0.002193 0.002151
# 3 -0.001015 -0.002828 0.009101 0.000418 -0.001199 -0.000091
# 4 -0.003162 -0.000441 0.000418 0.033108 -0.003413 -0.007138
# 5 -0.000623 -0.002193 -0.001199 -0.003413 0.026620 0.000981
# 6 -0.002702 0.002151 -0.000091 -0.007138 0.000981 0.026640
#
#
# Mechanical properties :
#
#
# Convention : Reuss Voigt Hill
#
# Bulk Modulus (GPa) = 63.14078 67.94556 65.54317
# Shear Modulus (GPa) = 35.24860 39.00107 37.12484
#
# Velocity S-wave (km/s) = 4.02538 4.23423 4.13112
# Velocity P-wave (km/s) = 7.11552 7.42558 7.27220
#
# Compressibility (1/GPa) = 0.01583762
#
# Stress axis : x y z
#
# Youngs Moduli (GPa) = 92.52231 76.27164 109.87626
#
# Poissons Ratio (x) = 0.36219 0.11153
# Poissons Ratio (y) = 0.43936 0.31069
# Poissons Ratio (z) = 0.09392 0.21566
#
# Static dielectric constant tensor:
#      x y z
#    x 4.241090 0.281840 0.135770 
#    y 0.281840 4.672010 -0.333710 
#    z 0.135770 -0.333710 4.525600 
# 
# 
# High freq. dielectric constant tensor:
#      x y z
#    x 1.860080 0.009360 0.010750 
#    y 0.009360 1.859400 -0.013650 
#    z 0.010750 -0.013650 1.867030 
# 
# From -- ./inp_files/244000.got.cif
#   From: 2010.06.25/outbox.cif.g09.slc.cpg/sg2_122_cif.got.tgz:244000.got - 2010.06.27 13:26:56.
