data_PCOD8020374
_publ_section_title
;
Structure prediction by ZEFSAII (Michael W. Deem and Ramdas Pophale) SiO2 
 PCOD8020374
Probable space group: P -1
;
_chemical_formula_sum "Si O2"
_cell_formula_units_Z 14
_cell_length_a 13.976201
_cell_length_b 11.322567
_cell_length_c 4.975819
_cell_angle_alpha 108.345119
_cell_angle_beta 57.541205
_cell_angle_gamma 117.388251
_cell_volume 587.498844
_symmetry_space_group_name_H-M "P -1"
_symmetry_group_IT_number 2
_symmetry_cell_setting 'triclinic'
loop_
_space_group_symop_operation_xyz
x,y,z
-x,-y,-z
loop_
_atom_site_type_symbol
_atom_site_label
_atom_site_fract_x
_atom_site_fract_y
_atom_site_fract_z
Si Si1 0.691249 0.783287 0.438735
Si Si2 0.421404 0.008520 0.375550
Si Si3 0.145298 0.426473 0.639210
Si Si4 0.160519 0.798123 0.740966
Si Si5 0.633492 0.604897 0.902257
Si Si6 0.950905 0.876109 0.279619
Si Si7 0.102949 0.617716 0.208670
O O1 0.653306 0.728638 0.757946
O O2 0.834894 0.882411 0.288559
O O3 0.602793 0.854964 0.515520
O O4 0.666681 0.657442 0.191704
O O5 0.291868 0.893074 0.519068
O O6 0.500000 0.000000 0.500000
O O7 0.500000 0.000000 0.000000
O O8 0.279435 0.478533 0.350048
O O9 0.102894 0.266440 0.596942
O O10 0.044434 0.455105 0.630418
O O11 0.154752 0.502021 0.966554
O O12 0.134056 0.670822 0.498807
O O13 0.154851 0.743375 0.013755
O O14 0.062081 0.872776 0.918098
O O15 0.500000 0.500000 0.000000
O O16 0.000000 0.000000 0.500000
#
# Coordination Sequence:
#
# PCOD8020374 Si02
#       7
#     2   2   2   2   2   2   2
#     4  11  26  46  71 103 143 183 239 308 355 418
#     4  12  28  46  68  98 142 188 243 288 348 427
#     4   9  22  40  66 102 140 174 233 282 359 408
#     4  11  25  43  71 100 136 185 238 280 367 407
#     4  11  24  44  70 102 140 188 238 290 358 427
#     4  10  24  43  76 107 143 182 237 302 364 428
#     4  10  22  42  67  98 138 178 223 299 342 428
#
# _framework density 23.829837000000001
#
# number of rings (size 3 to 8) (size 9 to 14) (size 15 to 20)
#    0.000    1.429    0.000    3.000   10.000   11.429 
#    0.000    0.000    0.000    0.000    0.000    0.000 
#    0.000    0.000    0.000    0.000    0.000    0.000 
#
# Total GULP energy -173508.168132 kJ/mol
# GULP energy per Si atom -12393.440581 kJ/mol
# Density = 2.377560 g / cm^3
# Si number density = 23.829837 Si / 1000 Ang^3
#
#
#
# Elastic Constant Matrix: (Units=GPa)
#
#
# Indices 1 2 3 4 5 6 
#
# 1 122.5176 31.8325 60.8078 1.7154 -24.0866 20.0264
# 2 31.8325 98.9706 58.9766 0.2000 -17.0136 22.6098
# 3 60.8078 58.9766 148.0003 9.8457 -25.6937 31.1765
# 4 1.7154 0.2000 9.8457 57.8316 4.9526 -0.2928
# 5 -24.0866 -17.0136 -25.6937 4.9526 54.1381 -1.7602
# 6 20.0264 22.6098 31.1765 -0.2928 -1.7602 47.9061
#
#
#
# Elastic Compliance Matrix: (Units=1/GPa)
#
#
# Indices 1 2 3 4 5 6 
#
# 1 0.010867 -0.000549 -0.003288 -0.000031 0.003038 -0.002032
# 2 -0.000549 0.013977 -0.004306 0.000517 0.001944 -0.003490
# 3 -0.003288 -0.004306 0.011205 -0.002034 0.002564 -0.003804
# 4 -0.000031 0.000517 -0.002034 0.017849 -0.002413 0.001113
# 5 0.003038 0.001944 0.002564 -0.002413 0.021772 -0.003071
# 6 -0.002032 -0.003490 -0.003804 0.001113 -0.003071 0.025740
#
#
# Mechanical properties :
#
#
# Convention : Reuss Voigt Hill
#
# Bulk Modulus (GPa) = 50.60024 74.74694 62.67359
# Shear Modulus (GPa) = 40.23034 46.49991 43.36513
#
# Velocity S-wave (km/s) = 4.11327 4.42218 4.27052
# Velocity P-wave (km/s) = 6.62108 7.58349 7.11857
#
# Compressibility (1/GPa) = 0.01976275
#
# Stress axis : x y z
#
# Youngs Moduli (GPa) = 92.02396 71.54675 89.24309
#
# Poissons Ratio (x) = 0.03928 0.29346
# Poissons Ratio (y) = 0.05052 0.38426
# Poissons Ratio (z) = 0.30261 0.30806
#
# Static dielectric constant tensor:
#      x y z
#    x 4.414270 -0.111220 -0.374130 
#    y -0.111220 4.139080 0.092130 
#    z -0.374130 0.092130 4.617710 
# 
# 
# High freq. dielectric constant tensor:
#      x y z
#    x 1.943470 -0.003020 -0.009360 
#    y -0.003020 1.951160 0.000180 
#    z -0.009360 0.000180 1.959700 
# 
# From -- ./inp_files/94006.got.cif
#   From: 2010.06.25/outbox.cif.g09.slc.cpg/sg2_48_cif.got.tgz:94006.got - 2010.06.27 13:26:56.
