data_PCOD8020867
_publ_section_title
;
Structure prediction by ZEFSAII (Michael W. Deem and Ramdas Pophale) SiO2 
 PCOD8020867
Probable space group: P -1
;
_chemical_formula_sum "Si O2"
_cell_formula_units_Z 16
_cell_length_a 14.794784
_cell_length_b 8.460154
_cell_length_c 24.279581
_cell_angle_alpha 137.844111
_cell_angle_beta 159.399441
_cell_angle_gamma 53.440710
_cell_volume 652.556819
_symmetry_space_group_name_H-M "P -1"
_symmetry_group_IT_number 2
_symmetry_cell_setting 'triclinic'
loop_
_space_group_symop_operation_xyz
x,y,z
-x,-y,-z
loop_
_atom_site_type_symbol
_atom_site_label
_atom_site_fract_x
_atom_site_fract_y
_atom_site_fract_z
Si Si1 0.515379 0.336891 0.018755
Si Si2 0.501368 0.140173 0.168283
Si Si3 0.029709 0.351901 0.814949
Si Si4 0.837325 0.459862 0.540716
Si Si5 0.980059 0.146835 0.102911
Si Si6 0.553068 0.924061 0.704952
Si Si7 0.346306 0.566160 0.151564
Si Si8 0.577734 0.846048 0.458147
O O1 0.829268 0.431317 0.245077
O O2 0.500000 0.500000 0.000000
O O3 0.330506 0.368544 0.971054
O O4 0.394397 0.034696 0.855094
O O5 0.712625 0.242277 0.366364
O O6 0.511627 0.381978 0.200412
O O7 0.175817 0.960209 0.955298
O O8 0.946544 0.550605 0.784691
O O9 0.053832 0.419422 0.912477
O O10 0.789829 0.065109 0.594133
O O11 0.736369 0.689238 0.536181
O O12 0.731515 0.325452 0.505701
O O13 0.277909 0.119164 0.262664
O O14 0.764173 0.969863 0.888390
O O15 0.480685 0.170742 0.716672
O O16 0.318456 0.650915 0.221196
O O17 0.500000 0.000000 0.500000
#
# Coordination Sequence:
#
# PCOD8020867 Si02
#       8
#     2   2   2   2   2   2   2   2
#     4  12  26  44  71  97 131 183 231 284 327 389
#     4  10  22  43  64  97 137 174 224 277 337 399
#     4  11  24  44  66  97 136 175 229 276 330 395
#     4  10  24  44  67  98 136 178 225 274 342 395
#     4   9  18  38  63  95 132 173 218 275 334 396
#     4   9  19  37  66  95 129 172 222 271 332 405
#     4  10  24  41  68  98 133 176 217 271 341 396
#     4  11  25  45  69 104 138 172 218 278 338 410
#
# _framework density 24.518937999999999
#
# number of rings (size 3 to 8) (size 9 to 14) (size 15 to 20)
#    0.000    1.750    1.250    1.500    1.750    9.500 
#    0.000    4.375    0.000    0.000    0.000    0.000 
#    0.000    0.000    0.000    0.000    0.000    0.000 
#
# Total GULP energy -198343.974926 kJ/mol
# GULP energy per Si atom -12396.498433 kJ/mol
# Density = 2.446313 g / cm^3
# Si number density = 24.518938 Si / 1000 Ang^3
#
#
#
# Elastic Constant Matrix: (Units=GPa)
#
#
# Indices 1 2 3 4 5 6 
#
# 1 71.7592 32.0512 26.5708 4.6895 -2.7727 -7.9331
# 2 32.0512 170.7762 35.2146 22.7366 4.4467 -3.7118
# 3 26.5708 35.2146 75.9104 5.7943 -8.1973 -5.3017
# 4 4.6895 22.7366 5.7943 30.2282 1.8688 -2.1411
# 5 -2.7727 4.4467 -8.1973 1.8688 36.6309 2.0485
# 6 -7.9331 -3.7118 -5.3017 -2.1411 2.0485 32.5861
#
#
#
# Elastic Compliance Matrix: (Units=1/GPa)
#
#
# Indices 1 2 3 4 5 6 
#
# 1 0.016996 -0.002176 -0.004695 0.000100 0.000321 0.003112
# 2 -0.002176 0.007435 -0.002497 -0.004714 -0.001368 -0.000313
# 3 -0.004695 -0.002497 0.016489 -0.000708 0.003619 0.000981
# 4 0.000100 -0.004714 -0.000708 0.036979 -0.001571 0.001901
# 5 0.000321 -0.001368 0.003619 -0.001571 0.028457 -0.001381
# 6 0.003112 -0.000313 0.000981 0.001901 -0.001381 0.031781
#
#
# Mechanical properties :
#
#
# Convention : Reuss Voigt Hill
#
# Bulk Modulus (GPa) = 45.07962 56.23544 50.65753
# Shear Modulus (GPa) = 30.43788 34.86297 32.65043
#
# Velocity S-wave (km/s) = 3.52718 3.77487 3.65312
# Velocity P-wave (km/s) = 5.91722 6.47957 6.20477
#
# Compressibility (1/GPa) = 0.02218297
#
# Stress axis : x y z
#
# Youngs Moduli (GPa) = 58.83825 134.49264 60.64692
#
# Poissons Ratio (x) = 0.29261 0.28476
# Poissons Ratio (y) = 0.12801 0.15146
# Poissons Ratio (z) = 0.27627 0.33589
#
# Static dielectric constant tensor:
#      x y z
#    x 4.407510 0.021280 -0.058780 
#    y 0.021280 4.520880 0.315270 
#    z -0.058780 0.315270 4.423210 
# 
# 
# High freq. dielectric constant tensor:
#      x y z
#    x 1.969010 0.006850 -0.019220 
#    y 0.006850 1.985370 0.018550 
#    z -0.019220 0.018550 1.962180 
# 
# From -- ./inp_files/619299.got.cif
#   From: 2010.06.25/outbox.cif.g09.slc.cpg/sg2_310_cif.got.tgz:619299.got - 2010.06.27 13:26:56.
