data_PCOD8020986
_publ_section_title
;
Structure prediction by ZEFSAII (Michael W. Deem and Ramdas Pophale) SiO2 
 PCOD8020986
Probable space group: P -1
;
_chemical_formula_sum "Si O2"
_cell_formula_units_Z 16
_cell_length_a 9.110677
_cell_length_b 13.207398
_cell_length_c 16.594901
_cell_angle_alpha 43.120429
_cell_angle_beta 137.591275
_cell_angle_gamma 144.400950
_cell_volume 740.007287
_symmetry_space_group_name_H-M "P -1"
_symmetry_group_IT_number 2
_symmetry_cell_setting 'triclinic'
loop_
_space_group_symop_operation_xyz
x,y,z
-x,-y,-z
loop_
_atom_site_type_symbol
_atom_site_label
_atom_site_fract_x
_atom_site_fract_y
_atom_site_fract_z
Si Si1 0.190447 0.637954 0.792453
Si Si2 0.023720 0.172080 0.319670
Si Si3 0.843390 0.771516 0.837123
Si Si4 0.340112 0.008992 0.002397
Si Si5 0.572621 0.666729 0.059609
Si Si6 0.113924 0.728468 0.197058
Si Si7 0.445031 0.158555 0.581882
Si Si8 0.489710 0.080970 0.366057
O O1 0.252455 0.721459 0.678043
O O2 0.007208 0.678421 0.742917
O O3 0.011928 0.419995 0.838694
O O4 0.466804 0.705726 0.912817
O O5 0.984868 0.175119 0.206557
O O6 0.328228 0.233997 0.428517
O O7 0.798676 0.969287 0.379947
O O8 0.618656 0.551688 0.874025
O O9 0.741252 0.896694 0.723923
O O10 0.028556 0.851087 0.944644
O O11 0.429859 0.215990 0.934979
O O12 0.353254 0.929371 0.139875
O O13 0.500000 0.000000 0.000000
O O14 0.880007 0.734615 0.138320
O O15 0.277866 0.684769 0.350317
O O16 0.555910 0.056182 0.642860
O O17 0.500000 0.000000 0.500000
#
# Coordination Sequence:
#
# PCOD8020986 Si02
#       8
#     2   2   2   2   2   2   2   2
#     4  11  23  42  67  97 135 179 222 272 343 399
#     4  10  23  42  66  94 135 183 219 273 339 401
#     4  12  23  43  70 102 134 174 227 280 339 393
#     4  12  26  41  66 102 136 177 225 278 336 402
#     4  12  25  45  69 101 139 178 221 283 341 400
#     4  12  23  43  67  98 134 179 228 277 333 405
#     4  10  22  43  66  93 133 180 230 267 334 409
#     4  11  21  41  67  94 124 174 225 271 330 394
#
# _framework density 21.621409
#
# number of rings (size 3 to 8) (size 9 to 14) (size 15 to 20)
#    0.000    0.750    3.750    5.250    1.750    1.500 
#    0.000    3.750    0.000    0.000    0.000    0.000 
#    0.000    0.000    0.000    0.000    0.000    0.000 
#
# Total GULP energy -198220.902776 kJ/mol
# GULP energy per Si atom -12388.806424 kJ/mol
# Density = 2.157220 g / cm^3
# Si number density = 21.621409 Si / 1000 Ang^3
#
#
#
# Elastic Constant Matrix: (Units=GPa)
#
#
# Indices 1 2 3 4 5 6 
#
# 1 89.1380 22.9411 22.1478 -5.2473 4.7143 -7.6673
# 2 22.9411 79.4813 30.7031 14.0748 11.5575 -4.5891
# 3 22.1478 30.7031 103.4702 5.6359 6.7800 3.9237
# 4 -5.2473 14.0748 5.6359 30.4398 2.9809 1.2713
# 5 4.7143 11.5575 6.7800 2.9809 43.7261 -6.3031
# 6 -7.6673 -4.5891 3.9237 1.2713 -6.3031 24.8697
#
#
#
# Elastic Compliance Matrix: (Units=1/GPa)
#
#
# Indices 1 2 3 4 5 6 
#
# 1 0.013205 -0.003520 -0.002148 0.004146 0.000071 0.003567
# 2 -0.003520 0.016915 -0.003768 -0.007568 -0.002653 0.002345
# 3 -0.002148 -0.003768 0.011465 -0.000510 -0.001005 -0.003395
# 4 0.004146 -0.007568 -0.000510 0.037376 -0.001242 -0.002263
# 5 0.000071 -0.002653 -0.001005 -0.001242 0.024669 0.006007
# 6 0.003567 0.002345 -0.003395 -0.002263 0.006007 0.043915
#
#
# Mechanical properties :
#
#
# Convention : Reuss Voigt Hill
#
# Bulk Modulus (GPa) = 44.03003 47.07484 45.55243
# Shear Modulus (GPa) = 28.73721 32.89363 30.81542
#
# Velocity S-wave (km/s) = 3.64965 3.90467 3.77931
# Velocity P-wave (km/s) = 6.17804 6.49217 6.33705
#
# Compressibility (1/GPa) = 0.02271177
#
# Stress axis : x y z
#
# Youngs Moduli (GPa) = 75.72710 59.11965 87.22240
#
# Poissons Ratio (x) = 0.20813 0.18733
# Poissons Ratio (y) = 0.26660 0.32870
# Poissons Ratio (z) = 0.16264 0.22279
#
# Static dielectric constant tensor:
#      x y z
#    x 3.956760 -0.255730 -0.082290 
#    y -0.255730 3.686770 -0.081030 
#    z -0.082290 -0.081030 3.958770 
# 
# 
# High freq. dielectric constant tensor:
#      x y z
#    x 1.860480 -0.011810 0.006860 
#    y -0.011810 1.835180 0.002770 
#    z 0.006860 0.002770 1.856270 
# 
# From -- ./inp_files/399452.got.cif
#   From: 2010.06.25/outbox.cif.g09.slc.cpg/sg2_200_cif.got.tgz:399452.got - 2010.06.27 13:26:56.
