data_PCOD8020871
_publ_section_title
;
Structure prediction by ZEFSAII (Michael W. Deem and Ramdas Pophale) SiO2 
 PCOD8020871
Probable space group: P -1
;
_chemical_formula_sum "Si O2"
_cell_formula_units_Z 16
_cell_length_a 17.378383
_cell_length_b 9.585167
_cell_length_c 10.808071
_cell_angle_alpha 100.855412
_cell_angle_beta 157.185740
_cell_angle_gamma 76.830685
_cell_volume 678.597510
_symmetry_space_group_name_H-M "P -1"
_symmetry_group_IT_number 2
_symmetry_cell_setting 'triclinic'
loop_
_space_group_symop_operation_xyz
x,y,z
-x,-y,-z
loop_
_atom_site_type_symbol
_atom_site_label
_atom_site_fract_x
_atom_site_fract_y
_atom_site_fract_z
Si Si1 0.713274 0.297765 0.818861
Si Si2 0.804006 0.053462 0.096780
Si Si3 0.397665 0.410928 0.172583
Si Si4 0.701952 0.946726 0.360552
Si Si5 0.826547 0.837153 0.274554
Si Si6 0.337019 0.547114 0.662553
Si Si7 0.055870 0.818372 0.263210
Si Si8 0.111451 0.283356 0.245017
O O1 0.516469 0.328269 0.448242
O O2 0.722783 0.436211 0.942005
O O3 0.679341 0.161092 0.832575
O O4 0.913338 0.267501 0.028458
O O5 0.940409 0.144898 0.399982
O O6 0.686610 0.968314 0.012978
O O7 0.916308 0.913172 0.168377
O O8 0.554196 0.428762 0.300177
O O9 0.227729 0.317861 0.863186
O O10 0.830208 0.854475 0.430423
O O11 0.702785 0.837123 0.457829
O O12 0.803022 0.081367 0.580995
O O13 0.500000 0.000000 0.000000
O O14 0.202553 0.693890 0.531024
O O15 0.181779 0.436181 0.391264
O O16 0.500000 0.500000 0.000000
O O17 0.927732 0.743347 0.961103
#
# Coordination Sequence:
#
# PCOD8020871 Si02
#       8
#     2   2   2   2   2   2   2   2
#     4  11  25  45  67 100 132 178 228 269 333 400
#     4  10  24  42  69 100 127 173 228 267 337 402
#     4  11  26  44  69  95 140 175 223 282 328 392
#     4  11  23  41  68 100 133 173 221 279 335 392
#     4  10  22  43  64  98 132 171 216 277 333 395
#     4  12  27  44  66 103 135 177 225 279 340 394
#     4  11  23  41  69  96 132 174 224 272 331 398
#     4  12  24  44  70  97 136 179 228 272 332 406
#
# _framework density 23.578040999999999
#
# number of rings (size 3 to 8) (size 9 to 14) (size 15 to 20)
#    0.000    1.000    3.750    3.000    1.750    6.000 
#    0.000    0.000    0.000    0.000    0.000    0.000 
#    0.000    0.000    0.000    0.000    0.000    0.000 
#
# Total GULP energy -198256.678963 kJ/mol
# GULP energy per Si atom -12391.042435 kJ/mol
# Density = 2.352438 g / cm^3
# Si number density = 23.578041 Si / 1000 Ang^3
#
#
#
# Elastic Constant Matrix: (Units=GPa)
#
#
# Indices 1 2 3 4 5 6 
#
# 1 34.8407 19.0819 12.8252 -4.8143 -25.0500 7.5881
# 2 19.0819 144.8830 45.4681 -5.1858 -20.7194 -2.8148
# 3 12.8252 45.4681 81.3636 -2.2159 -25.2244 -9.0162
# 4 -4.8143 -5.1858 -2.2159 54.8649 7.7129 -5.7295
# 5 -25.0500 -20.7194 -25.2244 7.7129 31.6037 -2.4352
# 6 7.5881 -2.8148 -9.0162 -5.7295 -2.4352 34.2420
#
#
#
# Elastic Compliance Matrix: (Units=1/GPa)
#
#
# Indices 1 2 3 4 5 6 
#
# 1 0.076141 -0.003904 0.009060 -0.003595 0.065070 -0.010782
# 2 -0.003904 0.008708 -0.004533 0.000492 -0.001094 0.000392
# 3 0.009060 -0.004533 0.020384 -0.001336 0.021133 0.004266
# 4 -0.003595 0.000492 -0.001336 0.019368 -0.008077 0.003152
# 5 0.065070 -0.001094 0.021133 -0.008077 0.101100 -0.003106
# 6 -0.010782 0.000392 0.004266 0.003152 -0.003106 0.033055
#
#
# Mechanical properties :
#
#
# Convention : Reuss Voigt Hill
#
# Bulk Modulus (GPa) = 9.39159 46.20420 27.79790
# Shear Modulus (GPa) = 17.06467 36.38958 26.72713
#
# Velocity S-wave (km/s) = 2.69318 3.93283 3.37049
# Velocity P-wave (km/s) = 3.69633 6.34521 5.19252
#
# Compressibility (1/GPa) = 0.10647819
#
# Stress axis : x y z
#
# Youngs Moduli (GPa) = 13.13354 114.84094 49.05891
#
# Poissons Ratio (x) = 0.44836 -0.44448
# Poissons Ratio (y) = 0.05128 0.22238
# Poissons Ratio (z) = -0.11899 0.52056
#
# Static dielectric constant tensor:
#      x y z
#    x 4.244100 0.225340 -0.317240 
#    y 0.225340 4.462340 -0.030040 
#    z -0.317240 -0.030040 4.133410 
# 
# 
# High freq. dielectric constant tensor:
#      x y z
#    x 1.926410 0.010520 -0.023430 
#    y 0.010520 1.949200 0.001010 
#    z -0.023430 0.001010 1.930920 
# 
# From -- ./inp_files/470072.got.cif
#   From: 2010.06.25/outbox.cif.g09.slc.cpg/sg2_236_cif.got.tgz:470072.got - 2010.06.27 13:26:56.
