data_PCOD8020306
_publ_section_title
;
Structure prediction by ZEFSAII (Michael W. Deem and Ramdas Pophale) SiO2 
 PCOD8020306
Probable space group: P -1
;
_chemical_formula_sum "Si O2"
_cell_formula_units_Z 14
_cell_length_a 5.115843
_cell_length_b 25.238354
_cell_length_c 15.508909
_cell_angle_alpha 17.413144
_cell_angle_beta 97.163325
_cell_angle_gamma 96.727831
_cell_volume 594.560935
_symmetry_space_group_name_H-M "P -1"
_symmetry_group_IT_number 2
_symmetry_cell_setting 'triclinic'
loop_
_space_group_symop_operation_xyz
x,y,z
-x,-y,-z
loop_
_atom_site_type_symbol
_atom_site_label
_atom_site_fract_x
_atom_site_fract_y
_atom_site_fract_z
Si Si1 0.669008 0.648056 0.731906
Si Si2 0.769584 0.208462 0.599122
Si Si3 0.005825 0.202610 0.162713
Si Si4 0.520583 0.668139 0.130829
Si Si5 0.032381 0.427428 0.980703
Si Si6 0.577699 0.732885 0.227945
Si Si7 0.115556 0.911413 0.024095
O O1 0.498173 0.820592 0.424022
O O2 0.877694 0.695886 0.742655
O O3 0.500000 0.500000 0.000000
O O4 0.789990 0.551781 0.803561
O O5 0.748883 0.119429 0.829593
O O6 0.764293 0.421656 0.277386
O O7 0.016177 0.118715 0.694719
O O8 0.952158 0.303354 0.092675
O O9 0.285014 0.253027 0.054941
O O10 0.000000 0.000000 0.500000
O O11 0.769809 0.248272 0.017401
O O12 0.630506 0.720758 0.147163
O O13 0.503410 0.458071 0.442268
O O14 0.331532 0.864047 0.034528
O O15 0.849467 0.794466 0.187581
#
# Coordination Sequence:
#
# PCOD8020306 Si02
#       7
#     2   2   2   2   2   2   2
#     4   9  21  41  63  96 126 181 225 270 337 414
#     4  10  23  39  64  98 139 173 223 273 347 408
#     4  12  27  46  72 104 136 178 234 290 344 403
#     4  11  25  48  71  99 136 184 233 281 348 407
#     4  10  22  42  67  93 132 182 224 276 341 415
#     4  11  24  46  71 100 137 185 233 280 344 407
#     4  11  25  39  67 106 137 176 224 287 337 406
#
# _framework density 23.546786999999998
#
# number of rings (size 3 to 8) (size 9 to 14) (size 15 to 20)
#    0.000    1.429    0.000    3.857   10.000    4.571 
#   12.857    0.000    0.000    0.000    0.000    0.000 
#    0.000    0.000    0.000    0.000    0.000    0.000 
#
# Total GULP energy -173538.545371 kJ/mol
# GULP energy per Si atom -12395.610384 kJ/mol
# Density = 2.349319 g / cm^3
# Si number density = 23.546787 Si / 1000 Ang^3
#
#
#
# Elastic Constant Matrix: (Units=GPa)
#
#
# Indices 1 2 3 4 5 6 
#
# 1 114.2263 27.3451 24.4510 5.9442 16.7423 4.4181
# 2 27.3451 87.5898 57.7285 8.1781 3.9236 0.9148
# 3 24.4510 57.7285 125.3827 -5.3777 20.8956 11.5427
# 4 5.9442 8.1781 -5.3777 31.0841 11.4034 3.8815
# 5 16.7423 3.9236 20.8956 11.4034 42.2092 8.3232
# 6 4.4181 0.9148 11.5427 3.8815 8.3232 35.4472
#
#
#
# Elastic Compliance Matrix: (Units=1/GPa)
#
#
# Indices 1 2 3 4 5 6 
#
# 1 0.010011 -0.003081 0.000145 0.000354 -0.003779 -0.000367
# 2 -0.003081 0.019541 -0.010071 -0.008930 0.006279 0.002663
# 3 0.000145 -0.010071 0.014602 0.008509 -0.007943 -0.003580
# 4 0.000354 -0.008930 0.008509 0.041536 -0.013985 -0.003849
# 5 -0.003779 0.006279 -0.007943 -0.013985 0.032971 -0.003315
# 6 -0.000367 0.002663 -0.003580 -0.003849 -0.003315 0.030553
#
#
# Mechanical properties :
#
#
# Convention : Reuss Voigt Hill
#
# Bulk Modulus (GPa) = 55.12367 60.69424 57.90896
# Shear Modulus (GPa) = 27.58257 36.25971 31.92114
#
# Velocity S-wave (km/s) = 3.42628 3.92841 3.68591
# Velocity P-wave (km/s) = 6.25409 6.81238 6.53920
#
# Compressibility (1/GPa) = 0.01814103
#
# Stress axis : x y z
#
# Youngs Moduli (GPa) = 99.89252 51.17530 68.48253
#
# Poissons Ratio (x) = 0.15766 -0.00993
# Poissons Ratio (y) = 0.30775 0.68966
# Poissons Ratio (z) = -0.01449 0.51536
#
# Static dielectric constant tensor:
#      x y z
#    x 4.338380 0.207370 0.454550 
#    y 0.207370 4.368080 0.280780 
#    z 0.454550 0.280780 4.313160 
# 
# 
# High freq. dielectric constant tensor:
#      x y z
#    x 1.948390 0.003840 0.005050 
#    y 0.003840 1.928460 0.006560 
#    z 0.005050 0.006560 1.938130 
# 
# From -- ./inp_files/485940.got.cif
#   From: 2010.06.25/outbox.cif.g09.slc.cpg/sg2_243_cif.got.tgz:485940.got - 2010.06.27 13:26:56.
