data_PCOD8020324
_publ_section_title
;
Structure prediction by ZEFSAII (Michael W. Deem and Ramdas Pophale) SiO2 
 PCOD8020324
Probable space group: P -1
;
_chemical_formula_sum "Si O2"
_cell_formula_units_Z 12
_cell_length_a 8.509339
_cell_length_b 13.246467
_cell_length_c 9.089446
_cell_angle_alpha 143.716930
_cell_angle_beta 114.804245
_cell_angle_gamma 79.837167
_cell_volume 524.833497
_symmetry_space_group_name_H-M "P -1"
_symmetry_group_IT_number 2
_symmetry_cell_setting 'triclinic'
loop_
_space_group_symop_operation_xyz
x,y,z
-x,-y,-z
loop_
_atom_site_type_symbol
_atom_site_label
_atom_site_fract_x
_atom_site_fract_y
_atom_site_fract_z
Si Si1 0.296458 0.107540 0.112715
Si Si2 0.579423 0.653908 0.995047
Si Si3 0.368450 0.743025 0.762278
Si Si4 0.990278 0.480074 0.297176
Si Si5 0.918204 0.839032 0.166507
Si Si6 0.695099 0.666681 0.359531
O O1 0.470896 0.258350 0.289414
O O2 0.215556 0.181491 0.308377
O O3 0.140824 0.057958 0.870564
O O4 0.348607 0.938360 0.988969
O O5 0.749678 0.687652 0.993824
O O6 0.653571 0.759713 0.301881
O O7 0.418818 0.706266 0.907640
O O8 0.496305 0.451272 0.782948
O O9 0.188804 0.599571 0.462140
O O10 0.833641 0.551126 0.249362
O O11 0.000000 0.500000 0.500000
O O12 0.954539 0.276052 0.982569
O O13 0.000000 0.000000 0.500000
#
# Coordination Sequence:
#
# PCOD8020324 Si02
#       6
#     2   2   2   2   2   2
#     4  10  22  43  68  94 129 175 218 260 324 388
#     4  10  23  44  62  96 131 171 211 268 323 383
#     4  10  22  42  67  95 127 174 216 262 321 389
#     4  12  23  42  70  96 128 172 219 265 323 382
#     4  11  25  45  65  95 134 172 216 268 320 385
#     4  11  23  42  68  98 129 169 216 270 324 381
#
# _framework density 22.864394000000001
#
# number of rings (size 3 to 8) (size 9 to 14) (size 15 to 20)
#    0.000    1.333    3.333    1.000    2.333    6.000 
#   18.000    0.000    0.000    0.000    0.000    0.000 
#    0.000    0.000    0.000    0.000    0.000    0.000 
#
# Total GULP energy -148698.179828 kJ/mol
# GULP energy per Si atom -12391.514986 kJ/mol
# Density = 2.281235 g / cm^3
# Si number density = 22.864394 Si / 1000 Ang^3
#
#
#
# Elastic Constant Matrix: (Units=GPa)
#
#
# Indices 1 2 3 4 5 6 
#
# 1 72.7575 23.9466 40.2343 -5.9964 -18.5102 -16.5564
# 2 23.9466 116.8828 19.0463 -27.8173 -13.5698 1.1616
# 3 40.2343 19.0463 102.4716 -25.3631 -20.0027 -2.1765
# 4 -5.9964 -27.8173 -25.3631 36.1306 4.0064 4.3417
# 5 -18.5102 -13.5698 -20.0027 4.0064 39.1734 -4.9585
# 6 -16.5564 1.1616 -2.1765 4.3417 -4.9585 22.5896
#
#
#
# Elastic Compliance Matrix: (Units=1/GPa)
#
#
# Indices 1 2 3 4 5 6 
#
# 1 0.028925 -0.005924 -0.010446 -0.011272 0.010597 0.024990
# 2 -0.005924 0.012097 0.002835 0.011019 0.000874 -0.006617
# 3 -0.010446 0.002835 0.016817 0.012986 0.002270 -0.008180
# 4 -0.011272 0.011019 0.012986 0.045597 -0.001656 -0.016704
# 5 0.010597 0.000874 0.002270 -0.001656 0.034161 0.015757
# 6 0.024990 -0.006617 -0.008180 -0.016704 0.015757 0.068806
#
#
# Mechanical properties :
#
#
# Convention : Reuss Voigt Hill
#
# Bulk Modulus (GPa) = 32.50230 50.95180 41.72705
# Shear Modulus (GPa) = 20.51459 33.50436 27.00948
#
# Velocity S-wave (km/s) = 2.99863 3.83214 3.44072
# Velocity P-wave (km/s) = 5.12202 6.47404 5.83731
#
# Compressibility (1/GPa) = 0.03076705
#
# Stress axis : x y z
#
# Youngs Moduli (GPa) = 34.57252 82.66493 59.46406
#
# Poissons Ratio (x) = 0.48975 0.62119
# Poissons Ratio (y) = 0.20482 -0.16859
# Poissons Ratio (z) = 0.36116 -0.23437
#
# Static dielectric constant tensor:
#      x y z
#    x 4.184750 0.192750 0.127200 
#    y 0.192750 4.279170 -0.216720 
#    z 0.127200 -0.216720 3.983580 
# 
# 
# High freq. dielectric constant tensor:
#      x y z
#    x 1.900000 0.010060 0.004740 
#    y 0.010060 1.909320 -0.012970 
#    z 0.004740 -0.012970 1.891980 
# 
# From -- ./inp_files/156138.got.cif
#   From: 2010.06.25/outbox.cif.g09.slc.cpg/sg2_79_cif.got.tgz:156138.got - 2010.06.27 13:26:56.
