data_PCOD8020836
_publ_section_title
;
Structure prediction by ZEFSAII (Michael W. Deem and Ramdas Pophale) SiO2 
 PCOD8020836
Probable space group: P -1
;
_chemical_formula_sum "Si O2"
_cell_formula_units_Z 14
_cell_length_a 6.381333
_cell_length_b 16.648200
_cell_length_c 5.971841
_cell_angle_alpha 96.930246
_cell_angle_beta 90.005026
_cell_angle_gamma 89.991250
_cell_volume 629.799375
_symmetry_space_group_name_H-M "P -1"
_symmetry_group_IT_number 2
_symmetry_cell_setting 'triclinic'
loop_
_space_group_symop_operation_xyz
x,y,z
-x,-y,-z
loop_
_atom_site_type_symbol
_atom_site_label
_atom_site_fract_x
_atom_site_fract_y
_atom_site_fract_z
Si Si1 0.632319 0.041185 0.824100
Si Si2 0.367733 0.541227 0.824080
Si Si3 0.359762 0.384995 0.534245
Si Si4 0.034581 0.250022 0.499962
Si Si5 0.640114 0.884955 0.534264
Si Si6 0.699902 0.316633 0.854413
Si Si7 0.299997 0.816668 0.854473
O O1 0.485340 0.093814 0.680721
O O2 0.742978 0.968270 0.662578
O O3 0.782310 0.105547 0.973336
O O4 0.500000 0.000000 0.000000
O O5 0.257011 0.468347 0.662516
O O6 0.514765 0.593829 0.680749
O O7 0.500000 0.500000 0.000000
O O8 0.217786 0.605621 0.973280
O O9 0.173123 0.325705 0.445830
O O10 0.515967 0.341152 0.692741
O O11 0.173339 0.174389 0.554176
O O12 0.897469 0.278466 0.718002
O O13 0.897592 0.221535 0.281842
O O14 0.483850 0.841144 0.692707
O O15 0.604568 0.249960 0.999897
#
# Coordination Sequence:
#
# PCOD8020836 Si02
#       7
#     2   2   2   2   2   2   2
#     4   9  20  41  66  86 118 163 204 248 300 355
#     4   9  20  41  66  86 118 163 204 248 300 355
#     4  10  22  43  64  88 122 161 203 250 300 358
#     4  12  24  36  62  94 122 156 200 250 304 360
#     4  10  22  43  64  88 122 161 203 250 300 358
#     4  11  23  40  61  90 124 159 200 251 302 359
#     4  11  23  40  61  90 124 159 200 251 302 359
#
# _framework density 22.229299999999999
#
# number of rings (size 3 to 8) (size 9 to 14) (size 15 to 20)
#    0.000    1.714    0.000    4.286    0.000    6.857 
#    0.000   20.000    0.000    0.000    0.000    0.000 
#    0.000    0.000    0.000    0.000    0.000    0.000 
#
# Total GULP energy -173487.420835 kJ/mol
# GULP energy per Si atom -12391.958631 kJ/mol
# Density = 2.217871 g / cm^3
# Si number density = 22.229300 Si / 1000 Ang^3
#
#
#
# Elastic Constant Matrix: (Units=GPa)
#
#
# Indices 1 2 3 4 5 6 
#
# 1 82.5483 69.0034 55.2675 18.2262 3.1723 -0.7293
# 2 69.0034 177.7112 91.8401 22.2215 -1.5196 5.2945
# 3 55.2675 91.8401 139.3616 8.9599 -3.2813 4.3903
# 4 18.2262 22.2215 8.9599 75.1504 7.1083 -5.0721
# 5 3.1723 -1.5196 -3.2813 7.1083 17.2060 8.5506
# 6 -0.7293 5.2945 4.3903 -5.0721 8.5506 18.9599
#
#
#
# Elastic Compliance Matrix: (Units=1/GPa)
#
#
# Indices 1 2 3 4 5 6 
#
# 1 0.020762 -0.005641 -0.004806 -0.001605 -0.007861 0.006602
# 2 -0.005641 0.010438 -0.004277 -0.001912 0.004195 -0.004545
# 3 -0.004806 -0.004277 0.012107 0.000300 0.004569 -0.003775
# 4 -0.001605 -0.001912 0.000300 0.015946 -0.011244 0.009739
# 5 -0.007861 0.004195 0.004569 -0.011244 0.087911 -0.045186
# 6 0.006602 -0.004545 -0.003775 0.009739 -0.045186 0.078124
#
#
# Mechanical properties :
#
#
# Convention : Reuss Voigt Hill
#
# Bulk Modulus (GPa) = 72.15293 92.42702 82.28997
# Shear Modulus (GPa) = 19.27849 34.49727 26.88788
#
# Velocity S-wave (km/s) = 2.94812 3.94367 3.48166
# Velocity P-wave (km/s) = 6.64210 7.89974 7.29806
#
# Compressibility (1/GPa) = 0.01385945
#
# Stress axis : x y z
#
# Youngs Moduli (GPa) = 48.16415 95.80335 82.59569
#
# Poissons Ratio (x) = 0.54045 0.39697
# Poissons Ratio (y) = 0.27170 0.35324
# Poissons Ratio (z) = 0.23148 0.40972
#
# Static dielectric constant tensor:
#      x y z
#    x 3.432360 0.005050 0.042440 
#    y 0.005050 4.394500 1.103160 
#    z 0.042440 1.103160 4.217280 
# 
# 
# High freq. dielectric constant tensor:
#      x y z
#    x 1.817670 0.008530 -0.005630 
#    y 0.008530 1.915560 0.010320 
#    z -0.005630 0.010320 1.901080 
# 
# From -- ./inp_files/8123.got.cif
#   From: 2010.06.25/outbox.cif.g09.slc.cpg/sg2_5_cif.got.tgz:8123.got - 2010.06.27 13:26:56.
