data_PCOD8020977
_publ_section_title
;
Structure prediction by ZEFSAII (Michael W. Deem and Ramdas Pophale) SiO2 
 PCOD8020977
Probable space group: P -1
;
_chemical_formula_sum "Si O2"
_cell_formula_units_Z 12
_cell_length_a 11.981189
_cell_length_b 10.180825
_cell_length_c 7.040084
_cell_angle_alpha 107.104117
_cell_angle_beta 128.300113
_cell_angle_gamma 63.010570
_cell_volume 600.419093
_symmetry_space_group_name_H-M "P -1"
_symmetry_group_IT_number 2
_symmetry_cell_setting 'triclinic'
loop_
_space_group_symop_operation_xyz
x,y,z
-x,-y,-z
loop_
_atom_site_type_symbol
_atom_site_label
_atom_site_fract_x
_atom_site_fract_y
_atom_site_fract_z
Si Si1 0.780712 0.182149 0.842966
Si Si2 0.205952 0.252657 0.945084
Si Si3 0.458371 0.168029 0.474837
Si Si4 0.962859 0.959598 0.236103
Si Si5 0.110705 0.564608 0.858595
Si Si6 0.210035 0.325654 0.574511
O O1 0.607818 0.206600 0.622667
O O2 0.883989 0.083386 0.743304
O O3 0.789162 0.343763 0.925838
O O4 0.831809 0.100320 0.064159
O O5 0.094232 0.177406 0.880569
O O6 0.127275 0.430547 0.965242
O O7 0.234118 0.215233 0.733514
O O8 0.368970 0.196164 0.194608
O O9 0.358504 0.273119 0.579198
O O10 0.500000 0.000000 0.500000
O O11 0.000000 0.000000 0.500000
O O12 0.173287 0.492563 0.685825
O O13 0.934673 0.675003 0.702689
#
# Coordination Sequence:
#
# PCOD8020977 Si02
#       6
#     2   2   2   2   2   2
#     4  11  25  41  59  96 130 157 212 262 305 372
#     4  10  22  43  66  92 120 170 207 254 314 367
#     4  12  25  40  62  94 137 167 194 262 322 372
#     4  11  24  40  66  91 123 168 213 255 305 371
#     4   9  21  45  67  92 122 164 218 261 296 370
#     4   9  22  42  67  92 125 162 216 253 310 370
#
# _framework density 19.986042000000001
#
# number of rings (size 3 to 8) (size 9 to 14) (size 15 to 20)
#    1.000    0.667    1.667    2.000    4.667    6.000 
#    0.000    0.000    0.000    0.000    0.000    0.000 
#    0.000    0.000    0.000    0.000    0.000    0.000 
#
# Total GULP energy -148796.933472 kJ/mol
# GULP energy per Si atom -12399.744456 kJ/mol
# Density = 1.994055 g / cm^3
# Si number density = 19.986042 Si / 1000 Ang^3
#
#
#
# Elastic Constant Matrix: (Units=GPa)
#
#
# Indices 1 2 3 4 5 6 
#
# 1 120.7362 35.9029 53.2364 -1.0032 24.9705 -1.7608
# 2 35.9029 103.9105 39.7001 -4.4513 8.7157 13.5272
# 3 53.2364 39.7001 136.6637 -19.1733 16.2738 3.2689
# 4 -1.0032 -4.4513 -19.1733 34.9119 2.6177 -0.2041
# 5 24.9705 8.7157 16.2738 2.6177 33.0047 0.9756
# 6 -1.7608 13.5272 3.2689 -0.2041 0.9756 32.5574
#
#
#
# Elastic Compliance Matrix: (Units=1/GPa)
#
#
# Indices 1 2 3 4 5 6 
#
# 1 0.011934 -0.002646 -0.003326 -0.001309 -0.006654 0.002270
# 2 -0.002646 0.012075 -0.002353 0.000134 0.000109 -0.004926
# 3 -0.003326 -0.002353 0.010352 0.005469 -0.002397 -0.000135
# 4 -0.001309 0.000134 0.005469 0.031944 -0.004265 -0.000348
# 5 -0.006654 0.000109 -0.002397 -0.004265 0.036862 -0.001296
# 6 0.002270 -0.004926 -0.000135 -0.000348 -0.001296 0.032935
#
#
# Mechanical properties :
#
#
# Convention : Reuss Voigt Hill
#
# Bulk Modulus (GPa) = 56.46220 68.77656 62.61938
# Shear Modulus (GPa) = 31.51459 35.59288 33.55373
#
# Velocity S-wave (km/s) = 3.97524 4.22463 4.10183
# Velocity P-wave (km/s) = 7.02725 7.63438 7.33709
#
# Compressibility (1/GPa) = 0.01771096
#
# Stress axis : x y z
#
# Youngs Moduli (GPa) = 83.79262 82.81566 96.59810
#
# Poissons Ratio (x) = 0.21916 0.32126
# Poissons Ratio (y) = 0.22174 0.22731
# Poissons Ratio (z) = 0.27867 0.19488
#
# Static dielectric constant tensor:
#      x y z
#    x 3.692280 0.020050 0.194480 
#    y 0.020050 3.555000 -0.104810 
#    z 0.194480 -0.104810 3.814230 
# 
# 
# High freq. dielectric constant tensor:
#      x y z
#    x 1.767440 0.001070 -0.000820 
#    y 0.001070 1.777590 -0.001140 
#    z -0.000820 -0.001140 1.788940 
# 
# From -- ./inp_files/60831.got.cif
#   From: 2010.06.25/outbox.cif.g09.slc.cpg/sg2_31_cif.got.tgz:60831.got - 2010.06.27 13:26:56.
