data_PCOD8020237
_publ_section_title
;
Structure prediction by ZEFSAII (Michael W. Deem and Ramdas Pophale) SiO2 
 PCOD8020237
Probable space group: P -1
;
_chemical_formula_sum "Si O2"
_cell_formula_units_Z 14
_cell_length_a 9.364699
_cell_length_b 8.736170
_cell_length_c 11.005178
_cell_angle_alpha 138.672528
_cell_angle_beta 86.300747
_cell_angle_gamma 92.698519
_cell_volume 593.317509
_symmetry_space_group_name_H-M "P -1"
_symmetry_group_IT_number 2
_symmetry_cell_setting 'triclinic'
loop_
_space_group_symop_operation_xyz
x,y,z
-x,-y,-z
loop_
_atom_site_type_symbol
_atom_site_label
_atom_site_fract_x
_atom_site_fract_y
_atom_site_fract_z
Si Si1 0.662316 0.525340 0.350676
Si Si2 0.401327 0.354174 0.003813
Si Si3 0.558210 0.160819 0.328203
Si Si4 0.973873 0.631121 0.458336
Si Si5 0.807953 0.562791 0.130764
Si Si6 0.920140 0.157202 0.738706
Si Si7 0.259007 0.692505 0.372497
O O1 0.598619 0.301100 0.287750
O O2 0.590109 0.749359 0.550860
O O3 0.833236 0.520305 0.345044
O O4 0.663307 0.532135 0.206627
O O5 0.247885 0.333046 0.932074
O O6 0.465736 0.099803 0.871966
O O7 0.500000 0.500000 0.000000
O O8 0.377292 0.494874 0.215515
O O9 0.679489 0.168783 0.432091
O O10 0.000000 0.500000 0.500000
O O11 0.112799 0.561794 0.332294
O O12 0.958528 0.907126 0.639493
O O13 0.935276 0.738394 0.274138
O O14 0.877948 0.312363 0.949573
O O15 0.785178 0.142938 0.641836
#
# Coordination Sequence:
#
# PCOD8020237 Si02
#       7
#     2   2   2   2   2   2   2
#     4  11  25  44  65  97 136 180 217 274 336 392
#     4  11  26  43  69 100 133 178 224 274 334 394
#     4  11  26  46  67  98 140 174 225 272 329 407
#     4  12  24  41  67  97 135 174 222 268 335 396
#     4  10  22  42  66  98 133 168 222 278 331 385
#     4  10  23  40  68 102 131 167 220 280 329 394
#     4  11  23  45  70 103 131 173 224 276 330 395
#
# _framework density 23.596135
#
# number of rings (size 3 to 8) (size 9 to 14) (size 15 to 20)
#    0.000    1.143    2.857    2.143    6.000    2.286 
#    0.000    3.571    0.000    0.000    0.000    0.000 
#    0.000    0.000    0.000    0.000    0.000    0.000 
#
# Total GULP energy -173499.662209 kJ/mol
# GULP energy per Si atom -12392.833015 kJ/mol
# Density = 2.354243 g / cm^3
# Si number density = 23.596135 Si / 1000 Ang^3
#
#
#
# Elastic Constant Matrix: (Units=GPa)
#
#
# Indices 1 2 3 4 5 6 
#
# 1 54.9083 8.9375 -3.8537 0.5293 -24.2888 16.1721
# 2 8.9375 121.2282 46.6665 14.0310 -24.9584 4.8053
# 3 -3.8537 46.6665 93.4403 15.5193 -35.3969 6.2084
# 4 0.5293 14.0310 15.5193 35.4867 -5.3376 -7.2725
# 5 -24.2888 -24.9584 -35.3969 -5.3376 46.1717 -14.2306
# 6 16.1721 4.8053 6.2084 -7.2725 -14.2306 38.0534
#
#
#
# Elastic Compliance Matrix: (Units=1/GPa)
#
#
# Indices 1 2 3 4 5 6 
#
# 1 0.030847 -0.001518 0.011085 -0.003008 0.021295 -0.007338
# 2 -0.001518 0.010596 -0.004568 -0.001952 0.001247 0.000145
# 3 0.011085 -0.004568 0.021532 -0.005293 0.018749 -0.001647
# 4 -0.003008 -0.001952 -0.005293 0.033045 -0.000218 0.008622
# 5 0.021295 0.001247 0.018749 -0.000218 0.049834 0.006328
# 6 -0.007338 0.000145 -0.001647 0.008622 0.006328 0.033662
#
#
# Mechanical properties :
#
#
# Convention : Reuss Voigt Hill
#
# Bulk Modulus (GPa) = 13.70373 41.45306 27.57840
# Shear Modulus (GPa) = 25.79419 38.46412 32.12915
#
# Velocity S-wave (km/s) = 3.30987 4.04183 3.69403
# Velocity P-wave (km/s) = 4.51965 6.27597 5.46877
#
# Compressibility (1/GPa) = 0.07297281
#
# Stress axis : x y z
#
# Youngs Moduli (GPa) = 32.41762 94.37566 46.44353
#
# Poissons Ratio (x) = 0.14325 -0.51480
# Poissons Ratio (y) = 0.04921 0.21214
# Poissons Ratio (z) = -0.35933 0.43108
#
# Static dielectric constant tensor:
#      x y z
#    x 4.692720 -0.212950 -0.024650 
#    y -0.212950 4.543260 -0.487030 
#    z -0.024650 -0.487030 4.482790 
# 
# 
# High freq. dielectric constant tensor:
#      x y z
#    x 1.959330 -0.002510 -0.009220 
#    y -0.002510 1.925300 -0.012310 
#    z -0.009220 -0.012310 1.925130 
# 
# From -- ./inp_files/191114.got.cif
#   From: 2010.06.25/outbox.cif.g09.slc.cpg/sg2_96_cif.got.tgz:191114.got - 2010.06.27 13:26:56.
