data_PCOD8020128
_publ_section_title
;
Structure prediction by ZEFSAII (Michael W. Deem and Ramdas Pophale) SiO2 
 PCOD8020128
Probable space group: P -1
;
_chemical_formula_sum "Si O2"
_cell_formula_units_Z 14
_cell_length_a 5.097195
_cell_length_b 10.237320
_cell_length_c 18.310710
_cell_angle_alpha 55.917188
_cell_angle_beta 100.677851
_cell_angle_gamma 129.840922
_cell_volume 584.510947
_symmetry_space_group_name_H-M "P -1"
_symmetry_group_IT_number 2
_symmetry_cell_setting 'triclinic'
loop_
_space_group_symop_operation_xyz
x,y,z
-x,-y,-z
loop_
_atom_site_type_symbol
_atom_site_label
_atom_site_fract_x
_atom_site_fract_y
_atom_site_fract_z
Si Si1 0.076960 0.679186 0.184479
Si Si2 0.752297 0.767170 0.034227
Si Si3 0.240811 0.304534 0.499610
Si Si4 0.259474 0.818649 0.931231
Si Si5 0.204715 0.113507 0.312260
Si Si6 0.740274 0.362981 0.385349
Si Si7 0.855016 0.300382 0.203023
O O1 0.989533 0.598883 0.289587
O O2 0.105902 0.536765 0.177025
O O3 0.435476 0.924797 0.128524
O O4 0.740616 0.642551 0.142078
O O5 0.381916 0.702170 0.011993
O O6 0.916736 0.743485 0.980300
O O7 0.000000 0.000000 0.000000
O O8 0.500000 0.500000 0.500000
O O9 0.462174 0.305762 0.448895
O O10 0.081670 0.127818 0.607310
O O11 0.958046 0.304560 0.446853
O O12 0.112760 0.717889 0.875844
O O13 0.521672 0.213114 0.354052
O O14 0.428110 0.165086 0.233599
O O15 0.001878 0.199147 0.279517
#
# Coordination Sequence:
#
# PCOD8020128 Si02
#       7
#     2   2   2   2   2   2   2
#     4  10  24  42  68  93 135 168 228 265 326 401
#     4  10  22  42  65  98 129 177 216 272 327 387
#     4  12  26  41  68  98 131 167 220 271 330 396
#     4  11  24  41  68  94 136 173 217 274 330 379
#     4  11  24  45  66  93 140 167 225 269 323 401
#     4  11  24  43  66  96 125 182 211 269 336 384
#     4  11  25  42  67 102 128 182 217 273 327 386
#
# _framework density 23.951647000000001
#
# number of rings (size 3 to 8) (size 9 to 14) (size 15 to 20)
#    0.000    1.143    0.000    6.429    4.000   11.429 
#    0.000    0.000    0.000    0.000    0.000    0.000 
#    0.000    0.000    0.000    0.000    0.000    0.000 
#
# Total GULP energy -173443.405139 kJ/mol
# GULP energy per Si atom -12388.814653 kJ/mol
# Density = 2.389713 g / cm^3
# Si number density = 23.951647 Si / 1000 Ang^3
#
#
#
# Elastic Constant Matrix: (Units=GPa)
#
#
# Indices 1 2 3 4 5 6 
#
# 1 148.3130 9.3004 32.2016 -4.1477 13.3032 -16.4248
# 2 9.3004 66.2171 17.3741 -4.9163 16.3883 -3.2285
# 3 32.2016 17.3741 64.0038 -5.4815 11.7115 -12.0975
# 4 -4.1477 -4.9163 -5.4815 40.8818 1.3959 -2.6782
# 5 13.3032 16.3883 11.7115 1.3959 61.6818 3.5488
# 6 -16.4248 -3.2285 -12.0975 -2.6782 3.5488 24.8871
#
#
#
# Elastic Compliance Matrix: (Units=1/GPa)
#
#
# Indices 1 2 3 4 5 6 
#
# 1 0.007985 0.000287 -0.002971 0.000770 -0.001491 0.004159
# 2 0.000287 0.017233 -0.003649 0.001845 -0.004072 0.001430
# 3 -0.002971 -0.003649 0.020386 0.002623 -0.002789 0.008155
# 4 0.000770 0.001845 0.002623 0.025513 -0.002022 0.005056
# 5 -0.001491 -0.004072 -0.002789 -0.002022 0.018520 -0.005727
# 6 0.004159 0.001430 0.008155 0.005056 -0.005727 0.048437
#
#
# Mechanical properties :
#
#
# Convention : Reuss Voigt Hill
#
# Bulk Modulus (GPa) = 30.35932 44.03180 37.19556
# Shear Modulus (GPa) = 30.91780 40.13400 35.52590
#
# Velocity S-wave (km/s) = 3.59673 4.09788 3.85546
# Velocity P-wave (km/s) = 5.47278 6.38856 5.94832
#
# Compressibility (1/GPa) = 0.03293882
#
# Stress axis : x y z
#
# Youngs Moduli (GPa) = 125.22987 58.02674 49.05430
#
# Poissons Ratio (x) = -0.01664 0.14572
# Poissons Ratio (y) = -0.03592 0.17900
# Poissons Ratio (z) = 0.37201 0.21174
#
# Static dielectric constant tensor:
#      x y z
#    x 5.277160 0.093570 0.902860 
#    y 0.093570 4.273220 -0.207000 
#    z 0.902860 -0.207000 4.353020 
# 
# 
# High freq. dielectric constant tensor:
#      x y z
#    x 1.968020 -0.003670 0.001920 
#    y -0.003670 1.946840 -0.003630 
#    z 0.001920 -0.003630 1.969550 
# 
# From -- ./inp_files/321960.got.cif
#   From: 2010.06.25/outbox.cif.g09.slc.cpg/sg2_161_cif.got.tgz:321960.got - 2010.06.27 13:26:56.
