data_PCOD8020184
_publ_section_title
;
Structure prediction by ZEFSAII (Michael W. Deem and Ramdas Pophale) SiO2 
 PCOD8020184
Probable space group: P -1
;
_chemical_formula_sum "Si O2"
_cell_formula_units_Z 14
_cell_length_a 13.549544
_cell_length_b 11.310494
_cell_length_c 18.579535
_cell_angle_alpha 36.157083
_cell_angle_beta 21.417437
_cell_angle_gamma 48.043243
_cell_volume 566.004565
_symmetry_space_group_name_H-M "P -1"
_symmetry_group_IT_number 2
_symmetry_cell_setting 'triclinic'
loop_
_space_group_symop_operation_xyz
x,y,z
-x,-y,-z
loop_
_atom_site_type_symbol
_atom_site_label
_atom_site_fract_x
_atom_site_fract_y
_atom_site_fract_z
Si Si1 0.660516 0.338964 0.609820
Si Si2 0.838053 0.746356 0.371372
Si Si3 0.544627 0.979144 0.217720
Si Si4 0.941881 0.698771 0.905450
Si Si5 0.839716 0.789091 0.667680
Si Si6 0.433260 0.989544 0.657151
Si Si7 0.362142 0.521735 0.914456
O O1 0.794099 0.598972 0.401191
O O2 0.903895 0.264259 0.521036
O O3 0.641165 0.248574 0.585181
O O4 0.334418 0.250547 0.905582
O O5 0.676683 0.594591 0.623522
O O6 0.676914 0.909943 0.384199
O O7 0.178659 0.883366 0.088009
O O8 0.372696 0.139919 0.273779
O O9 0.652623 0.933082 0.245138
O O10 0.895407 0.645580 0.878159
O O11 0.213310 0.921325 0.627353
O O12 0.000000 0.500000 0.000000
O O13 0.636250 0.591235 0.954660
O O14 0.000000 0.000000 0.500000
O O15 0.286580 0.731590 0.876137
#
# Coordination Sequence:
#
# PCOD8020184 Si02
#       7
#     2   2   2   2   2   2   2
#     4  10  22  42  66  93 130 172 216 273 321 386
#     4  11  24  41  64 103 132 170 222 269 331 394
#     4  11  25  42  66  95 135 179 222 263 331 381
#     4  11  22  42  67  98 133 172 210 268 337 389
#     4  10  23  47  66  93 134 176 226 273 316 391
#     4  12  24  41  67 102 137 173 214 274 328 398
#     4  11  24  42  70  95 137 171 220 276 325 385
#
# _framework density 24.734784000000001
#
# number of rings (size 3 to 8) (size 9 to 14) (size 15 to 20)
#    0.000    1.143    2.857    4.286    2.000    3.429 
#    0.000   19.286    0.000    0.000    0.000    0.000 
#    0.000    0.000    0.000    0.000    0.000    0.000 
#
# Total GULP energy -173443.117934 kJ/mol
# GULP energy per Si atom -12388.794138 kJ/mol
# Density = 2.467849 g / cm^3
# Si number density = 24.734784 Si / 1000 Ang^3
#
#
#
# Elastic Constant Matrix: (Units=GPa)
#
#
# Indices 1 2 3 4 5 6 
#
# 1 45.2215 15.6752 -0.2610 1.0830 4.4539 2.2442
# 2 15.6752 128.8139 34.9964 12.1396 1.0684 -1.7659
# 3 -0.2610 34.9964 73.7260 13.9895 7.3102 -10.6578
# 4 1.0830 12.1396 13.9895 45.9680 -1.0772 -3.9208
# 5 4.4539 1.0684 7.3102 -1.0772 35.7463 -0.7289
# 6 2.2442 -1.7659 -10.6578 -3.9208 -0.7289 32.8250
#
#
#
# Elastic Compliance Matrix: (Units=1/GPa)
#
#
# Indices 1 2 3 4 5 6 
#
# 1 0.023682 -0.003345 0.001890 -0.000438 -0.003277 -0.001310
# 2 -0.003345 0.009483 -0.004527 -0.001096 0.001009 -0.000839
# 3 0.001890 -0.004527 0.017507 -0.003857 -0.003699 0.004769
# 4 -0.000438 -0.001096 -0.003857 0.023398 0.001613 0.001549
# 5 -0.003277 0.001009 -0.003699 0.001613 0.029157 -0.000083
# 6 -0.001310 -0.000839 0.004769 0.001549 -0.000083 0.032241
#
#
# Mechanical properties :
#
#
# Convention : Reuss Voigt Hill
#
# Bulk Modulus (GPa) = 25.83323 38.73141 32.28232
# Shear Modulus (GPa) = 31.18493 36.06460 33.62476
#
# Velocity S-wave (km/s) = 3.55459 3.82259 3.69102
# Velocity P-wave (km/s) = 5.22624 5.93090 5.58968
#
# Compressibility (1/GPa) = 0.03870984
#
# Stress axis : x y z
#
# Youngs Moduli (GPa) = 42.22614 105.44689 57.11901
#
# Poissons Ratio (x) = 0.35270 -0.10797
# Poissons Ratio (y) = 0.14124 0.25857
# Poissons Ratio (z) = -0.07982 0.47735
#
# Static dielectric constant tensor:
#      x y z
#    x 5.054600 -1.449000 -0.987870 
#    y -1.449000 7.687610 1.700920 
#    z -0.987870 1.700920 5.500030 
# 
# 
# High freq. dielectric constant tensor:
#      x y z
#    x 1.960060 0.017100 -0.017060 
#    y 0.017100 1.989510 0.000890 
#    z -0.017060 0.000890 1.994300 
# 
# From -- ./inp_files/154666.got.cif
#   From: 2010.06.25/outbox.cif.g09.slc.cpg/sg2_78_cif.got.tgz:154666.got - 2010.06.27 13:26:56.
