data_PCOD8020193
_publ_section_title
;
Structure prediction by ZEFSAII (Michael W. Deem and Ramdas Pophale) SiO2 
 PCOD8020193
Probable space group: P -1
;
_chemical_formula_sum "Si O2"
_cell_formula_units_Z 16
_cell_length_a 12.600146
_cell_length_b 9.446533
_cell_length_c 9.170765
_cell_angle_alpha 67.536287
_cell_angle_beta 49.207688
_cell_angle_gamma 56.218256
_cell_volume 686.574782
_symmetry_space_group_name_H-M "P -1"
_symmetry_group_IT_number 2
_symmetry_cell_setting 'triclinic'
loop_
_space_group_symop_operation_xyz
x,y,z
-x,-y,-z
loop_
_atom_site_type_symbol
_atom_site_label
_atom_site_fract_x
_atom_site_fract_y
_atom_site_fract_z
Si Si1 0.096523 0.712541 0.968746
Si Si2 0.677060 0.617041 0.625387
Si Si3 0.095178 0.649053 0.300122
Si Si4 0.249465 0.091234 0.493489
Si Si5 0.362610 0.441320 0.650911
Si Si6 0.794776 0.016498 0.117868
Si Si7 0.473019 0.855553 0.168605
Si Si8 0.607809 0.279823 0.978606
O O1 0.208856 0.601909 0.784620
O O2 0.142292 0.842939 0.965151
O O3 0.090795 0.594073 0.155785
O O4 0.924355 0.833386 0.013225
O O5 0.855537 0.509222 0.569688
O O6 0.647791 0.804476 0.628731
O O7 0.674207 0.597665 0.463122
O O8 0.538145 0.583684 0.844283
O O9 0.241585 0.688694 0.186486
O O10 0.932110 0.804755 0.425769
O O11 0.277903 0.999890 0.658864
O O12 0.315709 0.949823 0.365068
O O13 0.500000 0.500000 0.500000
O O14 0.396246 0.274060 0.785147
O O15 0.661448 0.095479 0.083976
O O16 0.454109 0.726865 0.123378
O O17 0.500000 0.000000 0.000000
#
# Coordination Sequence:
#
# PCOD8020193 Si02
#       8
#     2   2   2   2   2   2   2   2
#     4   9  19  40  65  93 131 164 212 272 320 379
#     4  12  24  40  65  97 133 171 215 270 329 385
#     4  10  22  42  66  94 126 171 217 270 321 391
#     4  11  24  42  64  93 135 172 213 266 334 391
#     4  12  25  41  67  98 130 173 229 273 316 390
#     4   9  20  39  66  96 126 168 210 264 329 385
#     4  12  26  43  64  98 138 175 214 279 332 386
#     4  11  22  40  69  92 127 174 222 263 325 391
#
# _framework density 23.304088
#
# number of rings (size 3 to 8) (size 9 to 14) (size 15 to 20)
#    0.000    1.250    1.250    6.000    1.750    2.500 
#    0.000    2.500    0.000    0.000    0.000    0.000 
#    0.000    0.000    0.000    0.000    0.000    0.000 
#
# Total GULP energy -198243.314954 kJ/mol
# GULP energy per Si atom -12390.207185 kJ/mol
# Density = 2.325105 g / cm^3
# Si number density = 23.304088 Si / 1000 Ang^3
#
#
#
# Elastic Constant Matrix: (Units=GPa)
#
#
# Indices 1 2 3 4 5 6 
#
# 1 66.3896 18.7878 18.6274 25.8638 18.7229 -16.0956
# 2 18.7878 76.4542 38.7063 23.8866 13.4663 -16.2634
# 3 18.6274 38.7063 116.9511 42.3118 12.0711 -13.1510
# 4 25.8638 23.8866 42.3118 49.8571 -0.1427 -0.0946
# 5 18.7229 13.4663 12.0711 -0.1427 37.6267 -1.8487
# 6 -16.0956 -16.2634 -13.1510 -0.0946 -1.8487 32.2038
#
#
#
# Elastic Compliance Matrix: (Units=1/GPa)
#
#
# Indices 1 2 3 4 5 6 
#
# 1 0.030740 0.003563 0.006109 -0.022853 -0.017705 0.018575
# 2 0.003563 0.019747 -0.001435 -0.010094 -0.007893 0.010685
# 3 0.006109 -0.001435 0.015293 -0.015465 -0.007092 0.008121
# 4 -0.022853 -0.010094 -0.015465 0.049887 0.019074 -0.021594
# 5 -0.017705 -0.007893 -0.007092 0.019074 0.039902 -0.013385
# 6 0.018575 0.010685 0.008121 -0.021594 -0.013385 0.048217
#
#
# Mechanical properties :
#
#
# Convention : Reuss Voigt Hill
#
# Bulk Modulus (GPa) = 12.15750 45.78198 28.96974
# Shear Modulus (GPa) = 23.28518 36.18242 29.73380
#
# Velocity S-wave (km/s) = 3.16442 3.94461 3.57586
# Velocity P-wave (km/s) = 4.31041 6.35883 5.43205
#
# Compressibility (1/GPa) = 0.08225374
#
# Stress axis : x y z
#
# Youngs Moduli (GPa) = 32.53115 50.63941 65.39050
#
# Poissons Ratio (x) = -0.18043 -0.39947
# Poissons Ratio (y) = -0.11591 0.09384
# Poissons Ratio (z) = -0.19873 0.07267
#
# Static dielectric constant tensor:
#      x y z
#    x 4.195830 -0.592540 0.179740 
#    y -0.592540 5.020930 -0.634760 
#    z 0.179740 -0.634760 4.587140 
# 
# 
# High freq. dielectric constant tensor:
#      x y z
#    x 1.909790 -0.028550 0.000390 
#    y -0.028550 1.933380 -0.015040 
#    z 0.000390 -0.015040 1.932780 
# 
# From -- ./inp_files/243406.got.cif
#   From: 2010.06.25/outbox.cif.g09.slc.cpg/sg2_122_cif.got.tgz:243406.got - 2010.06.27 13:26:56.
