data_PCOD8020385
_publ_section_title
;
Structure prediction by ZEFSAII (Michael W. Deem and Ramdas Pophale) SiO2 
 PCOD8020385
Probable space group: P -1
;
_chemical_formula_sum "Si O2"
_cell_formula_units_Z 16
_cell_length_a 13.042915
_cell_length_b 16.261270
_cell_length_c 10.610649
_cell_angle_alpha 64.167725
_cell_angle_beta 80.543685
_cell_angle_gamma 25.943689
_cell_volume 723.253085
_symmetry_space_group_name_H-M "P -1"
_symmetry_group_IT_number 2
_symmetry_cell_setting 'triclinic'
loop_
_space_group_symop_operation_xyz
x,y,z
-x,-y,-z
loop_
_atom_site_type_symbol
_atom_site_label
_atom_site_fract_x
_atom_site_fract_y
_atom_site_fract_z
Si Si1 0.147710 0.466241 0.545385
Si Si2 0.487069 0.278037 0.404612
Si Si3 0.216208 0.084689 0.593420
Si Si4 0.195358 0.742903 0.472451
Si Si5 0.852006 0.373341 0.979193
Si Si6 0.952212 0.127461 0.305182
Si Si7 0.452571 0.931303 0.074505
Si Si8 0.738506 0.643611 0.967568
O O1 0.206052 0.486443 0.403455
O O2 0.443205 0.188784 0.730583
O O3 0.000000 0.500000 0.500000
O O4 0.945966 0.685493 0.538694
O O5 0.618650 0.074320 0.463025
O O6 0.715731 0.136280 0.544417
O O7 0.412891 0.403485 0.215107
O O8 0.974801 0.204075 0.586249
O O9 0.454641 0.903091 0.774257
O O10 0.500000 0.500000 0.500000
O O11 0.245116 0.695922 0.647358
O O12 0.968800 0.012424 0.318218
O O13 0.851936 0.276320 0.114038
O O14 0.844804 0.456628 0.031812
O O15 0.124760 0.169346 0.971834
O O16 0.643009 0.718497 0.080721
O O17 0.500000 0.000000 0.000000
O O18 0.000000 0.500000 0.000000
#
# Coordination Sequence:
#
# PCOD8020385 Si02
#       8
#     2   2   2   2   2   2   2   2
#     4  12  25  38  65  94 131 180 224 273 331 399
#     4  10  22  43  65  97 134 173 220 281 330 397
#     4  10  24  43  64  96 131 171 225 271 337 402
#     4  10  22  42  71  96 134 171 221 287 345 398
#     4  11  23  41  69  97 137 178 228 276 335 403
#     4  10  22  42  68 100 129 174 225 278 345 407
#     4  12  24  40  62  96 137 177 223 273 331 397
#     4  11  24  41  64  93 138 179 219 276 330 396
#
# _framework density 22.12227
#
# number of rings (size 3 to 8) (size 9 to 14) (size 15 to 20)
#    0.000    1.250    2.500    3.000    5.250    0.500 
#    0.000   10.000    0.000    9.000    0.000    0.000 
#    0.000    0.000    0.000    0.000    0.000    0.000 
#
# Total GULP energy -198290.943431 kJ/mol
# GULP energy per Si atom -12393.183964 kJ/mol
# Density = 2.207192 g / cm^3
# Si number density = 22.122270 Si / 1000 Ang^3
#
#
#
# Elastic Constant Matrix: (Units=GPa)
#
#
# Indices 1 2 3 4 5 6 
#
# 1 80.6383 18.3049 29.4617 -7.8713 -1.3869 11.9766
# 2 18.3049 125.3601 20.2698 -4.1265 -4.6115 -5.9407
# 3 29.4617 20.2698 107.0017 -0.5060 -13.3241 3.3700
# 4 -7.8713 -4.1265 -0.5060 31.3557 -3.1582 -4.8539
# 5 -1.3869 -4.6115 -13.3241 -3.1582 40.8849 -6.6250
# 6 11.9766 -5.9407 3.3700 -4.8539 -6.6250 33.8902
#
#
#
# Elastic Compliance Matrix: (Units=1/GPa)
#
#
# Indices 1 2 3 4 5 6 
#
# 1 0.015232 -0.001823 -0.003871 0.002544 -0.001607 -0.005268
# 2 -0.001823 0.008621 -0.001074 0.001177 0.001079 0.002642
# 3 -0.003871 -0.001074 0.011016 -0.000486 0.003410 0.000681
# 4 0.002544 0.001177 -0.000486 0.033780 0.003459 0.004870
# 5 -0.001607 0.001079 0.003410 0.003459 0.026905 0.006173
# 6 -0.005268 0.002642 0.000681 0.004870 0.006173 0.033668
#
#
# Mechanical properties :
#
#
# Convention : Reuss Voigt Hill
#
# Bulk Modulus (GPa) = 46.87820 49.89697 48.38759
# Shear Modulus (GPa) = 33.36241 37.55710 35.45975
#
# Velocity S-wave (km/s) = 3.88763 4.12479 4.00796
# Velocity P-wave (km/s) = 6.43335 6.72973 6.58321
#
# Compressibility (1/GPa) = 0.02133188
#
# Stress axis : x y z
#
# Youngs Moduli (GPa) = 65.65032 116.00108 90.77833
#
# Poissons Ratio (x) = 0.21151 0.35139
# Poissons Ratio (y) = 0.11970 0.09752
# Poissons Ratio (z) = 0.25412 0.12461
#
# Static dielectric constant tensor:
#      x y z
#    x 4.096140 0.048980 0.110590 
#    y 0.048980 4.048890 -0.174350 
#    z 0.110590 -0.174350 3.443660 
# 
# 
# High freq. dielectric constant tensor:
#      x y z
#    x 1.872900 0.004210 0.006420 
#    y 0.004210 1.882150 -0.008860 
#    z 0.006420 -0.008860 1.861670 
# 
# From -- ./inp_files/433809.got.cif
#   From: 2010.06.25/outbox.cif.g09.slc.cpg/sg2_217_cif.got.tgz:433809.got - 2010.06.27 13:26:56.
