data_PCOD8020511
_publ_section_title
;
Structure prediction by ZEFSAII (Michael W. Deem and Ramdas Pophale) SiO2 
 PCOD8020511
Probable space group: P -1
;
_chemical_formula_sum "Si O2"
_cell_formula_units_Z 16
_cell_length_a 10.811290
_cell_length_b 9.213812
_cell_length_c 13.898017
_cell_angle_alpha 120.778139
_cell_angle_beta 42.627632
_cell_angle_gamma 128.427265
_cell_volume 730.620918
_symmetry_space_group_name_H-M "P -1"
_symmetry_group_IT_number 2
_symmetry_cell_setting 'triclinic'
loop_
_space_group_symop_operation_xyz
x,y,z
-x,-y,-z
loop_
_atom_site_type_symbol
_atom_site_label
_atom_site_fract_x
_atom_site_fract_y
_atom_site_fract_z
Si Si1 0.155341 0.721681 0.718668
Si Si2 0.263824 0.547933 0.924588
Si Si3 0.078669 0.387136 0.779009
Si Si4 0.301546 0.352034 0.012384
Si Si5 0.170826 0.709507 0.487926
Si Si6 0.012461 0.007471 0.609636
Si Si7 0.577764 0.926284 0.841216
Si Si8 0.458971 0.079795 0.778235
O O1 0.187845 0.562874 0.706232
O O2 0.236019 0.726195 0.566885
O O3 0.918553 0.681961 0.832460
O O4 0.302686 0.913969 0.747805
O O5 0.136675 0.418634 0.867891
O O6 0.452491 0.708216 0.821829
O O7 0.322982 0.413527 0.910266
O O8 0.155203 0.645110 0.090235
O O9 0.128593 0.221465 0.651956
O O10 0.500000 0.500000 0.000000
O O11 0.317685 0.156611 0.941344
O O12 0.371314 0.755812 0.325832
O O13 0.000000 0.500000 0.500000
O O14 0.101670 0.871777 0.555799
O O15 0.792869 0.944454 0.756694
O O16 0.000000 0.000000 0.500000
O O17 0.578792 0.021155 0.770452
O O18 0.500000 0.000000 0.000000
#
# Coordination Sequence:
#
# PCOD8020511 Si02
#       8
#     2   2   2   2   2   2   2   2
#     4  11  25  46  71 100 140 186 230 288 348 412
#     4  10  22  42  69 105 137 179 227 292 351 405
#     4  10  22  45  71 101 140 178 231 289 346 417
#     4  11  25  41  71 105 141 179 235 287 348 415
#     4  12  28  48  71  97 144 188 231 288 351 416
#     4  12  26  45  70 102 138 182 235 288 349 419
#     4  12  24  42  72 102 137 178 236 292 347 409
#     4  12  26  47  66 104 142 185 235 286 348 416
#
# _framework density 21.899180999999999
#
# number of rings (size 3 to 8) (size 9 to 14) (size 15 to 20)
#    0.000    0.750    3.750    3.000    8.750    0.000 
#    0.000    1.250    0.000    0.000    0.000    0.000 
#    0.000    0.000    0.000    0.000    0.000    0.000 
#
# Total GULP energy -198296.350382 kJ/mol
# GULP energy per Si atom -12393.521899 kJ/mol
# Density = 2.184934 g / cm^3
# Si number density = 21.899181 Si / 1000 Ang^3
#
#
#
# Elastic Constant Matrix: (Units=GPa)
#
#
# Indices 1 2 3 4 5 6 
#
# 1 78.5085 5.2180 3.9747 -5.7327 13.7572 2.8671
# 2 5.2180 106.4383 9.9303 0.2874 4.4886 13.0998
# 3 3.9747 9.9303 65.5863 -0.1328 9.7914 7.1874
# 4 -5.7327 0.2874 -0.1328 47.2338 -1.8618 2.7226
# 5 13.7572 4.4886 9.7914 -1.8618 42.9826 -1.4347
# 6 2.8671 13.0998 7.1874 2.7226 -1.4347 41.8259
#
#
#
# Elastic Compliance Matrix: (Units=1/GPa)
#
#
# Indices 1 2 3 4 5 6 
#
# 1 0.013669 -0.000360 -0.000011 0.001553 -0.004303 -0.001071
# 2 -0.000360 0.009903 -0.001041 0.000031 -0.000778 -0.002927
# 3 -0.000011 -0.001041 0.016238 0.000055 -0.003671 -0.002593
# 4 0.001553 0.000031 0.000055 0.021461 0.000366 -0.001510
# 5 -0.004303 -0.000778 -0.003671 0.000366 0.025643 0.002025
# 6 -0.001071 -0.002927 -0.002593 -0.001510 0.002025 0.025512
#
#
# Mechanical properties :
#
#
# Convention : Reuss Voigt Hill
#
# Bulk Modulus (GPa) = 27.03721 32.08655 29.56188
# Shear Modulus (GPa) = 39.19193 41.83582 40.51388
#
# Velocity S-wave (km/s) = 4.23502 4.37553 4.30585
# Velocity P-wave (km/s) = 6.02386 6.34120 6.18456
#
# Compressibility (1/GPa) = 0.03698606
#
# Stress axis : x y z
#
# Youngs Moduli (GPa) = 73.16077 100.98172 61.58542
#
# Poissons Ratio (x) = 0.03635 0.00067
# Poissons Ratio (y) = 0.02634 0.06408
# Poissons Ratio (z) = 0.00080 0.10508
#
# Static dielectric constant tensor:
#      x y z
#    x 3.946400 -0.062570 0.023870 
#    y -0.062570 4.138650 -0.157150 
#    z 0.023870 -0.157150 3.924720 
# 
# 
# High freq. dielectric constant tensor:
#      x y z
#    x 1.871000 -0.001580 0.008710 
#    y -0.001580 1.872570 -0.002110 
#    z 0.008710 -0.002110 1.858050 
# 
# From -- ./inp_files/205067.got.cif
#   From: 2010.06.25/outbox.cif.g09.slc.cpg/sg2_103_cif.got.tgz:205067.got - 2010.06.27 13:26:56.
