data_PCOD8020725
_publ_section_title
;
Structure prediction by ZEFSAII (Michael W. Deem and Ramdas Pophale) SiO2 
 PCOD8020725
Probable space group: P -1
;
_chemical_formula_sum "Si O2"
_cell_formula_units_Z 16
_cell_length_a 28.196514
_cell_length_b 19.265383
_cell_length_c 9.237311
_cell_angle_alpha 145.209191
_cell_angle_beta 26.464385
_cell_angle_gamma 163.052155
_cell_volume 627.610584
_symmetry_space_group_name_H-M "P -1"
_symmetry_group_IT_number 2
_symmetry_cell_setting 'triclinic'
loop_
_space_group_symop_operation_xyz
x,y,z
-x,-y,-z
loop_
_atom_site_type_symbol
_atom_site_label
_atom_site_fract_x
_atom_site_fract_y
_atom_site_fract_z
Si Si1 0.055436 0.307459 0.461294
Si Si2 0.370243 0.456474 0.671073
Si Si3 0.271806 0.255296 0.281853
Si Si4 0.840142 0.636464 0.402098
Si Si5 0.644289 0.172214 0.533662
Si Si6 0.918766 0.284790 0.344215
Si Si7 0.359533 0.074743 0.730379
Si Si8 0.686418 0.977456 0.708941
O O1 0.059818 0.271466 0.553874
O O2 0.158426 0.543514 0.559917
O O3 0.798539 0.057320 0.694252
O O4 0.176135 0.325944 0.066476
O O5 0.500000 0.500000 0.500000
O O6 0.276542 0.299892 0.514112
O O7 0.548091 0.729348 0.598649
O O8 0.121560 0.191711 0.480470
O O9 0.500000 0.500000 0.000000
O O10 0.203451 0.042334 0.102470
O O11 0.589264 0.352169 0.623319
O O12 0.915733 0.611836 0.039694
O O13 0.500000 0.000000 0.500000
O O14 0.732732 0.128434 0.268080
O O15 0.476142 0.069195 0.927295
O O16 0.903996 0.216863 0.429353
O O17 0.000000 0.500000 0.500000
O O18 0.671918 0.016495 0.499341
#
# Coordination Sequence:
#
# PCOD8020725 Si02
#       8
#     2   2   2   2   2   2   2   2
#     4  11  25  44  74 107 144 188 239 292 357 427
#     4  11  24  45  73 104 143 185 241 294 357 423
#     4  10  22  42  72  99 136 185 233 286 348 421
#     4  11  24  44  71 104 141 188 239 285 353 429
#     4  11  24  42  71 102 138 184 237 291 360 416
#     4  12  27  44  70 107 145 186 234 291 359 429
#     4  11  24  45  71  99 139 185 236 294 353 415
#     4  11  26  45  69 105 144 186 234 297 359 421
#
# _framework density 25.493514000000001
#
# number of rings (size 3 to 8) (size 9 to 14) (size 15 to 20)
#    0.000    1.000    1.250    5.250    3.500    5.500 
#    0.000    2.500    0.000    0.000    0.000    0.000 
#    0.000    0.000    0.000    0.000    0.000    0.000 
#
# Total GULP energy -198242.512353 kJ/mol
# GULP energy per Si atom -12390.157022 kJ/mol
# Density = 2.543549 g / cm^3
# Si number density = 25.493514 Si / 1000 Ang^3
#
#
#
# Elastic Constant Matrix: (Units=GPa)
#
#
# Indices 1 2 3 4 5 6 
#
# 1 158.7654 46.7745 46.0157 24.1587 -10.3169 -19.2808
# 2 46.7745 144.9550 42.6213 34.8223 -5.0455 -17.1484
# 3 46.0157 42.6213 110.6673 21.3123 -2.9536 -29.0811
# 4 24.1587 34.8223 21.3123 48.5242 -0.8694 -2.7464
# 5 -10.3169 -5.0455 -2.9536 -0.8694 46.5905 -1.8229
# 6 -19.2808 -17.1484 -29.0811 -2.7464 -1.8229 40.6144
#
#
#
# Elastic Compliance Matrix: (Units=1/GPa)
#
#
# Indices 1 2 3 4 5 6 
#
# 1 0.007832 -0.001212 -0.001880 -0.002076 0.001515 0.001788
# 2 -0.001212 0.009245 -0.001531 -0.005240 0.000613 0.001906
# 3 -0.001880 -0.001531 0.013045 -0.003256 0.000482 0.007604
# 4 -0.002076 -0.005240 -0.003256 0.026603 -0.000885 -0.003770
# 5 0.001515 0.000613 0.000482 -0.000885 0.021967 0.002249
# 6 0.001788 0.001906 0.007604 -0.003770 0.002249 0.031566
#
#
# Mechanical properties :
#
#
# Convention : Reuss Voigt Hill
#
# Bulk Modulus (GPa) = 47.89615 76.13452 62.01534
# Shear Modulus (GPa) = 39.53748 45.74422 42.64085
#
# Velocity S-wave (km/s) = 3.94240 4.24057 4.09420
# Velocity P-wave (km/s) = 6.28902 7.34205 6.83584
#
# Compressibility (1/GPa) = 0.02087850
#
# Stress axis : x y z
#
# Youngs Moduli (GPa) = 127.68372 108.16256 76.65652
#
# Poissons Ratio (x) = 0.13104 0.14410
# Poissons Ratio (y) = 0.15469 0.11733
# Poissons Ratio (z) = 0.24002 0.16555
#
# Static dielectric constant tensor:
#      x y z
#    x 4.147160 0.258950 0.297180 
#    y 0.258950 4.906210 0.053290 
#    z 0.297180 0.053290 4.543440 
# 
# 
# High freq. dielectric constant tensor:
#      x y z
#    x 2.037820 0.003420 -0.006360 
#    y 0.003420 2.047220 0.001130 
#    z -0.006360 0.001130 2.023450 
# 
# From -- ./inp_files/357617.got.cif
#   From: 2010.06.25/outbox.cif.g09.slc.cpg/sg2_179_cif.got.tgz:357617.got - 2010.06.27 13:26:56.
