data_PCOD8020389
_publ_section_title
;
Structure prediction by ZEFSAII (Michael W. Deem and Ramdas Pophale) SiO2 
 PCOD8020389
Probable space group: P -1
;
_chemical_formula_sum "Si O2"
_cell_formula_units_Z 14
_cell_length_a 9.100073
_cell_length_b 9.225896
_cell_length_c 11.051628
_cell_angle_alpha 121.006628
_cell_angle_beta 123.097293
_cell_angle_gamma 54.031709
_cell_volume 602.688798
_symmetry_space_group_name_H-M "P -1"
_symmetry_group_IT_number 2
_symmetry_cell_setting 'triclinic'
loop_
_space_group_symop_operation_xyz
x,y,z
-x,-y,-z
loop_
_atom_site_type_symbol
_atom_site_label
_atom_site_fract_x
_atom_site_fract_y
_atom_site_fract_z
Si Si1 0.108499 0.447356 0.384212
Si Si2 0.683175 0.750813 0.837574
Si Si3 0.327151 0.544072 0.116025
Si Si4 0.670598 0.582216 0.198548
Si Si5 0.937329 0.882076 0.157968
Si Si6 0.691402 0.938187 0.301780
Si Si7 0.054782 0.187917 0.416144
O O1 0.186700 0.406692 0.266439
O O2 0.186272 0.257484 0.418246
O O3 0.877774 0.514912 0.323358
O O4 0.123449 0.633156 0.522787
O O5 0.652039 0.648328 0.897244
O O6 0.476970 0.866189 0.731536
O O7 0.791559 0.877828 0.984231
O O8 0.527193 0.566145 0.230196
O O9 0.147579 0.714115 0.166482
O O10 0.301089 0.546903 0.961296
O O11 0.591488 0.797742 0.215141
O O12 0.856494 0.855875 0.239037
O O13 0.956956 0.077767 0.246543
O O14 0.798941 0.954483 0.480148
#
# Coordination Sequence:
#
# PCOD8020389 Si02
#       7
#     2   2   2   2   2   2   2
#     4  10  23  48  71  96 142 187 228 280 348 413
#     4  12  25  43  75 106 136 178 236 288 339 403
#     4  11  23  41  69 104 139 177 226 287 346 400
#     4  10  22  42  68 100 140 178 226 282 345 405
#     4  12  24  44  72 103 137 179 232 291 336 406
#     4  11  25  45  69 102 142 182 227 285 343 410
#     4  10  25  46  71  97 143 187 227 278 350 414
#
# _framework density 23.229236
#
# number of rings (size 3 to 8) (size 9 to 14) (size 15 to 20)
#    0.000    1.143    2.857    3.000    4.000    2.286 
#    5.143    1.429    0.000    0.000    0.000    0.000 
#    0.000    0.000    0.000    0.000    0.000    0.000 
#
# Total GULP energy -173539.659126 kJ/mol
# GULP energy per Si atom -12395.689938 kJ/mol
# Density = 2.317637 g / cm^3
# Si number density = 23.229236 Si / 1000 Ang^3
#
#
#
# Elastic Constant Matrix: (Units=GPa)
#
#
# Indices 1 2 3 4 5 6 
#
# 1 120.9450 46.5687 32.2017 5.3998 3.0875 -7.1023
# 2 46.5687 113.1339 49.9339 1.7652 9.8883 -0.9472
# 3 32.2017 49.9339 73.0388 16.5335 -3.6593 9.0278
# 4 5.3998 1.7652 16.5335 40.9423 10.2007 5.5062
# 5 3.0875 9.8883 -3.6593 10.2007 26.8306 -0.2537
# 6 -7.1023 -0.9472 9.0278 5.5062 -0.2537 26.7527
#
#
#
# Elastic Compliance Matrix: (Units=1/GPa)
#
#
# Indices 1 2 3 4 5 6 
#
# 1 0.010434 -0.002910 -0.002986 -0.000472 -0.000320 0.003769
# 2 -0.002910 0.016111 -0.012021 0.006651 -0.009748 0.002393
# 3 -0.002986 -0.012021 0.027693 -0.012511 0.013233 -0.007863
# 4 -0.000472 0.006651 -0.012511 0.033865 -0.017005 -0.002800
# 5 -0.000320 -0.009748 0.013233 -0.017005 0.049161 -0.000930
# 6 0.003769 0.002393 -0.007863 -0.002800 -0.000930 0.041685
#
#
# Mechanical properties :
#
#
# Convention : Reuss Voigt Hill
#
# Bulk Modulus (GPa) = 54.33561 62.72518 58.53040
# Shear Modulus (GPa) = 22.63270 30.79933 26.71601
#
# Velocity S-wave (km/s) = 3.12480 3.64522 3.39500
# Velocity P-wave (km/s) = 6.03829 6.69165 6.37335
#
# Compressibility (1/GPa) = 0.01840414
#
# Stress axis : x y z
#
# Youngs Moduli (GPa) = 95.83765 62.06907 36.11043
#
# Poissons Ratio (x) = 0.18064 0.10781
# Poissons Ratio (y) = 0.27892 0.43409
# Poissons Ratio (z) = 0.28614 0.74614
#
# Static dielectric constant tensor:
#      x y z
#    x 4.297350 0.185130 0.093900 
#    y 0.185130 4.091400 0.106660 
#    z 0.093900 0.106660 4.279510 
# 
# 
# High freq. dielectric constant tensor:
#      x y z
#    x 1.915460 0.008750 -0.006240 
#    y 0.008750 1.909790 0.000570 
#    z -0.006240 0.000570 1.924830 
# 
# From -- ./inp_files/299131.got.cif
#   From: 2010.06.25/outbox.cif.g09.slc.cpg/sg2_150_cif.got.tgz:299131.got - 2010.06.27 13:26:56.
