data_PCOD8020226
_publ_section_title
;
Structure prediction by ZEFSAII (Michael W. Deem and Ramdas Pophale) SiO2 
 PCOD8020226
Probable space group: P -1
;
_chemical_formula_sum "Si O2"
_cell_formula_units_Z 14
_cell_length_a 9.152057
_cell_length_b 11.517661
_cell_length_c 11.778801
_cell_angle_alpha 85.241174
_cell_angle_beta 37.527756
_cell_angle_gamma 105.083698
_cell_volume 635.786863
_symmetry_space_group_name_H-M "P -1"
_symmetry_group_IT_number 2
_symmetry_cell_setting 'triclinic'
loop_
_space_group_symop_operation_xyz
x,y,z
-x,-y,-z
loop_
_atom_site_type_symbol
_atom_site_label
_atom_site_fract_x
_atom_site_fract_y
_atom_site_fract_z
Si Si1 0.571349 0.966385 0.580075
Si Si2 0.027622 0.662659 0.317727
Si Si3 0.367486 0.917915 0.239051
Si Si4 0.181731 0.687671 0.970288
Si Si5 0.604437 0.498423 0.217625
Si Si6 0.504286 0.386120 0.934040
Si Si7 0.196486 0.074561 0.187956
O O1 0.500000 0.000000 0.500000
O O2 0.621765 0.084353 0.630541
O O3 0.318280 0.817480 0.790894
O O4 0.861202 0.969501 0.389763
O O5 0.689064 0.571748 0.525525
O O6 0.111728 0.778047 0.352781
O O7 0.164395 0.732116 0.105758
O O8 0.171364 0.577337 0.272868
O O9 0.311710 0.039084 0.232167
O O10 0.666507 0.949082 0.005520
O O11 0.859413 0.578027 0.141748
O O12 0.362839 0.615163 0.861236
O O13 0.602420 0.607661 0.125659
O O14 0.500000 0.500000 0.000000
O O15 0.287440 0.233085 0.129455
#
# Coordination Sequence:
#
# PCOD8020226 Si02
#       7
#     2   2   2   2   2   2   2
#     4  12  25  42  67  97 134 174 213 271 336 386
#     4  11  23  44  71  97 131 174 221 276 325 387
#     4  10  23  41  70  98 126 169 225 267 327 390
#     4  11  24  44  65  95 135 175 222 268 323 400
#     4  11  24  42  65  98 134 177 217 268 331 389
#     4  11  22  39  66  98 135 168 219 271 320 388
#     4  10  22  42  66  97 131 170 215 273 321 388
#
# _framework density 22.019957000000002
#
# number of rings (size 3 to 8) (size 9 to 14) (size 15 to 20)
#    0.000    1.143    1.429    5.571    2.000    0.571 
#    0.000    5.714    0.000    0.000    0.000    0.000 
#    0.000    0.000    0.000    0.000    0.000    0.000 
#
# Total GULP energy -173591.654677 kJ/mol
# GULP energy per Si atom -12399.403905 kJ/mol
# Density = 2.196984 g / cm^3
# Si number density = 22.019957 Si / 1000 Ang^3
#
#
#
# Elastic Constant Matrix: (Units=GPa)
#
#
# Indices 1 2 3 4 5 6 
#
# 1 121.2889 53.3527 55.8229 11.3157 13.2234 1.6331
# 2 53.3527 127.2523 45.2211 -3.9022 8.3513 -5.7349
# 3 55.8229 45.2211 114.9960 2.5304 -18.2126 -0.0916
# 4 11.3157 -3.9022 2.5304 30.0586 -2.0899 2.1246
# 5 13.2234 8.3513 -18.2126 -2.0899 45.5695 1.9756
# 6 1.6331 -5.7349 -0.0916 2.1246 1.9756 33.6715
#
#
#
# Elastic Compliance Matrix: (Units=1/GPa)
#
#
# Indices 1 2 3 4 5 6 
#
# 1 0.013757 -0.003358 -0.006201 -0.005477 -0.006082 -0.000554
# 2 -0.003358 0.010613 -0.002933 0.002607 -0.002107 0.001922
# 3 -0.006201 -0.002933 0.014107 0.001378 0.008069 -0.000721
# 4 -0.005477 0.002607 0.001378 0.035912 0.003385 -0.001751
# 5 -0.006082 -0.002107 0.008069 0.003385 0.027557 -0.001872
# 6 -0.000554 0.001922 -0.000721 -0.001751 -0.001872 0.030271
#
#
# Mechanical properties :
#
#
# Convention : Reuss Voigt Hill
#
# Bulk Modulus (GPa) = 74.11078 74.70339 74.40709
# Shear Modulus (GPa) = 30.92164 35.80263 33.36214
#
# Velocity S-wave (km/s) = 3.75141 4.03664 3.89663
# Velocity P-wave (km/s) = 7.24523 7.46491 7.35589
#
# Compressibility (1/GPa) = 0.01349331
#
# Stress axis : x y z
#
# Youngs Moduli (GPa) = 72.68778 94.22036 70.88915
#
# Poissons Ratio (x) = 0.31641 0.43958
# Poissons Ratio (y) = 0.24410 0.20791
# Poissons Ratio (z) = 0.45073 0.27634
#
# Static dielectric constant tensor:
#      x y z
#    x 4.010940 -0.160000 -0.031120 
#    y -0.160000 3.946650 0.048090 
#    z -0.031120 0.048090 4.039830 
# 
# 
# High freq. dielectric constant tensor:
#      x y z
#    x 1.866000 -0.001170 -0.007150 
#    y -0.001170 1.863140 0.004990 
#    z -0.007150 0.004990 1.874820 
# 
# From -- ./inp_files/389927.got.cif
#   From: 2010.06.25/outbox.cif.g09.slc.cpg/sg2_195_cif.got.tgz:389927.got - 2010.06.27 13:26:56.
