data_PCOD8020019
_publ_section_title
;
Structure prediction by ZEFSAII (Michael W. Deem and Ramdas Pophale) SiO2 
 PCOD8020019
Probable space group: P -1
;
_chemical_formula_sum "Si O2"
_cell_formula_units_Z 16
_cell_length_a 12.559934
_cell_length_b 7.886367
_cell_length_c 8.685803
_cell_angle_alpha 68.858863
_cell_angle_beta 78.555748
_cell_angle_gamma 115.399967
_cell_volume 658.138976
_symmetry_space_group_name_H-M "P -1"
_symmetry_group_IT_number 2
_symmetry_cell_setting 'triclinic'
loop_
_space_group_symop_operation_xyz
x,y,z
-x,-y,-z
loop_
_atom_site_type_symbol
_atom_site_label
_atom_site_fract_x
_atom_site_fract_y
_atom_site_fract_z
Si Si1 0.516501 0.141259 0.642253
Si Si2 0.978077 0.401090 0.312175
Si Si3 0.337881 0.290382 0.214357
Si Si4 0.695369 0.052134 0.472025
Si Si5 0.575924 0.723740 0.117195
Si Si6 0.268096 0.405713 0.709978
Si Si7 0.135073 0.295523 0.097525
Si Si8 0.016812 0.220849 0.667648
O O1 0.588847 0.015879 0.644072
O O2 0.498899 0.174693 0.816797
O O3 0.607633 0.362617 0.448548
O O4 0.372116 0.002208 0.656782
O O5 0.824517 0.292124 0.361367
O O6 0.032383 0.651751 0.255718
O O7 0.041617 0.374386 0.149678
O O8 0.004817 0.275686 0.477809
O O9 0.475216 0.473473 0.183490
O O10 0.251648 0.385052 0.159237
O O11 0.265519 0.114309 0.429164
O O12 0.350325 0.168584 0.099078
O O13 0.675128 0.740113 0.213747
O O14 0.166463 0.304100 0.631768
O O15 0.191899 0.411373 0.880060
O O16 0.066796 0.034944 0.189412
#
# Coordination Sequence:
#
# PCOD8020019 Si02
#       8
#     2   2   2   2   2   2   2   2
#     4  11  24  41  67  95 128 173 209 274 328 382
#     4  11  25  43  68  95 130 177 214 271 321 384
#     4  10  22  42  64  97 128 163 221 269 316 401
#     4  11  23  43  63  96 134 162 223 267 319 395
#     4  10  23  40  67  94 127 170 213 268 332 380
#     4  11  23  42  63  98 128 165 221 265 316 397
#     4  11  25  42  67  95 133 176 211 268 328 380
#     4  11  24  43  64  97 131 169 224 261 317 395
#
# _framework density 24.310972
#
# number of rings (size 3 to 8) (size 9 to 14) (size 15 to 20)
#    0.000    1.250    3.750    1.125    3.500    1.000 
#    0.000    2.500    0.000    0.000    0.000    0.000 
#    0.000    0.000    0.000    0.000    0.000    0.000 
#
# Total GULP energy -198300.547395 kJ/mol
# GULP energy per Si atom -12393.784212 kJ/mol
# Density = 2.425564 g / cm^3
# Si number density = 24.310972 Si / 1000 Ang^3
#
#
#
# Elastic Constant Matrix: (Units=GPa)
#
#
# Indices 1 2 3 4 5 6 
#
# 1 105.1620 26.4734 22.8368 13.2632 -2.9160 25.4560
# 2 26.4734 77.7100 22.7747 16.4097 -16.1977 -2.2905
# 3 22.8368 22.7747 33.2174 9.8389 -10.1403 4.6009
# 4 13.2632 16.4097 9.8389 35.0729 -12.9615 -4.9055
# 5 -2.9160 -16.1977 -10.1403 -12.9615 34.4520 3.3396
# 6 25.4560 -2.2905 4.6009 -4.9055 3.3396 35.6468
#
#
#
# Elastic Compliance Matrix: (Units=1/GPa)
#
#
# Indices 1 2 3 4 5 6 
#
# 1 0.014594 -0.003099 -0.005893 -0.004887 -0.002799 -0.010270
# 2 -0.003099 0.018034 -0.008627 -0.002744 0.004286 0.003706
# 3 -0.005893 -0.008627 0.043851 -0.003814 0.007228 -0.003208
# 4 -0.004887 -0.002744 -0.003814 0.037751 0.010600 0.008008
# 5 -0.002799 0.004286 0.007228 0.010600 0.036984 -0.000665
# 6 -0.010270 0.003706 -0.003208 0.008008 -0.000665 0.037204
#
#
# Mechanical properties :
#
#
# Convention : Reuss Voigt Hill
#
# Bulk Modulus (GPa) = 24.24681 40.02881 32.13781
# Shear Modulus (GPa) = 21.06127 30.63463 25.84795
#
# Velocity S-wave (km/s) = 2.94654 3.55366 3.26425
# Velocity P-wave (km/s) = 4.64450 5.77400 5.23977
#
# Compressibility (1/GPa) = 0.04124253
#
# Stress axis : x y z
#
# Youngs Moduli (GPa) = 68.52236 55.45017 22.80425
#
# Poissons Ratio (x) = 0.17183 0.13439
# Poissons Ratio (y) = 0.21234 0.19672
# Poissons Ratio (z) = 0.40381 0.47835
#
# Static dielectric constant tensor:
#      x y z
#    x 4.614580 0.093360 -0.049310 
#    y 0.093360 4.143480 0.131070 
#    z -0.049310 0.131070 4.127510 
# 
# 
# High freq. dielectric constant tensor:
#      x y z
#    x 1.981590 0.006900 0.002310 
#    y 0.006900 1.951720 0.007590 
#    z 0.002310 0.007590 1.949780 
# 
# From -- ./inp_files/242952.got.cif
#   From: 2010.06.25/outbox.cif.g09.slc.cpg/sg2_122_cif.got.tgz:242952.got - 2010.06.27 13:26:56.
