data_PCOD8020020
_publ_section_title
;
Structure prediction by ZEFSAII (Michael W. Deem and Ramdas Pophale) SiO2 
 PCOD8020020
Probable space group: P -1
;
_chemical_formula_sum "Si O2"
_cell_formula_units_Z 16
_cell_length_a 9.336062
_cell_length_b 14.368356
_cell_length_c 20.747768
_cell_angle_alpha 21.451189
_cell_angle_beta 120.696078
_cell_angle_gamma 108.413095
_cell_volume 754.687175
_symmetry_space_group_name_H-M "P -1"
_symmetry_group_IT_number 2
_symmetry_cell_setting 'triclinic'
loop_
_space_group_symop_operation_xyz
x,y,z
-x,-y,-z
loop_
_atom_site_type_symbol
_atom_site_label
_atom_site_fract_x
_atom_site_fract_y
_atom_site_fract_z
Si Si1 0.493783 0.717229 0.203559
Si Si2 0.324354 0.215632 0.157358
Si Si3 0.167302 0.853629 0.287804
Si Si4 0.722254 0.805544 0.693135
Si Si5 0.951433 0.114598 0.344378
Si Si6 0.752595 0.774931 0.508372
Si Si7 0.306030 0.639763 0.326100
Si Si8 0.782375 0.366188 0.888240
O O1 0.702336 0.461611 0.443010
O O2 0.328851 0.816555 0.157171
O O3 0.424266 0.593231 0.207526
O O4 0.500000 0.000000 0.000000
O O5 0.248240 0.203230 0.218628
O O6 0.254433 0.061787 0.189029
O O7 0.554537 0.050411 0.312266
O O8 0.230736 0.558638 0.901114
O O9 0.147113 0.838000 0.215072
O O10 0.944489 0.018570 0.152893
O O11 0.779838 0.487666 0.880814
O O12 0.858382 0.922600 0.621882
O O13 0.500000 0.000000 0.500000
O O14 0.886982 0.900884 0.433035
O O15 0.000000 0.000000 0.500000
O O16 0.725911 0.619191 0.540320
O O17 0.843724 0.542871 0.738258
O O18 0.500000 0.500000 0.500000
#
# Coordination Sequence:
#
# PCOD8020020 Si02
#       8
#     2   2   2   2   2   2   2   2
#     4  10  22  42  64  97 130 167 224 280 325 402
#     4  12  22  42  69  94 137 176 216 276 341 401
#     4  11  21  42  70  91 126 179 220 268 339 393
#     4  12  23  42  66  93 134 187 216 271 350 393
#     4  12  24  41  65 103 136 169 235 276 324 412
#     4  11  21  42  68 101 132 172 225 277 329 401
#     4   9  19  41  70  88 129 173 216 267 340 391
#     4  11  22  42  68  89 136 174 221 270 340 399
#
# _framework density 21.200835999999999
#
# number of rings (size 3 to 8) (size 9 to 14) (size 15 to 20)
#    0.000    1.000    7.500    0.750    0.000    2.500 
#    4.500    7.500    0.000    0.000    0.000    0.000 
#    0.000    0.000    0.000    0.000    0.000    0.000 
#
# Total GULP energy -198294.151233 kJ/mol
# GULP energy per Si atom -12393.384452 kJ/mol
# Density = 2.115258 g / cm^3
# Si number density = 21.200836 Si / 1000 Ang^3
#
#
#
# Elastic Constant Matrix: (Units=GPa)
#
#
# Indices 1 2 3 4 5 6 
#
# 1 115.3096 64.4068 54.2811 -11.7580 -1.3103 1.8116
# 2 64.4068 143.4828 34.9596 -18.1923 -13.0149 -3.4632
# 3 54.2811 34.9596 127.7327 -10.4178 0.2848 3.7368
# 4 -11.7580 -18.1923 -10.4178 29.9618 5.8227 0.4277
# 5 -1.3103 -13.0149 0.2848 5.8227 39.3136 -9.6654
# 6 1.8116 -3.4632 3.7368 0.4277 -9.6654 32.9394
#
#
#
# Elastic Compliance Matrix: (Units=1/GPa)
#
#
# Indices 1 2 3 4 5 6 
#
# 1 0.013668 -0.005141 -0.004268 0.001108 -0.001705 -0.001323
# 2 -0.005141 0.010149 -0.000395 0.003340 0.003264 0.002309
# 3 -0.004268 -0.000395 0.009930 0.001730 -0.000901 -0.001220
# 4 0.001108 0.003340 0.001730 0.037410 -0.004857 -0.001817
# 5 -0.001705 0.003264 -0.000901 -0.004857 0.029460 0.009247
# 6 -0.001323 0.002309 -0.001220 -0.001817 0.009247 0.033550
#
#
# Mechanical properties :
#
#
# Convention : Reuss Voigt Hill
#
# Bulk Modulus (GPa) = 70.73790 77.09112 73.91451
# Shear Modulus (GPa) = 31.54833 35.96815 33.75824
#
# Velocity S-wave (km/s) = 3.86174 4.12338 3.99470
# Velocity P-wave (km/s) = 7.30220 7.68836 7.49777
#
# Compressibility (1/GPa) = 0.01413669
#
# Stress axis : x y z
#
# Youngs Moduli (GPa) = 73.16573 98.53270 100.70850
#
# Poissons Ratio (x) = 0.50658 0.42984
# Poissons Ratio (y) = 0.37617 0.03981
# Poissons Ratio (z) = 0.31228 0.03895
#
# Static dielectric constant tensor:
#      x y z
#    x 4.737680 -1.488670 0.392440 
#    y -1.488670 6.976500 -0.009530 
#    z 0.392440 -0.009530 3.877620 
# 
# 
# High freq. dielectric constant tensor:
#      x y z
#    x 1.810630 0.002890 0.016370 
#    y 0.002890 1.851180 0.005790 
#    z 0.016370 0.005790 1.827270 
# 
# From -- ./inp_files/590425.got.cif
#   From: 2010.06.25/outbox.cif.g09.slc.cpg/sg2_296_cif.got.tgz:590425.got - 2010.06.27 13:26:56.
