data_PCOD8020481
_publ_section_title
;
Structure prediction by ZEFSAII (Michael W. Deem and Ramdas Pophale) SiO2 
 PCOD8020481
Probable space group: P -1
;
_chemical_formula_sum "Si O2"
_cell_formula_units_Z 14
_cell_length_a 5.892277
_cell_length_b 24.458393
_cell_length_c 4.917854
_cell_angle_alpha 73.749074
_cell_angle_beta 90.415520
_cell_angle_gamma 57.932416
_cell_volume 565.929470
_symmetry_space_group_name_H-M "P -1"
_symmetry_group_IT_number 2
_symmetry_cell_setting 'triclinic'
loop_
_space_group_symop_operation_xyz
x,y,z
-x,-y,-z
loop_
_atom_site_type_symbol
_atom_site_label
_atom_site_fract_x
_atom_site_fract_y
_atom_site_fract_z
Si Si1 0.801014 0.948567 0.970990
Si Si2 0.388000 0.140303 0.021155
Si Si3 0.755869 0.075301 0.611163
Si Si4 0.244331 0.484167 0.834968
Si Si5 0.346602 0.636121 0.704013
Si Si6 0.187943 0.388852 0.578565
Si Si7 0.025482 0.299755 0.893668
O O1 0.801942 0.889230 0.882909
O O2 0.868320 0.993796 0.714283
O O3 0.004971 0.917978 0.274830
O O4 0.500000 0.000000 0.000000
O O5 0.650934 0.108688 0.266542
O O6 0.495091 0.118988 0.745222
O O7 0.204309 0.220954 0.930558
O O8 0.288887 0.430924 0.676097
O O9 0.133146 0.558644 0.595982
O O10 0.528392 0.442460 0.070805
O O11 0.000000 0.500000 0.000000
O O12 0.601870 0.643769 0.632847
O O13 0.177790 0.653472 0.408147
O O14 0.138201 0.690928 0.847224
O O15 0.216232 0.329975 0.858757
#
# Coordination Sequence:
#
# PCOD8020481 Si02
#       7
#     2   2   2   2   2   2   2
#     4   9  21  41  71 100 134 171 224 286 327 403
#     4  11  24  44  61 101 137 176 232 276 331 420
#     4  10  22  42  68  98 133 181 220 275 353 383
#     4   9  20  43  68  95 132 168 226 287 346 393
#     4  11  24  45  65  99 128 178 229 280 336 410
#     4  10  23  45  65  97 136 170 221 296 337 410
#     4  12  27  42  68  96 136 182 227 271 346 409
#
# _framework density 24.738064999999999
#
# number of rings (size 3 to 8) (size 9 to 14) (size 15 to 20)
#    0.000    1.714    1.429    1.286    4.000    9.714 
#    2.571    0.000    0.000    0.000    0.000    0.000 
#    0.000    0.000    0.000    0.000    0.000    0.000 
#
# Total GULP energy -173453.689674 kJ/mol
# GULP energy per Si atom -12389.549262 kJ/mol
# Density = 2.468176 g / cm^3
# Si number density = 24.738065 Si / 1000 Ang^3
#
#
#
# Elastic Constant Matrix: (Units=GPa)
#
#
# Indices 1 2 3 4 5 6 
#
# 1 85.8323 14.8679 10.2306 -10.7803 -10.0988 -0.5819
# 2 14.8679 255.6289 127.8294 -48.6597 41.7462 17.0554
# 3 10.2306 127.8294 174.6888 -22.4871 58.3245 23.9653
# 4 -10.7803 -48.6597 -22.4871 42.0737 -14.3860 -7.6201
# 5 -10.0988 41.7462 58.3245 -14.3860 68.8517 7.3236
# 6 -0.5819 17.0554 23.9653 -7.6201 7.3236 25.7595
#
#
#
# Elastic Compliance Matrix: (Units=1/GPa)
#
#
# Indices 1 2 3 4 5 6 
#
# 1 0.012900 0.000307 -0.002108 0.004350 0.004172 0.002150
# 2 0.000307 0.007480 -0.005244 0.006607 0.001167 0.001556
# 3 -0.002108 -0.005244 0.012907 -0.003809 -0.008070 -0.007416
# 4 0.004350 0.006607 -0.003809 0.033961 0.006150 0.007565
# 5 0.004172 0.001167 -0.008070 0.006150 0.022304 0.002307
# 6 0.002150 0.001556 -0.007416 0.007565 0.002307 0.046320
#
#
# Mechanical properties :
#
#
# Convention : Reuss Voigt Hill
#
# Bulk Modulus (GPa) = 52.09205 91.33398 71.71301
# Shear Modulus (GPa) = 31.97746 51.55178 41.76462
#
# Velocity S-wave (km/s) = 3.59923 4.56993 4.11332
# Velocity P-wave (km/s) = 6.19482 8.05272 7.18408
#
# Compressibility (1/GPa) = 0.01919679
#
# Stress axis : x y z
#
# Youngs Moduli (GPa) = 77.51656 133.69755 77.48026
#
# Poissons Ratio (x) = -0.04106 0.16335
# Poissons Ratio (y) = -0.02381 0.40629
# Poissons Ratio (z) = 0.16342 0.70108
#
# Static dielectric constant tensor:
#      x y z
#    x 4.452280 0.269860 0.051330 
#    y 0.269860 4.499450 -0.066550 
#    z 0.051330 -0.066550 4.840610 
# 
# 
# High freq. dielectric constant tensor:
#      x y z
#    x 1.983420 -0.015290 0.006450 
#    y -0.015290 1.972520 0.006530 
#    z 0.006450 0.006530 1.989760 
# 
# From -- ./inp_files/12990.got.cif
#   From: 2010.06.25/outbox.cif.g09.slc.cpg/sg2_7_cif.got.tgz:12990.got - 2010.06.27 13:26:56.
