data_PCOD8020859
_publ_section_title
;
Structure prediction by ZEFSAII (Michael W. Deem and Ramdas Pophale) SiO2 
 PCOD8020859
Probable space group: P -1
;
_chemical_formula_sum "Si O2"
_cell_formula_units_Z 12
_cell_length_a 16.715945
_cell_length_b 13.414663
_cell_length_c 16.667543
_cell_angle_alpha 154.632229
_cell_angle_beta 157.267252
_cell_angle_gamma 24.650681
_cell_volume 550.719967
_symmetry_space_group_name_H-M "P -1"
_symmetry_group_IT_number 2
_symmetry_cell_setting 'triclinic'
loop_
_space_group_symop_operation_xyz
x,y,z
-x,-y,-z
loop_
_atom_site_type_symbol
_atom_site_label
_atom_site_fract_x
_atom_site_fract_y
_atom_site_fract_z
Si Si1 0.246775 0.718704 0.404985
Si Si2 0.585521 0.930014 0.238017
Si Si3 0.816367 0.518000 0.679439
Si Si4 0.141194 0.755056 0.149553
Si Si5 0.384562 0.579977 0.725423
Si Si6 0.005848 0.330841 0.457646
O O1 0.500000 0.500000 0.500000
O O2 0.089790 0.666915 0.288763
O O3 0.172341 0.688668 0.224608
O O4 0.250077 0.001371 0.620726
O O5 0.759043 0.730063 0.319270
O O6 0.416975 0.207167 0.324357
O O7 0.427229 0.823816 0.969227
O O8 0.761008 0.345500 0.437735
O O9 0.008937 0.595186 0.878178
O O10 0.370019 0.668703 0.244331
O O11 0.999588 0.064687 0.230691
O O12 0.234537 0.510063 0.600026
O O13 0.000000 0.500000 0.500000
#
# Coordination Sequence:
#
# PCOD8020859 Si02
#       6
#     2   2   2   2   2   2
#     4   9  18  39  66  93 136 175 205 261 311 369
#     4  10  22  43  64  96 134 166 216 265 308 382
#     4  11  21  42  67  96 137 172 208 262 317 379
#     4  11  22  43  66  95 135 167 214 269 310 384
#     4  12  23  42  70  92 132 170 214 261 329 376
#     4  11  25  46  69  94 125 168 217 274 328 377
#
# _framework density 21.789657999999999
#
# number of rings (size 3 to 8) (size 9 to 14) (size 15 to 20)
#    0.000    1.333    6.667    1.500    0.000    2.000 
#    0.000    5.833    0.000    0.000    0.000    0.000 
#    0.000    0.000    0.000    0.000    0.000    0.000 
#
# Total GULP energy -148690.480750 kJ/mol
# GULP energy per Si atom -12390.873396 kJ/mol
# Density = 2.174006 g / cm^3
# Si number density = 21.789658 Si / 1000 Ang^3
#
#
#
# Elastic Constant Matrix: (Units=GPa)
#
#
# Indices 1 2 3 4 5 6 
#
# 1 153.1523 64.8779 51.0984 0.5037 17.5911 9.3503
# 2 64.8779 84.1695 32.8186 -7.7647 8.0205 27.9718
# 3 51.0984 32.8186 163.8886 3.9138 -6.3887 14.1083
# 4 0.5037 -7.7647 3.9138 20.8496 -5.6815 9.2936
# 5 17.5911 8.0205 -6.3887 -5.6815 28.9627 -3.1405
# 6 9.3503 27.9718 14.1083 9.2936 -3.1405 32.3803
#
#
#
# Elastic Compliance Matrix: (Units=1/GPa)
#
#
# Indices 1 2 3 4 5 6 
#
# 1 0.013043 -0.013648 -0.002294 -0.011801 -0.005678 0.011859
# 2 -0.013648 0.038263 -0.000923 0.031479 -0.000433 -0.037788
# 3 -0.002294 -0.000923 0.007241 -0.000218 0.003058 -0.001336
# 4 -0.011801 0.031479 -0.000218 0.083478 0.009713 -0.046707
# 5 -0.005678 -0.000433 0.003058 0.009713 0.040877 0.001857
# 6 0.011859 -0.037788 -0.001336 -0.046707 0.001857 0.074269
#
#
# Mechanical properties :
#
#
# Convention : Reuss Voigt Hill
#
# Bulk Modulus (GPa) = 40.29267 77.64446 58.96856
# Shear Modulus (GPa) = 16.71263 33.26623 24.98943
#
# Velocity S-wave (km/s) = 2.77248 3.91154 3.39019
# Velocity P-wave (km/s) = 5.36476 7.49074 6.51505
#
# Compressibility (1/GPa) = 0.02481841
#
# Stress axis : x y z
#
# Youngs Moduli (GPa) = 76.66742 26.13457 138.09835
#
# Poissons Ratio (x) = 0.35669 0.31682
# Poissons Ratio (y) = 1.04636 0.12741
# Poissons Ratio (z) = 0.17589 0.02411
#
# Static dielectric constant tensor:
#      x y z
#    x 3.530080 -0.265600 -0.176780 
#    y -0.265600 3.808190 -0.150230 
#    z -0.176780 -0.150230 3.937060 
# 
# 
# High freq. dielectric constant tensor:
#      x y z
#    x 1.845940 -0.019480 0.010270 
#    y -0.019480 1.839810 -0.004860 
#    z 0.010270 -0.004860 1.867600 
# 
# From -- ./inp_files/454275.got.cif
#   From: 2010.06.25/outbox.cif.g09.slc.cpg/sg2_228_cif.got.tgz:454275.got - 2010.06.27 13:26:56.
