data_PCOD8020532
_publ_section_title
;
Structure prediction by ZEFSAII (Michael W. Deem and Ramdas Pophale) SiO2 
 PCOD8020532
Probable space group: P -1
;
_chemical_formula_sum "Si O2"
_cell_formula_units_Z 16
_cell_length_a 11.979605
_cell_length_b 11.973687
_cell_length_c 9.885712
_cell_angle_alpha 88.377701
_cell_angle_beta 122.112798
_cell_angle_gamma 50.178386
_cell_volume 759.959006
_symmetry_space_group_name_H-M "P -1"
_symmetry_group_IT_number 2
_symmetry_cell_setting 'triclinic'
loop_
_space_group_symop_operation_xyz
x,y,z
-x,-y,-z
loop_
_atom_site_type_symbol
_atom_site_label
_atom_site_fract_x
_atom_site_fract_y
_atom_site_fract_z
Si Si1 0.123762 0.374226 0.956221
Si Si2 0.093226 0.529483 0.660949
Si Si3 0.946900 0.854819 0.661611
Si Si4 0.136792 0.809103 0.045610
Si Si5 0.343690 0.678829 0.802962
Si Si6 0.488127 0.776770 0.722839
Si Si7 0.231686 0.547440 0.287274
Si Si8 0.586347 0.562352 0.304430
O O1 0.112480 0.467385 0.822916
O O2 0.008781 0.334232 0.846681
O O3 0.373373 0.203103 0.152547
O O4 0.000000 0.500000 0.000000
O O5 0.313436 0.420801 0.742683
O O6 0.000000 0.500000 0.500000
O O7 0.955325 0.732062 0.590188
O O8 0.110770 0.837183 0.707275
O O9 0.714293 0.054251 0.495649
O O10 0.010142 0.808523 0.863239
O O11 0.216449 0.686790 0.230978
O O12 0.339758 0.730372 0.108793
O O13 0.000000 0.000000 0.000000
O O14 0.425749 0.749233 0.819816
O O15 0.330723 0.618956 0.655192
O O16 0.500000 0.500000 0.000000
O O17 0.644086 0.598522 0.743377
O O18 0.358444 0.440006 0.508345
#
# Coordination Sequence:
#
# PCOD8020532 Si02
#       8
#     2   2   2   2   2   2   2   2
#     4  10  22  42  69  94 126 180 222 266 332 401
#     4  11  23  46  71  94 136 175 224 274 334 407
#     4  11  24  40  63 103 127 171 227 271 335 393
#     4  12  25  42  67  99 137 171 226 281 328 397
#     4  11  20  39  65  90 129 173 215 271 336 394
#     4  11  22  40  66  91 133 170 218 279 326 396
#     4  11  22  43  64  94 130 176 224 269 335 396
#     4  11  22  39  68  95 128 174 221 271 341 391
#
# _framework density 21.053767000000001
#
# number of rings (size 3 to 8) (size 9 to 14) (size 15 to 20)
#    0.000    1.000    3.750    4.500    1.750    0.000 
#    2.250    3.750    0.000    0.000    0.000    0.000 
#    0.000    0.000    0.000    0.000    0.000    0.000 
#
# Total GULP energy -198254.674471 kJ/mol
# GULP energy per Si atom -12390.917154 kJ/mol
# Density = 2.100585 g / cm^3
# Si number density = 21.053767 Si / 1000 Ang^3
#
#
#
# Elastic Constant Matrix: (Units=GPa)
#
#
# Indices 1 2 3 4 5 6 
#
# 1 134.7633 34.8331 49.2744 -11.8356 12.3200 -10.2427
# 2 34.8331 84.1910 31.3409 -5.4104 7.7627 -1.9785
# 3 49.2744 31.3409 120.2575 -3.7844 11.3965 -8.2170
# 4 -11.8356 -5.4104 -3.7844 32.7716 -4.6119 9.2962
# 5 12.3200 7.7627 11.3965 -4.6119 45.7822 1.4530
# 6 -10.2427 -1.9785 -8.2170 9.2962 1.4530 22.9275
#
#
#
# Elastic Compliance Matrix: (Units=1/GPa)
#
#
# Indices 1 2 3 4 5 6 
#
# 1 0.009622 -0.002598 -0.002922 0.001856 -0.001309 0.002358
# 2 -0.002598 0.014041 -0.002563 0.001348 -0.000865 -0.001359
# 3 -0.002922 -0.002563 0.010488 -0.001307 -0.001612 0.002864
# 4 0.001856 0.001348 -0.001307 0.035821 0.003659 -0.014279
# 5 -0.001309 -0.000865 -0.001612 0.003659 0.023245 -0.004194
# 6 0.002358 -0.001359 0.002864 -0.014279 -0.004194 0.051634
#
#
# Mechanical properties :
#
#
# Convention : Reuss Voigt Hill
#
# Bulk Modulus (GPa) = 55.60180 63.34541 59.47360
# Shear Modulus (GPa) = 29.93779 35.21383 32.57581
#
# Velocity S-wave (km/s) = 3.77499 4.09414 3.93780
# Velocity P-wave (km/s) = 6.74296 7.24583 6.99891
#
# Compressibility (1/GPa) = 0.01798503
#
# Stress axis : x y z
#
# Youngs Moduli (GPa) = 103.92651 71.21861 95.34542
#
# Poissons Ratio (x) = 0.18502 0.27859
# Poissons Ratio (y) = 0.27000 0.24441
# Poissons Ratio (z) = 0.30367 0.18256
#
# Static dielectric constant tensor:
#      x y z
#    x 4.463740 -0.107740 0.250270 
#    y -0.107740 3.599760 0.333140 
#    z 0.250270 0.333140 4.081150 
# 
# 
# High freq. dielectric constant tensor:
#      x y z
#    x 1.842960 -0.015990 0.009750 
#    y -0.015990 1.792180 0.018840 
#    z 0.009750 0.018840 1.831810 
# 
# From -- ./inp_files/262559.got.cif
#   From: 2010.06.25/outbox.cif.g09.slc.cpg/sg2_132_cif.got.tgz:262559.got - 2010.06.27 13:26:56.
