data_PCOD8020522
_publ_section_title
;
Structure prediction by ZEFSAII (Michael W. Deem and Ramdas Pophale) SiO2 
 PCOD8020522
Probable space group: P -1
;
_chemical_formula_sum "Si O2"
_cell_formula_units_Z 14
_cell_length_a 13.257612
_cell_length_b 8.227886
_cell_length_c 8.782426
_cell_angle_alpha 129.530125
_cell_angle_beta 107.546411
_cell_angle_gamma 92.683875
_cell_volume 666.372874
_symmetry_space_group_name_H-M "P -1"
_symmetry_group_IT_number 2
_symmetry_cell_setting 'triclinic'
loop_
_space_group_symop_operation_xyz
x,y,z
-x,-y,-z
loop_
_atom_site_type_symbol
_atom_site_label
_atom_site_fract_x
_atom_site_fract_y
_atom_site_fract_z
Si Si1 0.310278 0.938163 0.665326
Si Si2 0.304035 0.966713 0.021106
Si Si3 0.522361 0.284458 0.446116
Si Si4 0.556686 0.675629 0.256540
Si Si5 0.116421 0.081927 0.187393
Si Si6 0.884470 0.976630 0.512219
Si Si7 0.239832 0.447048 0.655309
O O1 0.385212 0.093673 0.663355
O O2 0.180397 0.877738 0.520226
O O3 0.358171 0.728668 0.569514
O O4 0.322862 0.049267 0.904196
O O5 0.422231 0.061191 0.217183
O O6 0.211630 0.052290 0.105654
O O7 0.253769 0.699768 0.846182
O O8 0.500000 0.500000 0.500000
O O9 0.530083 0.293637 0.639168
O O10 0.641216 0.586867 0.341183
O O11 0.500000 0.500000 0.000000
O O12 0.101945 0.942063 0.256109
O O13 0.157138 0.345774 0.412276
O O14 0.000000 0.000000 0.000000
O O15 0.812241 0.711006 0.315450
O O16 0.000000 0.000000 0.500000
#
# Coordination Sequence:
#
# PCOD8020522 Si02
#       7
#     2   2   2   2   2   2   2
#     4  11  23  36  65  96 127 174 217 269 332 392
#     4  12  22  42  65  93 133 172 224 272 326 399
#     4  12  24  41  64  98 135 177 223 268 328 404
#     4  11  21  41  62  92 134 167 213 276 331 389
#     4  10  22  42  69  91 129 174 225 274 330 385
#     4   9  20  44  64  94 132 163 221 282 326 389
#     4   9  22  40  66  93 127 172 220 266 334 388
#
# _framework density 21.009257999999999
#
# number of rings (size 3 to 8) (size 9 to 14) (size 15 to 20)
#    0.857    0.571    1.429    4.286    0.000    1.714 
#    0.000    0.714    3.143    0.000    0.000    0.000 
#    0.000    0.000    0.000    0.000    0.000    0.000 
#
# Total GULP energy -173475.616328 kJ/mol
# GULP energy per Si atom -12391.115452 kJ/mol
# Density = 2.096144 g / cm^3
# Si number density = 21.009258 Si / 1000 Ang^3
#
#
#
# Elastic Constant Matrix: (Units=GPa)
#
#
# Indices 1 2 3 4 5 6 
#
# 1 152.7137 33.0558 52.5759 -12.7059 -8.9866 -10.8326
# 2 33.0558 78.4904 36.9463 -2.4496 -6.6432 -11.0249
# 3 52.5759 36.9463 146.1866 -10.7126 3.5884 -8.7382
# 4 -12.7059 -2.4496 -10.7126 45.8954 7.4010 -4.4934
# 5 -8.9866 -6.6432 3.5884 7.4010 42.9821 -13.2956
# 6 -10.8326 -11.0249 -8.7382 -4.4934 -13.2956 30.1251
#
#
#
# Elastic Compliance Matrix: (Units=1/GPa)
#
#
# Indices 1 2 3 4 5 6 
#
# 1 0.008170 -0.001729 -0.002271 0.001558 0.002251 0.002872
# 2 -0.001729 0.016241 -0.003252 -0.000473 0.004440 0.006268
# 3 -0.002271 -0.003252 0.008630 0.001520 -0.002010 -0.000164
# 4 0.001558 -0.000473 0.001520 0.023321 -0.002962 0.002999
# 5 0.002251 0.004440 -0.002010 -0.002962 0.029574 0.014462
# 6 0.002872 0.006268 -0.000164 0.002999 0.014462 0.043304
#
#
# Mechanical properties :
#
#
# Convention : Reuss Voigt Hill
#
# Bulk Modulus (GPa) = 53.94538 69.17188 61.55863
# Shear Modulus (GPa) = 33.35077 40.78803 37.06940
#
# Velocity S-wave (km/s) = 3.98858 4.41095 4.20507
# Velocity P-wave (km/s) = 6.85160 7.67710 7.27607
#
# Compressibility (1/GPa) = 0.01853727
#
# Stress axis : x y z
#
# Youngs Moduli (GPa) = 122.39815 61.57352 115.87502
#
# Poissons Ratio (x) = 0.10649 0.26312
# Poissons Ratio (y) = 0.21168 0.37678
# Poissons Ratio (z) = 0.27793 0.20021
#
# Static dielectric constant tensor:
#      x y z
#    x 3.912990 0.008290 0.102700 
#    y 0.008290 3.707290 -0.187810 
#    z 0.102700 -0.187810 3.879710 
# 
# 
# High freq. dielectric constant tensor:
#      x y z
#    x 1.827840 0.005860 -0.006610 
#    y 0.005860 1.813800 -0.015890 
#    z -0.006610 -0.015890 1.817600 
# 
# From -- ./inp_files/293539.got.cif
#   From: 2010.06.25/outbox.cif.g09.slc.cpg/sg2_147_cif.got.tgz:293539.got - 2010.06.27 13:26:56.
