data_PCOD8020482
_publ_section_title
;
Structure prediction by ZEFSAII (Michael W. Deem and Ramdas Pophale) SiO2 
 PCOD8020482
Probable space group: P -1
;
_chemical_formula_sum "Si O2"
_cell_formula_units_Z 16
_cell_length_a 9.017376
_cell_length_b 8.458428
_cell_length_c 11.403646
_cell_angle_alpha 52.687846
_cell_angle_beta 97.723760
_cell_angle_gamma 99.980029
_cell_volume 680.835480
_symmetry_space_group_name_H-M "P -1"
_symmetry_group_IT_number 2
_symmetry_cell_setting 'triclinic'
loop_
_space_group_symop_operation_xyz
x,y,z
-x,-y,-z
loop_
_atom_site_type_symbol
_atom_site_label
_atom_site_fract_x
_atom_site_fract_y
_atom_site_fract_z
Si Si1 0.517234 0.767796 0.579410
Si Si2 0.923248 0.284535 0.546080
Si Si3 0.981239 0.679514 0.099773
Si Si4 0.627077 0.126425 0.131372
Si Si5 0.388847 0.798507 0.315814
Si Si6 0.765620 0.328211 0.275156
Si Si7 0.903291 0.947638 0.183741
Si Si8 0.303470 0.552676 0.194300
O O1 0.507691 0.733918 0.453672
O O2 0.379768 0.626079 0.687878
O O3 0.664063 0.681418 0.690058
O O4 0.500000 0.000000 0.500000
O O5 0.775183 0.204857 0.642345
O O6 0.888268 0.273554 0.408772
O O7 0.000000 0.500000 0.500000
O O8 0.045992 0.129150 0.650347
O O9 0.126299 0.560735 0.182057
O O10 0.837237 0.523109 0.123739
O O11 0.949703 0.786996 0.168764
O O12 0.003422 0.835965 0.926172
O O13 0.714734 0.159022 0.250326
O O14 0.456068 0.023355 0.178343
O O15 0.725666 0.972064 0.144084
O O16 0.626443 0.332613 0.966198
O O17 0.388281 0.655231 0.269619
#
# Coordination Sequence:
#
# PCOD8020482 Si02
#       8
#     2   2   2   2   2   2   2   2
#     4  11  25  47  65  97 137 176 221 276 336 399
#     4  11  22  42  71  98 130 177 226 268 331 395
#     4  10  22  45  67  99 129 175 225 278 332 392
#     4  11  26  43  64 105 136 176 220 276 337 394
#     4  11  23  44  68  99 136 174 226 276 331 396
#     4  11  24  45  63  97 140 172 224 271 337 395
#     4  10  22  42  68  98 134 170 229 273 327 400
#     4  11  24  44  71  96 131 180 226 276 333 396
#
# _framework density 23.500536
#
# number of rings (size 3 to 8) (size 9 to 14) (size 15 to 20)
#    0.000    1.250    3.750    0.750    1.750    6.000 
#    9.000    0.000    0.000    0.000    0.000    0.000 
#    0.000    0.000    0.000    0.000    0.000    0.000 
#
# Total GULP energy -198292.799157 kJ/mol
# GULP energy per Si atom -12393.299947 kJ/mol
# Density = 2.344705 g / cm^3
# Si number density = 23.500536 Si / 1000 Ang^3
#
#
#
# Elastic Constant Matrix: (Units=GPa)
#
#
# Indices 1 2 3 4 5 6 
#
# 1 78.5343 30.4953 37.9512 -25.3890 -14.9440 9.4199
# 2 30.4953 83.5194 41.5472 -8.1583 1.4046 9.5444
# 3 37.9512 41.5472 114.1567 -7.2814 9.1133 -4.2729
# 4 -25.3890 -8.1583 -7.2814 39.9696 0.3188 -1.9265
# 5 -14.9440 1.4046 9.1133 0.3188 49.8836 -11.8761
# 6 9.4199 9.5444 -4.2729 -1.9265 -11.8761 31.5601
#
#
#
# Elastic Compliance Matrix: (Units=1/GPa)
#
#
# Indices 1 2 3 4 5 6 
#
# 1 0.023006 -0.003915 -0.006123 0.012496 0.007329 -0.002991
# 2 -0.003915 0.016340 -0.004694 -0.000240 -0.002007 -0.005178
# 3 -0.006123 -0.004694 0.012744 -0.002325 -0.003147 0.003646
# 4 0.012496 -0.000240 -0.002325 0.032427 0.003837 -0.000549
# 5 0.007329 -0.002007 -0.003147 0.003837 0.024634 0.007497
# 6 -0.002991 -0.005178 0.003646 -0.000549 0.007497 0.037426
#
#
# Mechanical properties :
#
#
# Convention : Reuss Voigt Hill
#
# Bulk Modulus (GPa) = 44.20063 55.13307 49.66685
# Shear Modulus (GPa) = 27.23566 35.36377 31.29972
#
# Velocity S-wave (km/s) = 3.40801 3.88339 3.65344
# Velocity P-wave (km/s) = 5.85963 6.60446 6.24316
#
# Compressibility (1/GPa) = 0.02262411
#
# Stress axis : x y z
#
# Youngs Moduli (GPa) = 43.46741 61.19965 78.47084
#
# Poissons Ratio (x) = 0.23958 0.48051
# Poissons Ratio (y) = 0.17016 0.36838
# Poissons Ratio (z) = 0.26617 0.28730
#
# Static dielectric constant tensor:
#      x y z
#    x 4.232900 0.131810 -0.206730 
#    y 0.131810 3.987340 0.025100 
#    z -0.206730 0.025100 4.607360 
# 
# 
# High freq. dielectric constant tensor:
#      x y z
#    x 1.924630 0.008770 -0.014430 
#    y 0.008770 1.906500 0.002950 
#    z -0.014430 0.002950 1.946850 
# 
# From -- ./inp_files/381079.got.cif
#   From: 2010.06.25/outbox.cif.g09.slc.cpg/sg2_191_cif.got.tgz:381079.got - 2010.06.27 13:26:56.
