data_PCOD8020432
_publ_section_title
;
Structure prediction by ZEFSAII (Michael W. Deem and Ramdas Pophale) SiO2 
 PCOD8020432
Probable space group: P -1
;
_chemical_formula_sum "Si O2"
_cell_formula_units_Z 16
_cell_length_a 9.633223
_cell_length_b 13.011827
_cell_length_c 8.887628
_cell_angle_alpha 44.122910
_cell_angle_beta 74.769845
_cell_angle_gamma 87.347731
_cell_volume 731.361759
_symmetry_space_group_name_H-M "P -1"
_symmetry_group_IT_number 2
_symmetry_cell_setting 'triclinic'
loop_
_space_group_symop_operation_xyz
x,y,z
-x,-y,-z
loop_
_atom_site_type_symbol
_atom_site_label
_atom_site_fract_x
_atom_site_fract_y
_atom_site_fract_z
Si Si1 0.408803 0.377841 0.001087
Si Si2 0.839427 0.282569 0.317801
Si Si3 0.645898 0.639523 0.631031
Si Si4 0.389131 0.847660 0.734304
Si Si5 0.779076 0.972335 0.211197
Si Si6 0.924528 0.636686 0.368070
Si Si7 0.079822 0.903493 0.241864
Si Si8 0.126149 0.380767 0.939377
O O1 0.341451 0.411851 0.145663
O O2 0.520590 0.265683 0.097781
O O3 0.489975 0.536218 0.731781
O O4 0.265781 0.308362 0.017097
O O5 0.699019 0.229075 0.306386
O O6 0.843921 0.151156 0.576958
O O7 0.832035 0.437658 0.242424
O O8 0.988462 0.305205 0.157753
O O9 0.653933 0.819238 0.434205
O O10 0.772801 0.592593 0.547572
O O11 0.500000 0.000000 0.500000
O O12 0.276962 0.886269 0.851640
O O13 0.931988 0.962778 0.264009
O O14 0.802948 0.977794 0.016417
O O15 0.903580 0.674685 0.162359
O O16 0.000000 0.500000 0.500000
O O17 0.033397 0.774139 0.267811
#
# Coordination Sequence:
#
# PCOD8020432 Si02
#       8
#     2   2   2   2   2   2   2   2
#     4  11  24  44  70  97 140 182 226 285 340 401
#     4  11  24  42  72 103 136 178 236 285 332 413
#     4  10  22  42  68  93 139 179 225 280 341 398
#     4  12  26  45  68 102 140 186 227 275 344 414
#     4  10  22  43  67  99 140 184 224 280 346 402
#     4  11  22  39  67 103 138 175 226 281 344 405
#     4  10  22  43  69  99 140 179 228 290 343 394
#     4  11  24  41  71 108 134 176 234 286 340 398
#
# _framework density 21.876998
#
# number of rings (size 3 to 8) (size 9 to 14) (size 15 to 20)
#    0.000    1.250    2.500    3.750    5.250    1.000 
#    6.750    1.875    0.000    0.000    0.000    0.000 
#    0.000    0.000    0.000    0.000    0.000    0.000 
#
# Total GULP energy -198342.691333 kJ/mol
# GULP energy per Si atom -12396.418208 kJ/mol
# Density = 2.182720 g / cm^3
# Si number density = 21.876998 Si / 1000 Ang^3
#
#
#
# Elastic Constant Matrix: (Units=GPa)
#
#
# Indices 1 2 3 4 5 6 
#
# 1 113.8457 37.7824 34.0405 1.9472 19.9351 -0.0367
# 2 37.7824 91.4056 13.9132 9.4392 3.6446 -14.2207
# 3 34.0405 13.9132 106.7538 2.4673 -3.4631 2.4403
# 4 1.9472 9.4392 2.4673 25.9339 4.5201 -6.0714
# 5 19.9351 3.6446 -3.4631 4.5201 40.6521 -4.3057
# 6 -0.0367 -14.2207 2.4403 -6.0714 -4.3057 36.2345
#
#
#
# Elastic Compliance Matrix: (Units=1/GPa)
#
#
# Indices 1 2 3 4 5 6 
#
# 1 0.012586 -0.004921 -0.003574 0.001811 -0.006463 -0.002142
# 2 -0.004921 0.014131 -0.000232 -0.003913 0.002107 0.005151
# 3 -0.003574 -0.000232 0.010673 -0.001308 0.002754 -0.000705
# 4 0.001811 -0.003913 -0.001308 0.041981 -0.004785 0.005020
# 5 -0.006463 0.002107 0.002754 -0.004785 0.028690 0.003242
# 6 -0.002142 0.005151 -0.000705 0.005020 0.003242 0.030891
#
#
# Mechanical properties :
#
#
# Convention : Reuss Voigt Hill
#
# Bulk Modulus (GPa) = 50.16023 53.71968 51.93996
# Shear Modulus (GPa) = 30.66518 35.64871 33.15694
#
# Velocity S-wave (km/s) = 3.74800 4.04109 3.89730
# Velocity P-wave (km/s) = 6.45818 6.81047 6.63667
#
# Compressibility (1/GPa) = 0.01993611
#
# Stress axis : x y z
#
# Youngs Moduli (GPa) = 79.45441 70.76628 93.69451
#
# Poissons Ratio (x) = 0.34823 0.33491
# Poissons Ratio (y) = 0.39099 0.02169
# Poissons Ratio (z) = 0.28401 0.01638
#
# Static dielectric constant tensor:
#      x y z
#    x 4.007890 -0.155910 -0.121320 
#    y -0.155910 3.948520 -0.028960 
#    z -0.121320 -0.028960 3.981600 
# 
# 
# High freq. dielectric constant tensor:
#      x y z
#    x 1.857300 -0.013810 -0.013170 
#    y -0.013810 1.859640 -0.005280 
#    z -0.013170 -0.005280 1.867270 
# 
# From -- ./inp_files/205180.got.cif
#   From: 2010.06.25/outbox.cif.g09.slc.cpg/sg2_103_cif.got.tgz:205180.got - 2010.06.27 13:26:56.
