data_PCOD8020062
_publ_section_title
;
Structure prediction by ZEFSAII (Michael W. Deem and Ramdas Pophale) SiO2 
 PCOD8020062
Probable space group: P -1
;
_chemical_formula_sum "Si O2"
_cell_formula_units_Z 16
_cell_length_a 11.276631
_cell_length_b 19.793048
_cell_length_c 13.831282
_cell_angle_alpha 27.828407
_cell_angle_beta 37.579608
_cell_angle_gamma 56.593815
_cell_volume 746.478790
_symmetry_space_group_name_H-M "P -1"
_symmetry_group_IT_number 2
_symmetry_cell_setting 'triclinic'
loop_
_space_group_symop_operation_xyz
x,y,z
-x,-y,-z
loop_
_atom_site_type_symbol
_atom_site_label
_atom_site_fract_x
_atom_site_fract_y
_atom_site_fract_z
Si Si1 0.128832 0.868643 0.715652
Si Si2 0.735577 0.510466 0.353588
Si Si3 0.485908 0.943117 0.234412
Si Si4 0.223870 0.736803 0.491357
Si Si5 0.068441 0.024221 0.033624
Si Si6 0.843184 0.811339 0.621217
Si Si7 0.922141 0.270443 0.877034
Si Si8 0.318821 0.627226 0.229308
O O1 0.338958 0.961818 0.388792
O O2 0.069455 0.011411 0.601686
O O3 0.914776 0.710033 0.001609
O O4 0.199657 0.798564 0.852040
O O5 0.500000 0.500000 0.500000
O O6 0.811304 0.440255 0.302403
O O7 0.721658 0.397912 0.597920
O O8 0.336846 0.777425 0.472977
O O9 0.669775 0.917497 0.200951
O O10 0.601510 0.114873 0.880755
O O11 0.982785 0.725650 0.674650
O O12 0.051896 0.175628 0.893581
O O13 0.899195 0.851597 0.420584
O O14 0.000000 0.000000 0.000000
O O15 0.575217 0.677978 0.976115
O O16 0.136793 0.461559 0.498635
O O17 0.735176 0.235928 0.957339
#
# Coordination Sequence:
#
# PCOD8020062 Si02
#       8
#     2   2   2   2   2   2   2   2
#     4  10  23  41  63  96 123 165 209 253 315 371
#     4  11  26  41  65  90 128 164 211 256 313 369
#     4  10  23  40  66  90 129 164 207 260 307 369
#     4  10  24  42  62  93 126 166 208 258 311 368
#     4  10  23  38  62  95 127 163 205 258 311 364
#     4  10  23  40  67  92 125 163 211 255 309 377
#     4   9  22  41  63  90 129 162 208 253 313 373
#     4  10  22  42  65  90 123 168 205 258 309 371
#
# _framework density 21.433965000000001
#
# number of rings (size 3 to 8) (size 9 to 14) (size 15 to 20)
#    0.000    2.000    0.000    0.750   17.500    3.000 
#    0.000    0.625    0.000    0.000    0.000    0.000 
#    0.000    0.000    0.000    0.000    0.000    0.000 
#
# Total GULP energy -198342.896111 kJ/mol
# GULP energy per Si atom -12396.431007 kJ/mol
# Density = 2.138518 g / cm^3
# Si number density = 21.433965 Si / 1000 Ang^3
#
#
#
# Elastic Constant Matrix: (Units=GPa)
#
#
# Indices 1 2 3 4 5 6 
#
# 1 119.4205 46.9750 23.5282 5.9853 -15.8218 -1.0394
# 2 46.9750 101.0035 30.4647 15.4565 -13.4946 -6.7234
# 3 23.5282 30.4647 80.0299 16.2733 -10.8964 -1.4083
# 4 5.9853 15.4565 16.2733 29.1170 -3.4307 -2.3571
# 5 -15.8218 -13.4946 -10.8964 -3.4307 22.8837 4.3903
# 6 -1.0394 -6.7234 -1.4083 -2.3571 4.3903 32.4924
#
#
#
# Elastic Compliance Matrix: (Units=1/GPa)
#
#
# Indices 1 2 3 4 5 6 
#
# 1 0.010870 -0.004321 -0.001155 0.001178 0.004817 -0.001162
# 2 -0.004321 0.013925 -0.002685 -0.004506 0.002904 0.001907
# 3 -0.001155 -0.002685 0.015798 -0.006737 0.004318 -0.000980
# 4 0.001178 -0.004506 -0.006737 0.040476 0.000700 0.001655
# 5 0.004817 0.002904 0.004318 0.000700 0.052062 -0.006042
# 6 -0.001162 0.001907 -0.000980 0.001655 -0.006042 0.032028
#
#
# Mechanical properties :
#
#
# Convention : Reuss Voigt Hill
#
# Bulk Modulus (GPa) = 41.20331 55.82109 48.51220
# Shear Modulus (GPa) = 26.37535 30.19769 28.28652
#
# Velocity S-wave (km/s) = 3.51171 3.75757 3.63672
# Velocity P-wave (km/s) = 5.97561 6.70265 6.34955
#
# Compressibility (1/GPa) = 0.02426990
#
# Stress axis : x y z
#
# Youngs Moduli (GPa) = 91.99515 71.81448 63.30078
#
# Poissons Ratio (x) = 0.31033 0.07311
# Poissons Ratio (y) = 0.39753 0.16996
# Poissons Ratio (z) = 0.10626 0.19282
#
# Static dielectric constant tensor:
#      x y z
#    x 4.344870 -0.043040 0.082710 
#    y -0.043040 3.675870 -0.016330 
#    z 0.082710 -0.016330 3.818420 
# 
# 
# High freq. dielectric constant tensor:
#      x y z
#    x 1.852960 0.001990 0.003310 
#    y 0.001990 1.838170 0.004750 
#    z 0.003310 0.004750 1.840220 
# 
# From -- ./inp_files/207038.got.cif
#   From: 2010.06.25/outbox.cif.g09.slc.cpg/sg2_104_cif.got.tgz:207038.got - 2010.06.27 13:26:56.
