data_PCOD8020275
_publ_section_title
;
Structure prediction by ZEFSAII (Michael W. Deem and Ramdas Pophale) SiO2 
 PCOD8020275
Probable space group: P -1
;
_chemical_formula_sum "Si O2"
_cell_formula_units_Z 10
_cell_length_a 8.498858
_cell_length_b 15.966842
_cell_length_c 7.286035
_cell_angle_alpha 104.554200
_cell_angle_beta 91.502189
_cell_angle_gamma 32.069438
_cell_volume 473.379013
_symmetry_space_group_name_H-M "P -1"
_symmetry_group_IT_number 2
_symmetry_cell_setting 'triclinic'
loop_
_space_group_symop_operation_xyz
x,y,z
-x,-y,-z
loop_
_atom_site_type_symbol
_atom_site_label
_atom_site_fract_x
_atom_site_fract_y
_atom_site_fract_z
Si Si1 0.678205 0.681746 0.995595
Si Si2 0.718116 0.067682 0.543237
Si Si3 0.808796 0.704437 0.636511
Si Si4 0.435600 0.412759 0.304993
Si Si5 0.944415 0.246895 0.474105
O O1 0.750706 0.713540 0.851816
O O2 0.499371 0.680231 0.917423
O O3 0.457725 0.836296 0.216326
O O4 0.000000 0.500000 0.000000
O O5 0.480197 0.195372 0.437548
O O6 0.000000 0.000000 0.500000
O O7 0.856713 0.903588 0.455915
O O8 0.150959 0.502035 0.464979
O O9 0.824369 0.801640 0.665202
O O10 0.758328 0.267836 0.350081
O O11 0.311552 0.568210 0.326850
#
# Coordination Sequence:
#
# PCOD8020275 Si02
#       5
#     2   2   2   2   2
#     4  12  24  40  69  96 122 173 216 254 319 378
#     4  12  26  41  65  97 132 164 210 267 319 369
#     4  10  22  42  67  89 132 165 210 263 309 377
#     4   9  20  41  67  91 129 165 211 255 314 378
#     4   9  21  41  67  92 131 169 203 264 321 365
#
# _framework density 21.124722999999999
#
# number of rings (size 3 to 8) (size 9 to 14) (size 15 to 20)
#    1.200    0.400    2.000    2.400    2.800    4.000 
#    0.000    6.000    0.000    0.000    0.000    0.000 
#    0.000    0.000    0.000    0.000    0.000    0.000 
#
# Total GULP energy -123965.141548 kJ/mol
# GULP energy per Si atom -12396.514155 kJ/mol
# Density = 2.107664 g / cm^3
# Si number density = 21.124723 Si / 1000 Ang^3
#
#
#
# Elastic Constant Matrix: (Units=GPa)
#
#
# Indices 1 2 3 4 5 6 
#
# 1 95.3662 33.0955 14.8282 -18.3232 -8.0917 -20.0607
# 2 33.0955 95.9475 29.8771 -16.2253 -13.2475 -7.4042
# 3 14.8282 29.8771 70.6114 -15.5798 -19.4089 -1.2589
# 4 -18.3232 -16.2253 -15.5798 29.9547 0.3814 3.8361
# 5 -8.0917 -13.2475 -19.4089 0.3814 30.6287 -3.5050
# 6 -20.0607 -7.4042 -1.2589 3.8361 -3.5050 48.3466
#
#
#
# Elastic Compliance Matrix: (Units=1/GPa)
#
#
# Indices 1 2 3 4 5 6 
#
# 1 0.014084 -0.003135 0.000872 0.006673 0.003419 0.005105
# 2 -0.003135 0.013644 -0.003543 0.003513 0.002855 0.000625
# 3 0.000872 -0.003543 0.020758 0.009198 0.011793 0.000485
# 4 0.006673 0.003513 0.009198 0.043955 0.008642 0.000685
# 5 0.003419 0.002855 0.011793 0.008642 0.042675 0.004571
# 6 0.005105 0.000625 0.000485 0.000685 0.004571 0.023187
#
#
# Mechanical properties :
#
#
# Convention : Reuss Voigt Hill
#
# Bulk Modulus (GPa) = 27.12055 46.39187 36.75621
# Shear Modulus (GPa) = 27.44116 34.06097 30.75106
#
# Velocity S-wave (km/s) = 3.60808 4.01979 3.81949
# Velocity P-wave (km/s) = 5.49762 6.59952 6.07361
#
# Compressibility (1/GPa) = 0.03687242
#
# Stress axis : x y z
#
# Youngs Moduli (GPa) = 71.00010 73.29380 48.17478
#
# Poissons Ratio (x) = 0.22980 -0.04201
# Poissons Ratio (y) = 0.22261 0.17071
# Poissons Ratio (z) = -0.06191 0.25972
#
# Static dielectric constant tensor:
#      x y z
#    x 3.940070 -0.152990 -0.066640 
#    y -0.152990 4.132860 0.417270 
#    z -0.066640 0.417270 4.019640 
# 
# 
# High freq. dielectric constant tensor:
#      x y z
#    x 1.844700 -0.000840 0.007530 
#    y -0.000840 1.838100 -0.006670 
#    z 0.007530 -0.006670 1.787400 
# 
# From -- ./inp_files/15560.got.cif
#   From: 2010.06.25/outbox.cif.g09.slc.cpg/sg2_8_cif.got.tgz:15560.got - 2010.06.27 13:26:56.
