data_PCOD8020922
_publ_section_title
;
Structure prediction by ZEFSAII (Michael W. Deem and Ramdas Pophale) SiO2 
 PCOD8020922
Probable space group: P -1
;
_chemical_formula_sum "Si O2"
_cell_formula_units_Z 16
_cell_length_a 11.664065
_cell_length_b 9.426098
_cell_length_c 18.086396
_cell_angle_alpha 51.280444
_cell_angle_beta 41.547773
_cell_angle_gamma 83.650062
_cell_volume 743.911350
_symmetry_space_group_name_H-M "P -1"
_symmetry_group_IT_number 2
_symmetry_cell_setting 'triclinic'
loop_
_space_group_symop_operation_xyz
x,y,z
-x,-y,-z
loop_
_atom_site_type_symbol
_atom_site_label
_atom_site_fract_x
_atom_site_fract_y
_atom_site_fract_z
Si Si1 0.454701 0.886491 0.795787
Si Si2 0.661136 0.854236 0.137813
Si Si3 0.140230 0.301928 0.152452
Si Si4 0.884679 0.010201 0.620835
Si Si5 0.541974 0.432274 0.426047
Si Si6 0.635550 0.109094 0.477344
Si Si7 0.149571 0.434430 0.465321
Si Si8 0.985025 0.932028 0.229805
O O1 0.700484 0.029531 0.674984
O O2 0.337423 0.981779 0.856695
O O3 0.478985 0.930360 0.681592
O O4 0.293074 0.593604 0.981274
O O5 0.670909 0.665199 0.233165
O O6 0.427497 0.690177 0.251992
O O7 0.900050 0.041012 0.912581
O O8 0.240006 0.235792 0.188239
O O9 0.151534 0.202705 0.101344
O O10 0.868180 0.154219 0.350635
O O11 0.000000 0.000000 0.500000
O O12 0.104320 0.258735 0.478762
O O13 0.500000 0.500000 0.500000
O O14 0.705938 0.371792 0.371698
O O15 0.279119 0.173498 0.612608
O O16 0.500000 0.000000 0.500000
O O17 0.000000 0.500000 0.500000
O O18 0.046676 0.278999 0.641852
#
# Coordination Sequence:
#
# PCOD8020922 Si02
#       8
#     2   2   2   2   2   2   2   2
#     4  12  26  43  70 102 132 176 225 271 333 399
#     4  11  25  43  66  97 134 175 219 272 333 394
#     4  11  26  44  67 101 135 175 220 275 331 397
#     4  11  23  44  70  98 136 175 220 272 332 393
#     4  11  24  44  67  93 131 171 225 279 325 387
#     4  12  26  47  68  97 134 178 225 274 335 391
#     4  10  22  43  65  94 133 174 216 270 329 392
#     4  10  25  42  64  96 134 173 219 269 336 393
#
# _framework density 21.507940000000001
#
# number of rings (size 3 to 8) (size 9 to 14) (size 15 to 20)
#    0.000    1.000    5.000    0.375    5.250    3.500 
#    0.000    0.000    0.000    0.000    0.000    0.000 
#    0.000    0.000    0.000    0.000    0.000    0.000 
#
# Total GULP energy -198390.827991 kJ/mol
# GULP energy per Si atom -12399.426749 kJ/mol
# Density = 2.145899 g / cm^3
# Si number density = 21.507940 Si / 1000 Ang^3
#
#
#
# Elastic Constant Matrix: (Units=GPa)
#
#
# Indices 1 2 3 4 5 6 
#
# 1 85.4336 20.4985 12.8297 2.0136 23.0929 0.3490
# 2 20.4985 100.2473 24.7330 5.1264 18.4511 -0.4489
# 3 12.8297 24.7330 71.6982 3.3611 17.3306 7.9399
# 4 2.0136 5.1264 3.3611 41.3099 4.7918 2.3358
# 5 23.0929 18.4511 17.3306 4.7918 22.8729 4.0080
# 6 0.3490 -0.4489 7.9399 2.3358 4.0080 42.0977
#
#
#
# Elastic Compliance Matrix: (Units=1/GPa)
#
#
# Indices 1 2 3 4 5 6 
#
# 1 0.016334 -0.000485 0.001294 0.001123 -0.017530 0.001222
# 2 -0.000485 0.012088 -0.002372 -0.000477 -0.007598 0.001330
# 3 0.001294 -0.002372 0.017800 0.000366 -0.012568 -0.002217
# 4 0.001123 -0.000477 0.000366 0.024939 -0.006095 -0.000887
# 5 -0.017530 -0.007598 -0.012568 -0.006095 0.079183 -0.004766
# 6 0.001222 0.001330 -0.002217 -0.000887 -0.004766 0.024679
#
#
# Mechanical properties :
#
#
# Convention : Reuss Voigt Hill
#
# Bulk Modulus (GPa) = 23.20329 41.50017 32.35173
# Shear Modulus (GPa) = 25.97205 34.54397 30.25801
#
# Velocity S-wave (km/s) = 3.47876 4.01197 3.75484
# Velocity P-wave (km/s) = 5.19109 6.38736 5.82004
#
# Compressibility (1/GPa) = 0.04309733
#
# Stress axis : x y z
#
# Youngs Moduli (GPa) = 61.22258 82.72368 56.17895
#
# Poissons Ratio (x) = 0.04009 -0.07267
# Poissons Ratio (y) = 0.02967 0.13323
# Poissons Ratio (z) = -0.07920 0.19619
#
# Static dielectric constant tensor:
#      x y z
#    x 2.947210 0.315980 0.181930 
#    y 0.315980 4.173790 -0.294140 
#    z 0.181930 -0.294140 3.723550 
# 
# 
# High freq. dielectric constant tensor:
#      x y z
#    x 1.857290 -0.001480 0.008090 
#    y -0.001480 1.862940 -0.004360 
#    z 0.008090 -0.004360 1.828080 
# 
# From -- ./inp_files/68571.got.cif
#   From: 2010.06.25/outbox.cif.g09.slc.cpg/sg2_35_cif.got.tgz:68571.got - 2010.06.27 13:26:56.
