data_PCOD8020897
_publ_section_title
;
Structure prediction by ZEFSAII (Michael W. Deem and Ramdas Pophale) SiO2 
 PCOD8020897
Probable space group: P -1
;
_chemical_formula_sum "Si O2"
_cell_formula_units_Z 14
_cell_length_a 4.990316
_cell_length_b 11.539828
_cell_length_c 15.660273
_cell_angle_alpha 132.430792
_cell_angle_beta 72.928040
_cell_angle_gamma 97.698337
_cell_volume 633.674678
_symmetry_space_group_name_H-M "P -1"
_symmetry_group_IT_number 2
_symmetry_cell_setting 'triclinic'
loop_
_space_group_symop_operation_xyz
x,y,z
-x,-y,-z
loop_
_atom_site_type_symbol
_atom_site_label
_atom_site_fract_x
_atom_site_fract_y
_atom_site_fract_z
Si Si1 0.784472 0.354225 0.263923
Si Si2 0.881078 0.690637 0.452075
Si Si3 0.641109 0.100360 0.465539
Si Si4 0.590497 0.357537 0.982058
Si Si5 0.079539 0.946860 0.218019
Si Si6 0.988675 0.735757 0.974377
Si Si7 0.193443 0.279872 0.338002
O O1 0.870008 0.529693 0.319621
O O2 0.450468 0.356690 0.308397
O O3 0.873024 0.242085 0.119838
O O4 0.928639 0.288693 0.304254
O O5 0.601969 0.805069 0.518760
O O6 0.891661 0.633091 0.521623
O O7 0.157718 0.779589 0.448531
O O8 0.500000 0.000000 0.500000
O O9 0.824005 0.984415 0.326544
O O10 0.179749 0.604123 0.948417
O O11 0.717000 0.202859 0.839352
O O12 0.500000 0.500000 0.000000
O O13 0.317544 0.317845 0.040083
O O14 0.968292 0.899900 0.110920
O O15 0.262226 0.095367 0.263652
#
# Coordination Sequence:
#
# PCOD8020897 Si02
#       7
#     2   2   2   2   2   2   2
#     4  12  24  42  64  99 133 171 218 267 319 382
#     4  11  24  44  66  97 134 166 225 263 319 397
#     4  11  24  44  70  98 126 173 213 275 326 373
#     4  10  22  43  65  90 128 175 211 258 332 380
#     4   9  25  41  67  94 134 162 225 260 323 397
#     4  10  24  41  63  98 130 163 222 262 320 384
#     4  11  23  40  68  92 131 180 210 267 329 371
#
# _framework density 22.093354000000001
#
# number of rings (size 3 to 8) (size 9 to 14) (size 15 to 20)
#    0.857    0.571    0.000    5.143    6.000    2.286 
#    2.571    0.000    0.000    0.000    0.000    0.000 
#    0.000    0.000    0.000    0.000    0.000    0.000 
#
# Total GULP energy -173542.005225 kJ/mol
# GULP energy per Si atom -12395.857516 kJ/mol
# Density = 2.204307 g / cm^3
# Si number density = 22.093354 Si / 1000 Ang^3
#
#
#
# Elastic Constant Matrix: (Units=GPa)
#
#
# Indices 1 2 3 4 5 6 
#
# 1 108.1955 23.5144 15.1682 -6.0942 -4.1368 6.4798
# 2 23.5144 87.1527 37.8113 0.2922 -5.6687 15.7684
# 3 15.1682 37.8113 103.3631 -11.4905 4.9480 14.2752
# 4 -6.0942 0.2922 -11.4905 30.5912 2.7511 -3.5124
# 5 -4.1368 -5.6687 4.9480 2.7511 22.5498 -2.6825
# 6 6.4798 15.7684 14.2752 -3.5124 -2.6825 52.5074
#
#
#
# Elastic Compliance Matrix: (Units=1/GPa)
#
#
# Indices 1 2 3 4 5 6 
#
# 1 0.009976 -0.002408 -0.000411 0.001733 0.001076 -0.000225
# 2 -0.002408 0.015321 -0.005469 -0.003425 0.004694 -0.002806
# 3 -0.000411 -0.005469 0.012772 0.005028 -0.005069 -0.001702
# 4 0.001733 -0.003425 0.005028 0.035655 -0.005814 0.001536
# 5 0.001076 0.004694 -0.005069 -0.005814 0.047770 0.001887
# 6 -0.000225 -0.002806 -0.001702 0.001536 0.001887 0.020577
#
#
# Mechanical properties :
#
#
# Convention : Reuss Voigt Hill
#
# Bulk Modulus (GPa) = 46.52681 50.18877 48.35779
# Shear Modulus (GPa) = 30.15469 35.94418 33.04943
#
# Velocity S-wave (km/s) = 3.69843 4.03789 3.87188
# Velocity P-wave (km/s) = 6.27238 6.67124 6.47488
#
# Compressibility (1/GPa) = 0.02149299
#
# Stress axis : x y z
#
# Youngs Moduli (GPa) = 100.24252 65.26901 78.29519
#
# Poissons Ratio (x) = 0.15720 0.03215
# Poissons Ratio (y) = 0.24143 0.42820
# Poissons Ratio (z) = 0.04116 0.35696
#
# Static dielectric constant tensor:
#      x y z
#    x 4.068370 0.053110 0.057410 
#    y 0.053110 3.763650 0.126030 
#    z 0.057410 0.126030 3.908490 
# 
# 
# High freq. dielectric constant tensor:
#      x y z
#    x 1.883820 0.002020 -0.000190 
#    y 0.002020 1.855820 0.006000 
#    z -0.000190 0.006000 1.862050 
# 
# From -- ./inp_files/479353.got.cif
#   From: 2010.06.25/outbox.cif.g09.slc.cpg/sg2_240_cif.got.tgz:479353.got - 2010.06.27 13:26:56.
