data_PCOD8020330
_publ_section_title
;
Structure prediction by ZEFSAII (Michael W. Deem and Ramdas Pophale) SiO2 
 PCOD8020330
Probable space group: P -1
;
_chemical_formula_sum "Si O2"
_cell_formula_units_Z 16
_cell_length_a 9.506442
_cell_length_b 21.500753
_cell_length_c 9.713943
_cell_angle_alpha 52.582846
_cell_angle_beta 127.176538
_cell_angle_gamma 150.972707
_cell_volume 751.326170
_symmetry_space_group_name_H-M "P -1"
_symmetry_group_IT_number 2
_symmetry_cell_setting 'triclinic'
loop_
_space_group_symop_operation_xyz
x,y,z
-x,-y,-z
loop_
_atom_site_type_symbol
_atom_site_label
_atom_site_fract_x
_atom_site_fract_y
_atom_site_fract_z
Si Si1 0.753231 0.627149 0.068332
Si Si2 0.836801 0.361952 0.623793
Si Si3 0.663067 0.740863 0.013492
Si Si4 0.673730 0.004546 0.850720
Si Si5 0.658449 0.837932 0.627413
Si Si6 0.098438 0.869411 0.755848
Si Si7 0.869431 0.062286 0.592595
Si Si8 0.461763 0.215668 0.859762
O O1 0.610337 0.631021 0.096883
O O2 0.932951 0.627023 0.260507
O O3 0.500000 0.500000 0.000000
O O4 0.949171 0.748004 0.917621
O O5 0.567868 0.249909 0.513574
O O6 0.723143 0.325418 0.761795
O O7 0.000000 0.500000 0.500000
O O8 0.497926 0.705311 0.103197
O O9 0.528832 0.743596 0.806161
O O10 0.014891 0.882234 0.041152
O O11 0.455570 0.988311 0.820836
O O12 0.697396 0.035366 0.660241
O O13 0.526654 0.866525 0.958200
O O14 0.975780 0.911531 0.672667
O O15 0.679786 0.935171 0.556710
O O16 0.034275 0.835829 0.596925
O O17 0.145005 0.111236 0.743398
#
# Coordination Sequence:
#
# PCOD8020330 Si02
#       8
#     2   2   2   2   2   2   2   2
#     4  11  26  46  66  91 125 167 222 268 313 370
#     4  12  26  45  67  91 123 169 221 270 311 375
#     4  10  22  42  67  95 132 170 207 261 315 386
#     4  11  21  39  63  99 137 168 206 253 325 384
#     4  11  22  39  63  95 130 165 217 255 319 374
#     4  11  23  36  62  95 129 169 206 264 312 371
#     4  11  21  38  62  97 135 167 205 259 319 389
#     4  11  21  43  67  94 133 171 208 252 328 378
#
# _framework density 21.295676
#
# number of rings (size 3 to 8) (size 9 to 14) (size 15 to 20)
#    0.000    1.000    5.000    3.000    1.750    2.000 
#    0.000    4.375    0.000    0.000    0.000    0.000 
#    0.000    0.000    0.000    0.000    0.000    0.000 
#
# Total GULP energy -198355.636974 kJ/mol
# GULP energy per Si atom -12397.227311 kJ/mol
# Density = 2.124721 g / cm^3
# Si number density = 21.295676 Si / 1000 Ang^3
#
#
#
# Elastic Constant Matrix: (Units=GPa)
#
#
# Indices 1 2 3 4 5 6 
#
# 1 88.7542 33.4526 23.1611 9.8584 -3.0316 -23.2345
# 2 33.4526 36.9670 4.1202 -2.1258 -2.7368 -15.6054
# 3 23.1611 4.1202 109.2464 -0.7066 -3.0643 -11.8994
# 4 9.8584 -2.1258 -0.7066 26.0169 1.1982 2.1507
# 5 -3.0316 -2.7368 -3.0643 1.1982 36.7005 1.3200
# 6 -23.2345 -15.6054 -11.8994 2.1507 1.3200 28.2748
#
#
#
# Elastic Compliance Matrix: (Units=1/GPa)
#
#
# Indices 1 2 3 4 5 6 
#
# 1 0.021467 -0.016201 -0.003109 -0.010233 0.000346 0.008153
# 2 -0.016201 0.047751 0.003225 0.008922 0.001710 0.013640
# 3 -0.003109 0.003225 0.010081 0.001410 0.000660 0.003330
# 4 -0.010233 0.008922 0.001410 0.043648 -0.001266 -0.006152
# 5 0.000346 0.001710 0.000660 -0.001266 0.027489 0.000319
# 6 0.008153 0.013640 0.003330 -0.006152 0.000319 0.051449
#
#
# Mechanical properties :
#
#
# Convention : Reuss Voigt Hill
#
# Bulk Modulus (GPa) = 21.21791 39.60393 30.41092
# Shear Modulus (GPa) = 20.01882 29.81402 24.91642
#
# Velocity S-wave (km/s) = 3.06934 3.74572 3.42427
# Velocity P-wave (km/s) = 4.74828 6.11104 5.47225
#
# Compressibility (1/GPa) = 0.04712999
#
# Stress axis : x y z
#
# Youngs Moduli (GPa) = 46.58210 20.94217 99.19248
#
# Poissons Ratio (x) = 0.33929 0.30836
# Poissons Ratio (y) = 0.75469 -0.31992
# Poissons Ratio (z) = 0.14481 -0.06754
#
# Static dielectric constant tensor:
#      x y z
#    x 4.001360 0.064810 -0.133700 
#    y 0.064810 3.450590 0.031920 
#    z -0.133700 0.031920 4.201330 
# 
# 
# High freq. dielectric constant tensor:
#      x y z
#    x 1.844930 0.002290 -0.001830 
#    y 0.002290 1.792190 0.006370 
#    z -0.001830 0.006370 1.861670 
# 
# From -- ./inp_files/204123.got.cif
#   From: 2010.06.25/outbox.cif.g09.slc.cpg/sg2_103_cif.got.tgz:204123.got - 2010.06.27 13:26:56.
