data_PCOD8020945
_publ_section_title
;
Structure prediction by ZEFSAII (Michael W. Deem and Ramdas Pophale) SiO2 
 PCOD8020945
Probable space group: P -1
;
_chemical_formula_sum "Si O2"
_cell_formula_units_Z 16
_cell_length_a 11.084274
_cell_length_b 5.270203
_cell_length_c 15.798492
_cell_angle_alpha 80.074055
_cell_angle_beta 76.901998
_cell_angle_gamma 127.686736
_cell_volume 650.901593
_symmetry_space_group_name_H-M "P -1"
_symmetry_group_IT_number 2
_symmetry_cell_setting 'triclinic'
loop_
_space_group_symop_operation_xyz
x,y,z
-x,-y,-z
loop_
_atom_site_type_symbol
_atom_site_label
_atom_site_fract_x
_atom_site_fract_y
_atom_site_fract_z
Si Si1 0.348772 0.674177 0.890371
Si Si2 0.126137 0.180986 0.111623
Si Si3 0.814292 0.265762 0.643174
Si Si4 0.591946 0.401739 0.443505
Si Si5 0.945373 0.431508 0.108390
Si Si6 0.679623 0.408681 0.784063
Si Si7 0.072775 0.268149 0.548982
Si Si8 0.528050 0.452782 0.264184
O O1 0.343535 0.422551 0.840852
O O2 0.254937 0.782382 0.849191
O O3 0.539835 0.014492 0.868569
O O4 0.241986 0.437342 0.001270
O O5 0.987667 0.209822 0.153215
O O6 0.245060 0.315143 0.167287
O O7 0.042733 0.790352 0.125490
O O8 0.841481 0.514798 0.699949
O O9 0.841374 0.372577 0.534269
O O10 0.929603 0.171998 0.643164
O O11 0.615905 0.962317 0.702754
O O12 0.500000 0.500000 0.500000
O O13 0.785733 0.679851 0.424974
O O14 0.610273 0.512874 0.337452
O O15 0.500000 0.000000 0.500000
O O16 0.000000 0.500000 0.000000
O O17 0.570572 0.417673 0.733361
O O18 0.000000 0.000000 0.500000
#
# Coordination Sequence:
#
# PCOD8020945 Si02
#       8
#     2   2   2   2   2   2   2   2
#     4  10  24  43  69  99 139 187 234 290 352 413
#     4  11  25  44  73 102 141 191 238 290 352 420
#     4  10  22  43  65  99 138 177 231 288 353 405
#     4  12  26  47  73 102 138 183 230 279 357 424
#     4  10  23  45  70 100 139 184 239 294 350 416
#     4  11  25  42  69 100 145 182 237 294 346 419
#     4  11  23  43  75  99 134 184 235 290 348 422
#     4  11  25  44  68  98 145 180 232 294 349 419
#
# _framework density 24.581289999999999
#
# number of rings (size 3 to 8) (size 9 to 14) (size 15 to 20)
#    0.000    1.250    1.250    4.125   12.250    1.500 
#    2.250    0.000    0.000    0.000    0.000    0.000 
#    0.000    0.000    0.000    0.000    0.000    0.000 
#
# Total GULP energy -198248.045219 kJ/mol
# GULP energy per Si atom -12390.502826 kJ/mol
# Density = 2.452534 g / cm^3
# Si number density = 24.581290 Si / 1000 Ang^3
#
#
#
# Elastic Constant Matrix: (Units=GPa)
#
#
# Indices 1 2 3 4 5 6 
#
# 1 164.1481 52.9400 54.3690 29.4852 -18.6820 6.3332
# 2 52.9400 107.3586 29.8811 38.6568 -6.8144 3.0407
# 3 54.3690 29.8811 105.3122 33.4340 -13.5102 10.1883
# 4 29.4852 38.6568 33.4340 30.5064 -6.9283 -0.5486
# 5 -18.6820 -6.8144 -13.5102 -6.9283 43.8098 7.7746
# 6 6.3332 3.0407 10.1883 -0.5486 7.7746 49.7489
#
#
#
# Elastic Compliance Matrix: (Units=1/GPa)
#
#
# Indices 1 2 3 4 5 6 
#
# 1 0.008413 -0.002907 -0.002936 -0.000735 0.002229 -0.000648
# 2 -0.002907 0.019046 0.004638 -0.026604 -0.000712 -0.001926
# 3 -0.002936 0.004638 0.017153 -0.021438 0.002076 -0.003983
# 4 -0.000735 -0.026604 -0.021438 0.091314 0.002175 0.006777
# 5 0.002229 -0.000712 0.002076 0.002175 0.025470 -0.004622
# 6 -0.000648 -0.001926 -0.003983 0.006777 -0.004622 0.021914
#
#
# Mechanical properties :
#
#
# Convention : Reuss Voigt Hill
#
# Bulk Modulus (GPa) = 23.69606 72.35547 48.02576
# Shear Modulus (GPa) = 25.02657 40.78827 32.90742
#
# Velocity S-wave (km/s) = 3.19425 4.07790 3.66282
# Velocity P-wave (km/s) = 4.82339 7.18828 6.12113
#
# Compressibility (1/GPa) = 0.04220111
#
# Stress axis : x y z
#
# Youngs Moduli (GPa) = 118.86605 52.50511 58.29734
#
# Poissons Ratio (x) = 0.15261 0.17119
# Poissons Ratio (y) = 0.34549 -0.27036
# Poissons Ratio (z) = 0.34905 -0.24350
#
# Static dielectric constant tensor:
#      x y z
#    x 4.867820 0.040880 -0.249390 
#    y 0.040880 4.696800 -0.200540 
#    z -0.249390 -0.200540 5.345650 
# 
# 
# High freq. dielectric constant tensor:
#      x y z
#    x 1.984140 -0.003290 -0.016910 
#    y -0.003290 1.981540 0.003950 
#    z -0.016910 0.003950 1.977640 
# 
# From -- ./inp_files/510982.got.cif
#   From: 2010.06.25/outbox.cif.g09.slc.cpg/sg2_256_cif.got.tgz:510982.got - 2010.06.27 13:26:56.
