data_PCOD8020674
_publ_section_title
;
Structure prediction by ZEFSAII (Michael W. Deem and Ramdas Pophale) SiO2 
 PCOD8020674
Probable space group: P -1
;
_chemical_formula_sum "Si O2"
_cell_formula_units_Z 16
_cell_length_a 9.518387
_cell_length_b 8.132123
_cell_length_c 12.038355
_cell_angle_alpha 61.050348
_cell_angle_beta 116.575303
_cell_angle_gamma 105.348348
_cell_volume 727.860152
_symmetry_space_group_name_H-M "P -1"
_symmetry_group_IT_number 2
_symmetry_cell_setting 'triclinic'
loop_
_space_group_symop_operation_xyz
x,y,z
-x,-y,-z
loop_
_atom_site_type_symbol
_atom_site_label
_atom_site_fract_x
_atom_site_fract_y
_atom_site_fract_z
Si Si1 0.741886 0.996516 0.760718
Si Si2 0.047476 0.390918 0.446548
Si Si3 0.639262 0.380872 0.547868
Si Si4 0.058736 0.051776 0.715658
Si Si5 0.791042 0.297606 0.221101
Si Si6 0.473606 0.698601 0.705065
Si Si7 0.585658 0.310315 0.950228
Si Si8 0.707569 0.949913 0.008913
O O1 0.627607 0.838705 0.712853
O O2 0.889703 0.026469 0.721870
O O3 0.657862 0.191732 0.686827
O O4 0.789940 0.933526 0.922681
O O5 0.210941 0.475132 0.429559
O O6 0.000000 0.500000 0.500000
O O7 0.917908 0.424195 0.294706
O O8 0.057292 0.178970 0.562971
O O9 0.500000 0.500000 0.500000
O O10 0.616570 0.301299 0.442487
O O11 0.111904 0.860874 0.747439
O O12 0.181722 0.126380 0.829785
O O13 0.648089 0.224910 0.274018
O O14 0.709180 0.401875 0.055574
O O15 0.517512 0.483130 0.806001
O O16 0.669495 0.167899 0.944447
O O17 0.448911 0.187331 0.006151
#
# Coordination Sequence:
#
# PCOD8020674 Si02
#       8
#     2   2   2   2   2   2   2   2
#     4  12  25  43  64 102 136 170 212 275 333 381
#     4  12  24  45  68  94 127 175 222 267 320 394
#     4  12  28  44  68  98 130 173 219 274 328 385
#     4  11  25  44  66  97 134 172 219 267 329 383
#     4  11  24  42  68  97 128 173 219 265 320 391
#     4  12  24  43  69  97 134 172 219 266 328 389
#     4  10  22  43  69 102 125 175 221 267 321 389
#     4  10  22  42  71  96 133 168 222 270 321 385
#
# _framework density 21.982244999999999
#
# number of rings (size 3 to 8) (size 9 to 14) (size 15 to 20)
#    0.000    0.750    3.750    3.000    3.500    0.000 
#    2.250    1.250    0.000    0.000    0.000    0.000 
#    0.000    0.000    0.000    0.000    0.000    0.000 
#
# Total GULP energy -198355.944560 kJ/mol
# GULP energy per Si atom -12397.246535 kJ/mol
# Density = 2.193221 g / cm^3
# Si number density = 21.982245 Si / 1000 Ang^3
#
#
#
# Elastic Constant Matrix: (Units=GPa)
#
#
# Indices 1 2 3 4 5 6 
#
# 1 79.3759 41.4150 11.1234 1.3706 15.9615 4.2492
# 2 41.4150 88.6301 33.3871 10.8954 6.3299 17.1852
# 3 11.1234 33.3871 87.8492 19.6248 7.1159 15.1533
# 4 1.3706 10.8954 19.6248 41.6750 4.0232 9.2028
# 5 15.9615 6.3299 7.1159 4.0232 30.5762 0.3570
# 6 4.2492 17.1852 15.1533 9.2028 0.3570 32.6321
#
#
#
# Elastic Compliance Matrix: (Units=1/GPa)
#
#
# Indices 1 2 3 4 5 6 
#
# 1 0.018765 -0.009079 0.001126 0.001726 -0.008422 0.001420
# 2 -0.009079 0.018467 -0.004747 -0.001179 0.002247 -0.006031
# 3 0.001126 -0.004747 0.014870 -0.004872 -0.002388 -0.003152
# 4 0.001726 -0.001179 -0.004872 0.027993 -0.003146 -0.005202
# 5 -0.008422 0.002247 -0.002388 -0.003146 0.037589 0.001498
# 6 0.001420 -0.006031 -0.003152 -0.005202 0.001498 0.036550
#
#
# Mechanical properties :
#
#
# Convention : Reuss Voigt Hill
#
# Bulk Modulus (GPa) = 37.44927 47.52290 42.48608
# Shear Modulus (GPa) = 26.52025 32.30530 29.41277
#
# Velocity S-wave (km/s) = 3.47715 3.83771 3.66187
# Velocity P-wave (km/s) = 5.76142 6.42674 6.10315
#
# Compressibility (1/GPa) = 0.02670279
#
# Stress axis : x y z
#
# Youngs Moduli (GPa) = 53.29035 54.14969 67.24883
#
# Poissons Ratio (x) = 0.49161 -0.07573
# Poissons Ratio (y) = 0.48381 0.31925
# Poissons Ratio (z) = -0.06001 0.25706
#
# Static dielectric constant tensor:
#      x y z
#    x 4.053450 0.022660 0.724110 
#    y 0.022660 3.952530 0.605990 
#    z 0.724110 0.605990 6.308980 
# 
# 
# High freq. dielectric constant tensor:
#      x y z
#    x 1.866120 -0.007550 0.007900 
#    y -0.007550 1.864890 0.013610 
#    z 0.007900 0.013610 1.878160 
# 
# From -- ./inp_files/381490.got.cif
#   From: 2010.06.25/outbox.cif.g09.slc.cpg/sg2_191_cif.got.tgz:381490.got - 2010.06.27 13:26:56.
