data_PCOD8020878
_publ_section_title
;
Structure prediction by ZEFSAII (Michael W. Deem and Ramdas Pophale) SiO2 
 PCOD8020878
Probable space group: P -1
;
_chemical_formula_sum "Si O2"
_cell_formula_units_Z 16
_cell_length_a 5.301602
_cell_length_b 13.308797
_cell_length_c 17.994940
_cell_angle_alpha 146.072437
_cell_angle_beta 63.221368
_cell_angle_gamma 106.696929
_cell_volume 623.054296
_symmetry_space_group_name_H-M "P -1"
_symmetry_group_IT_number 2
_symmetry_cell_setting 'triclinic'
loop_
_space_group_symop_operation_xyz
x,y,z
-x,-y,-z
loop_
_atom_site_type_symbol
_atom_site_label
_atom_site_fract_x
_atom_site_fract_y
_atom_site_fract_z
Si Si1 0.423178 0.310346 0.174722
Si Si2 0.233040 0.683547 0.367472
Si Si3 0.252857 0.565405 0.134088
Si Si4 0.716543 0.643553 0.625154
Si Si5 0.638892 0.649493 0.478523
Si Si6 0.353361 0.015408 0.737188
Si Si7 0.078178 0.232450 0.029244
Si Si8 0.000237 0.915653 0.310069
O O1 0.406645 0.536906 0.314578
O O2 0.291223 0.240713 0.226254
O O3 0.238979 0.250514 0.095918
O O4 0.750213 0.214332 0.071050
O O5 0.377010 0.635546 0.238028
O O6 0.913029 0.630852 0.377121
O O7 0.205647 0.901783 0.518373
O O8 0.106589 0.392176 0.065056
O O9 0.998923 0.730191 0.243137
O O10 0.500000 0.500000 0.000000
O O11 0.705023 0.743956 0.608703
O O12 0.434584 0.547225 0.614770
O O13 0.000000 0.500000 0.500000
O O14 0.376479 0.802240 0.578124
O O15 0.666672 0.068482 0.723308
O O16 0.122668 0.127273 0.780085
O O17 0.232785 0.046023 0.855333
#
# Coordination Sequence:
#
# PCOD8020878 Si02
#       8
#     2   2   2   2   2   2   2   2
#     4  11  23  42  66  98 130 176 216 274 334 397
#     4  10  22  43  65 100 135 174 222 274 337 383
#     4  11  23  42  68  99 136 179 227 273 325 394
#     4  11  21  39  69 101 127 163 224 278 332 395
#     4  10  23  41  67  99 133 171 216 279 332 392
#     4  11  24  44  67  94 135 180 219 266 336 392
#     4  11  25  43  66  93 139 178 221 263 334 403
#     4  11  24  42  67  96 134 175 229 279 324 382
#
# _framework density 25.679946000000001
#
# number of rings (size 3 to 8) (size 9 to 14) (size 15 to 20)
#    0.000    1.250    2.500    3.375    5.250    4.500 
#    0.000    5.000    0.000    0.000    0.000    0.000 
#    0.000    0.000    0.000    0.000    0.000    0.000 
#
# Total GULP energy -198244.751075 kJ/mol
# GULP energy per Si atom -12390.296942 kJ/mol
# Density = 2.562150 g / cm^3
# Si number density = 25.679946 Si / 1000 Ang^3
#
#
#
# Elastic Constant Matrix: (Units=GPa)
#
#
# Indices 1 2 3 4 5 6 
#
# 1 97.8981 3.7454 16.6061 -5.9294 -5.3537 -10.1941
# 2 3.7454 44.0605 1.5830 -24.0410 4.0558 -9.5962
# 3 16.6061 1.5830 116.6233 -29.4460 -1.4501 6.0297
# 4 -5.9294 -24.0410 -29.4460 39.1755 -3.4455 5.4944
# 5 -5.3537 4.0558 -1.4501 -3.4455 28.3844 -4.8283
# 6 -10.1941 -9.5962 6.0297 5.4944 -4.8283 23.7138
#
#
#
# Elastic Compliance Matrix: (Units=1/GPa)
#
#
# Indices 1 2 3 4 5 6 
#
# 1 0.011327 -0.000076 -0.001991 -0.000412 0.003026 0.006056
# 2 -0.000076 0.039191 0.005978 0.027377 -0.000654 0.007831
# 3 -0.001991 0.005978 0.012390 0.013351 0.000236 -0.004633
# 4 -0.000412 0.027377 0.013351 0.053115 0.002407 -0.004310
# 5 0.003026 -0.000654 0.000236 0.002407 0.037571 0.008068
# 6 0.006056 0.007831 -0.004633 -0.004310 0.008068 0.051761
#
#
# Mechanical properties :
#
#
# Convention : Reuss Voigt Hill
#
# Bulk Modulus (GPa) = 14.13821 33.60566 23.87193
# Shear Modulus (GPa) = 22.61314 34.03123 28.32219
#
# Velocity S-wave (km/s) = 2.97067 3.64429 3.32458
# Velocity P-wave (km/s) = 4.15740 5.55180 4.90441
#
# Compressibility (1/GPa) = 0.07073033
#
# Stress axis : x y z
#
# Youngs Moduli (GPa) = 88.28847 25.51597 80.70769
#
# Poissons Ratio (x) = 0.00193 0.16072
# Poissons Ratio (y) = 0.00668 -0.48248
# Poissons Ratio (z) = 0.17581 -0.15254
#
# Static dielectric constant tensor:
#      x y z
#    x 4.579460 -0.449130 0.132340 
#    y -0.449130 5.293840 -0.038740 
#    z 0.132340 -0.038740 4.991490 
# 
# 
# High freq. dielectric constant tensor:
#      x y z
#    x 2.022140 -0.022060 0.001470 
#    y -0.022060 2.014980 -0.011490 
#    z 0.001470 -0.011490 2.040340 
# 
# From -- ./inp_files/550082.got.cif
#   From: 2010.06.25/outbox.cif.g09.slc.cpg/sg2_276_cif.got.tgz:550082.got - 2010.06.27 13:26:56.
