data_PCOD8020509
_publ_section_title
;
Structure prediction by ZEFSAII (Michael W. Deem and Ramdas Pophale) SiO2 
 PCOD8020509
Probable space group: P -1
;
_chemical_formula_sum "Si O2"
_cell_formula_units_Z 14
_cell_length_a 13.121369
_cell_length_b 15.946686
_cell_length_c 23.030001
_cell_angle_alpha 17.734201
_cell_angle_beta 152.701101
_cell_angle_gamma 152.577853
_cell_volume 643.194699
_symmetry_space_group_name_H-M "P -1"
_symmetry_group_IT_number 2
_symmetry_cell_setting 'triclinic'
loop_
_space_group_symop_operation_xyz
x,y,z
-x,-y,-z
loop_
_atom_site_type_symbol
_atom_site_label
_atom_site_fract_x
_atom_site_fract_y
_atom_site_fract_z
Si Si1 0.462084 0.562753 0.105155
Si Si2 0.407009 0.249162 0.164518
Si Si3 0.253551 0.486140 0.358297
Si Si4 0.527342 0.740221 0.223907
Si Si5 0.388818 0.254159 0.388765
Si Si6 0.935429 0.029694 0.013466
Si Si7 0.129918 0.946026 0.714453
O O1 0.380810 0.385428 0.122882
O O2 0.456542 0.340820 0.300030
O O3 0.291330 0.752969 0.905358
O O4 0.725055 0.761076 0.103360
O O5 0.585731 0.061087 0.380215
O O6 0.500000 0.500000 0.000000
O O7 0.155012 0.040147 0.158009
O O8 0.500000 0.500000 0.500000
O O9 0.293964 0.602437 0.235820
O O10 0.129912 0.675373 0.208160
O O11 0.104372 0.150664 0.512167
O O12 0.555022 0.487835 0.362147
O O13 0.755774 0.855059 0.303591
O O14 0.500000 0.000000 0.000000
O O15 0.123635 0.253218 0.265312
O O16 0.000000 0.000000 0.000000
#
# Coordination Sequence:
#
# PCOD8020509 Si02
#       7
#     2   2   2   2   2   2   2
#     4  12  26  48  69 105 143 182 237 290 357 411
#     4  12  29  46  72 103 142 192 237 278 354 432
#     4  10  22  42  69 104 134 179 236 289 345 412
#     4  11  23  42  71 107 139 176 240 286 359 409
#     4  12  28  46  71 106 142 189 233 293 352 421
#     4  12  25  46  73 100 145 186 231 296 346 417
#     4  11  25  44  74 102 144 181 234 301 344 414
#
# _framework density 21.766349000000002
#
# number of rings (size 3 to 8) (size 9 to 14) (size 15 to 20)
#    0.000    0.571    5.714    1.714    8.000    2.286 
#    0.000    0.000    0.000    0.000    0.000    0.000 
#    0.000    0.000    0.000    0.000    0.000    0.000 
#
# Total GULP energy -173637.176190 kJ/mol
# GULP energy per Si atom -12402.655442 kJ/mol
# Density = 2.171681 g / cm^3
# Si number density = 21.766349 Si / 1000 Ang^3
#
#
#
# Elastic Constant Matrix: (Units=GPa)
#
#
# Indices 1 2 3 4 5 6 
#
# 1 153.0877 59.0442 70.3850 -0.8041 -10.5625 -10.5992
# 2 59.0442 126.0710 28.2927 5.2226 -1.3345 -5.0101
# 3 70.3850 28.2927 128.9313 -14.4835 -19.8546 4.1905
# 4 -0.8041 5.2226 -14.4835 28.3319 8.2999 1.9672
# 5 -10.5625 -1.3345 -19.8546 8.2999 33.3175 -1.5370
# 6 -10.5992 -5.0101 4.1905 1.9672 -1.5370 49.3018
#
#
#
# Elastic Compliance Matrix: (Units=1/GPa)
#
#
# Indices 1 2 3 4 5 6 
#
# 1 0.010475 -0.003565 -0.005132 -0.002056 0.000744 0.002431
# 2 -0.003565 0.009813 -0.000530 -0.002051 -0.000526 0.000341
# 3 -0.005132 -0.000530 0.011943 0.005007 0.004118 -0.002244
# 4 -0.002056 -0.002051 0.005007 0.040734 -0.008034 -0.002952
# 5 0.000744 -0.000526 0.004118 -0.008034 0.034738 0.001160
# 6 0.002431 0.000341 -0.002244 -0.002952 0.001160 0.021185
#
#
# Mechanical properties :
#
#
# Convention : Reuss Voigt Hill
#
# Bulk Modulus (GPa) = 72.57179 80.39266 76.48222
# Shear Modulus (GPa) = 32.90878 38.88144 35.89511
#
# Velocity S-wave (km/s) = 3.89255 4.23106 4.06533
# Velocity P-wave (km/s) = 7.32231 7.80280 7.56637
#
# Compressibility (1/GPa) = 0.01377946
#
# Stress axis : x y z
#
# Youngs Moduli (GPa) = 95.46205 101.90131 83.72833
#
# Poissons Ratio (x) = 0.36325 0.42967
# Poissons Ratio (y) = 0.34030 0.04437
# Poissons Ratio (z) = 0.48988 0.05400
#
# Static dielectric constant tensor:
#      x y z
#    x 4.442540 0.119590 -0.139290 
#    y 0.119590 4.199180 -0.096710 
#    z -0.139290 -0.096710 4.279830 
# 
# 
# High freq. dielectric constant tensor:
#      x y z
#    x 1.868050 -0.000770 -0.006620 
#    y -0.000770 1.858580 -0.010610 
#    z -0.006620 -0.010610 1.860280 
# 
# From -- ./inp_files/183832.got.cif
#   From: 2010.06.25/outbox.cif.g09.slc.cpg/sg2_92_cif.got.tgz:183832.got - 2010.06.27 13:26:56.
