data_PCOD8020544
_publ_section_title
;
Structure prediction by ZEFSAII (Michael W. Deem and Ramdas Pophale) SiO2 
 PCOD8020544
Probable space group: P -1
;
_chemical_formula_sum "Si O2"
_cell_formula_units_Z 16
_cell_length_a 9.906774
_cell_length_b 14.016340
_cell_length_c 11.942601
_cell_angle_alpha 30.486922
_cell_angle_beta 102.036405
_cell_angle_gamma 88.958749
_cell_volume 754.573246
_symmetry_space_group_name_H-M "P -1"
_symmetry_group_IT_number 2
_symmetry_cell_setting 'triclinic'
loop_
_space_group_symop_operation_xyz
x,y,z
-x,-y,-z
loop_
_atom_site_type_symbol
_atom_site_label
_atom_site_fract_x
_atom_site_fract_y
_atom_site_fract_z
Si Si1 0.538257 0.971010 0.665666
Si Si2 0.626666 0.245991 0.011965
Si Si3 0.653424 0.306025 0.713270
Si Si4 0.032441 0.695147 0.277010
Si Si5 0.064096 0.758403 0.459995
Si Si6 0.050144 0.899203 0.729143
Si Si7 0.122225 0.298109 0.970409
Si Si8 0.610698 0.294222 0.475968
O O1 0.530250 0.184426 0.497051
O O2 0.500000 0.000000 0.500000
O O3 0.413884 0.920811 0.760937
O O4 0.699622 0.788615 0.898497
O O5 0.774885 0.254035 0.087053
O O6 0.663124 0.174195 0.960456
O O7 0.493747 0.467314 0.775583
O O8 0.500000 0.500000 0.500000
O O9 0.794878 0.373171 0.664166
O O10 0.645479 0.193592 0.709021
O O11 0.003700 0.832340 0.247122
O O12 0.000000 0.500000 0.500000
O O13 0.920587 0.804776 0.043679
O O14 0.235822 0.729489 0.534014
O O15 0.963231 0.926346 0.359150
O O16 0.052282 0.543138 0.702656
O O17 0.000000 0.000000 0.500000
O O18 0.949872 0.770768 0.867551
#
# Coordination Sequence:
#
# PCOD8020544 Si02
#       8
#     2   2   2   2   2   2   2   2
#     4  12  26  42  65  94 124 174 230 256 303 388
#     4  11  24  43  64  96 135 162 206 277 323 361
#     4   9  19  38  64  96 130 159 202 264 328 378
#     4   9  19  37  66  97 124 163 211 253 317 398
#     4  10  22  42  69  96 124 167 213 258 319 390
#     4  12  26  42  63  94 131 166 217 269 313 371
#     4  11  22  43  68  93 128 168 211 264 320 376
#     4  10  22  43  69  93 126 169 212 258 320 387
#
# _framework density 21.204035999999999
#
# number of rings (size 3 to 8) (size 9 to 14) (size 15 to 20)
#    0.000    1.500    3.750    0.750    1.750    5.000 
#    2.250    0.000    0.000    0.000    0.000    0.000 
#    0.000    0.000    0.000    0.000    0.000    0.000 
#
# Total GULP energy -198372.327354 kJ/mol
# GULP energy per Si atom -12398.270460 kJ/mol
# Density = 2.115577 g / cm^3
# Si number density = 21.204036 Si / 1000 Ang^3
#
#
#
# Elastic Constant Matrix: (Units=GPa)
#
#
# Indices 1 2 3 4 5 6 
#
# 1 115.4218 34.5743 30.9621 18.2536 -15.0036 -3.0452
# 2 34.5743 109.5696 36.8398 21.8134 -17.6856 6.2001
# 3 30.9621 36.8398 80.4570 31.2286 -15.1379 -4.7162
# 4 18.2536 21.8134 31.2286 40.6037 -0.0942 -2.1832
# 5 -15.0036 -17.6856 -15.1379 -0.0942 46.2059 6.1886
# 6 -3.0452 6.2001 -4.7162 -2.1832 6.1886 17.4902
#
#
#
# Elastic Compliance Matrix: (Units=1/GPa)
#
#
# Indices 1 2 3 4 5 6 
#
# 1 0.010357 -0.001994 -0.001846 -0.002102 0.001844 0.001097
# 2 -0.001994 0.012718 -0.003219 -0.003864 0.004188 -0.007688
# 3 -0.001846 -0.003219 0.020796 -0.013254 0.004530 0.003170
# 4 -0.002102 -0.003864 -0.013254 0.038078 -0.007053 0.004678
# 5 0.001844 0.004188 0.004530 -0.007053 0.026689 -0.010266
# 6 0.001097 -0.007688 0.003170 0.004678 -0.010266 0.065162
#
#
# Mechanical properties :
#
#
# Convention : Reuss Voigt Hill
#
# Bulk Modulus (GPa) = 33.60808 56.68896 45.14852
# Shear Modulus (GPa) = 25.27349 34.39812 29.83580
#
# Velocity S-wave (km/s) = 3.45616 4.03208 3.75518
# Velocity P-wave (km/s) = 5.64012 6.96203 6.33565
#
# Compressibility (1/GPa) = 0.02975475
#
# Stress axis : x y z
#
# Youngs Moduli (GPa) = 96.55030 78.62696 48.08646
#
# Poissons Ratio (x) = 0.15675 0.08875
# Poissons Ratio (y) = 0.19248 0.15480
# Poissons Ratio (z) = 0.17820 0.25311
#
# Static dielectric constant tensor:
#      x y z
#    x 4.052730 -0.007990 -0.004360 
#    y -0.007990 3.942840 0.289910 
#    z -0.004360 0.289910 4.268420 
# 
# 
# High freq. dielectric constant tensor:
#      x y z
#    x 1.845390 0.001790 -0.001750 
#    y 0.001790 1.821500 0.018260 
#    z -0.001750 0.018260 1.832440 
# 
# From -- ./inp_files/355272.got.cif
#   From: 2010.06.25/outbox.cif.g09.slc.cpg/sg2_178_cif.got.tgz:355272.got - 2010.06.27 13:26:56.
