data_PCOD8020818
_publ_section_title
;
Structure prediction by ZEFSAII (Michael W. Deem and Ramdas Pophale) SiO2 
 PCOD8020818
Probable space group: P -1
;
_chemical_formula_sum "Si O2"
_cell_formula_units_Z 14
_cell_length_a 21.270152
_cell_length_b 15.214821
_cell_length_c 11.760977
_cell_angle_alpha 42.091782
_cell_angle_beta 148.721946
_cell_angle_gamma 159.563203
_cell_volume 652.710434
_symmetry_space_group_name_H-M "P -1"
_symmetry_group_IT_number 2
_symmetry_cell_setting 'triclinic'
loop_
_space_group_symop_operation_xyz
x,y,z
-x,-y,-z
loop_
_atom_site_type_symbol
_atom_site_label
_atom_site_fract_x
_atom_site_fract_y
_atom_site_fract_z
Si Si1 0.317146 0.707694 0.005507
Si Si2 0.539082 0.552917 0.202174
Si Si3 0.415854 0.776226 0.612669
Si Si4 0.054647 0.624717 0.849049
Si Si5 0.211859 0.107959 0.949589
Si Si6 0.646134 0.533109 0.618733
Si Si7 0.553520 0.248380 0.065684
O O1 0.088380 0.542313 0.884985
O O2 0.442433 0.698011 0.267389
O O3 0.251919 0.607998 0.869937
O O4 0.500000 0.000000 0.000000
O O5 0.756719 0.784108 0.224898
O O6 0.616144 0.522099 0.447277
O O7 0.467438 0.615709 0.098478
O O8 0.301038 0.280020 0.027364
O O9 0.182208 0.515316 0.424261
O O10 0.500000 0.000000 0.500000
O O11 0.633306 0.879734 0.826807
O O12 0.340114 0.703033 0.698114
O O13 0.284127 0.936544 0.920067
O O14 0.000000 0.500000 0.000000
O O15 0.931630 0.811353 0.824633
O O16 0.500000 0.500000 0.500000
#
# Coordination Sequence:
#
# PCOD8020818 Si02
#       7
#     2   2   2   2   2   2   2
#     4  10  24  45  63 101 136 174 226 278 334 403
#     4  10  23  44  66  99 135 175 225 282 335 397
#     4  11  22  39  66  99 128 174 225 279 334 389
#     4  11  23  40  70  95 130 176 230 276 331 406
#     4  10  25  42  67 103 134 172 233 278 335 400
#     4  12  24  44  73  96 134 184 223 274 345 401
#     4  10  22  43  63  95 140 168 228 279 335 403
#
# _framework density 21.449021999999999
#
# number of rings (size 3 to 8) (size 9 to 14) (size 15 to 20)
#    0.000    1.429    2.857    1.286    4.000    4.571 
#    0.000    0.000    0.000    0.000    0.000    0.000 
#    0.000    0.000    0.000    0.000    0.000    0.000 
#
# Total GULP energy -173577.511542 kJ/mol
# GULP energy per Si atom -12398.393682 kJ/mol
# Density = 2.140020 g / cm^3
# Si number density = 21.449022 Si / 1000 Ang^3
#
#
#
# Elastic Constant Matrix: (Units=GPa)
#
#
# Indices 1 2 3 4 5 6 
#
# 1 154.7567 51.5442 58.8069 -0.7689 -3.1368 4.1369
# 2 51.5442 101.9229 54.7060 -17.4941 -3.9014 -2.9373
# 3 58.8069 54.7060 129.5303 -8.7459 -13.1301 10.9291
# 4 -0.7689 -17.4941 -8.7459 43.2652 0.1311 0.3116
# 5 -3.1368 -3.9014 -13.1301 0.1311 37.2437 -2.1302
# 6 4.1369 -2.9373 10.9291 0.3116 -2.1302 33.1760
#
#
#
# Elastic Compliance Matrix: (Units=1/GPa)
#
#
# Indices 1 2 3 4 5 6 
#
# 1 0.008532 -0.003221 -0.002643 -0.001680 -0.000573 -0.000500
# 2 -0.003221 0.014971 -0.004821 0.004999 -0.000234 0.003253
# 3 -0.002643 -0.004821 0.011615 0.000369 0.003153 -0.003725
# 4 -0.001680 0.004999 0.000369 0.025176 0.000442 0.000322
# 5 -0.000573 -0.000234 0.003153 0.000442 0.027933 0.000801
# 6 -0.000500 0.003253 -0.003725 0.000322 0.000801 0.031768
#
#
# Mechanical properties :
#
#
# Convention : Reuss Voigt Hill
#
# Bulk Modulus (GPa) = 72.73674 79.59155 76.16415
# Shear Modulus (GPa) = 34.25904 37.48048 35.86976
#
# Velocity S-wave (km/s) = 4.00087 4.18475 4.09385
# Velocity P-wave (km/s) = 7.43826 7.78058 7.61134
#
# Compressibility (1/GPa) = 0.01374821
#
# Stress axis : x y z
#
# Youngs Moduli (GPa) = 117.20367 66.79672 86.09681
#
# Poissons Ratio (x) = 0.21516 0.22751
# Poissons Ratio (y) = 0.37753 0.41508
# Poissons Ratio (z) = 0.30972 0.32203
#
# Static dielectric constant tensor:
#      x y z
#    x 4.483550 0.007860 -0.100130 
#    y 0.007860 4.215990 0.027940 
#    z -0.100130 0.027940 4.075420 
# 
# 
# High freq. dielectric constant tensor:
#      x y z
#    x 1.862260 -0.001910 -0.008260 
#    y -0.001910 1.841570 -0.021010 
#    z -0.008260 -0.021010 1.831390 
# 
# From -- ./inp_files/101113.got.cif
#   From: 2010.06.25/outbox.cif.g09.slc.cpg/sg2_51_cif.got.tgz:101113.got - 2010.06.27 13:26:56.
