data_PCOD8020950
_publ_section_title
;
Structure prediction by ZEFSAII (Michael W. Deem and Ramdas Pophale) SiO2 
 PCOD8020950
Probable space group: P -1
;
_chemical_formula_sum "Si O2"
_cell_formula_units_Z 16
_cell_length_a 22.318214
_cell_length_b 15.600649
_cell_length_c 8.055701
_cell_angle_alpha 51.757153
_cell_angle_beta 145.541867
_cell_angle_gamma 150.725168
_cell_volume 723.313067
_symmetry_space_group_name_H-M "P -1"
_symmetry_group_IT_number 2
_symmetry_cell_setting 'triclinic'
loop_
_space_group_symop_operation_xyz
x,y,z
-x,-y,-z
loop_
_atom_site_type_symbol
_atom_site_label
_atom_site_fract_x
_atom_site_fract_y
_atom_site_fract_z
Si Si1 0.101971 0.980683 0.821931
Si Si2 0.545678 0.914250 0.177052
Si Si3 0.253752 0.558466 0.145484
Si Si4 0.022572 0.760445 0.599328
Si Si5 0.829155 0.339460 0.917854
Si Si6 0.058148 0.831737 0.237881
Si Si7 0.496144 0.367411 0.161807
Si Si8 0.372477 0.675961 0.741419
O O1 0.050766 0.840949 0.744848
O O2 0.038931 0.906174 0.958720
O O3 0.000000 0.000000 0.500000
O O4 0.317736 0.182159 0.077583
O O5 0.443629 0.756012 0.267670
O O6 0.759941 0.081455 0.492626
O O7 0.481637 0.818134 0.969964
O O8 0.500000 0.000000 0.000000
O O9 0.146106 0.569375 0.968274
O O10 0.314035 0.513385 0.464398
O O11 0.114378 0.393777 0.891284
O O12 0.821568 0.539660 0.395323
O O13 0.053920 0.866779 0.381387
O O14 0.178316 0.795845 0.895395
O O15 0.651447 0.241229 0.538711
O O16 0.000000 0.500000 0.000000
O O17 0.496551 0.308936 0.052838
O O18 0.500000 0.500000 0.000000
#
# Coordination Sequence:
#
# PCOD8020950 Si02
#       8
#     2   2   2   2   2   2   2   2
#     4  12  26  46  72 104 137 181 244 293 352 429
#     4  12  26  40  66 106 140 190 232 282 351 421
#     4  11  23  44  66 100 143 181 227 293 346 414
#     4  11  23  42  70 101 139 188 229 291 356 414
#     4   9  20  37  68  97 132 187 227 276 354 411
#     4  12  25  44  71 101 145 182 238 288 354 422
#     4  11  23  46  73  98 135 183 235 297 357 416
#     4  10  22  43  66 100 144 179 237 289 349 420
#
# _framework density 22.120433999999999
#
# number of rings (size 3 to 8) (size 9 to 14) (size 15 to 20)
#    0.000    1.000    2.500    5.250    5.250    1.500 
#    0.000    5.000    0.000    0.000    0.000    0.000 
#    0.000    0.000    0.000    0.000    0.000    0.000 
#
# Total GULP energy -198299.939397 kJ/mol
# GULP energy per Si atom -12393.746212 kJ/mol
# Density = 2.207009 g / cm^3
# Si number density = 22.120434 Si / 1000 Ang^3
#
#
#
# Elastic Constant Matrix: (Units=GPa)
#
#
# Indices 1 2 3 4 5 6 
#
# 1 95.9356 31.7048 26.0307 -16.4269 -11.2567 -1.5748
# 2 31.7048 94.6522 40.6384 -7.7662 -3.5756 -2.0524
# 3 26.0307 40.6384 89.0314 -8.4699 2.9885 -5.9470
# 4 -16.4269 -7.7662 -8.4699 42.8095 4.1054 3.5191
# 5 -11.2567 -3.5756 2.9885 4.1054 41.9158 -4.9889
# 6 -1.5748 -2.0524 -5.9470 3.5191 -4.9889 45.7250
#
#
#
# Elastic Compliance Matrix: (Units=1/GPa)
#
#
# Indices 1 2 3 4 5 6 
#
# 1 0.012999 -0.002999 -0.002175 0.003716 0.003035 0.000075
# 2 -0.002999 0.013983 -0.005517 0.000234 0.000742 -0.000130
# 3 -0.002175 -0.005517 0.014650 0.001157 -0.002061 0.001269
# 4 0.003716 0.000234 0.001157 0.025379 -0.001771 -0.001858
# 5 0.003035 0.000742 -0.002061 -0.001771 0.025387 0.002776
# 6 0.000075 -0.000130 0.001269 -0.001858 0.002776 0.022477
#
#
# Mechanical properties :
#
#
# Convention : Reuss Voigt Hill
#
# Bulk Modulus (GPa) = 49.38364 52.92966 51.15665
# Shear Modulus (GPa) = 34.96358 38.17306 36.56832
#
# Velocity S-wave (km/s) = 3.97999 4.15865 4.07030
# Velocity P-wave (km/s) = 6.59498 6.85850 6.72803
#
# Compressibility (1/GPa) = 0.02024962
#
# Stress axis : x y z
#
# Youngs Moduli (GPa) = 76.93144 71.51741 68.25917
#
# Poissons Ratio (x) = 0.21448 0.14846
# Poissons Ratio (y) = 0.23072 0.37658
# Poissons Ratio (z) = 0.16732 0.39455
#
# Static dielectric constant tensor:
#      x y z
#    x 4.243010 0.094420 -0.027620 
#    y 0.094420 4.388200 -0.122620 
#    z -0.027620 -0.122620 4.207740 
# 
# 
# High freq. dielectric constant tensor:
#      x y z
#    x 1.878080 0.014360 -0.001270 
#    y 0.014360 1.862630 0.004840 
#    z -0.001270 0.004840 1.875320 
# 
# From -- ./inp_files/354533.got.cif
#   From: 2010.06.25/outbox.cif.g09.slc.cpg/sg2_178_cif.got.tgz:354533.got - 2010.06.27 13:26:56.
