data_PCOD8020613
_publ_section_title
;
Structure prediction by ZEFSAII (Michael W. Deem and Ramdas Pophale) SiO2 
 PCOD8020613
Probable space group: P -1
;
_chemical_formula_sum "Si O2"
_cell_formula_units_Z 16
_cell_length_a 11.294744
_cell_length_b 9.021074
_cell_length_c 10.544283
_cell_angle_alpha 45.586450
_cell_angle_beta 108.789641
_cell_angle_gamma 99.736270
_cell_volume 724.006135
_symmetry_space_group_name_H-M "P -1"
_symmetry_group_IT_number 2
_symmetry_cell_setting 'triclinic'
loop_
_space_group_symop_operation_xyz
x,y,z
-x,-y,-z
loop_
_atom_site_type_symbol
_atom_site_label
_atom_site_fract_x
_atom_site_fract_y
_atom_site_fract_z
Si Si1 0.934492 0.407679 0.275638
Si Si2 0.226625 0.786794 0.476434
Si Si3 0.162495 0.766435 0.896176
Si Si4 0.055078 0.109789 0.074111
Si Si5 0.602395 0.976007 0.160374
Si Si6 0.363007 0.493499 0.513419
Si Si7 0.206541 0.406395 0.302236
Si Si8 0.395358 0.016322 0.561549
O O1 0.883148 0.355883 0.429466
O O2 0.860258 0.263524 0.242003
O O3 0.080868 0.320791 0.368228
O O4 0.913778 0.655870 0.092452
O O5 0.339320 0.648885 0.528632
O O6 0.177040 0.974956 0.252828
O O7 0.291226 0.863191 0.580004
O O8 0.287508 0.873982 0.910736
O O9 0.045078 0.893026 0.845783
O O10 0.170802 0.529812 0.089424
O O11 0.000000 0.000000 0.000000
O O12 0.661739 0.739910 0.313923
O O13 0.544955 0.030284 0.249440
O O14 0.500000 0.000000 0.000000
O O15 0.500000 0.500000 0.500000
O O16 0.258881 0.564104 0.329128
O O17 0.320603 0.240843 0.408261
O O18 0.500000 0.000000 0.500000
#
# Coordination Sequence:
#
# PCOD8020613 Si02
#       8
#     2   2   2   2   2   2   2   2
#     4  11  24  43  68 107 139 180 229 279 357 415
#     4  12  24  43  72 101 140 179 230 293 339 419
#     4  11  22  44  66 100 138 176 226 283 357 411
#     4  11  26  41  70 108 143 178 224 287 347 421
#     4  11  25  45  69  98 132 184 235 289 349 425
#     4  11  25  46  66  94 136 186 229 280 358 413
#     4  10  22  42  70  93 138 182 218 287 348 419
#     4  11  24  44  69 100 132 187 239 284 348 416
#
# _framework density 22.099260999999998
#
# number of rings (size 3 to 8) (size 9 to 14) (size 15 to 20)
#    0.000    1.000    1.250    6.750    5.250    3.000 
#    2.250    1.250    0.000    0.000    0.000    0.000 
#    0.000    0.000    0.000    0.000    0.000    0.000 
#
# Total GULP energy -198313.678069 kJ/mol
# GULP energy per Si atom -12394.604879 kJ/mol
# Density = 2.204896 g / cm^3
# Si number density = 22.099261 Si / 1000 Ang^3
#
#
#
# Elastic Constant Matrix: (Units=GPa)
#
#
# Indices 1 2 3 4 5 6 
#
# 1 126.2153 33.0051 47.4503 -1.6513 -0.8902 -3.3868
# 2 33.0051 125.3189 41.9982 13.5797 10.1180 1.3963
# 3 47.4503 41.9982 85.8370 12.2702 2.2469 -11.3749
# 4 -1.6513 13.5797 12.2702 37.6191 9.5044 5.7775
# 5 -0.8902 10.1180 2.2469 9.5044 33.5432 5.9083
# 6 -3.3868 1.3963 -11.3749 5.7775 5.9083 43.5530
#
#
#
# Elastic Compliance Matrix: (Units=1/GPa)
#
#
# Indices 1 2 3 4 5 6 
#
# 1 0.010389 -0.001136 -0.005742 0.002804 0.000399 -0.001081
# 2 -0.001136 0.010018 -0.004114 -0.001633 -0.002142 -0.000977
# 3 -0.005742 -0.004114 0.018315 -0.005673 0.000563 0.005145
# 4 0.002804 -0.001633 -0.005673 0.031655 -0.007242 -0.004428
# 5 0.000399 -0.002142 0.000563 -0.007242 0.033061 -0.003277
# 6 -0.001081 -0.000977 0.005145 -0.004428 -0.003277 0.025284
#
#
# Mechanical properties :
#
#
# Convention : Reuss Voigt Hill
#
# Bulk Modulus (GPa) = 59.73976 64.69761 62.21869
# Shear Modulus (GPa) = 31.99300 37.27088 34.63194
#
# Velocity S-wave (km/s) = 3.80899 4.11118 3.96297
# Velocity P-wave (km/s) = 6.81437 7.20245 7.01109
#
# Compressibility (1/GPa) = 0.01673927
#
# Stress axis : x y z
#
# Youngs Moduli (GPa) = 96.25432 99.81825 54.60049
#
# Poissons Ratio (x) = 0.11338 0.31351
# Poissons Ratio (y) = 0.10934 0.22461
# Poissons Ratio (z) = 0.55268 0.41062
#
# Static dielectric constant tensor:
#      x y z
#    x 3.934480 0.075510 -0.017460 
#    y 0.075510 4.509760 0.355940 
#    z -0.017460 0.355940 4.161480 
# 
# 
# High freq. dielectric constant tensor:
#      x y z
#    x 1.872070 0.007430 -0.003040 
#    y 0.007430 1.884820 0.009610 
#    z -0.003040 0.009610 1.867140 
# 
# From -- ./inp_files/225648.got.cif
#   From: 2010.06.25/outbox.cif.g09.slc.cpg/sg2_113_cif.got.tgz:225648.got - 2010.06.27 13:26:56.
