data_PCOD8020416
_publ_section_title
;
Structure prediction by ZEFSAII (Michael W. Deem and Ramdas Pophale) SiO2 
 PCOD8020416
Probable space group: P -1
;
_chemical_formula_sum "Si O2"
_cell_formula_units_Z 16
_cell_length_a 8.115813
_cell_length_b 7.207707
_cell_length_c 20.686567
_cell_angle_alpha 135.955275
_cell_angle_beta 60.379236
_cell_angle_gamma 105.116081
_cell_volume 722.341813
_symmetry_space_group_name_H-M "P -1"
_symmetry_group_IT_number 2
_symmetry_cell_setting 'triclinic'
loop_
_space_group_symop_operation_xyz
x,y,z
-x,-y,-z
loop_
_atom_site_type_symbol
_atom_site_label
_atom_site_fract_x
_atom_site_fract_y
_atom_site_fract_z
Si Si1 0.759720 0.584581 0.521665
Si Si2 0.837882 0.596174 0.651116
Si Si3 0.142289 0.956755 0.901825
Si Si4 0.487776 0.311322 0.059312
Si Si5 0.969789 0.015713 0.206804
Si Si6 0.227316 0.508899 0.049284
Si Si7 0.534620 0.522857 0.242381
Si Si8 0.618122 0.098609 0.377475
O O1 0.759707 0.705157 0.623651
O O2 0.712425 0.274002 0.457296
O O3 0.599782 0.769698 0.558287
O O4 0.960963 0.601827 0.450572
O O5 0.874276 0.845653 0.750243
O O6 0.679954 0.451855 0.681318
O O7 0.323201 0.727620 0.819239
O O8 0.014852 0.907365 0.852089
O O9 0.224187 0.233025 0.942067
O O10 0.000000 0.000000 0.000000
O O11 0.288098 0.438017 0.094501
O O12 0.523706 0.495384 0.159800
O O13 0.640235 0.318501 0.973981
O O14 0.500000 0.000000 0.000000
O O15 0.749245 0.118873 0.294021
O O16 0.018723 0.696325 0.135326
O O17 0.619393 0.786542 0.316330
#
# Coordination Sequence:
#
# PCOD8020416 Si02
#       8
#     2   2   2   2   2   2   2   2
#     4   9  21  46  67  90 128 168 213 272 356 395
#     4  10  23  40  67  96 124 164 215 281 329 399
#     4  12  25  41  63  94 142 183 221 269 324 390
#     4  11  23  42  64  98 134 175 226 274 328 376
#     4  11  23  41  65  97 127 179 228 258 326 395
#     4  11  24  40  67  92 137 185 215 275 323 378
#     4  12  24  39  66  99 131 171 224 277 320 397
#     4  10  22  42  68  92 127 170 217 274 334 411
#
# _framework density 22.150179000000001
#
# number of rings (size 3 to 8) (size 9 to 14) (size 15 to 20)
#    0.000    1.250    1.250    4.125    5.250    1.000 
#    0.000    0.000    0.000    0.000    0.000    0.000 
#    0.000    0.000    0.000    0.000    0.000    0.000 
#
# Total GULP energy -198346.275431 kJ/mol
# GULP energy per Si atom -12396.642214 kJ/mol
# Density = 2.209976 g / cm^3
# Si number density = 22.150179 Si / 1000 Ang^3
#
#
#
# Elastic Constant Matrix: (Units=GPa)
#
#
# Indices 1 2 3 4 5 6 
#
# 1 120.3249 47.8333 54.3337 -6.8010 7.2731 -13.5919
# 2 47.8333 111.3966 49.3521 -0.8525 5.2135 -0.8910
# 3 54.3337 49.3521 100.4869 1.2386 9.5072 -6.9017
# 4 -6.8010 -0.8525 1.2386 25.9161 2.1231 6.7970
# 5 7.2731 5.2135 9.5072 2.1231 44.2519 -4.0929
# 6 -13.5919 -0.8910 -6.9017 6.7970 -4.0929 43.5785
#
#
#
# Elastic Compliance Matrix: (Units=1/GPa)
#
#
# Indices 1 2 3 4 5 6 
#
# 1 0.012194 -0.002981 -0.004945 0.002726 -0.000491 0.002488
# 2 -0.002981 0.012243 -0.004490 0.000223 -0.000131 -0.001438
# 3 -0.004945 -0.004490 0.015085 -0.002276 -0.001702 0.000950
# 4 0.002726 0.000223 -0.002276 0.041245 -0.002535 -0.006177
# 5 -0.000491 -0.000131 -0.001702 -0.002535 0.023382 0.002166
# 6 0.002488 -0.001438 0.000950 -0.006177 0.002166 0.025011
#
#
# Mechanical properties :
#
#
# Convention : Reuss Voigt Hill
#
# Bulk Modulus (GPa) = 68.08027 70.58298 69.33162
# Shear Modulus (GPa) = 31.46866 34.79525 33.13195
#
# Velocity S-wave (km/s) = 3.77330 3.96773 3.87174
# Velocity P-wave (km/s) = 7.05594 7.27498 7.16629
#
# Compressibility (1/GPa) = 0.01468854
#
# Stress axis : x y z
#
# Youngs Moduli (GPa) = 82.00819 81.68232 66.29152
#
# Poissons Ratio (x) = 0.24352 0.32783
# Poissons Ratio (y) = 0.24449 0.29763
# Poissons Ratio (z) = 0.40556 0.36673
#
# Static dielectric constant tensor:
#      x y z
#    x 4.265750 0.062090 0.108070 
#    y 0.062090 3.763790 0.040540 
#    z 0.108070 0.040540 4.180190 
# 
# 
# High freq. dielectric constant tensor:
#      x y z
#    x 1.887750 0.005240 -0.001120 
#    y 0.005240 1.850810 -0.002900 
#    z -0.001120 -0.002900 1.879580 
# 
# From -- ./inp_files/585910.got.cif
#   From: 2010.06.25/outbox.cif.g09.slc.cpg/sg2_293_cif.got.tgz:585910.got - 2010.06.27 13:26:56.
