data_PCOD8020438
_publ_section_title
;
Structure prediction by ZEFSAII (Michael W. Deem and Ramdas Pophale) SiO2 
 PCOD8020438
Probable space group: P -1
;
_chemical_formula_sum "Si O2"
_cell_formula_units_Z 16
_cell_length_a 22.134651
_cell_length_b 9.540539
_cell_length_c 24.543164
_cell_angle_alpha 150.940262
_cell_angle_beta 19.205785
_cell_angle_gamma 152.488809
_cell_volume 764.441874
_symmetry_space_group_name_H-M "P -1"
_symmetry_group_IT_number 2
_symmetry_cell_setting 'triclinic'
loop_
_space_group_symop_operation_xyz
x,y,z
-x,-y,-z
loop_
_atom_site_type_symbol
_atom_site_label
_atom_site_fract_x
_atom_site_fract_y
_atom_site_fract_z
Si Si1 0.972843 0.365941 0.306763
Si Si2 0.322243 0.043532 0.503886
Si Si3 0.258274 0.573251 0.686986
Si Si4 0.398537 0.061094 0.053271
Si Si5 0.932763 0.729193 0.361115
Si Si6 0.518306 0.254425 0.823537
Si Si7 0.106222 0.836569 0.998383
Si Si8 0.308086 0.856869 0.255383
O O1 0.913166 0.538652 0.367931
O O2 0.180857 0.591206 0.231303
O O3 0.805782 0.277993 0.465888
O O4 0.967877 0.033070 0.176804
O O5 0.194057 0.248881 0.665959
O O6 0.502794 0.257186 0.461144
O O7 0.390105 0.951518 0.358269
O O8 0.180607 0.513714 0.671613
O O9 0.174067 0.802809 0.867596
O O10 0.450963 0.427441 0.125418
O O11 0.493398 0.937269 0.879037
O O12 0.160314 0.897178 0.204878
O O13 0.500000 0.000000 0.000000
O O14 0.821273 0.961899 0.548035
O O15 0.622604 0.316321 0.814663
O O16 0.286169 0.038424 0.953308
O O17 0.000000 0.500000 0.000000
#
# Coordination Sequence:
#
# PCOD8020438 Si02
#       8
#     2   2   2   2   2   2   2   2
#     4  12  25  43  68 101 137 181 227 277 349 405
#     4  10  22  42  68  94 134 176 227 287 329 400
#     4  10  23  44  65  97 133 175 232 279 338 398
#     4  12  26  45  68 102 145 179 220 286 343 406
#     4  12  27  46  69 104 139 183 228 280 345 411
#     4  11  24  43  68 100 135 177 229 281 342 408
#     4  11  23  41  68  95 135 176 226 285 332 401
#     4  12  26  44  71 103 139 178 230 280 342 412
#
# _framework density 20.930304
#
# number of rings (size 3 to 8) (size 9 to 14) (size 15 to 20)
#    0.000    0.750    5.000    1.500    5.250    2.000 
#    0.000    0.000    0.000    0.000    0.000    0.000 
#    0.000    0.000    0.000    0.000    0.000    0.000 
#
# Total GULP energy -198371.684006 kJ/mol
# GULP energy per Si atom -12398.230250 kJ/mol
# Density = 2.088267 g / cm^3
# Si number density = 20.930304 Si / 1000 Ang^3
#
#
#
# Elastic Constant Matrix: (Units=GPa)
#
#
# Indices 1 2 3 4 5 6 
#
# 1 137.2202 30.5279 20.3845 4.6860 -13.8653 -3.7542
# 2 30.5279 52.9367 4.1196 0.0196 -14.9179 -20.5078
# 3 20.3845 4.1196 96.0842 -0.3602 -1.0343 -3.8672
# 4 4.6860 0.0196 -0.3602 37.3059 -5.2227 5.9012
# 5 -13.8653 -14.9179 -1.0343 -5.2227 25.8185 3.8307
# 6 -3.7542 -20.5078 -3.8672 5.9012 3.8307 33.2969
#
#
#
# Elastic Compliance Matrix: (Units=1/GPa)
#
#
# Indices 1 2 3 4 5 6 
#
# 1 0.008906 -0.005551 -0.001744 -0.000442 0.001824 -0.002749
# 2 -0.005551 0.032825 0.000644 -0.000339 0.013242 0.018203
# 3 -0.001744 0.000644 0.010806 0.000040 -0.000344 0.001488
# 4 -0.000442 -0.000339 0.000040 0.028699 0.006273 -0.006062
# 5 0.001824 0.013242 -0.000344 0.006273 0.048373 0.001644
# 6 -0.002749 0.018203 0.001488 -0.006062 0.001644 0.041992
#
#
# Mechanical properties :
#
#
# Convention : Reuss Voigt Hill
#
# Bulk Modulus (GPa) = 25.48710 44.03390 34.76050
# Shear Modulus (GPa) = 25.25493 34.69819 29.97656
#
# Velocity S-wave (km/s) = 3.47741 4.07602 3.78856
# Velocity P-wave (km/s) = 5.32229 6.57541 5.98175
#
# Compressibility (1/GPa) = 0.03923554
#
# Stress axis : x y z
#
# Youngs Moduli (GPa) = 112.28709 30.46466 92.53907
#
# Poissons Ratio (x) = 0.16910 0.16139
# Poissons Ratio (y) = 0.62328 -0.05961
# Poissons Ratio (z) = 0.19583 -0.01962
#
# Static dielectric constant tensor:
#      x y z
#    x 3.762520 0.036060 0.075110 
#    y 0.036060 3.805550 -0.079130 
#    z 0.075110 -0.079130 4.111450 
# 
# 
# High freq. dielectric constant tensor:
#      x y z
#    x 1.816430 -0.000400 0.006240 
#    y -0.000400 1.814450 -0.000750 
#    z 0.006240 -0.000750 1.840540 
# 
# From -- ./inp_files/187819.got.cif
#   From: 2010.06.25/outbox.cif.g09.slc.cpg/sg2_94_cif.got.tgz:187819.got - 2010.06.27 13:26:56.
