data_PCOD8020581
_publ_section_title
;
Structure prediction by ZEFSAII (Michael W. Deem and Ramdas Pophale) SiO2 
 PCOD8020581
Probable space group: P -1
;
_chemical_formula_sum "Si O2"
_cell_formula_units_Z 14
_cell_length_a 8.346687
_cell_length_b 11.428946
_cell_length_c 12.261063
_cell_angle_alpha 60.047365
_cell_angle_beta 43.625160
_cell_angle_gamma 52.090759
_cell_volume 633.485779
_symmetry_space_group_name_H-M "P -1"
_symmetry_group_IT_number 2
_symmetry_cell_setting 'triclinic'
loop_
_space_group_symop_operation_xyz
x,y,z
-x,-y,-z
loop_
_atom_site_type_symbol
_atom_site_label
_atom_site_fract_x
_atom_site_fract_y
_atom_site_fract_z
Si Si1 0.126766 0.609246 0.416547
Si Si2 0.993028 0.563107 0.856175
Si Si3 0.368241 0.264640 0.747211
Si Si4 0.551941 0.260410 0.903296
Si Si5 0.583675 0.847509 0.597384
Si Si6 0.277658 0.978056 0.900380
Si Si7 0.571167 0.340173 0.406884
O O1 0.256964 0.656775 0.227547
O O2 0.358534 0.515766 0.431119
O O3 0.000000 0.500000 0.500000
O O4 0.893721 0.762043 0.502217
O O5 0.123536 0.423563 0.775610
O O6 0.144769 0.667541 0.734571
O O7 0.000000 0.500000 0.000000
O O8 0.693243 0.654689 0.936606
O O9 0.496735 0.248193 0.809082
O O10 0.273942 0.138208 0.835460
O O11 0.566598 0.253033 0.559476
O O12 0.671850 0.096404 0.970517
O O13 0.477466 0.741958 0.635920
O O14 0.500000 0.000000 0.500000
O O15 0.471765 0.878003 0.759358
O O16 0.000000 0.000000 0.000000
#
# Coordination Sequence:
#
# PCOD8020581 Si02
#       7
#     2   2   2   2   2   2   2
#     4  10  23  42  71  99 138 182 229 283 338 411
#     4  10  22  42  70 101 137 173 229 286 344 395
#     4  11  24  44  71 101 140 183 225 283 344 412
#     4  11  25  46  69 107 138 178 231 286 349 401
#     4  11  24  46  68 100 140 182 237 275 347 411
#     4  12  28  46  69 102 142 186 226 286 346 412
#     4  11  22  44  72 103 134 184 230 287 339 413
#
# _framework density 22.099945000000002
#
# number of rings (size 3 to 8) (size 9 to 14) (size 15 to 20)
#    0.000    1.143    4.286    1.714    8.000    0.000 
#    2.571    5.000    0.000    0.000    0.000    0.000 
#    0.000    0.000    0.000    0.000    0.000    0.000 
#
# Total GULP energy -173501.691896 kJ/mol
# GULP energy per Si atom -12392.977993 kJ/mol
# Density = 2.204964 g / cm^3
# Si number density = 22.099945 Si / 1000 Ang^3
#
#
#
# Elastic Constant Matrix: (Units=GPa)
#
#
# Indices 1 2 3 4 5 6 
#
# 1 64.8443 35.6435 48.7815 -3.3686 -12.7774 8.1759
# 2 35.6435 91.4674 28.6438 -16.4603 -21.2380 11.0951
# 3 48.7815 28.6438 126.2263 -27.6364 -31.8901 12.9948
# 4 -3.3686 -16.4603 -27.6364 40.7955 -2.6039 -4.1067
# 5 -12.7774 -21.2380 -31.8901 -2.6039 48.3161 -0.2499
# 6 8.1759 11.0951 12.9948 -4.1067 -0.2499 38.1784
#
#
#
# Elastic Compliance Matrix: (Units=1/GPa)
#
#
# Indices 1 2 3 4 5 6 
#
# 1 0.029160 -0.010736 -0.012747 -0.010943 -0.006011 -0.000002
# 2 -0.010736 0.017791 0.004776 0.009737 0.008641 -0.003393
# 3 -0.012747 0.004776 0.017856 0.013362 0.011218 -0.003225
# 4 -0.010943 0.009737 0.013362 0.037274 0.012210 -0.000945
# 5 -0.006011 0.008641 0.011218 0.012210 0.030949 -0.003526
# 6 -0.000002 -0.003393 -0.003225 -0.000945 -0.003526 0.028152
#
#
# Mechanical properties :
#
#
# Convention : Reuss Voigt Hill
#
# Bulk Modulus (GPa) = 36.50589 56.51950 46.51270
# Shear Modulus (GPa) = 24.06990 36.75595 30.41292
#
# Velocity S-wave (km/s) = 3.30379 4.08262 3.71368
# Velocity P-wave (km/s) = 5.57743 6.91764 6.28337
#
# Compressibility (1/GPa) = 0.02739284
#
# Stress axis : x y z
#
# Youngs Moduli (GPa) = 34.29378 56.20814 56.00212
#
# Poissons Ratio (x) = 0.60345 0.71387
# Poissons Ratio (y) = 0.36818 -0.26747
# Poissons Ratio (z) = 0.43715 -0.26845
#
# Static dielectric constant tensor:
#      x y z
#    x 4.024630 -0.376160 -0.477960 
#    y -0.376160 1.970410 0.207350 
#    z -0.477960 0.207350 4.777160 
# 
# 
# High freq. dielectric constant tensor:
#      x y z
#    x 1.853750 -0.006360 -0.011710 
#    y -0.006360 1.874260 -0.013620 
#    z -0.011710 -0.013620 1.890440 
# 
# From -- ./inp_files/183835.got.cif
#   From: 2010.06.25/outbox.cif.g09.slc.cpg/sg2_92_cif.got.tgz:183835.got - 2010.06.27 13:26:56.
