data_PCOD8020411
_publ_section_title
;
Structure prediction by ZEFSAII (Michael W. Deem and Ramdas Pophale) SiO2 
 PCOD8020411
Probable space group: P -1
;
_chemical_formula_sum "Si O2"
_cell_formula_units_Z 12
_cell_length_a 24.807814
_cell_length_b 16.244291
_cell_length_c 15.205383
_cell_angle_alpha 154.706830
_cell_angle_beta 14.058210
_cell_angle_gamma 160.715953
_cell_volume 486.487866
_symmetry_space_group_name_H-M "P -1"
_symmetry_group_IT_number 2
_symmetry_cell_setting 'triclinic'
loop_
_space_group_symop_operation_xyz
x,y,z
-x,-y,-z
loop_
_atom_site_type_symbol
_atom_site_label
_atom_site_fract_x
_atom_site_fract_y
_atom_site_fract_z
Si Si1 0.926614 0.848644 0.694424
Si Si2 0.550205 0.778410 0.893895
Si Si3 0.457743 0.973779 0.692447
Si Si4 0.663950 0.767613 0.291276
Si Si5 0.688016 0.036034 0.657425
Si Si6 0.708182 0.331056 0.494014
O O1 0.914205 0.629664 0.458069
O O2 0.004652 0.862420 0.688685
O O3 0.629590 0.795228 0.104522
O O4 0.182166 0.098896 0.478353
O O5 0.408460 0.494075 0.863733
O O6 0.663056 0.937817 0.960993
O O7 0.294827 0.772650 0.252408
O O8 0.722672 0.221177 0.456952
O O9 0.555283 0.829389 0.441281
O O10 0.214704 0.766832 0.805148
O O11 0.528014 0.771669 0.602676
O O12 0.000000 0.000000 0.000000
O O13 0.500000 0.000000 0.000000
#
# Coordination Sequence:
#
# PCOD8020411 Si02
#       6
#     2   2   2   2   2   2
#     4  10  22  42  68  91 129 168 209 259 313 378
#     4  10  24  43  65  96 128 164 208 268 317 365
#     4  10  24  44  62  96 124 169 214 257 316 370
#     4  11  24  40  66  96 127 165 210 263 317 373
#     4   9  21  42  64  96 123 163 205 265 314 367
#     4  10  23  43  65  93 125 173 212 254 311 377
#
# _framework density 24.666595999999998
#
# number of rings (size 3 to 8) (size 9 to 14) (size 15 to 20)
#    0.000    2.000    0.000    1.000    9.333    5.333 
#   18.000    0.000    0.000    0.000    0.000    0.000 
#    0.000    0.000    0.000    0.000    0.000    0.000 
#
# Total GULP energy -148669.659587 kJ/mol
# GULP energy per Si atom -12389.138299 kJ/mol
# Density = 2.461045 g / cm^3
# Si number density = 24.666596 Si / 1000 Ang^3
#
#
#
# Elastic Constant Matrix: (Units=GPa)
#
#
# Indices 1 2 3 4 5 6 
#
# 1 145.0655 47.8777 22.9098 19.2230 11.2099 -0.2455
# 2 47.8777 159.0612 13.6592 28.9038 -0.0461 -3.5624
# 3 22.9098 13.6592 39.0780 13.7064 4.8905 -0.0110
# 4 19.2230 28.9038 13.7064 37.5126 5.7782 4.9162
# 5 11.2099 -0.0461 4.8905 5.7782 24.6308 6.2339
# 6 -0.2455 -3.5624 -0.0110 4.9162 6.2339 34.7255
#
#
#
# Elastic Compliance Matrix: (Units=1/GPa)
#
#
# Indices 1 2 3 4 5 6 
#
# 1 0.008506 -0.002048 -0.003501 -0.001103 -0.003062 0.000555
# 2 -0.002048 0.007932 0.000144 -0.005572 0.001910 0.001245
# 3 -0.003501 0.000144 0.031302 -0.009559 -0.002851 0.001865
# 4 -0.001103 -0.005572 -0.009559 0.036403 -0.004922 -0.004853
# 5 -0.003062 0.001910 -0.002851 -0.004922 0.045567 -0.007310
# 6 0.000555 0.001245 0.001865 -0.004853 -0.007310 0.030929
#
#
# Mechanical properties :
#
#
# Convention : Reuss Voigt Hill
#
# Bulk Modulus (GPa) = 27.07792 56.89978 41.98885
# Shear Modulus (GPa) = 27.20960 36.62433 31.91696
#
# Velocity S-wave (km/s) = 3.32489 3.85746 3.60103
# Velocity P-wave (km/s) = 5.07358 6.55420 5.86084
#
# Compressibility (1/GPa) = 0.03693046
#
# Stress axis : x y z
#
# Youngs Moduli (GPa) = 117.56703 126.07319 31.94676
#
# Poissons Ratio (x) = 0.25816 0.11183
# Poissons Ratio (y) = 0.24074 -0.00459
# Poissons Ratio (z) = 0.41156 -0.01811
#
# Static dielectric constant tensor:
#      x y z
#    x 6.408370 1.124980 0.514740 
#    y 1.124980 5.501960 1.101840 
#    z 0.514740 1.101840 4.855140 
# 
# 
# High freq. dielectric constant tensor:
#      x y z
#    x 2.010580 -0.000010 0.012390 
#    y -0.000010 1.971940 0.033860 
#    z 0.012390 0.033860 1.964030 
# 
# From -- ./inp_files/543046.got.cif
#   From: 2010.06.25/outbox.cif.g09.slc.cpg/sg2_272_cif.got.tgz:543046.got - 2010.06.27 13:26:56.
