data_PCOD8020864
_publ_section_title
;
Structure prediction by ZEFSAII (Michael W. Deem and Ramdas Pophale) SiO2 
 PCOD8020864
Probable space group: P -1
;
_chemical_formula_sum "Si O2"
_cell_formula_units_Z 14
_cell_length_a 19.338373
_cell_length_b 6.724496
_cell_length_c 14.709765
_cell_angle_alpha 71.554406
_cell_angle_beta 19.866047
_cell_angle_gamma 74.241917
_cell_volume 614.631192
_symmetry_space_group_name_H-M "P -1"
_symmetry_group_IT_number 2
_symmetry_cell_setting 'triclinic'
loop_
_space_group_symop_operation_xyz
x,y,z
-x,-y,-z
loop_
_atom_site_type_symbol
_atom_site_label
_atom_site_fract_x
_atom_site_fract_y
_atom_site_fract_z
Si Si1 0.304101 0.338387 0.453460
Si Si2 0.800636 0.892824 0.212610
Si Si3 0.860870 0.255126 0.968655
Si Si4 0.407016 0.857865 0.005614
Si Si5 0.295583 0.366717 0.799012
Si Si6 0.256459 0.795562 0.393220
Si Si7 0.826000 0.994197 0.886711
O O1 0.350875 0.232371 0.509477
O O2 0.492685 0.311094 0.157354
O O3 0.266430 0.584861 0.471232
O O4 0.098261 0.210330 0.691876
O O5 0.834671 0.719208 0.116328
O O6 0.716137 0.091950 0.234727
O O7 0.000000 0.000000 0.000000
O O8 0.816785 0.212790 0.922718
O O9 0.838863 0.490990 0.992583
O O10 0.574296 0.039514 0.799769
O O11 0.307403 0.740785 0.233376
O O12 0.227088 0.961773 0.157989
O O13 0.500000 0.500000 0.500000
O O14 0.342993 0.173107 0.834072
O O15 0.040738 0.894145 0.647893
#
# Coordination Sequence:
#
# PCOD8020864 Si02
#       7
#     2   2   2   2   2   2   2
#     4  11  22  42  69  95 134 172 222 275 337 400
#     4   9  23  39  64  96 130 177 221 265 334 402
#     4  10  22  43  64  96 138 176 217 274 336 403
#     4  11  26  42  71  99 130 175 230 283 339 397
#     4  11  25  40  65 102 138 178 228 274 330 420
#     4  11  24  47  67  99 131 174 231 284 334 402
#     4  11  24  45  69  96 140 177 218 282 346 394
#
# _framework density 22.777888000000001
#
# number of rings (size 3 to 8) (size 9 to 14) (size 15 to 20)
#    0.000    1.429    2.857    0.857    6.000    3.429 
#    0.000    0.714    0.000    0.000    0.000    0.000 
#    0.000    0.000    0.000    0.000    0.000    0.000 
#
# Total GULP energy -173449.038586 kJ/mol
# GULP energy per Si atom -12389.217042 kJ/mol
# Density = 2.272604 g / cm^3
# Si number density = 22.777888 Si / 1000 Ang^3
#
#
#
# Elastic Constant Matrix: (Units=GPa)
#
#
# Indices 1 2 3 4 5 6 
#
# 1 94.1502 36.6596 10.8144 -0.7947 6.2092 0.4974
# 2 36.6596 106.8666 17.1747 4.1715 2.1613 13.7388
# 3 10.8144 17.1747 49.6549 -0.0664 8.0608 13.3009
# 4 -0.7947 4.1715 -0.0664 36.1589 0.2824 8.0465
# 5 6.2092 2.1613 8.0608 0.2824 28.9339 -1.9428
# 6 0.4974 13.7388 13.3009 8.0465 -1.9428 29.3847
#
#
#
# Elastic Compliance Matrix: (Units=1/GPa)
#
#
# Indices 1 2 3 4 5 6 
#
# 1 0.012602 -0.004345 -0.001579 0.000268 -0.001785 0.002341
# 2 -0.004345 0.011742 -0.002002 -0.000487 0.000325 -0.004355
# 3 -0.001579 -0.002002 0.025585 0.002954 -0.007469 -0.011921
# 4 0.000268 -0.000487 0.002954 0.029829 -0.001767 -0.009399
# 5 -0.001785 0.000325 -0.007469 -0.001767 0.037436 0.006218
# 6 0.002341 -0.004355 -0.011921 -0.009399 0.006218 0.044409
#
#
# Mechanical properties :
#
#
# Convention : Reuss Voigt Hill
#
# Bulk Modulus (GPa) = 29.34425 42.21880 35.78153
# Shear Modulus (GPa) = 26.48133 31.29702 28.88917
#
# Velocity S-wave (km/s) = 3.41338 3.71078 3.56518
# Velocity P-wave (km/s) = 5.33344 6.07743 5.71755
#
# Compressibility (1/GPa) = 0.03407822
#
# Stress axis : x y z
#
# Youngs Moduli (GPa) = 79.35253 85.16491 39.08547
#
# Poissons Ratio (x) = 0.37001 0.06171
# Poissons Ratio (y) = 0.34476 0.07825
# Poissons Ratio (z) = 0.12528 0.17049
#
# Static dielectric constant tensor:
#      x y z
#    x 4.241070 0.025780 0.301830 
#    y 0.025780 4.105100 -0.101370 
#    z 0.301830 -0.101370 4.099240 
# 
# 
# High freq. dielectric constant tensor:
#      x y z
#    x 1.898990 0.008200 0.010950 
#    y 0.008200 1.900000 -0.007070 
#    z 0.010950 -0.007070 1.892680 
# 
# From -- ./inp_files/119469.got.cif
#   From: 2010.06.25/outbox.cif.g09.slc.cpg/sg2_60_cif.got.tgz:119469.got - 2010.06.27 13:26:56.
