data_PCOD8020609
_publ_section_title
;
Structure prediction by ZEFSAII (Michael W. Deem and Ramdas Pophale) SiO2 
 PCOD8020609
Probable space group: P -1
;
_chemical_formula_sum "Si O2"
_cell_formula_units_Z 16
_cell_length_a 11.296262
_cell_length_b 18.809190
_cell_length_c 6.733125
_cell_angle_alpha 121.965027
_cell_angle_beta 127.076527
_cell_angle_gamma 33.225247
_cell_volume 624.371745
_symmetry_space_group_name_H-M "P -1"
_symmetry_group_IT_number 2
_symmetry_cell_setting 'triclinic'
loop_
_space_group_symop_operation_xyz
x,y,z
-x,-y,-z
loop_
_atom_site_type_symbol
_atom_site_label
_atom_site_fract_x
_atom_site_fract_y
_atom_site_fract_z
Si Si1 0.717260 0.569481 0.419762
Si Si2 0.990105 0.598819 0.882244
Si Si3 0.877418 0.106519 0.237463
Si Si4 0.630698 0.884453 0.804582
Si Si5 0.027641 0.786301 0.805269
Si Si6 0.763975 0.408930 0.594457
Si Si7 0.721743 0.292692 0.667150
Si Si8 0.640742 0.143651 0.695424
O O1 0.906438 0.538800 0.691153
O O2 0.566828 0.574412 0.427068
O O3 0.533816 0.711348 0.345980
O O4 0.836782 0.459467 0.214141
O O5 0.779542 0.754149 0.888410
O O6 0.135084 0.546163 0.155998
O O7 0.980950 0.137181 0.252761
O O8 0.765200 0.185071 0.444779
O O9 0.104428 0.953185 0.288982
O O10 0.680969 0.139159 0.967680
O O11 0.452153 0.909336 0.524684
O O12 0.783339 0.874408 0.793132
O O13 0.500000 0.000000 0.000000
O O14 0.124411 0.660595 0.608741
O O15 0.212224 0.736855 0.080737
O O16 0.500000 0.500000 0.500000
O O17 0.865032 0.301299 0.708972
#
# Coordination Sequence:
#
# PCOD8020609 Si02
#       8
#     2   2   2   2   2   2   2   2
#     4  10  22  42  70  91 133 181 212 272 328 386
#     4  10  23  44  65  98 132 170 226 264 325 400
#     4  10  23  42  65 101 131 167 225 275 315 398
#     4  11  24  44  69  95 134 176 215 271 335 388
#     4  11  23  42  67  98 134 171 216 276 324 389
#     4  11  25  40  68 101 131 171 221 267 325 395
#     4  11  22  41  68  97 132 172 219 268 333 383
#     4  10  22  43  63  97 133 171 220 271 322 387
#
# _framework density 25.625758999999999
#
# number of rings (size 3 to 8) (size 9 to 14) (size 15 to 20)
#    0.000    1.500    2.500    1.500    5.250    3.000 
#    9.000    0.625    0.000    0.000    0.000    0.000 
#    0.000    0.000    0.000    0.000    0.000    0.000 
#
# Total GULP energy -198305.821104 kJ/mol
# GULP energy per Si atom -12394.113819 kJ/mol
# Density = 2.556743 g / cm^3
# Si number density = 25.625759 Si / 1000 Ang^3
#
#
#
# Elastic Constant Matrix: (Units=GPa)
#
#
# Indices 1 2 3 4 5 6 
#
# 1 88.2223 13.4024 46.1422 3.9818 -10.8332 -25.7545
# 2 13.4024 117.5665 68.3470 24.9338 -4.6013 -22.8215
# 3 46.1422 68.3470 227.8662 19.7369 26.2264 -27.1044
# 4 3.9818 24.9338 19.7369 55.2962 -11.4357 -1.0709
# 5 -10.8332 -4.6013 26.2264 -11.4357 37.9846 -2.5492
# 6 -25.7545 -22.8215 -27.1044 -1.0709 -2.5492 36.6149
#
#
#
# Elastic Compliance Matrix: (Units=1/GPa)
#
#
# Indices 1 2 3 4 5 6 
#
# 1 0.017639 0.002848 -0.004208 0.001121 0.009407 0.011755
# 2 0.002848 0.012685 -0.003692 -0.003571 0.004317 0.007372
# 3 -0.004208 -0.003692 0.007342 -0.002192 -0.007403 -0.000406
# 4 0.001121 -0.003571 -0.002192 0.021993 0.007896 -0.001867
# 5 0.009407 0.004317 -0.007403 0.007896 0.037469 0.006667
# 6 0.011755 0.007372 -0.000406 -0.001867 0.006667 0.040284
#
#
# Mechanical properties :
#
#
# Convention : Reuss Voigt Hill
#
# Bulk Modulus (GPa) = 36.28200 76.60424 56.44312
# Shear Modulus (GPa) = 31.90739 46.36337 39.13538
#
# Velocity S-wave (km/s) = 3.53247 4.25814 3.91217
# Velocity P-wave (km/s) = 5.55220 7.35758 6.51770
#
# Compressibility (1/GPa) = 0.02756188
#
# Stress axis : x y z
#
# Youngs Moduli (GPa) = 56.69165 78.83260 136.20953
#
# Poissons Ratio (x) = -0.22448 0.57311
# Poissons Ratio (y) = -0.16143 0.50290
# Poissons Ratio (z) = 0.23853 0.29106
#
# Static dielectric constant tensor:
#      x y z
#    x 5.185910 0.201760 -0.087490 
#    y 0.201760 4.899110 -0.121690 
#    z -0.087490 -0.121690 5.075830 
# 
# 
# High freq. dielectric constant tensor:
#      x y z
#    x 2.019320 0.004110 0.009920 
#    y 0.004110 2.035210 -0.002060 
#    z 0.009920 -0.002060 2.043060 
# 
# From -- ./inp_files/84556.got.cif
#   From: 2010.06.25/outbox.cif.g09.slc.cpg/sg2_43_cif.got.tgz:84556.got - 2010.06.27 13:26:56.
