data_PCOD8020204
_publ_section_title
;
Structure prediction by ZEFSAII (Michael W. Deem and Ramdas Pophale) SiO2 
 PCOD8020204
Probable space group: P -1
;
_chemical_formula_sum "Si O2"
_cell_formula_units_Z 14
_cell_length_a 11.707284
_cell_length_b 13.264574
_cell_length_c 13.137241
_cell_angle_alpha 112.185114
_cell_angle_beta 150.356150
_cell_angle_gamma 90.671191
_cell_volume 626.245326
_symmetry_space_group_name_H-M "P -1"
_symmetry_group_IT_number 2
_symmetry_cell_setting 'triclinic'
loop_
_space_group_symop_operation_xyz
x,y,z
-x,-y,-z
loop_
_atom_site_type_symbol
_atom_site_label
_atom_site_fract_x
_atom_site_fract_y
_atom_site_fract_z
Si Si1 0.881901 0.130409 0.390073
Si Si2 0.104223 0.353987 0.319462
Si Si3 0.724705 0.182724 0.762563
Si Si4 0.098839 0.091988 0.732819
Si Si5 0.140880 0.671629 0.665961
Si Si6 0.650398 0.701713 0.803302
Si Si7 0.593762 0.342285 0.619712
O O1 0.033173 0.304418 0.543646
O O2 0.895712 0.113577 0.517313
O O3 0.072635 0.089908 0.471789
O O4 0.500000 0.000000 0.000000
O O5 0.306889 0.538648 0.530549
O O6 0.395652 0.365616 0.536157
O O7 0.926979 0.289409 0.266449
O O8 0.793689 0.227666 0.951821
O O9 0.494595 0.198293 0.546512
O O10 0.500000 0.000000 0.500000
O O11 0.093588 0.305681 0.036427
O O12 0.459266 0.201801 0.996255
O O13 0.143710 0.145386 0.904086
O O14 0.000000 0.500000 0.500000
O O15 0.530710 0.720366 0.615868
O O16 0.000000 0.500000 0.000000
#
# Coordination Sequence:
#
# PCOD8020204 Si02
#       7
#     2   2   2   2   2   2   2
#     4   9  22  43  63  91 134 173 213 264 325 383
#     4  11  23  42  64  96 133 165 220 269 316 393
#     4  11  25  41  65  99 129 164 216 273 326 380
#     4  10  22  42  66  94 132 172 214 267 323 386
#     4  11  23  40  63  98 130 168 218 267 319 384
#     4  11  22  41  68  97 126 170 222 258 324 397
#     4  11  21  42  69  89 125 174 208 264 330 379
#
# _framework density 22.355454999999999
#
# number of rings (size 3 to 8) (size 9 to 14) (size 15 to 20)
#    0.000    1.429    4.286    0.857    0.000   12.000 
#    2.571    0.000    0.000    0.000    0.000    0.000 
#    0.000    0.000    0.000    0.000    0.000    0.000 
#
# Total GULP energy -173447.552286 kJ/mol
# GULP energy per Si atom -12389.110878 kJ/mol
# Density = 2.230457 g / cm^3
# Si number density = 22.355455 Si / 1000 Ang^3
#
#
#
# Elastic Constant Matrix: (Units=GPa)
#
#
# Indices 1 2 3 4 5 6 
#
# 1 106.7078 22.4935 23.9050 -25.6414 -20.7162 6.2981
# 2 22.4935 173.4602 35.8866 -24.3140 -13.7336 -16.5267
# 3 23.9050 35.8866 78.7756 -28.0795 -24.3898 -0.3987
# 4 -25.6414 -24.3140 -28.0795 39.7180 1.3812 -3.1096
# 5 -20.7162 -13.7336 -24.3898 1.3812 40.0461 6.2151
# 6 6.2981 -16.5267 -0.3987 -3.1096 6.2151 23.8292
#
#
#
# Elastic Compliance Matrix: (Units=1/GPa)
#
#
# Indices 1 2 3 4 5 6 
#
# 1 0.013048 -0.000696 0.001973 0.008725 0.008170 -0.004891
# 2 -0.000696 0.007213 -0.002005 0.002987 -0.000074 0.005562
# 3 0.001973 -0.002005 0.022942 0.015517 0.014271 -0.003225
# 4 0.008725 0.002987 0.015517 0.043328 0.013144 0.002251
# 5 0.008170 -0.000074 0.014271 0.013144 0.039031 -0.010436
# 6 -0.004891 0.005562 -0.003225 0.002251 -0.010436 0.050077
#
#
# Mechanical properties :
#
#
# Convention : Reuss Voigt Hill
#
# Bulk Modulus (GPa) = 23.95436 58.16822 41.06129
# Shear Modulus (GPa) = 26.17671 39.16256 32.66964
#
# Velocity S-wave (km/s) = 3.42560 4.19001 3.82694
# Velocity P-wave (km/s) = 5.13661 7.03451 6.15911
#
# Compressibility (1/GPa) = 0.04174605
#
# Stress axis : x y z
#
# Youngs Moduli (GPa) = 76.64237 138.64350 43.58815
#
# Poissons Ratio (x) = 0.09652 -0.08598
# Poissons Ratio (y) = 0.05336 0.08737
# Poissons Ratio (z) = -0.15118 0.27792
#
# Static dielectric constant tensor:
#      x y z
#    x 4.022150 -0.380750 -0.020480 
#    y -0.380750 5.509750 0.128290 
#    z -0.020480 0.128290 4.051940 
# 
# 
# High freq. dielectric constant tensor:
#      x y z
#    x 1.871280 -0.005100 -0.007320 
#    y -0.005100 1.892040 -0.010340 
#    z -0.007320 -0.010340 1.875400 
# 
# From -- ./inp_files/26811.got.cif
#   From: 2010.06.25/outbox.cif.g09.slc.cpg/sg2_14_cif.got.tgz:26811.got - 2010.06.27 13:26:56.
