data_PCOD8020458
_publ_section_title
;
Structure prediction by ZEFSAII (Michael W. Deem and Ramdas Pophale) SiO2 
 PCOD8020458
Probable space group: P -1
;
_chemical_formula_sum "Si O2"
_cell_formula_units_Z 16
_cell_length_a 16.069536
_cell_length_b 8.673834
_cell_length_c 8.850299
_cell_angle_alpha 76.119759
_cell_angle_beta 104.204979
_cell_angle_gamma 46.578539
_cell_volume 707.403987
_symmetry_space_group_name_H-M "P -1"
_symmetry_group_IT_number 2
_symmetry_cell_setting 'triclinic'
loop_
_space_group_symop_operation_xyz
x,y,z
-x,-y,-z
loop_
_atom_site_type_symbol
_atom_site_label
_atom_site_fract_x
_atom_site_fract_y
_atom_site_fract_z
Si Si1 0.883406 0.423523 0.105330
Si Si2 0.901302 0.356615 0.776771
Si Si3 0.609640 0.031720 0.165472
Si Si4 0.852725 0.137440 0.597716
Si Si5 0.671210 0.602263 0.183082
Si Si6 0.349108 0.799254 0.346070
Si Si7 0.826016 0.852322 0.086620
Si Si8 0.617910 0.950354 0.512272
O O1 0.734469 0.572756 0.059593
O O2 0.886107 0.608812 0.085449
O O3 0.913530 0.332280 0.968236
O O4 0.004466 0.160426 0.321310
O O5 0.885662 0.204656 0.737158
O O6 0.040446 0.233203 0.795603
O O7 0.762818 0.655030 0.599359
O O8 0.576361 0.115533 0.307059
O O9 0.634394 0.805955 0.223227
O O10 0.746023 0.926013 0.189577
O O11 0.472559 0.281438 0.946627
O O12 0.782706 0.327210 0.380354
O O13 0.751583 0.145546 0.600402
O O14 0.500000 0.500000 0.500000
O O15 0.358659 0.969544 0.354772
O O16 0.285266 0.889374 0.127957
O O17 0.500000 0.000000 0.500000
#
# Coordination Sequence:
#
# PCOD8020458 Si02
#       8
#     2   2   2   2   2   2   2   2
#     4  11  22  41  68  98 133 176 223 276 329 392
#     4  12  23  43  69 100 137 176 228 272 327 404
#     4  10  23  44  69  96 132 176 225 279 326 400
#     4  12  24  43  65 102 138 175 223 276 335 392
#     4  10  22  42  68  96 133 177 224 272 338 393
#     4  12  26  44  69  99 138 172 222 280 333 399
#     4  11  24  45  68  98 136 181 222 273 337 394
#     4  12  25  45  72 101 130 175 230 273 332 402
#
# _framework density 22.617910999999999
#
# number of rings (size 3 to 8) (size 9 to 14) (size 15 to 20)
#    0.000    0.750    3.750    4.125    3.500    0.500 
#    4.500    1.250    0.000    0.000    0.000    0.000 
#    0.000    0.000    0.000    0.000    0.000    0.000 
#
# Total GULP energy -198440.384090 kJ/mol
# GULP energy per Si atom -12402.524006 kJ/mol
# Density = 2.256643 g / cm^3
# Si number density = 22.617911 Si / 1000 Ang^3
#
#
#
# Elastic Constant Matrix: (Units=GPa)
#
#
# Indices 1 2 3 4 5 6 
#
# 1 140.1279 27.8590 26.4877 7.8071 16.1440 -16.5327
# 2 27.8590 62.6414 18.5887 -16.1785 7.9779 -9.2040
# 3 26.4877 18.5887 105.6081 -16.4048 0.7770 -10.4532
# 4 7.8071 -16.1785 -16.4048 41.3517 -7.5501 -5.7588
# 5 16.1440 7.9779 0.7770 -7.5501 34.4850 -2.4815
# 6 -16.5327 -9.2040 -10.4532 -5.7588 -2.4815 35.8698
#
#
#
# Elastic Compliance Matrix: (Units=1/GPa)
#
#
# Indices 1 2 3 4 5 6 
#
# 1 0.009271 -0.003913 -0.002181 -0.004712 -0.004304 0.001579
# 2 -0.003913 0.021123 -0.000823 0.009224 -0.000671 0.004811
# 3 -0.002181 -0.000823 0.011296 0.005438 0.002371 0.003113
# 4 -0.004712 0.009224 0.005438 0.033331 0.007799 0.007670
# 5 -0.004304 -0.000671 0.002371 0.007799 0.032971 0.002068
# 6 0.001579 0.004811 0.003113 0.007670 0.002068 0.032123
#
#
# Mechanical properties :
#
#
# Convention : Reuss Voigt Hill
#
# Bulk Modulus (GPa) = 35.89642 50.47201 43.18421
# Shear Modulus (GPa) = 30.63111 38.03743 34.33427
#
# Velocity S-wave (km/s) = 3.68405 4.10535 3.90039
# Velocity P-wave (km/s) = 5.83109 6.69592 6.27841
#
# Compressibility (1/GPa) = 0.02785793
#
# Stress axis : x y z
#
# Youngs Moduli (GPa) = 107.86086 47.34190 88.52713
#
# Poissons Ratio (x) = 0.18525 0.19304
# Poissons Ratio (y) = 0.42206 0.07281
# Poissons Ratio (z) = 0.23520 0.03894
#
# Static dielectric constant tensor:
#      x y z
#    x 4.028900 -0.041050 0.070670 
#    y -0.041050 4.093710 -0.301860 
#    z 0.070670 -0.301860 4.134100 
# 
# 
# High freq. dielectric constant tensor:
#      x y z
#    x 1.897650 -0.013770 0.001360 
#    y -0.013770 1.881990 -0.014830 
#    z 0.001360 -0.014830 1.901170 
# 
# From -- ./inp_files/205285.got.cif
#   From: 2010.06.25/outbox.cif.g09.slc.cpg/sg2_103_cif.got.tgz:205285.got - 2010.06.27 13:26:56.
