data_PCOD8020144
_publ_section_title
;
Structure prediction by ZEFSAII (Michael W. Deem and Ramdas Pophale) SiO2 
 PCOD8020144
Probable space group: P -1
;
_chemical_formula_sum "Si O2"
_cell_formula_units_Z 14
_cell_length_a 6.708617
_cell_length_b 10.426120
_cell_length_c 11.345299
_cell_angle_alpha 58.383443
_cell_angle_beta 91.595744
_cell_angle_gamma 111.060832
_cell_volume 617.620185
_symmetry_space_group_name_H-M "P -1"
_symmetry_group_IT_number 2
_symmetry_cell_setting 'triclinic'
loop_
_space_group_symop_operation_xyz
x,y,z
-x,-y,-z
loop_
_atom_site_type_symbol
_atom_site_label
_atom_site_fract_x
_atom_site_fract_y
_atom_site_fract_z
Si Si1 0.326539 0.858580 0.644830
Si Si2 0.145525 0.302082 0.373979
Si Si3 0.331851 0.665694 0.280492
Si Si4 0.421257 0.326737 0.147763
Si Si5 0.728887 0.877110 0.343371
Si Si6 0.672327 0.823689 0.022285
Si Si7 0.021849 0.829023 0.177744
O O1 0.400167 0.713981 0.756492
O O2 0.114859 0.767526 0.604122
O O3 0.500000 0.000000 0.500000
O O4 0.282865 0.946652 0.719134
O O5 0.248105 0.469920 0.369752
O O6 0.230280 0.322312 0.232264
O O7 0.224204 0.176433 0.501478
O O8 0.503641 0.743371 0.350914
O O9 0.436195 0.743179 0.118421
O O10 0.117634 0.700408 0.284508
O O11 0.500000 0.500000 0.000000
O O12 0.333510 0.190345 0.111034
O O13 0.929741 0.897132 0.252909
O O14 0.825588 0.740723 0.123742
O O15 0.784948 0.018842 0.957207
#
# Coordination Sequence:
#
# PCOD8020144 Si02
#       7
#     2   2   2   2   2   2   2
#     4  12  28  47  76 102 142 193 240 286 359 425
#     4  12  27  45  71 108 145 183 242 293 359 419
#     4  11  24  43  71 103 142 185 233 292 361 410
#     4  12  26  46  74 103 148 180 235 300 356 417
#     4  11  25  46  72 104 139 188 239 290 346 431
#     4  10  22  42  66 101 138 186 233 290 348 426
#     4  10  23  41  71  98 142 183 237 285 351 424
#
# _framework density 22.667653000000001
#
# number of rings (size 3 to 8) (size 9 to 14) (size 15 to 20)
#    0.000    0.857    2.857    3.000    6.000    4.571 
#    0.000    0.000    0.000    0.000    0.000    0.000 
#    0.000    0.000    0.000    0.000    0.000    0.000 
#
# Total GULP energy -173609.551610 kJ/mol
# GULP energy per Si atom -12400.682258 kJ/mol
# Density = 2.261606 g / cm^3
# Si number density = 22.667653 Si / 1000 Ang^3
#
#
#
# Elastic Constant Matrix: (Units=GPa)
#
#
# Indices 1 2 3 4 5 6 
#
# 1 118.1109 33.4052 37.1366 -5.0216 14.5346 -0.0534
# 2 33.4052 90.6359 10.0957 1.2288 9.8189 10.7855
# 3 37.1366 10.0957 103.2155 0.2276 13.2647 2.5405
# 4 -5.0216 1.2288 0.2276 39.8141 0.2488 5.9843
# 5 14.5346 9.8189 13.2647 0.2488 36.4149 -0.3557
# 6 -0.0534 10.7855 2.5405 5.9843 -0.3557 35.0317
#
#
#
# Elastic Compliance Matrix: (Units=1/GPa)
#
#
# Indices 1 2 3 4 5 6 
#
# 1 0.010829 -0.003537 -0.003302 0.001343 -0.002164 0.001094
# 2 -0.003537 0.013023 0.000392 -0.000231 -0.002280 -0.004027
# 3 -0.003302 0.000392 0.011232 -0.000338 -0.002886 -0.000912
# 4 0.001343 -0.000231 -0.000338 0.025951 -0.000571 -0.004341
# 5 -0.002164 -0.002280 -0.002886 -0.000571 0.030008 0.001310
# 6 0.001094 -0.004027 -0.000912 -0.004341 0.001310 0.030608
#
#
# Mechanical properties :
#
#
# Convention : Reuss Voigt Hill
#
# Bulk Modulus (GPa) = 45.06852 52.58191 48.82522
# Shear Modulus (GPa) = 35.22542 37.67382 36.44962
#
# Velocity S-wave (km/s) = 3.94635 4.08120 4.01434
# Velocity P-wave (km/s) = 6.37890 6.74207 6.56300
#
# Compressibility (1/GPa) = 0.02218843
#
# Stress axis : x y z
#
# Youngs Moduli (GPa) = 92.34246 76.78963 89.02909
#
# Poissons Ratio (x) = 0.27163 0.29398
# Poissons Ratio (y) = 0.32665 -0.03486
# Poissons Ratio (z) = 0.30492 -0.03007
#
# Static dielectric constant tensor:
#      x y z
#    x 4.171510 -0.015560 0.103830 
#    y -0.015560 4.103060 0.112950 
#    z 0.103830 0.112950 4.083460 
# 
# 
# High freq. dielectric constant tensor:
#      x y z
#    x 1.900910 0.000160 0.001830 
#    y 0.000160 1.892490 0.006320 
#    z 0.001830 0.006320 1.893690 
# 
# From -- ./inp_files/69064.got.cif
#   From: 2010.06.25/outbox.cif.g09.slc.cpg/sg2_35_cif.got.tgz:69064.got - 2010.06.27 13:26:56.
