data_PCOD8020293
_publ_section_title
;
Structure prediction by ZEFSAII (Michael W. Deem and Ramdas Pophale) SiO2 
 PCOD8020293
Probable space group: P -1
;
_chemical_formula_sum "Si O2"
_cell_formula_units_Z 14
_cell_length_a 8.313297
_cell_length_b 14.750915
_cell_length_c 13.807952
_cell_angle_alpha 32.822843
_cell_angle_beta 113.815491
_cell_angle_gamma 91.469179
_cell_volume 650.317156
_symmetry_space_group_name_H-M "P -1"
_symmetry_group_IT_number 2
_symmetry_cell_setting 'triclinic'
loop_
_space_group_symop_operation_xyz
x,y,z
-x,-y,-z
loop_
_atom_site_type_symbol
_atom_site_label
_atom_site_fract_x
_atom_site_fract_y
_atom_site_fract_z
Si Si1 0.904683 0.676914 0.625703
Si Si2 0.171752 0.044014 0.470105
Si Si3 0.619608 0.600388 0.927259
Si Si4 0.516779 0.001557 0.114855
Si Si5 0.264671 0.823171 0.211368
Si Si6 0.479361 0.633397 0.226634
Si Si7 0.805491 0.413415 0.933481
O O1 0.800819 0.844027 0.537645
O O2 0.784533 0.823291 0.369215
O O3 0.820595 0.537253 0.740002
O O4 0.178553 0.515346 0.839667
O O5 0.428651 0.850994 0.676800
O O6 0.000000 0.000000 0.500000
O O7 0.059963 0.197365 0.211521
O O8 0.711599 0.557908 0.878541
O O9 0.500000 0.500000 0.000000
O O10 0.375264 0.928122 0.188699
O O11 0.500000 0.000000 0.000000
O O12 0.421572 0.246729 0.895746
O O13 0.323045 0.760911 0.168365
O O14 0.333500 0.617863 0.474821
O O15 0.000000 0.000000 0.000000
O O16 0.341269 0.651982 0.082957
#
# Coordination Sequence:
#
# PCOD8020293 Si02
#       7
#     2   2   2   2   2   2   2
#     4  11  23  42  63  94 132 168 218 272 324 384
#     4  11  21  40  63  92 129 167 213 265 322 386
#     4  11  23  40  64  94 128 170 221 262 324 395
#     4  10  22  44  68  92 130 173 216 269 323 386
#     4  10  22  44  67  96 129 166 220 273 323 389
#     4  10  22  42  67  92 131 172 210 270 332 378
#     4  11  23  40  65  94 133 169 212 273 325 386
#
# _framework density 21.527956
#
# number of rings (size 3 to 8) (size 9 to 14) (size 15 to 20)
#    0.000    1.429    4.286    2.571    0.000    4.000 
#    5.143    0.000    0.000    0.000    0.000    0.000 
#    0.000    0.000    0.000    0.000    0.000    0.000 
#
# Total GULP energy -173463.385843 kJ/mol
# GULP energy per Si atom -12390.241846 kJ/mol
# Density = 2.147896 g / cm^3
# Si number density = 21.527956 Si / 1000 Ang^3
#
#
#
# Elastic Constant Matrix: (Units=GPa)
#
#
# Indices 1 2 3 4 5 6 
#
# 1 81.2061 21.3394 64.8920 -9.7054 8.2164 23.2139
# 2 21.3394 92.2044 65.0083 7.0005 12.4347 24.0289
# 3 64.8920 65.0083 198.3131 0.0111 16.2567 8.9893
# 4 -9.7054 7.0005 0.0111 45.2827 2.5839 -3.7712
# 5 8.2164 12.4347 16.2567 2.5839 49.9360 -8.7421
# 6 23.2139 24.0289 8.9893 -3.7712 -8.7421 33.2409
#
#
#
# Elastic Compliance Matrix: (Units=1/GPa)
#
#
# Indices 1 2 3 4 5 6 
#
# 1 0.024554 0.006607 -0.008701 0.002875 -0.006678 -0.021000
# 2 0.006607 0.021098 -0.007576 -0.003103 -0.007227 -0.020069
# 3 -0.008701 -0.007576 0.009804 -0.000017 0.001767 0.009364
# 4 0.002875 -0.003103 -0.000017 0.023436 -0.000420 0.002788
# 5 -0.006678 -0.007227 0.001767 -0.000420 0.025169 0.015982
# 6 -0.021000 -0.020069 0.009364 0.002788 0.015982 0.061244
#
#
# Mechanical properties :
#
#
# Convention : Reuss Voigt Hill
#
# Bulk Modulus (GPa) = 27.68837 74.91145 51.29991
# Shear Modulus (GPa) = 25.42176 40.39083 32.90630
#
# Velocity S-wave (km/s) = 3.44011 4.33622 3.91389
# Velocity P-wave (km/s) = 5.35431 7.74230 6.65627
#
# Compressibility (1/GPa) = 0.03611625
#
# Stress axis : x y z
#
# Youngs Moduli (GPa) = 40.72677 47.39782 102.00104
#
# Poissons Ratio (x) = -0.31317 0.88753
# Poissons Ratio (y) = -0.26909 0.77273
# Poissons Ratio (z) = 0.35437 0.35907
#
# Static dielectric constant tensor:
#      x y z
#    x 3.882540 0.571620 -0.463380 
#    y 0.571620 4.167280 -0.110990 
#    z -0.463380 -0.110990 4.184870 
# 
# 
# High freq. dielectric constant tensor:
#      x y z
#    x 1.822470 0.028970 -0.014700 
#    y 0.028970 1.845270 0.000430 
#    z -0.014700 0.000430 1.867790 
# 
# From -- ./inp_files/202761.got.cif
#   From: 2010.06.25/outbox.cif.g09.slc.cpg/sg2_102_cif.got.tgz:202761.got - 2010.06.27 13:26:56.
