data_PCOD8020274
_publ_section_title
;
Structure prediction by ZEFSAII (Michael W. Deem and Ramdas Pophale) SiO2 
 PCOD8020274
Probable space group: P -1
;
_chemical_formula_sum "Si O2"
_cell_formula_units_Z 10
_cell_length_a 7.562564
_cell_length_b 7.210621
_cell_length_c 18.326011
_cell_angle_alpha 142.387843
_cell_angle_beta 123.743561
_cell_angle_gamma 71.874370
_cell_volume 490.517732
_symmetry_space_group_name_H-M "P -1"
_symmetry_group_IT_number 2
_symmetry_cell_setting 'triclinic'
loop_
_space_group_symop_operation_xyz
x,y,z
-x,-y,-z
loop_
_atom_site_type_symbol
_atom_site_label
_atom_site_fract_x
_atom_site_fract_y
_atom_site_fract_z
Si Si1 0.898563 0.686746 0.924017
Si Si2 0.526894 0.769629 0.369661
Si Si3 0.949851 0.850641 0.145724
Si Si4 0.460631 0.164030 0.350427
Si Si5 0.211106 0.654981 0.643752
O O1 0.063708 0.457831 0.902872
O O2 0.797109 0.986355 0.764056
O O3 0.825383 0.762938 0.012619
O O4 0.000000 0.000000 0.000000
O O5 0.306919 0.490989 0.226689
O O6 0.734337 0.626855 0.385732
O O7 0.500000 0.000000 0.500000
O O8 0.573680 0.955950 0.362951
O O9 0.832775 0.082209 0.231441
O O10 0.500000 0.500000 0.500000
O O11 0.577127 0.184640 0.305796
O O12 0.000000 0.500000 0.500000
#
# Coordination Sequence:
#
# PCOD8020274 Si02
#       5
#     2   2   2   2   2
#     4  10  22  42  67  89 129 173 204 264 320 370
#     4  11  23  40  65  95 126 167 215 257 318 377
#     4  10  23  42  62  95 128 163 216 258 314 379
#     4  11  21  41  64  91 131 164 202 267 314 364
#     4  12  23  39  65  96 128 167 214 262 311 378
#
# _framework density 20.386621000000002
#
# number of rings (size 3 to 8) (size 9 to 14) (size 15 to 20)
#    0.000    1.200    4.000    2.400    0.000    3.200 
#    0.000   14.000    0.000    0.000    0.000    0.000 
#    0.000    0.000    0.000    0.000    0.000    0.000 
#
# Total GULP energy -124003.048263 kJ/mol
# GULP energy per Si atom -12400.304826 kJ/mol
# Density = 2.034022 g / cm^3
# Si number density = 20.386621 Si / 1000 Ang^3
#
#
#
# Elastic Constant Matrix: (Units=GPa)
#
#
# Indices 1 2 3 4 5 6 
#
# 1 92.7672 54.5646 52.3148 5.9680 -15.2868 -6.7637
# 2 54.5646 156.8562 45.7141 13.6197 -2.3634 -12.4828
# 3 52.3148 45.7141 155.8925 15.6283 -8.6108 -18.5744
# 4 5.9680 13.6197 15.6283 36.2484 -6.3696 -0.2434
# 5 -15.2868 -2.3634 -8.6108 -6.3696 46.0348 8.6788
# 6 -6.7637 -12.4828 -18.5744 -0.2434 8.6788 37.8290
#
#
#
# Elastic Compliance Matrix: (Units=1/GPa)
#
#
# Indices 1 2 3 4 5 6 
#
# 1 0.016570 -0.004740 -0.004291 0.001778 0.005052 -0.001856
# 2 -0.004740 0.008535 -0.000510 -0.002542 -0.001990 0.002159
# 3 -0.004291 -0.000510 0.008671 -0.002975 -0.000903 0.003510
# 4 0.001778 -0.002542 -0.002975 0.030328 0.004637 -0.002850
# 5 0.005052 -0.001990 -0.000903 0.004637 0.024879 -0.005874
# 6 -0.001856 0.002159 0.003510 -0.002850 -0.005874 0.029868
#
#
# Mechanical properties :
#
#
# Convention : Reuss Voigt Hill
#
# Bulk Modulus (GPa) = 68.05295 78.96698 73.50996
# Shear Modulus (GPa) = 35.00638 40.88394 37.94516
#
# Velocity S-wave (km/s) = 4.14832 4.48306 4.31893
# Velocity P-wave (km/s) = 7.50988 8.10036 7.81071
#
# Compressibility (1/GPa) = 0.01469444
#
# Stress axis : x y z
#
# Youngs Moduli (GPa) = 60.34926 117.16194 115.32756
#
# Poissons Ratio (x) = 0.55529 0.49489
# Poissons Ratio (y) = 0.28603 0.05885
# Poissons Ratio (z) = 0.25897 0.05978
#
# Static dielectric constant tensor:
#      x y z
#    x 2.991340 -0.242260 0.162590 
#    y -0.242260 4.052780 0.075540 
#    z 0.162590 0.075540 3.950310 
# 
# 
# High freq. dielectric constant tensor:
#      x y z
#    x 1.768610 -0.004690 0.009960 
#    y -0.004690 1.820110 0.002880 
#    z 0.009960 0.002880 1.817340 
# 
# From -- ./inp_files/19064.got.cif
#   From: 2010.06.25/outbox.cif.g09.slc.cpg/sg2_10_cif.got.tgz:19064.got - 2010.06.27 13:26:56.
