data_PCOD8020521
_publ_section_title
;
Structure prediction by ZEFSAII (Michael W. Deem and Ramdas Pophale) SiO2 
 PCOD8020521
Probable space group: P -1
;
_chemical_formula_sum "Si O2"
_cell_formula_units_Z 16
_cell_length_a 9.038823
_cell_length_b 8.921310
_cell_length_c 14.623665
_cell_angle_alpha 103.282197
_cell_angle_beta 62.121188
_cell_angle_gamma 62.307318
_cell_volume 757.589964
_symmetry_space_group_name_H-M "P -1"
_symmetry_group_IT_number 2
_symmetry_cell_setting 'triclinic'
loop_
_space_group_symop_operation_xyz
x,y,z
-x,-y,-z
loop_
_atom_site_type_symbol
_atom_site_label
_atom_site_fract_x
_atom_site_fract_y
_atom_site_fract_z
Si Si1 0.645558 0.050152 0.734250
Si Si2 0.393027 0.151301 0.135145
Si Si3 0.152827 0.293956 0.870210
Si Si4 0.785834 0.066628 0.127492
Si Si5 0.787346 0.230703 0.618693
Si Si6 0.082868 0.470017 0.721714
Si Si7 0.921873 0.675865 0.475325
Si Si8 0.404698 0.545695 0.638208
O O1 0.384733 0.191868 0.834342
O O2 0.699241 0.200947 0.733343
O O3 0.733334 0.904927 0.776731
O O4 0.741291 0.904152 0.597855
O O5 0.579939 0.140542 0.131238
O O6 0.186154 0.377535 0.189554
O O7 0.500000 0.000000 0.000000
O O8 0.148637 0.327439 0.768880
O O9 0.104431 0.143888 0.879965
O O10 0.000000 0.500000 0.000000
O O11 0.672704 0.248050 0.261567
O O12 0.000000 0.000000 0.000000
O O13 0.597365 0.340800 0.611078
O O14 0.857898 0.365135 0.628964
O O15 0.000000 0.000000 0.500000
O O16 0.195114 0.329676 0.578793
O O17 0.179479 0.582655 0.715697
O O18 0.000000 0.500000 0.500000
O O19 0.500000 0.500000 0.500000
#
# Coordination Sequence:
#
# PCOD8020521 Si02
#       8
#     2   2   2   2   2   2   2   2
#     4  10  22  42  69  90 139 181 216 283 351 402
#     4  11  23  43  71  97 131 183 233 276 351 419
#     4  11  24  45  69  98 136 178 230 288 345 409
#     4  11  26  49  72 101 142 188 231 287 353 420
#     4  10  23  43  63  98 137 181 225 280 346 410
#     4  12  24  42  69 101 137 178 230 283 351 411
#     4  11  22  41  67  98 136 177 224 281 347 415
#     4  12  26  42  71 104 143 183 236 286 344 417
#
# _framework density 21.119602
#
# number of rings (size 3 to 8) (size 9 to 14) (size 15 to 20)
#    0.000    1.000    2.500    4.500    7.000    2.500 
#    2.250    0.625    0.000    0.000    0.000    0.000 
#    0.000    0.000    0.000    0.000    0.000    0.000 
#
# Total GULP energy -198213.374671 kJ/mol
# GULP energy per Si atom -12388.335917 kJ/mol
# Density = 2.107153 g / cm^3
# Si number density = 21.119602 Si / 1000 Ang^3
#
#
#
# Elastic Constant Matrix: (Units=GPa)
#
#
# Indices 1 2 3 4 5 6 
#
# 1 101.7289 29.9597 32.3537 0.9257 2.6205 18.0826
# 2 29.9597 99.3824 30.5862 -2.4443 -2.6025 23.5072
# 3 32.3537 30.5862 113.0932 7.6247 14.2751 15.5057
# 4 0.9257 -2.4443 7.6247 41.5981 2.2098 -10.4580
# 5 2.6205 -2.6025 14.2751 2.2098 44.8341 -4.2168
# 6 18.0826 23.5072 15.5057 -10.4580 -4.2168 37.6687
#
#
#
# Elastic Compliance Matrix: (Units=1/GPa)
#
#
# Indices 1 2 3 4 5 6 
#
# 1 0.011820 -0.002019 -0.002198 -0.000914 -0.000421 -0.003810
# 2 -0.002019 0.012797 -0.002138 -0.000407 0.000984 -0.006139
# 3 -0.002198 -0.002138 0.011175 -0.002781 -0.003736 -0.003401
# 4 -0.000914 -0.000407 -0.002781 0.026872 0.000470 0.009351
# 5 -0.000421 0.000984 -0.003736 0.000470 0.023923 0.003935
# 6 -0.003810 -0.006139 -0.003401 0.009351 0.003935 0.036644
#
#
# Mechanical properties :
#
#
# Convention : Reuss Voigt Hill
#
# Bulk Modulus (GPa) = 43.32633 55.55598 49.44115
# Shear Modulus (GPa) = 34.81037 39.57383 37.19210
#
# Velocity S-wave (km/s) = 4.06427 4.33343 4.20101
# Velocity P-wave (km/s) = 6.52561 7.16943 6.85508
#
# Compressibility (1/GPa) = 0.02308065
#
# Stress axis : x y z
#
# Youngs Moduli (GPa) = 84.60043 78.14450 89.48636
#
# Poissons Ratio (x) = 0.15778 0.19671
# Poissons Ratio (y) = 0.17081 0.19136
# Poissons Ratio (z) = 0.18597 0.16710
#
# Static dielectric constant tensor:
#      x y z
#    x 4.006460 -0.021770 -0.064950 
#    y -0.021770 5.182230 -0.688750 
#    z -0.064950 -0.688750 4.219800 
# 
# 
# High freq. dielectric constant tensor:
#      x y z
#    x 1.823600 0.004950 -0.012330 
#    y 0.004950 1.844790 -0.000440 
#    z -0.012330 -0.000440 1.835580 
# 
# From -- ./inp_files/206791.got.cif
#   From: 2010.06.25/outbox.cif.g09.slc.cpg/sg2_104_cif.got.tgz:206791.got - 2010.06.27 13:26:56.
