data_PCOD8020202
_publ_section_title
;
Structure prediction by ZEFSAII (Michael W. Deem and Ramdas Pophale) SiO2 
 PCOD8020202
Probable space group: P -1
;
_chemical_formula_sum "Si O2"
_cell_formula_units_Z 16
_cell_length_a 9.040279
_cell_length_b 26.949280
_cell_length_c 27.444217
_cell_angle_alpha 169.574832
_cell_angle_beta 139.639419
_cell_angle_gamma 39.383991
_cell_volume 767.586895
_symmetry_space_group_name_H-M "P -1"
_symmetry_group_IT_number 2
_symmetry_cell_setting 'triclinic'
loop_
_space_group_symop_operation_xyz
x,y,z
-x,-y,-z
loop_
_atom_site_type_symbol
_atom_site_label
_atom_site_fract_x
_atom_site_fract_y
_atom_site_fract_z
Si Si1 0.950959 0.428243 0.240279
Si Si2 0.177500 0.951878 0.773926
Si Si3 0.772869 0.889129 0.458327
Si Si4 0.519986 0.456184 0.091296
Si Si5 0.118883 0.702853 0.048367
Si Si6 0.761397 0.932687 0.389921
Si Si7 0.314261 0.170457 0.257558
Si Si8 0.861489 0.336181 0.240649
O O1 0.043358 0.698854 0.505668
O O2 0.704603 0.404921 0.131778
O O3 0.906630 0.435204 0.293346
O O4 0.140292 0.152279 0.005791
O O5 0.450104 0.843964 0.728044
O O6 0.085169 0.137257 0.882740
O O7 0.826768 0.796475 0.327312
O O8 0.500000 0.000000 0.500000
O O9 0.889132 0.140529 0.750591
O O10 0.894181 0.621048 0.261576
O O11 0.434518 0.786083 0.383297
O O12 0.633840 0.311564 0.930339
O O13 0.310931 0.283899 0.877177
O O14 0.000000 0.000000 0.500000
O O15 0.291093 0.413459 0.525765
O O16 0.113578 0.226324 0.220829
O O17 0.295028 0.899414 0.023179
#
# Coordination Sequence:
#
# PCOD8020202 Si02
#       8
#     2   2   2   2   2   2   2   2
#     4  11  23  40  67  93 124 170 215 253 316 383
#     4  11  23  40  64  96 130 160 209 277 306 358
#     4  12  21  38  64  84 108 159 204 250 295 376
#     4  11  21  41  61  81 122 159 194 254 315 362
#     4  11  21  38  62  88 114 153 206 250 310 356
#     4  12  25  40  58  85 120 154 201 258 305 362
#     4  10  22  42  66  94 135 169 205 263 311 362
#     4  10  22  42  66  94 131 177 209 242 317 392
#
# _framework density 20.844548
#
# number of rings (size 3 to 8) (size 9 to 14) (size 15 to 20)
#    0.000    1.000    2.500    6.000    0.000    1.000 
#    6.750    0.000    0.000    0.000    0.000    0.000 
#    0.000    0.000    0.000    0.000    0.000    0.000 
#
# Total GULP energy -198316.672011 kJ/mol
# GULP energy per Si atom -12394.792001 kJ/mol
# Density = 2.079710 g / cm^3
# Si number density = 20.844548 Si / 1000 Ang^3
#
#
#
# Elastic Constant Matrix: (Units=GPa)
#
#
# Indices 1 2 3 4 5 6 
#
# 1 87.4691 47.6407 13.4619 1.4763 10.4703 9.2242
# 2 47.6407 72.1161 35.5355 2.3323 1.5777 12.3219
# 3 13.4619 35.5355 112.9492 10.8569 12.0201 4.2483
# 4 1.4763 2.3323 10.8569 24.2283 0.9613 1.0988
# 5 10.4703 1.5777 12.0201 0.9613 29.3377 -1.6141
# 6 9.2242 12.3219 4.2483 1.0988 -1.6141 24.1379
#
#
#
# Elastic Compliance Matrix: (Units=1/GPa)
#
#
# Indices 1 2 3 4 5 6 
#
# 1 0.019694 -0.014075 0.003016 -0.000836 -0.007553 -0.001339
# 2 -0.014075 0.027993 -0.007681 0.001686 0.006212 -0.007221
# 3 0.003016 -0.007681 0.011903 -0.004589 -0.005361 0.000524
# 4 -0.000836 0.001686 -0.004589 0.043272 0.000578 -0.001664
# 5 -0.007553 0.006212 -0.005361 0.000578 0.038802 0.003227
# 6 -0.001339 -0.007221 0.000524 -0.001664 0.003227 0.045825
#
#
# Mechanical properties :
#
#
# Convention : Reuss Voigt Hill
#
# Bulk Modulus (GPa) = 45.23169 51.75674 48.49421
# Shear Modulus (GPa) = 21.52027 27.26720 24.39374
#
# Velocity S-wave (km/s) = 3.21661 3.62072 3.42463
# Velocity P-wave (km/s) = 5.96172 6.50871 6.24121
#
# Compressibility (1/GPa) = 0.02210839
#
# Stress axis : x y z
#
# Youngs Moduli (GPa) = 50.77698 35.72360 84.01548
#
# Poissons Ratio (x) = 0.50281 -0.25335
# Poissons Ratio (y) = 0.71468 0.64532
# Poissons Ratio (z) = -0.15312 0.27439
#
# Static dielectric constant tensor:
#      x y z
#    x 3.635210 -0.059470 -0.222280 
#    y -0.059470 3.630760 0.034250 
#    z -0.222280 0.034250 4.208480 
# 
# 
# High freq. dielectric constant tensor:
#      x y z
#    x 1.805960 0.001670 -0.004420 
#    y 0.001670 1.808060 0.003280 
#    z -0.004420 0.003280 1.838820 
# 
# From -- ./inp_files/226585.got.cif
#   From: 2010.06.25/outbox.cif.g09.slc.cpg/sg2_114_cif.got.tgz:226585.got - 2010.06.27 13:26:56.
