data_PCOD8020207
_publ_section_title
;
Structure prediction by ZEFSAII (Michael W. Deem and Ramdas Pophale) SiO2 
 PCOD8020207
Probable space group: P -1
;
_chemical_formula_sum "Si O2"
_cell_formula_units_Z 16
_cell_length_a 12.885575
_cell_length_b 14.615726
_cell_length_c 8.592317
_cell_angle_alpha 31.953803
_cell_angle_beta 113.759313
_cell_angle_gamma 102.345056
_cell_volume 755.944448
_symmetry_space_group_name_H-M "P -1"
_symmetry_group_IT_number 2
_symmetry_cell_setting 'triclinic'
loop_
_space_group_symop_operation_xyz
x,y,z
-x,-y,-z
loop_
_atom_site_type_symbol
_atom_site_label
_atom_site_fract_x
_atom_site_fract_y
_atom_site_fract_z
Si Si1 0.915954 0.683623 0.739613
Si Si2 0.580103 0.203028 0.796068
Si Si3 0.920934 0.678660 0.121565
Si Si4 0.512042 0.565532 0.084988
Si Si5 0.679138 0.173473 0.240622
Si Si6 0.667522 0.839367 0.228551
Si Si7 0.671018 0.809742 0.907767
Si Si8 0.047646 0.958657 0.417031
O O1 0.784168 0.711313 0.559544
O O2 0.967512 0.839596 0.467680
O O3 0.917307 0.682502 0.928107
O O4 0.000000 0.500000 0.000000
O O5 0.592117 0.397159 0.471443
O O6 0.443303 0.207617 0.689483
O O7 0.625963 0.163933 0.053342
O O8 0.658898 0.048714 0.955015
O O9 0.000000 0.500000 0.500000
O O10 0.793608 0.688537 0.095616
O O11 0.964119 0.852887 0.952484
O O12 0.500000 0.500000 0.000000
O O13 0.383771 0.640088 0.980317
O O14 0.572463 0.728221 0.889846
O O15 0.816934 0.157471 0.333903
O O16 0.649785 0.013430 0.549593
O O17 0.666849 0.799390 0.104882
O O18 0.000000 0.000000 0.500000
#
# Coordination Sequence:
#
# PCOD8020207 Si02
#       8
#     2   2   2   2   2   2   2   2
#     4  11  24  41  68  96 130 174 222 276 326 394
#     4  11  25  41  67  95 130 174 217 272 320 403
#     4  10  22  42  66  95 127 173 221 273 329 385
#     4  12  27  40  63  98 132 168 220 270 332 389
#     4  11  23  44  68  95 133 172 221 268 336 389
#     4  11  24  42  66  94 133 174 222 259 341 387
#     4  11  24  43  66  92 134 174 211 275 331 398
#     4   9  21  41  66  93 126 169 215 270 322 389
#
# _framework density 21.165576000000001
#
# number of rings (size 3 to 8) (size 9 to 14) (size 15 to 20)
#    0.000    1.250    1.250    4.500    7.000    3.000 
#    0.000    5.625    0.000    0.000    0.000    0.000 
#    0.000    0.000    0.000    0.000    0.000    0.000 
#
# Total GULP energy -198408.946476 kJ/mol
# GULP energy per Si atom -12400.559155 kJ/mol
# Density = 2.111740 g / cm^3
# Si number density = 21.165576 Si / 1000 Ang^3
#
#
#
# Elastic Constant Matrix: (Units=GPa)
#
#
# Indices 1 2 3 4 5 6 
#
# 1 103.7996 37.0641 28.9081 -4.8745 16.6317 -9.1409
# 2 37.0641 116.4047 27.8457 0.3256 9.0292 -12.3734
# 3 28.9081 27.8457 105.1374 0.9039 17.6053 -1.6181
# 4 -4.8745 0.3256 0.9039 33.6229 -5.4535 8.4174
# 5 16.6317 9.0292 17.6053 -5.4535 33.4672 -5.5455
# 6 -9.1409 -12.3734 -1.6181 8.4174 -5.5455 34.4634
#
#
#
# Elastic Compliance Matrix: (Units=1/GPa)
#
#
# Indices 1 2 3 4 5 6 
#
# 1 0.011963 -0.002943 -0.001858 0.000892 -0.003830 0.001195
# 2 -0.002943 0.010312 -0.001858 -0.001267 -0.000028 0.003139
# 3 -0.001858 -0.001858 0.011326 -0.001061 -0.004898 -0.001157
# 4 0.000892 -0.001267 -0.001061 0.032518 0.004515 -0.007484
# 5 -0.003830 -0.000028 -0.004898 0.004515 0.035663 0.003380
# 6 0.001195 0.003139 -0.001157 -0.007484 0.003380 0.032778
#
#
# Mechanical properties :
#
#
# Convention : Reuss Voigt Hill
#
# Bulk Modulus (GPa) = 49.30218 56.99752 53.14985
# Shear Modulus (GPa) = 32.33365 35.74562 34.03964
#
# Velocity S-wave (km/s) = 3.91276 4.11403 4.01466
# Velocity P-wave (km/s) = 6.61491 7.03952 6.83051
#
# Compressibility (1/GPa) = 0.02028308
#
# Stress axis : x y z
#
# Youngs Moduli (GPa) = 83.59027 96.97720 88.29492
#
# Poissons Ratio (x) = 0.28542 0.16403
# Poissons Ratio (y) = 0.24602 0.16404
# Poissons Ratio (z) = 0.15529 0.18017
#
# Static dielectric constant tensor:
#      x y z
#    x 4.077210 -0.055180 -0.166070 
#    y -0.055180 3.826040 -0.407500 
#    z -0.166070 -0.407500 3.920140 
# 
# 
# High freq. dielectric constant tensor:
#      x y z
#    x 1.842110 -0.008820 0.006720 
#    y -0.008820 1.826670 -0.014500 
#    z 0.006720 -0.014500 1.837160 
# 
# From -- ./inp_files/217915.got.cif
#   From: 2010.06.25/outbox.cif.g09.slc.cpg/sg2_109_cif.got.tgz:217915.got - 2010.06.27 13:26:56.
