data_PCOD8020271
_publ_section_title
;
Structure prediction by ZEFSAII (Michael W. Deem and Ramdas Pophale) SiO2 
 PCOD8020271
Probable space group: P -1
;
_chemical_formula_sum "Si O2"
_cell_formula_units_Z 16
_cell_length_a 12.184383
_cell_length_b 12.246780
_cell_length_c 5.270701
_cell_angle_alpha 99.912619
_cell_angle_beta 83.756960
_cell_angle_gamma 116.155756
_cell_volume 694.934367
_symmetry_space_group_name_H-M "P -1"
_symmetry_group_IT_number 2
_symmetry_cell_setting 'triclinic'
loop_
_space_group_symop_operation_xyz
x,y,z
-x,-y,-z
loop_
_atom_site_type_symbol
_atom_site_label
_atom_site_fract_x
_atom_site_fract_y
_atom_site_fract_z
Si Si1 0.618202 0.339622 0.298805
Si Si2 0.154556 0.191478 0.991570
Si Si3 0.023644 0.580118 0.279171
Si Si4 0.094794 0.934712 0.775151
Si Si5 0.202692 0.376626 0.665805
Si Si6 0.660380 0.770011 0.671143
Si Si7 0.305790 0.751862 0.254845
Si Si8 0.238560 0.955376 0.274576
O O1 0.705521 0.482983 0.346964
O O2 0.480228 0.324899 0.351555
O O3 0.644013 0.265495 0.491417
O O4 0.631817 0.291197 0.000967
O O5 0.286638 0.199327 0.046173
O O6 0.047796 0.161722 0.214971
O O7 0.187185 0.328177 0.938275
O O8 0.102430 0.071320 0.772824
O O9 0.160883 0.679598 0.261010
O O10 0.000000 0.500000 0.500000
O O11 0.934187 0.645275 0.372933
O O12 0.000000 0.500000 0.000000
O O13 0.143965 0.891613 0.501729
O O14 0.167202 0.932114 0.015252
O O15 0.251473 0.288114 0.480491
O O16 0.682619 0.902302 0.606321
O O17 0.333017 0.892396 0.237534
#
# Coordination Sequence:
#
# PCOD8020271 Si02
#       8
#     2   2   2   2   2   2   2   2
#     4  12  29  48  72 100 151 188 251 276 352 418
#     4  10  24  39  70 103 146 179 229 283 373 408
#     4  12  25  46  72 104 142 180 235 285 356 423
#     4  10  22  42  67 108 144 176 222 302 351 434
#     4  12  25  46  74 106 142 187 231 304 352 426
#     4  11  28  46  72 108 138 196 234 298 349 424
#     4  12  26  49  71 106 140 197 231 301 340 427
#     4  11  24  46  74 104 144 179 245 288 366 407
#
# _framework density 23.023755999999999
#
# number of rings (size 3 to 8) (size 9 to 14) (size 15 to 20)
#    0.000    0.750    3.750    1.875    8.750    3.000 
#    0.000    0.000    0.000    0.000    0.000    0.000 
#    0.000    0.000    0.000    0.000    0.000    0.000 
#
# Total GULP energy -198212.533231 kJ/mol
# GULP energy per Si atom -12388.283327 kJ/mol
# Density = 2.297135 g / cm^3
# Si number density = 23.023756 Si / 1000 Ang^3
#
#
#
# Elastic Constant Matrix: (Units=GPa)
#
#
# Indices 1 2 3 4 5 6 
#
# 1 141.8418 44.1311 29.6055 -8.0929 -3.0840 1.7296
# 2 44.1311 75.2930 27.7374 -12.9390 2.1164 -28.3091
# 3 29.6055 27.7374 103.7140 -13.1081 -1.5623 -7.4402
# 4 -8.0929 -12.9390 -13.1081 29.9443 -12.4660 0.5820
# 5 -3.0840 2.1164 -1.5623 -12.4660 34.3656 -0.4752
# 6 1.7296 -28.3091 -7.4402 0.5820 -0.4752 43.3819
#
#
#
# Elastic Compliance Matrix: (Units=1/GPa)
#
#
# Indices 1 2 3 4 5 6 
#
# 1 0.009647 -0.007351 -0.001235 -0.000601 0.000970 -0.005375
# 2 -0.007351 0.026326 -0.002677 0.008228 0.000816 0.016912
# 3 -0.001235 -0.002677 0.011307 0.004350 0.002149 0.000207
# 4 -0.000601 0.008228 0.004350 0.045305 0.016150 0.005708
# 5 0.000970 0.000816 0.002149 0.016150 0.035106 0.001030
# 6 -0.005375 0.016912 0.000207 0.005708 0.001030 0.034271
#
#
# Mechanical properties :
#
#
# Convention : Reuss Voigt Hill
#
# Bulk Modulus (GPa) = 40.39617 58.19965 49.29791
# Shear Modulus (GPa) = 25.94180 36.16336 31.05258
#
# Velocity S-wave (km/s) = 3.36034 3.96750 3.67648
# Velocity P-wave (km/s) = 5.71309 6.80596 6.28333
#
# Compressibility (1/GPa) = 0.02475482
#
# Stress axis : x y z
#
# Youngs Moduli (GPa) = 103.65622 37.98576 88.43868
#
# Poissons Ratio (x) = 0.27923 0.10921
# Poissons Ratio (y) = 0.76198 0.23674
# Poissons Ratio (z) = 0.12800 0.10168
#
# Static dielectric constant tensor:
#      x y z
#    x 4.305390 -0.187000 -0.000220 
#    y -0.187000 4.401880 -0.144830 
#    z -0.000220 -0.144830 4.165810 
# 
# 
# High freq. dielectric constant tensor:
#      x y z
#    x 1.912690 -0.011220 -0.004170 
#    y -0.011220 1.919420 -0.005250 
#    z -0.004170 -0.005250 1.909070 
# 
# From -- ./inp_files/71194.got.cif
#   From: 2010.06.25/outbox.cif.g09.slc.cpg/sg2_36_cif.got.tgz:71194.got - 2010.06.27 13:26:56.
