data_PCOD8020963
_publ_section_title
;
Structure prediction by ZEFSAII (Michael W. Deem and Ramdas Pophale) SiO2 
 PCOD8020963
Probable space group: P -1
;
_chemical_formula_sum "Si O2"
_cell_formula_units_Z 12
_cell_length_a 11.556016
_cell_length_b 6.849439
_cell_length_c 8.818562
_cell_angle_alpha 96.028730
_cell_angle_beta 105.955163
_cell_angle_gamma 112.115658
_cell_volume 604.466829
_symmetry_space_group_name_H-M "P -1"
_symmetry_group_IT_number 2
_symmetry_cell_setting 'triclinic'
loop_
_space_group_symop_operation_xyz
x,y,z
-x,-y,-z
loop_
_atom_site_type_symbol
_atom_site_label
_atom_site_fract_x
_atom_site_fract_y
_atom_site_fract_z
Si Si1 0.082721 0.861074 0.543200
Si Si2 0.378462 0.123220 0.597326
Si Si3 0.794697 0.431791 0.925166
Si Si4 0.443594 0.450875 0.142158
Si Si5 0.593447 0.959432 0.733315
Si Si6 0.002352 0.525003 0.750535
O O1 0.060058 0.695840 0.384138
O O2 0.040720 0.733801 0.675560
O O3 0.237180 0.023885 0.621051
O O4 0.000000 0.000000 0.500000
O O5 0.457515 0.372425 0.692456
O O6 0.360587 0.117108 0.409519
O O7 0.457114 0.982678 0.662362
O O8 0.702692 0.558727 0.905774
O O9 0.895755 0.532808 0.831762
O O10 0.710642 0.177702 0.851120
O O11 0.868945 0.467058 0.115199
O O12 0.434695 0.217953 0.162308
O O13 0.500000 0.500000 0.000000
#
# Coordination Sequence:
#
# PCOD8020963 Si02
#       6
#     2   2   2   2   2   2
#     4  11  25  40  67  93 123 164 207 250 305 365
#     4  10  23  42  63  92 122 162 205 253 312 359
#     4  10  23  43  64  91 125 164 204 249 315 358
#     4  11  26  38  66  96 120 161 208 258 306 364
#     4  10  22  43  66  87 124 162 204 258 308 363
#     4  10  24  43  63  91 128 163 203 255 298 372
#
# _framework density 19.852207
#
# number of rings (size 3 to 8) (size 9 to 14) (size 15 to 20)
#    0.000    1.667    1.667    0.500    9.333    2.667 
#    0.000    3.333    0.000    0.000    0.000    0.000 
#    0.000    0.000    0.000    0.000    0.000    0.000 
#
# Total GULP energy -148883.604553 kJ/mol
# GULP energy per Si atom -12406.967046 kJ/mol
# Density = 1.980702 g / cm^3
# Si number density = 19.852207 Si / 1000 Ang^3
#
#
#
# Elastic Constant Matrix: (Units=GPa)
#
#
# Indices 1 2 3 4 5 6 
#
# 1 108.3863 30.8094 25.5951 -7.2896 14.2673 13.6715
# 2 30.8094 76.4532 17.6742 -25.6563 7.2962 7.6783
# 3 25.5951 17.6742 84.0115 -16.5358 5.2595 8.5029
# 4 -7.2896 -25.6563 -16.5358 29.3000 5.1415 -3.9622
# 5 14.2673 7.2962 5.2595 5.1415 31.2155 4.2610
# 6 13.6715 7.6783 8.5029 -3.9622 4.2610 22.9917
#
#
#
# Elastic Compliance Matrix: (Units=1/GPa)
#
#
# Indices 1 2 3 4 5 6 
#
# 1 0.011830 -0.004191 -0.002514 -0.002228 -0.003019 -0.004530
# 2 -0.004191 0.021830 0.001033 0.019725 -0.006532 -0.000571
# 3 -0.002514 0.001033 0.014549 0.008654 -0.002663 -0.002246
# 4 -0.002228 0.019725 0.008654 0.059051 -0.015400 0.004568
# 5 -0.003019 -0.006532 -0.002663 -0.015400 0.038588 -0.004844
# 6 -0.004530 -0.000571 -0.002246 0.004568 -0.004844 0.048894
#
#
# Mechanical properties :
#
#
# Convention : Reuss Voigt Hill
#
# Bulk Modulus (GPa) = 27.12484 46.33427 36.72955
# Shear Modulus (GPa) = 22.89661 29.68625 26.29143
#
# Velocity S-wave (km/s) = 3.39979 3.87119 3.64312
# Velocity P-wave (km/s) = 5.39486 6.58572 6.01981
#
# Compressibility (1/GPa) = 0.03686657
#
# Stress axis : x y z
#
# Youngs Moduli (GPa) = 84.53089 45.80885 68.73384
#
# Poissons Ratio (x) = 0.19198 0.17277
# Poissons Ratio (y) = 0.35426 -0.07103
# Poissons Ratio (z) = 0.21247 -0.04734
#
# Static dielectric constant tensor:
#      x y z
#    x 3.673890 0.046770 -0.002500 
#    y 0.046770 3.560430 0.059360 
#    z -0.002500 0.059360 3.589910 
# 
# 
# High freq. dielectric constant tensor:
#      x y z
#    x 1.783840 0.006410 0.000470 
#    y 0.006410 1.776960 0.001790 
#    z 0.000470 0.001790 1.786570 
# 
# From -- ./inp_files/20921.got.cif
#   From: 2010.06.25/outbox.cif.g09.slc.cpg/sg2_11_cif.got.tgz:20921.got - 2010.06.27 13:26:56.
