data_PCOD8020610
_publ_section_title
;
Structure prediction by ZEFSAII (Michael W. Deem and Ramdas Pophale) SiO2 
 PCOD8020610
Probable space group: P -1
;
_chemical_formula_sum "Si O2"
_cell_formula_units_Z 14
_cell_length_a 12.005315
_cell_length_b 8.887665
_cell_length_c 8.933160
_cell_angle_alpha 128.031576
_cell_angle_beta 49.160685
_cell_angle_gamma 110.644044
_cell_volume 565.968931
_symmetry_space_group_name_H-M "P -1"
_symmetry_group_IT_number 2
_symmetry_cell_setting 'triclinic'
loop_
_space_group_symop_operation_xyz
x,y,z
-x,-y,-z
loop_
_atom_site_type_symbol
_atom_site_label
_atom_site_fract_x
_atom_site_fract_y
_atom_site_fract_z
Si Si1 0.285409 0.688934 0.056276
Si Si2 0.864499 0.207131 0.059079
Si Si3 0.043546 0.894905 0.547889
Si Si4 0.580045 0.020632 0.285836
Si Si5 0.444247 0.307835 0.359097
Si Si6 0.346073 0.412945 0.069200
Si Si7 0.156938 0.438574 0.523886
O O1 0.286839 0.472718 0.990693
O O2 0.218799 0.831973 0.336066
O O3 0.186457 0.706467 0.004607
O O4 0.450950 0.743425 0.908605
O O5 0.724960 0.139191 0.231931
O O6 0.926126 0.375705 0.207169
O O7 0.995384 0.035149 0.815972
O O8 0.961667 0.701205 0.510919
O O9 0.000000 0.000000 0.500000
O O10 0.459144 0.129864 0.350497
O O11 0.500000 0.000000 0.500000
O O12 0.638583 0.811941 0.049219
O O13 0.500000 0.500000 0.500000
O O14 0.275237 0.335241 0.472730
O O15 0.237409 0.510411 0.350128
O O16 0.500000 0.500000 0.000000
#
# Coordination Sequence:
#
# PCOD8020610 Si02
#       7
#     2   2   2   2   2   2   2
#     4  10  22  42  70  91 142 179 217 285 342 398
#     4  10  22  45  68  95 136 179 230 276 340 408
#     4  10  24  45  68  98 137 182 230 278 336 411
#     4  11  22  37  65  97 140 173 217 286 340 392
#     4  11  21  42  71 101 133 177 227 284 343 402
#     4  12  24  39  66 104 136 176 229 280 344 401
#     4  12  23  41  74  98 136 178 228 282 342 402
#
# _framework density 24.736340999999999
#
# number of rings (size 3 to 8) (size 9 to 14) (size 15 to 20)
#    0.000    1.143    5.714    1.714    0.000    5.714 
#    0.000    0.714    3.143    0.000    0.000    0.000 
#    0.000    0.000    0.000    0.000    0.000    0.000 
#
# Total GULP energy -173515.590679 kJ/mol
# GULP energy per Si atom -12393.970763 kJ/mol
# Density = 2.468004 g / cm^3
# Si number density = 24.736341 Si / 1000 Ang^3
#
#
#
# Elastic Constant Matrix: (Units=GPa)
#
#
# Indices 1 2 3 4 5 6 
#
# 1 29.4711 22.8275 32.8776 4.2017 -4.8551 -3.2994
# 2 22.8275 140.1201 60.7741 -1.9891 7.3150 -24.3127
# 3 32.8776 60.7741 202.0249 2.8138 -9.3316 8.7147
# 4 4.2017 -1.9891 2.8138 48.3967 1.2345 4.2160
# 5 -4.8551 7.3150 -9.3316 1.2345 30.6206 -4.2295
# 6 -3.2994 -24.3127 8.7147 4.2160 -4.2295 33.9171
#
#
#
# Elastic Compliance Matrix: (Units=1/GPa)
#
#
# Indices 1 2 3 4 5 6 
#
# 1 0.046535 -0.004753 -0.005915 -0.004441 0.007460 0.004122
# 2 -0.004753 0.010634 -0.002899 0.000450 -0.003166 0.007454
# 3 -0.005915 -0.002899 0.007027 0.000331 0.001283 -0.004340
# 4 -0.004441 0.000450 0.000331 0.021368 -0.002000 -0.003100
# 5 0.007460 -0.003166 0.001283 -0.002000 0.035455 0.002796
# 6 0.004122 0.007454 -0.004340 -0.003100 0.002796 0.037077
#
#
# Mechanical properties :
#
#
# Convention : Reuss Voigt Hill
#
# Bulk Modulus (GPa) = 26.98265 67.17495 47.07880
# Shear Modulus (GPa) = 25.30567 39.59600 32.45084
#
# Velocity S-wave (km/s) = 3.20193 4.00524 3.62590
# Velocity P-wave (km/s) = 4.96000 6.97170 6.05005
#
# Compressibility (1/GPa) = 0.03706085
#
# Stress axis : x y z
#
# Youngs Moduli (GPa) = 21.48920 94.03999 142.31752
#
# Poissons Ratio (x) = 0.44699 0.84175
# Poissons Ratio (y) = 0.10214 0.41264
# Poissons Ratio (z) = 0.12710 0.27266
#
# Static dielectric constant tensor:
#      x y z
#    x 4.241340 -0.438900 -0.526220 
#    y -0.438900 4.933770 0.118260 
#    z -0.526220 0.118260 5.371250 
# 
# 
# High freq. dielectric constant tensor:
#      x y z
#    x 1.945910 -0.018420 -0.018070 
#    y -0.018420 1.994710 -0.008020 
#    z -0.018070 -0.008020 2.002920 
# 
# From -- ./inp_files/296581.got.cif
#   From: 2010.06.25/outbox.cif.g09.slc.cpg/sg2_149_cif.got.tgz:296581.got - 2010.06.27 13:26:56.
