data_PCOD8020445
_publ_section_title
;
Structure prediction by ZEFSAII (Michael W. Deem and Ramdas Pophale) SiO2 
 PCOD8020445
Probable space group: P -1
;
_chemical_formula_sum "Si O2"
_cell_formula_units_Z 16
_cell_length_a 10.439791
_cell_length_b 8.363025
_cell_length_c 8.989843
_cell_angle_alpha 97.197662
_cell_angle_beta 94.698510
_cell_angle_gamma 111.603191
_cell_volume 716.994025
_symmetry_space_group_name_H-M "P -1"
_symmetry_group_IT_number 2
_symmetry_cell_setting 'triclinic'
loop_
_space_group_symop_operation_xyz
x,y,z
-x,-y,-z
loop_
_atom_site_type_symbol
_atom_site_label
_atom_site_fract_x
_atom_site_fract_y
_atom_site_fract_z
Si Si1 0.432122 0.566639 0.631767
Si Si2 0.572028 0.193174 0.584093
Si Si3 0.925187 0.087001 0.398396
Si Si4 0.666798 0.753458 0.246425
Si Si5 0.131242 0.727417 0.321661
Si Si6 0.100535 0.911829 0.065949
Si Si7 0.064158 0.341559 0.192742
Si Si8 0.320313 0.267735 0.096799
O O1 0.500000 0.500000 0.500000
O O2 0.376792 0.695331 0.552146
O O3 0.307379 0.403484 0.679468
O O4 0.545126 0.662818 0.779389
O O5 0.471601 0.243767 0.689277
O O6 0.706974 0.217806 0.698098
O O7 0.500000 0.000000 0.500000
O O8 0.877054 0.218955 0.503077
O O9 0.038472 0.200556 0.304640
O O10 0.794349 0.938099 0.289904
O O11 0.000000 0.000000 0.500000
O O12 0.635135 0.694741 0.066148
O O13 0.067128 0.837061 0.222220
O O14 0.056579 0.520350 0.269187
O O15 0.255121 0.057519 0.088934
O O16 0.067251 0.738098 0.942485
O O17 0.000000 0.000000 0.000000
O O18 0.212492 0.360588 0.138147
#
# Coordination Sequence:
#
# PCOD8020445 Si02
#       8
#     2   2   2   2   2   2   2   2
#     4  10  23  40  69  99 131 180 230 277 329 407
#     4  11  23  44  69  98 140 176 224 287 345 393
#     4  12  26  42  71  99 138 186 232 277 334 417
#     4  11  24  44  68 103 137 181 236 273 337 410
#     4  12  25  44  69  99 135 177 230 291 344 399
#     4  10  22  42  68  95 132 177 221 271 344 417
#     4  11  24  43  66 104 137 178 225 285 347 393
#     4  11  22  44  71  97 140 179 231 277 336 414
#
# _framework density 22.315386
#
# number of rings (size 3 to 8) (size 9 to 14) (size 15 to 20)
#    0.000    1.000    2.500    4.875    8.750    0.000 
#    0.000    5.000    0.000    0.000    0.000    0.000 
#    0.000    0.000    0.000    0.000    0.000    0.000 
#
# Total GULP energy -198297.436271 kJ/mol
# GULP energy per Si atom -12393.589767 kJ/mol
# Density = 2.226460 g / cm^3
# Si number density = 22.315386 Si / 1000 Ang^3
#
#
#
# Elastic Constant Matrix: (Units=GPa)
#
#
# Indices 1 2 3 4 5 6 
#
# 1 60.1435 15.3061 30.1693 -1.1812 -5.8934 -1.9947
# 2 15.3061 130.3531 48.0323 3.7858 -3.1311 2.5774
# 3 30.1693 48.0323 145.4603 -3.5619 -8.0887 -1.0347
# 4 -1.1812 3.7858 -3.5619 48.9247 5.1219 1.8706
# 5 -5.8934 -3.1311 -8.0887 5.1219 32.9842 -2.3993
# 6 -1.9947 2.5774 -1.0347 1.8706 -2.3993 22.9723
#
#
#
# Elastic Compliance Matrix: (Units=1/GPa)
#
#
# Indices 1 2 3 4 5 6 
#
# 1 0.018912 -0.000917 -0.003464 -0.000067 0.002589 0.001865
# 2 -0.000917 0.008843 -0.002756 -0.000870 0.000053 -0.001120
# 3 -0.003464 -0.002756 0.008586 0.000615 0.001163 0.000467
# 4 -0.000067 -0.000870 0.000615 0.020974 -0.003342 -0.001937
# 5 0.002589 0.000053 0.001163 -0.003342 0.031871 0.003872
# 6 0.001865 -0.001120 0.000467 -0.001937 0.003872 0.044401
#
#
# Mechanical properties :
#
#
# Convention : Reuss Voigt Hill
#
# Bulk Modulus (GPa) = 45.31602 58.10803 51.71202
# Shear Modulus (GPa) = 32.21256 37.13953 34.67604
#
# Velocity S-wave (km/s) = 3.80348 4.08401 3.94624
# Velocity P-wave (km/s) = 6.29601 6.95233 6.63229
#
# Compressibility (1/GPa) = 0.02206725
#
# Stress axis : x y z
#
# Youngs Moduli (GPa) = 52.87614 113.07784 116.46265
#
# Poissons Ratio (x) = 0.10369 0.40344
# Poissons Ratio (y) = 0.04849 0.32101
# Poissons Ratio (z) = 0.18317 0.31168
#
# Static dielectric constant tensor:
#      x y z
#    x 3.760750 -0.011240 -0.163850 
#    y -0.011240 4.867920 0.222190 
#    z -0.163850 0.222190 4.427480 
# 
# 
# High freq. dielectric constant tensor:
#      x y z
#    x 1.844820 0.003200 0.000550 
#    y 0.003200 1.901700 0.007650 
#    z 0.000550 0.007650 1.897630 
# 
# From -- ./inp_files/239205.got.cif
#   From: 2010.06.25/outbox.cif.g09.slc.cpg/sg2_120_cif.got.tgz:239205.got - 2010.06.27 13:26:56.
