data_PCOD8020555
_publ_section_title
;
Structure prediction by ZEFSAII (Michael W. Deem and Ramdas Pophale) SiO2 
 PCOD8020555
Probable space group: P -1
;
_chemical_formula_sum "Si O2"
_cell_formula_units_Z 16
_cell_length_a 9.007289
_cell_length_b 19.978342
_cell_length_c 23.832611
_cell_angle_alpha 20.936200
_cell_angle_beta 44.075032
_cell_angle_gamma 31.662621
_cell_volume 734.415498
_symmetry_space_group_name_H-M "P -1"
_symmetry_group_IT_number 2
_symmetry_cell_setting 'triclinic'
loop_
_space_group_symop_operation_xyz
x,y,z
-x,-y,-z
loop_
_atom_site_type_symbol
_atom_site_label
_atom_site_fract_x
_atom_site_fract_y
_atom_site_fract_z
Si Si1 0.145923 0.883381 0.940854
Si Si2 0.216400 0.978151 0.269626
Si Si3 0.219370 0.329416 0.247471
Si Si4 0.980098 0.615140 0.242995
Si Si5 0.859765 0.867855 0.479885
Si Si6 0.782412 0.562542 0.960682
Si Si7 0.157559 0.269688 0.682448
Si Si8 0.285733 0.036675 0.082359
O O1 0.433911 0.756648 0.923219
O O2 0.842395 0.045182 0.858766
O O3 0.080411 0.099447 0.830299
O O4 0.198363 0.657999 0.138553
O O5 0.318669 0.910490 0.230883
O O6 0.479403 0.921366 0.277092
O O7 0.169021 0.793646 0.445962
O O8 0.895128 0.288178 0.124895
O O9 0.163245 0.163560 0.422702
O O10 0.202933 0.316780 0.194140
O O11 0.563284 0.172458 0.297838
O O12 0.959550 0.636619 0.101978
O O13 0.949565 0.602931 0.326717
O O14 0.131033 0.332886 0.399037
O O15 0.646209 0.870316 0.101723
O O16 0.000000 0.500000 0.000000
O O17 0.000000 0.500000 0.500000
#
# Coordination Sequence:
#
# PCOD8020555 Si02
#       8
#     2   2   2   2   2   2   2   2
#     4  12  23  43  69  95 129 176 215 272 324 396
#     4  10  23  42  65  96 130 172 217 273 321 396
#     4  10  23  42  67 100 133 166 222 281 326 386
#     4  11  26  43  68  99 131 173 222 271 328 391
#     4  11  23  41  67 104 132 165 221 284 335 372
#     4  11  23  44  68  94 132 179 225 257 331 407
#     4  11  27  43  62  96 138 173 216 264 335 395
#     4  10  22  42  69  97 126 172 226 265 324 390
#
# _framework density 21.786033
#
# number of rings (size 3 to 8) (size 9 to 14) (size 15 to 20)
#    0.000    1.250    2.500    2.250    7.000    3.000 
#    2.250    0.625    0.000    0.000    0.000    0.000 
#    0.000    0.000    0.000    0.000    0.000    0.000 
#
# Total GULP energy -198331.554337 kJ/mol
# GULP energy per Si atom -12395.722146 kJ/mol
# Density = 2.173645 g / cm^3
# Si number density = 21.786033 Si / 1000 Ang^3
#
#
#
# Elastic Constant Matrix: (Units=GPa)
#
#
# Indices 1 2 3 4 5 6 
#
# 1 114.0865 41.1804 50.3470 18.2842 5.2481 -11.3776
# 2 41.1804 103.5308 37.4295 2.9457 -1.3442 -9.0986
# 3 50.3470 37.4295 103.3251 13.3576 5.5830 -6.4155
# 4 18.2842 2.9457 13.3576 25.8615 -4.2199 -8.1862
# 5 5.2481 -1.3442 5.5830 -4.2199 43.0270 5.9460
# 6 -11.3776 -9.0986 -6.4155 -8.1862 5.9460 29.7582
#
#
#
# Elastic Compliance Matrix: (Units=1/GPa)
#
#
# Indices 1 2 3 4 5 6 
#
# 1 0.013125 -0.003435 -0.004085 -0.006580 -0.002057 0.001688
# 2 -0.003435 0.012304 -0.003166 0.003663 0.001224 0.002529
# 3 -0.004085 -0.003166 0.013408 -0.004087 -0.001682 -0.000427
# 4 -0.006580 0.003663 -0.004087 0.049047 0.004841 0.010248
# 5 -0.002057 0.001224 -0.001682 0.004841 0.024832 -0.004405
# 6 0.001688 0.002529 -0.000427 0.010248 -0.004405 0.038630
#
#
# Mechanical properties :
#
#
# Convention : Reuss Voigt Hill
#
# Bulk Modulus (GPa) = 57.25399 64.31733 60.78566
# Shear Modulus (GPa) = 28.00503 32.52837 30.26670
#
# Velocity S-wave (km/s) = 3.58922 3.86824 3.73134
# Velocity P-wave (km/s) = 6.59650 7.03828 6.82097
#
# Compressibility (1/GPa) = 0.01746603
#
# Stress axis : x y z
#
# Youngs Moduli (GPa) = 76.18895 81.27576 74.58262
#
# Poissons Ratio (x) = 0.27919 0.30464
# Poissons Ratio (y) = 0.26172 0.23611
# Poissons Ratio (z) = 0.31120 0.25730
#
# Static dielectric constant tensor:
#      x y z
#    x 3.984710 -0.018200 0.147930 
#    y -0.018200 4.253340 0.118870 
#    z 0.147930 0.118870 3.925340 
# 
# 
# High freq. dielectric constant tensor:
#      x y z
#    x 1.848170 0.004530 0.010580 
#    y 0.004530 1.874620 0.011790 
#    z 0.010580 0.011790 1.855460 
# 
# From -- ./inp_files/332197.got.cif
#   From: 2010.06.25/outbox.cif.g09.slc.cpg/sg2_167_cif.got.tgz:332197.got - 2010.06.27 13:26:56.
