data_PCOD8020875
_publ_section_title
;
Structure prediction by ZEFSAII (Michael W. Deem and Ramdas Pophale) SiO2 
 PCOD8020875
Probable space group: P -1
;
_chemical_formula_sum "Si O2"
_cell_formula_units_Z 14
_cell_length_a 9.582308
_cell_length_b 5.325775
_cell_length_c 13.988626
_cell_angle_alpha 63.947839
_cell_angle_beta 110.631798
_cell_angle_gamma 105.687887
_cell_volume 594.511820
_symmetry_space_group_name_H-M "P -1"
_symmetry_group_IT_number 2
_symmetry_cell_setting 'triclinic'
loop_
_space_group_symop_operation_xyz
x,y,z
-x,-y,-z
loop_
_atom_site_type_symbol
_atom_site_label
_atom_site_fract_x
_atom_site_fract_y
_atom_site_fract_z
Si Si1 0.327728 0.781433 0.158373
Si Si2 0.675913 0.278538 0.526030
Si Si3 0.444760 0.262213 0.318513
Si Si4 0.636354 0.091522 0.236947
Si Si5 0.196571 0.733409 0.939944
Si Si6 0.175558 0.105221 0.523810
Si Si7 0.094061 0.127196 0.089587
O O1 0.307304 0.441857 0.231245
O O2 0.504566 0.861386 0.204846
O O3 0.219283 0.925819 0.181757
O O4 0.291443 0.890836 0.024711
O O5 0.528842 0.365747 0.421165
O O6 0.783558 0.556677 0.543198
O O7 0.618148 0.073773 0.634926
O O8 0.757069 0.080857 0.508224
O O9 0.565141 0.307881 0.252896
O O10 0.715960 0.259492 0.138981
O O11 0.759377 0.940945 0.347784
O O12 0.032827 0.839614 0.865297
O O13 0.180586 0.421663 0.028910
O O14 0.000000 0.000000 0.500000
O O15 0.000000 0.000000 0.000000
#
# Coordination Sequence:
#
# PCOD8020875 Si02
#       7
#     2   2   2   2   2   2   2
#     4  11  21  40  66 102 134 178 237 285 345 433
#     4  10  23  45  72 100 146 183 237 305 353 426
#     4  10  23  39  69 104 136 181 236 292 360 417
#     4  11  24  41  67  99 138 180 236 291 359 419
#     4  10  22  43  64  99 141 181 224 291 347 428
#     4  11  24  48  70 102 142 189 241 297 365 427
#     4   9  21  42  64  89 141 177 229 276 349 417
#
# _framework density 23.548732000000001
#
# number of rings (size 3 to 8) (size 9 to 14) (size 15 to 20)
#    0.000    1.714    1.429    1.714    2.000    6.286 
#   10.286    0.000    0.000    0.000    0.000    0.000 
#    0.000    0.000    0.000    0.000    0.000    0.000 
#
# Total GULP energy -173495.909675 kJ/mol
# GULP energy per Si atom -12392.564977 kJ/mol
# Density = 2.349513 g / cm^3
# Si number density = 23.548732 Si / 1000 Ang^3
#
#
#
# Elastic Constant Matrix: (Units=GPa)
#
#
# Indices 1 2 3 4 5 6 
#
# 1 155.0176 51.7561 85.8192 -19.4157 15.6128 -0.9585
# 2 51.7561 90.6002 19.2444 -8.4918 11.8246 -1.1515
# 3 85.8192 19.2444 107.2535 -5.7775 7.3340 -5.6078
# 4 -19.4157 -8.4918 -5.7775 26.5769 -4.0663 12.0959
# 5 15.6128 11.8246 7.3340 -4.0663 31.2454 2.4183
# 6 -0.9585 -1.1515 -5.6078 12.0959 2.4183 42.4618
#
#
#
# Elastic Compliance Matrix: (Units=1/GPa)
#
#
# Indices 1 2 3 4 5 6 
#
# 1 0.015789 -0.005644 -0.011227 0.008695 -0.001703 -0.003659
# 2 -0.005644 0.014216 0.002221 0.000106 -0.003121 0.000699
# 3 -0.011227 0.002221 0.017841 -0.005366 -0.000404 0.003715
# 4 0.008695 0.000106 -0.005366 0.050443 0.004611 -0.015142
# 5 -0.001703 -0.003121 -0.000404 0.004611 0.035002 -0.003483
# 6 -0.003659 0.000699 0.003715 -0.015142 -0.003483 0.028489
#
#
# Mechanical properties :
#
#
# Convention : Reuss Voigt Hill
#
# Bulk Modulus (GPa) = 53.92011 74.05677 63.98844
# Shear Modulus (GPa) = 25.34697 33.12694 29.23696
#
# Velocity S-wave (km/s) = 3.28436 3.75472 3.52739
# Velocity P-wave (km/s) = 6.10980 7.09322 6.61980
#
# Compressibility (1/GPa) = 0.01854595
#
# Stress axis : x y z
#
# Youngs Moduli (GPa) = 63.33677 70.34282 56.04940
#
# Poissons Ratio (x) = 0.39700 0.62927
# Poissons Ratio (y) = 0.35746 -0.12448
# Poissons Ratio (z) = 0.71109 -0.15622
#
# Static dielectric constant tensor:
#      x y z
#    x 4.661510 -0.010120 0.373850 
#    y -0.010120 4.175670 -0.017350 
#    z 0.373850 -0.017350 4.179060 
# 
# 
# High freq. dielectric constant tensor:
#      x y z
#    x 1.931000 -0.008100 0.014410 
#    y -0.008100 1.937270 0.011280 
#    z 0.014410 0.011280 1.925040 
# 
# From -- ./inp_files/45327.got.cif
#   From: 2010.06.25/outbox.cif.g09.slc.cpg/sg2_23_cif.got.tgz:45327.got - 2010.06.27 13:26:56.
