data_PCOD8020697
_publ_section_title
;
Structure prediction by ZEFSAII (Michael W. Deem and Ramdas Pophale) SiO2 
 PCOD8020697
Probable space group: P -1
;
_chemical_formula_sum "Si O2"
_cell_formula_units_Z 14
_cell_length_a 10.461018
_cell_length_b 13.632044
_cell_length_c 8.105333
_cell_angle_alpha 41.663266
_cell_angle_beta 72.561346
_cell_angle_gamma 51.036368
_cell_volume 564.160574
_symmetry_space_group_name_H-M "P -1"
_symmetry_group_IT_number 2
_symmetry_cell_setting 'triclinic'
loop_
_space_group_symop_operation_xyz
x,y,z
-x,-y,-z
loop_
_atom_site_type_symbol
_atom_site_label
_atom_site_fract_x
_atom_site_fract_y
_atom_site_fract_z
Si Si1 0.295980 0.836611 0.085214
Si Si2 0.604635 0.989682 0.624207
Si Si3 0.363768 0.703822 0.878752
Si Si4 0.129279 0.393881 0.854275
Si Si5 0.960621 0.233346 0.648808
Si Si6 0.577915 0.768930 0.309598
Si Si7 0.846682 0.395122 0.835204
O O1 0.184518 0.792321 0.283802
O O2 0.426520 0.820573 0.181442
O O3 0.410133 0.691611 0.071974
O O4 0.158542 0.040822 0.785659
O O5 0.654825 0.126084 0.418093
O O6 0.499259 0.049435 0.766039
O O7 0.500000 0.000000 0.500000
O O8 0.772366 0.765535 0.840822
O O9 0.500000 0.500000 0.000000
O O10 0.178455 0.745771 0.887227
O O11 0.093576 0.590492 0.668993
O O12 0.249139 0.295299 0.768722
O O13 0.941921 0.448876 0.841623
O O14 0.965656 0.288810 0.763479
O O15 0.649401 0.586380 0.626759
#
# Coordination Sequence:
#
# PCOD8020697 Si02
#       7
#     2   2   2   2   2   2   2
#     4  10  22  42  77 105 139 191 239 287 350 416
#     4  12  27  45  70 106 142 185 233 292 361 425
#     4  11  24  48  70 101 148 187 229 289 350 430
#     4  11  24  42  70 102 141 183 235 298 350 408
#     4   9  20  41  69 112 140 175 239 300 343 405
#     4  11  22  43  73 106 138 183 241 293 343 416
#     4  10  22  42  72 100 142 184 233 290 352 411
#
# _framework density 24.815629000000001
#
# number of rings (size 3 to 8) (size 9 to 14) (size 15 to 20)
#    0.000    1.429    1.429    3.857    0.000   10.286 
#    0.000    2.857    3.143    0.000    0.000    0.000 
#    0.000    0.000    0.000    0.000    0.000    0.000 
#
# Total GULP energy -173490.172995 kJ/mol
# GULP energy per Si atom -12392.155214 kJ/mol
# Density = 2.475915 g / cm^3
# Si number density = 24.815629 Si / 1000 Ang^3
#
#
#
# Elastic Constant Matrix: (Units=GPa)
#
#
# Indices 1 2 3 4 5 6 
#
# 1 158.5738 44.2418 83.3168 -10.1568 -0.5567 0.3904
# 2 44.2418 106.7953 31.4717 -14.2610 16.6215 13.5127
# 3 83.3168 31.4717 161.7958 -40.0584 -13.3995 0.4523
# 4 -10.1568 -14.2610 -40.0584 33.9324 5.8657 -2.4175
# 5 -0.5567 16.6215 -13.3995 5.8657 38.0429 -0.4302
# 6 0.3904 13.5127 0.4523 -2.4175 -0.4302 26.8942
#
#
#
# Elastic Compliance Matrix: (Units=1/GPa)
#
#
# Indices 1 2 3 4 5 6 
#
# 1 0.009890 -0.003314 -0.005691 -0.005136 0.000394 0.001162
# 2 -0.003314 0.013322 -0.000154 0.005151 -0.006789 -0.006289
# 3 -0.005691 -0.000154 0.012459 0.012598 0.002443 0.001122
# 4 -0.005136 0.005151 0.012598 0.045921 -0.004954 0.001323
# 5 0.000394 -0.006789 0.002443 -0.004954 0.030921 0.003413
# 6 0.001162 -0.006289 0.001122 0.001323 0.003413 0.040480
#
#
# Mechanical properties :
#
#
# Convention : Reuss Voigt Hill
#
# Bulk Modulus (GPa) = 57.62402 82.80283 70.21343
# Shear Modulus (GPa) = 28.23325 37.64953 32.94139
#
# Velocity S-wave (km/s) = 3.37667 3.89931 3.64736
# Velocity P-wave (km/s) = 6.20273 7.32888 6.78919
#
# Compressibility (1/GPa) = 0.01735387
#
# Stress axis : x y z
#
# Youngs Moduli (GPa) = 101.10840 75.06274 80.26184
#
# Poissons Ratio (x) = 0.24879 0.45673
# Poissons Ratio (y) = 0.33511 0.01236
# Poissons Ratio (z) = 0.57536 0.01156
#
# Static dielectric constant tensor:
#      x y z
#    x 4.356900 -0.074880 -0.550140 
#    y -0.074880 4.582870 -0.260370 
#    z -0.550140 -0.260370 5.078480 
# 
# 
# High freq. dielectric constant tensor:
#      x y z
#    x 1.979200 -0.006780 -0.025470 
#    y -0.006780 1.985250 -0.014390 
#    z -0.025470 -0.014390 1.993390 
# 
# From -- ./inp_files/271491.got.cif
#   From: 2010.06.25/outbox.cif.g09.slc.cpg/sg2_136_cif.got.tgz:271491.got - 2010.06.27 13:26:56.
