data_PCOD8020318
_publ_section_title
;
Structure prediction by ZEFSAII (Michael W. Deem and Ramdas Pophale) SiO2 
 PCOD8020318
Probable space group: P -1
;
_chemical_formula_sum "Si O2"
_cell_formula_units_Z 16
_cell_length_a 11.263575
_cell_length_b 20.634044
_cell_length_c 8.173261
_cell_angle_alpha 53.374374
_cell_angle_beta 34.146655
_cell_angle_gamma 39.886328
_cell_volume 679.841299
_symmetry_space_group_name_H-M "P -1"
_symmetry_group_IT_number 2
_symmetry_cell_setting 'triclinic'
loop_
_space_group_symop_operation_xyz
x,y,z
-x,-y,-z
loop_
_atom_site_type_symbol
_atom_site_label
_atom_site_fract_x
_atom_site_fract_y
_atom_site_fract_z
Si Si1 0.389471 0.628937 0.267480
Si Si2 0.131829 0.149602 0.519304
Si Si3 0.104256 0.280003 0.899551
Si Si4 0.024862 0.027500 0.635611
Si Si5 0.498438 0.424415 0.428832
Si Si6 0.442036 0.332244 0.311699
Si Si7 0.457850 0.876344 0.145472
Si Si8 0.973666 0.855234 0.008909
O O1 0.098940 0.736143 0.445412
O O2 0.338815 0.545266 0.428951
O O3 0.543410 0.610336 0.293729
O O4 0.561808 0.619238 0.929331
O O5 0.196292 0.139751 0.652194
O O6 0.037069 0.078721 0.705749
O O7 0.402011 0.102289 0.184636
O O8 0.204395 0.321491 0.587599
O O9 0.321588 0.235388 0.864180
O O10 0.102491 0.186338 0.989316
O O11 0.811593 0.374205 0.142419
O O12 0.787839 0.120417 0.652096
O O13 0.315068 0.965007 0.313141
O O14 0.914832 0.962184 0.882746
O O15 0.401980 0.397826 0.419365
O O16 0.717102 0.221113 0.182327
#
# Coordination Sequence:
#
# PCOD8020318 Si02
#       8
#     2   2   2   2   2   2   2   2
#     4  10  22  42  68  98 132 167 218 267 321 385
#     4  11  24  43  65  92 130 169 212 266 320 383
#     4  11  23  42  66  94 128 172 214 264 324 384
#     4  11  25  40  66  91 125 171 217 260 318 385
#     4  10  22  43  69  97 131 170 213 269 324 388
#     4  10  22  42  67  94 134 174 210 267 324 384
#     4  11  25  39  64  92 125 165 219 264 310 387
#     4  10  24  42  62  95 130 166 213 268 317 379
#
# _framework density 23.534903
#
# number of rings (size 3 to 8) (size 9 to 14) (size 15 to 20)
#    0.000    1.500    2.500    1.125    7.000    3.000 
#    0.000    3.750    0.000    0.000    0.000    0.000 
#    0.000    0.000    0.000    0.000    0.000    0.000 
#
# Total GULP energy -198293.560993 kJ/mol
# GULP energy per Si atom -12393.347562 kJ/mol
# Density = 2.348134 g / cm^3
# Si number density = 23.534903 Si / 1000 Ang^3
#
#
#
# Elastic Constant Matrix: (Units=GPa)
#
#
# Indices 1 2 3 4 5 6 
#
# 1 69.0581 22.4444 36.6761 0.7860 19.4586 8.6259
# 2 22.4444 90.2598 39.9662 4.9057 -3.4213 13.8734
# 3 36.6761 39.9662 109.3199 -12.0549 11.0360 6.7699
# 4 0.7860 4.9057 -12.0549 18.0913 -0.5753 5.9664
# 5 19.4586 -3.4213 11.0360 -0.5753 33.3948 -0.2255
# 6 8.6259 13.8734 6.7699 5.9664 -0.2255 25.6425
#
#
#
# Elastic Compliance Matrix: (Units=1/GPa)
#
#
# Indices 1 2 3 4 5 6 
#
# 1 0.021905 -0.002810 -0.005230 -0.002741 -0.011397 -0.003930
# 2 -0.002810 0.015476 -0.005621 -0.006192 0.004944 -0.004460
# 3 -0.005230 -0.005621 0.014620 0.012045 -0.002165 -0.001881
# 4 -0.002741 -0.006192 0.012045 0.070060 -0.001914 -0.015226
# 5 -0.011397 0.004944 -0.002165 -0.001914 0.037792 0.002508
# 6 -0.003930 -0.004460 -0.001881 -0.015226 0.002508 0.046794
#
#
# Mechanical properties :
#
#
# Convention : Reuss Voigt Hill
#
# Bulk Modulus (GPa) = 40.51946 51.86791 46.19369
# Shear Modulus (GPa) = 20.64451 26.72913 23.68682
#
# Velocity S-wave (km/s) = 2.96495 3.37370 3.17591
# Velocity P-wave (km/s) = 5.38288 6.10429 5.75490
#
# Compressibility (1/GPa) = 0.02467950
#
# Stress axis : x y z
#
# Youngs Moduli (GPa) = 45.65197 64.61546 68.39822
#
# Poissons Ratio (x) = 0.18158 0.35772
# Poissons Ratio (y) = 0.12829 0.38445
# Poissons Ratio (z) = 0.23875 0.36319
#
# Static dielectric constant tensor:
#      x y z
#    x 4.215140 -0.054390 0.333760 
#    y -0.054390 4.105770 0.074600 
#    z 0.333760 0.074600 4.243060 
# 
# 
# High freq. dielectric constant tensor:
#      x y z
#    x 1.922250 -0.003510 0.017820 
#    y -0.003510 1.932220 0.004160 
#    z 0.017820 0.004160 1.930570 
# 
# From -- ./inp_files/282822.got.cif
#   From: 2010.06.25/outbox.cif.g09.slc.cpg/sg2_142_cif.got.tgz:282822.got - 2010.06.27 13:26:56.
