data_PCOD8020153
_publ_section_title
;
Structure prediction by ZEFSAII (Michael W. Deem and Ramdas Pophale) SiO2 
 PCOD8020153
Probable space group: P -1
;
_chemical_formula_sum "Si O2"
_cell_formula_units_Z 16
_cell_length_a 12.314491
_cell_length_b 10.322678
_cell_length_c 8.107024
_cell_angle_alpha 60.572586
_cell_angle_beta 82.850295
_cell_angle_gamma 120.444702
_cell_volume 671.356508
_symmetry_space_group_name_H-M "P -1"
_symmetry_group_IT_number 2
_symmetry_cell_setting 'triclinic'
loop_
_space_group_symop_operation_xyz
x,y,z
-x,-y,-z
loop_
_atom_site_type_symbol
_atom_site_label
_atom_site_fract_x
_atom_site_fract_y
_atom_site_fract_z
Si Si1 0.865613 0.033577 0.374651
Si Si2 0.387187 0.479688 0.913291
Si Si3 0.420251 0.959640 0.208770
Si Si4 0.974048 0.147839 0.937370
Si Si5 0.851403 0.690555 0.671590
Si Si6 0.431833 0.134857 0.566653
Si Si7 0.336581 0.152798 0.928849
Si Si8 0.140266 0.524217 0.475921
O O1 0.817352 0.817009 0.507923
O O2 0.719096 0.001936 0.422556
O O3 0.972648 0.157588 0.430676
O O4 0.961118 0.170357 0.117546
O O5 0.451817 0.680741 0.685513
O O6 0.339449 0.326640 0.870727
O O7 0.500000 0.500000 0.000000
O O8 0.243701 0.402329 0.086929
O O9 0.517039 0.990382 0.327101
O O10 0.270365 0.736706 0.388297
O O11 0.500000 0.000000 0.000000
O O12 0.398653 0.118555 0.099969
O O13 0.107115 0.362583 0.711104
O O14 0.824848 0.056828 0.930391
O O15 0.000000 0.000000 0.000000
O O16 0.811164 0.512103 0.680939
O O17 0.418921 0.205119 0.704674
O O18 0.000000 0.500000 0.500000
#
# Coordination Sequence:
#
# PCOD8020153 Si02
#       8
#     2   2   2   2   2   2   2   2
#     4  10  22  42  66 105 137 179 226 286 352 404
#     4  12  25  40  69 110 140 179 230 294 357 403
#     4  10  24  44  72  97 139 183 239 284 344 404
#     4  11  21  39  72 103 129 175 238 284 335 411
#     4  11  25  42  69 100 147 175 224 290 358 408
#     4  10  23  43  71 104 135 187 239 282 336 429
#     4  10  23  43  70  97 139 185 233 286 340 416
#     4  12  26  46  73 101 133 187 237 282 348 419
#
# _framework density 23.832346000000001
#
# number of rings (size 3 to 8) (size 9 to 14) (size 15 to 20)
#    0.000    1.250    3.750    1.125    8.750    0.000 
#    0.000    1.250    2.750    0.000    0.000    0.000 
#    0.000    0.000    0.000    0.000    0.000    0.000 
#
# Total GULP energy -198336.630726 kJ/mol
# GULP energy per Si atom -12396.039420 kJ/mol
# Density = 2.377810 g / cm^3
# Si number density = 23.832346 Si / 1000 Ang^3
#
#
#
# Elastic Constant Matrix: (Units=GPa)
#
#
# Indices 1 2 3 4 5 6 
#
# 1 115.1210 1.8351 34.3602 -4.5894 15.0461 22.7080
# 2 1.8351 32.4320 3.1141 0.8729 -1.9735 8.5275
# 3 34.3602 3.1141 153.8278 -6.6502 1.9379 3.3908
# 4 -4.5894 0.8729 -6.6502 26.3533 4.7596 1.0594
# 5 15.0461 -1.9735 1.9379 4.7596 40.4288 1.5571
# 6 22.7080 8.5275 3.3908 1.0594 1.5571 33.9835
#
#
#
# Elastic Compliance Matrix: (Units=1/GPa)
#
#
# Indices 1 2 3 4 5 6 
#
# 1 0.011485 0.001265 -0.002265 0.002434 -0.004096 -0.007654
# 2 0.001265 0.033386 -0.000821 -0.001026 0.001673 -0.009186
# 3 -0.002265 -0.000821 0.007056 0.001326 0.000272 0.000962
# 4 0.002434 -0.001026 0.001326 0.039852 -0.005615 -0.002486
# 5 -0.004096 0.001673 0.000272 -0.005615 0.026941 0.001230
# 6 -0.007654 -0.009186 0.000962 -0.002486 0.001230 0.036770
#
#
# Mechanical properties :
#
#
# Convention : Reuss Voigt Hill
#
# Bulk Modulus (GPa) = 20.71103 42.22218 31.46661
# Shear Modulus (GPa) = 28.53430 37.62453 33.07942
#
# Velocity S-wave (km/s) = 3.46395 3.97762 3.72964
# Velocity P-wave (km/s) = 4.97069 6.23298 5.63728
#
# Compressibility (1/GPa) = 0.04828345
#
# Stress axis : x y z
#
# Youngs Moduli (GPa) = 87.07379 29.95298 141.72144
#
# Poissons Ratio (x) = -0.03790 0.32105
# Poissons Ratio (y) = -0.11018 0.11642
# Poissons Ratio (z) = 0.19725 0.02460
#
# Static dielectric constant tensor:
#      x y z
#    x 5.412290 0.735830 -0.521660 
#    y 0.735830 4.520210 -0.608190 
#    z -0.521660 -0.608190 5.368100 
# 
# 
# High freq. dielectric constant tensor:
#      x y z
#    x 1.956150 0.011510 -0.000040 
#    y 0.011510 1.918320 0.004010 
#    z -0.000040 0.004010 1.959600 
# 
# From -- ./inp_files/261637.got.cif
#   From: 2010.06.25/outbox.cif.g09.slc.cpg/sg2_131_cif.got.tgz:261637.got - 2010.06.27 13:26:56.
