data_PCOD8020406
_publ_section_title
;
Structure prediction by ZEFSAII (Michael W. Deem and Ramdas Pophale) SiO2 
 PCOD8020406
Probable space group: P -1
;
_chemical_formula_sum "Si O2"
_cell_formula_units_Z 16
_cell_length_a 12.999263
_cell_length_b 10.859751
_cell_length_c 6.638478
_cell_angle_alpha 82.792356
_cell_angle_beta 49.071490
_cell_angle_gamma 83.608362
_cell_volume 701.913844
_symmetry_space_group_name_H-M "P -1"
_symmetry_group_IT_number 2
_symmetry_cell_setting 'triclinic'
loop_
_space_group_symop_operation_xyz
x,y,z
-x,-y,-z
loop_
_atom_site_type_symbol
_atom_site_label
_atom_site_fract_x
_atom_site_fract_y
_atom_site_fract_z
Si Si1 0.107401 0.386976 0.344323
Si Si2 0.334746 0.350045 0.384874
Si Si3 0.961698 0.868745 0.670680
Si Si4 0.748807 0.487589 0.191652
Si Si5 0.205257 0.726902 0.551126
Si Si6 0.362507 0.676464 0.970708
Si Si7 0.305169 0.121763 0.726545
Si Si8 0.600424 0.141048 0.453422
O O1 0.233372 0.398972 0.331981
O O2 0.049096 0.247344 0.450970
O O3 0.000000 0.500000 0.500000
O O4 0.155651 0.409228 0.047844
O O5 0.346721 0.447468 0.532174
O O6 0.489699 0.338035 0.107719
O O7 0.275945 0.223540 0.571385
O O8 0.081159 0.828234 0.681326
O O9 0.820707 0.892214 0.961424
O O10 0.000000 0.000000 0.500000
O O11 0.839063 0.380767 0.215711
O O12 0.659615 0.433040 0.137750
O O13 0.340785 0.786533 0.448910
O O14 0.243735 0.675259 0.290176
O O15 0.354874 0.805722 0.831695
O O16 0.436956 0.153284 0.685518
O O17 0.339388 0.997915 0.582992
#
# Coordination Sequence:
#
# PCOD8020406 Si02
#       8
#     2   2   2   2   2   2   2   2
#     4  12  28  45  68 102 147 187 239 292 349 424
#     4  11  24  41  71 101 135 189 232 288 348 417
#     4  12  27  46  70 105 143 184 242 297 348 427
#     4  11  23  44  68 100 142 182 229 290 350 421
#     4  11  25  43  72 101 141 189 220 289 362 410
#     4  10  22  42  68 107 140 174 236 286 352 421
#     4  10  22  45  68 101 138 179 237 286 351 421
#     4   9  22  44  70  99 141 181 226 295 348 418
#
# _framework density 22.794819
#
# number of rings (size 3 to 8) (size 9 to 14) (size 15 to 20)
#    0.000    1.250    1.250    3.375    5.250    5.500 
#    0.000    2.500    0.000    0.000    0.000    0.000 
#    0.000    0.000    0.000    0.000    0.000    0.000 
#
# Total GULP energy -198361.479145 kJ/mol
# GULP energy per Si atom -12397.592447 kJ/mol
# Density = 2.274294 g / cm^3
# Si number density = 22.794819 Si / 1000 Ang^3
#
#
#
# Elastic Constant Matrix: (Units=GPa)
#
#
# Indices 1 2 3 4 5 6 
#
# 1 122.8601 48.4826 50.4122 -1.0537 3.0539 -15.0077
# 2 48.4826 133.8609 37.9510 -23.9112 3.3596 -9.9663
# 3 50.4122 37.9510 99.8795 -11.1938 -3.2628 -7.8514
# 4 -1.0537 -23.9112 -11.1938 32.5840 -1.5386 -0.7208
# 5 3.0539 3.3596 -3.2628 -1.5386 28.8848 3.1246
# 6 -15.0077 -9.9663 -7.8514 -0.7208 3.1246 38.0381
#
#
#
# Elastic Compliance Matrix: (Units=1/GPa)
#
#
# Indices 1 2 3 4 5 6 
#
# 1 0.011853 -0.003289 -0.004994 -0.003774 -0.001947 0.002873
# 2 -0.003289 0.010451 -0.001441 0.007060 -0.000800 0.001343
# 3 -0.004994 -0.001441 0.013583 0.003568 0.002384 0.000328
# 4 -0.003774 0.007060 0.003568 0.037095 0.001778 0.001654
# 5 -0.001947 -0.000800 0.002384 0.001778 0.035649 -0.003380
# 6 0.002873 0.001343 0.000328 0.001654 -0.003380 0.028151
#
#
# Mechanical properties :
#
#
# Convention : Reuss Voigt Hill
#
# Bulk Modulus (GPa) = 60.82075 70.03244 65.42660
# Shear Modulus (GPa) = 30.91974 34.55170 32.73572
#
# Velocity S-wave (km/s) = 3.68698 3.89751 3.79371
# Velocity P-wave (km/s) = 6.69812 7.14449 6.92491
#
# Compressibility (1/GPa) = 0.01644176
#
# Stress axis : x y z
#
# Youngs Moduli (GPa) = 84.36672 95.68347 73.61927
#
# Poissons Ratio (x) = 0.31467 0.36763
# Poissons Ratio (y) = 0.27745 0.10605
# Poissons Ratio (z) = 0.42130 0.13784
#
# Static dielectric constant tensor:
#      x y z
#    x 4.064470 -0.049410 -0.072580 
#    y -0.049410 4.409550 -0.211760 
#    z -0.072580 -0.211760 3.995820 
# 
# 
# High freq. dielectric constant tensor:
#      x y z
#    x 1.901010 -0.003960 -0.005980 
#    y -0.003960 1.918060 -0.010040 
#    z -0.005980 -0.010040 1.887090 
# 
# From -- ./inp_files/69589.got.cif
#   From: 2010.06.25/outbox.cif.g09.slc.cpg/sg2_35_cif.got.tgz:69589.got - 2010.06.27 13:26:56.
