data_PCOD8020684
_publ_section_title
;
Structure prediction by ZEFSAII (Michael W. Deem and Ramdas Pophale) SiO2 
 PCOD8020684
Probable space group: P -1
;
_chemical_formula_sum "Si O2"
_cell_formula_units_Z 16
_cell_length_a 22.286097
_cell_length_b 9.065764
_cell_length_c 13.175227
_cell_angle_alpha 57.100439
_cell_angle_beta 31.480367
_cell_angle_gamma 35.579505
_cell_volume 702.694663
_symmetry_space_group_name_H-M "P -1"
_symmetry_group_IT_number 2
_symmetry_cell_setting 'triclinic'
loop_
_space_group_symop_operation_xyz
x,y,z
-x,-y,-z
loop_
_atom_site_type_symbol
_atom_site_label
_atom_site_fract_x
_atom_site_fract_y
_atom_site_fract_z
Si Si1 0.937165 0.495819 0.357201
Si Si2 0.525671 0.571912 0.798344
Si Si3 0.836733 0.418999 0.337646
Si Si4 0.732903 0.022457 0.809499
Si Si5 0.724807 0.731395 0.774062
Si Si6 0.207634 0.736439 0.083438
Si Si7 0.927870 0.352647 0.013258
Si Si8 0.706087 0.323400 0.243269
O O1 0.824757 0.564083 0.395903
O O2 0.789828 0.728677 0.571810
O O3 0.070721 0.493760 0.128136
O O4 0.082659 0.171036 0.312742
O O5 0.629580 0.577891 0.569017
O O6 0.694517 0.232296 0.713000
O O7 0.454554 0.767336 0.926994
O O8 0.348093 0.688919 0.962207
O O9 0.873346 0.482754 0.157370
O O10 0.000693 0.074755 0.246814
O O11 0.788541 0.782510 0.753435
O O12 0.813276 0.429569 0.773669
O O13 0.500000 0.000000 0.000000
O O14 0.298409 0.600562 0.892915
O O15 0.764478 0.413200 0.197427
O O16 0.140721 0.016373 0.833476
O O17 0.500000 0.500000 0.500000
#
# Coordination Sequence:
#
# PCOD8020684 Si02
#       8
#     2   2   2   2   2   2   2   2
#     4  12  25  43  67  94 142 177 219 285 336 393
#     4  11  23  43  70  94 138 177 222 277 325 407
#     4  11  24  44  69  95 130 183 226 271 339 393
#     4  11  24  42  65 100 135 173 224 269 342 400
#     4  12  25  40  64 100 135 174 220 275 339 396
#     4  11  23  43  68  98 135 172 225 276 331 408
#     4  10  24  44  66  98 134 173 226 278 332 397
#     4  10  22  42  71  98 130 177 224 273 335 395
#
# _framework density 22.769493000000001
#
# number of rings (size 3 to 8) (size 9 to 14) (size 15 to 20)
#    0.000    1.000    2.500    3.750    3.500    4.000 
#    2.250    0.625    0.000    0.000    0.000    0.000 
#    0.000    0.000    0.000    0.000    0.000    0.000 
#
# Total GULP energy -198394.993214 kJ/mol
# GULP energy per Si atom -12399.687076 kJ/mol
# Density = 2.271767 g / cm^3
# Si number density = 22.769493 Si / 1000 Ang^3
#
#
#
# Elastic Constant Matrix: (Units=GPa)
#
#
# Indices 1 2 3 4 5 6 
#
# 1 119.8668 16.5130 57.1120 -6.3122 17.7967 7.5383
# 2 16.5130 48.2085 31.1115 -5.6384 10.1915 2.5582
# 3 57.1120 31.1115 141.9141 -17.3093 9.5561 3.9295
# 4 -6.3122 -5.6384 -17.3093 29.4649 -3.0862 2.1784
# 5 17.7967 10.1915 9.5561 -3.0862 37.4653 -1.8104
# 6 7.5383 2.5582 3.9295 2.1784 -1.8104 32.1989
#
#
#
# Elastic Compliance Matrix: (Units=1/GPa)
#
#
# Indices 1 2 3 4 5 6 
#
# 1 0.011094 -0.000147 -0.004121 -0.000355 -0.004319 -0.002301
# 2 -0.000147 0.025403 -0.004903 0.001501 -0.005553 -0.001799
# 3 -0.004121 -0.004903 0.010240 0.004312 0.001028 -0.000129
# 4 -0.000355 0.001501 0.004312 0.037068 0.001570 -0.002982
# 5 -0.004319 -0.005553 0.001028 0.001570 0.030262 0.002922
# 6 -0.002301 -0.001799 -0.000129 -0.002982 0.002922 0.032120
#
#
# Mechanical properties :
#
#
# Convention : Reuss Voigt Hill
#
# Bulk Modulus (GPa) = 35.21784 57.71804 46.46794
# Shear Modulus (GPa) = 28.73675 33.50936 31.12305
#
# Velocity S-wave (km/s) = 3.55642 3.84041 3.70114
# Velocity P-wave (km/s) = 5.68901 6.71333 6.22229
#
# Compressibility (1/GPa) = 0.02839470
#
# Stress axis : x y z
#
# Youngs Moduli (GPa) = 90.14167 39.36586 97.65488
#
# Poissons Ratio (x) = 0.00577 0.40244
# Poissons Ratio (y) = 0.01322 0.47882
# Poissons Ratio (z) = 0.37148 0.19302
#
# Static dielectric constant tensor:
#      x y z
#    x 4.360480 0.000420 0.199150 
#    y 0.000420 4.004150 -0.056370 
#    z 0.199150 -0.056370 4.141010 
# 
# 
# High freq. dielectric constant tensor:
#      x y z
#    x 1.907090 -0.006690 0.008240 
#    y -0.006690 1.879650 -0.000200 
#    z 0.008240 -0.000200 1.913770 
# 
# From -- ./inp_files/469943.got.cif
#   From: 2010.06.25/outbox.cif.g09.slc.cpg/sg2_235_cif.got.tgz:469943.got - 2010.06.27 13:26:56.
