data_PCOD8020802
_publ_section_title
;
Structure prediction by ZEFSAII (Michael W. Deem and Ramdas Pophale) SiO2 
 PCOD8020802
Probable space group: P -1
;
_chemical_formula_sum "Si O2"
_cell_formula_units_Z 12
_cell_length_a 15.505794
_cell_length_b 13.379252
_cell_length_c 5.158293
_cell_angle_alpha 102.205065
_cell_angle_beta 79.761564
_cell_angle_gamma 146.509560
_cell_volume 577.140312
_symmetry_space_group_name_H-M "P -1"
_symmetry_group_IT_number 2
_symmetry_cell_setting 'triclinic'
loop_
_space_group_symop_operation_xyz
x,y,z
-x,-y,-z
loop_
_atom_site_type_symbol
_atom_site_label
_atom_site_fract_x
_atom_site_fract_y
_atom_site_fract_z
Si Si1 0.899368 0.991491 0.425543
Si Si2 0.879428 0.177375 0.785653
Si Si3 0.582553 0.303322 0.674935
Si Si4 0.560002 0.615773 0.280788
Si Si5 0.947155 0.680583 0.718370
Si Si6 0.462535 0.079620 0.124508
O O1 0.747523 0.795753 0.267730
O O2 0.845744 0.022610 0.689953
O O3 0.000000 0.000000 0.500000
O O4 0.004669 0.152760 0.243320
O O5 0.989494 0.320322 0.566522
O O6 0.720490 0.087170 0.809197
O O7 0.971472 0.290476 0.060542
O O8 0.501438 0.328869 0.645769
O O9 0.763182 0.494315 0.742851
O O10 0.561300 0.204635 0.394838
O O11 0.502093 0.187649 0.916719
O O12 0.500000 0.500000 0.500000
O O13 0.500000 0.500000 0.000000
O O14 0.500000 0.000000 0.000000
#
# Coordination Sequence:
#
# PCOD8020802 Si02
#       6
#     2   2   2   2   2   2
#     4  10  23  40  64  91 135 175 220 258 333 392
#     4  10  22  43  63  91 130 169 214 269 331 385
#     4  12  24  46  66 102 137 169 226 284 320 401
#     4  12  26  39  65 101 137 179 221 264 327 401
#     4  10  23  40  67  90 135 171 209 268 339 378
#     4  12  25  46  73  96 128 179 227 279 340 387
#
# _framework density 20.792169999999999
#
# number of rings (size 3 to 8) (size 9 to 14) (size 15 to 20)
#    1.000    0.000    1.667    5.500    4.667    0.667 
#    0.000    5.000    0.000    0.000    0.000    0.000 
#    0.000    0.000    0.000    0.000    0.000    0.000 
#
# Total GULP energy -148810.056226 kJ/mol
# GULP energy per Si atom -12400.838019 kJ/mol
# Density = 2.074485 g / cm^3
# Si number density = 20.792170 Si / 1000 Ang^3
#
#
#
# Elastic Constant Matrix: (Units=GPa)
#
#
# Indices 1 2 3 4 5 6 
#
# 1 95.4601 32.4339 12.3459 4.0486 -10.8137 27.0992
# 2 32.4339 96.0944 21.2909 11.8285 4.4970 21.1048
# 3 12.3459 21.2909 121.8184 5.7498 13.0391 4.7325
# 4 4.0486 11.8285 5.7498 42.3352 0.6211 7.4184
# 5 -10.8137 4.4970 13.0391 0.6211 34.9452 0.3927
# 6 27.0992 21.1048 4.7325 7.4184 0.3927 27.4398
#
#
#
# Elastic Compliance Matrix: (Units=1/GPa)
#
#
# Indices 1 2 3 4 5 6 
#
# 1 0.016189 -0.002497 -0.001368 0.001770 0.005972 -0.014396
# 2 -0.002497 0.013477 -0.001537 -0.002055 -0.001818 -0.007053
# 3 -0.001368 -0.001537 0.008990 -0.000829 -0.003579 0.001258
# 4 0.001770 -0.002055 -0.000829 0.025334 0.000749 -0.006884
# 5 0.005972 -0.001818 -0.003579 0.000749 0.032071 -0.004543
# 6 -0.014396 -0.007053 0.001258 -0.006884 -0.004543 0.057794
#
#
# Mechanical properties :
#
#
# Convention : Reuss Voigt Hill
#
# Bulk Modulus (GPa) = 35.90355 49.50157 42.70256
# Shear Modulus (GPa) = 28.74537 37.43086 33.08812
#
# Velocity S-wave (km/s) = 3.72224 4.24752 3.99353
# Velocity P-wave (km/s) = 5.98154 6.92205 6.46891
#
# Compressibility (1/GPa) = 0.02785240
#
# Stress axis : x y z
#
# Youngs Moduli (GPa) = 61.77118 74.20230 111.24073
#
# Poissons Ratio (x) = 0.18526 0.15215
# Poissons Ratio (y) = 0.15422 0.17095
# Poissons Ratio (z) = 0.08449 0.11403
#
# Static dielectric constant tensor:
#      x y z
#    x 3.561600 0.085050 0.037020 
#    y 0.085050 3.851740 0.077690 
#    z 0.037020 0.077690 4.013400 
# 
# 
# High freq. dielectric constant tensor:
#      x y z
#    x 1.806690 0.014800 0.007710 
#    y 0.014800 1.819430 0.001710 
#    z 0.007710 0.001710 1.826240 
# 
# From -- ./inp_files/96525.got.cif
#   From: 2010.06.25/outbox.cif.g09.slc.cpg/sg2_49_cif.got.tgz:96525.got - 2010.06.27 13:26:56.
