data_PCOD8020143
_publ_section_title
;
Structure prediction by ZEFSAII (Michael W. Deem and Ramdas Pophale) SiO2 
 PCOD8020143
Probable space group: P -1
;
_chemical_formula_sum "Si O2"
_cell_formula_units_Z 14
_cell_length_a 14.693340
_cell_length_b 11.388161
_cell_length_c 20.762292
_cell_angle_alpha 33.527140
_cell_angle_beta 19.023939
_cell_angle_gamma 41.499813
_cell_volume 610.530410
_symmetry_space_group_name_H-M "P -1"
_symmetry_group_IT_number 2
_symmetry_cell_setting 'triclinic'
loop_
_space_group_symop_operation_xyz
x,y,z
-x,-y,-z
loop_
_atom_site_type_symbol
_atom_site_label
_atom_site_fract_x
_atom_site_fract_y
_atom_site_fract_z
Si Si1 0.041079 0.372440 0.126804
Si Si2 0.740515 0.241070 0.099439
Si Si3 0.897014 0.829497 0.232802
Si Si4 0.247477 0.994367 0.221515
Si Si5 0.546898 0.989136 0.151513
Si Si6 0.326940 0.286213 0.253273
Si Si7 0.586452 0.538148 0.286522
O O1 0.721130 0.388887 0.314018
O O2 0.046344 0.157517 0.261850
O O3 0.168185 0.581874 0.987954
O O4 0.205669 0.353967 0.958539
O O5 0.446569 0.286777 0.245623
O O6 0.712539 0.009579 0.258883
O O7 0.964891 0.247980 0.888342
O O8 0.682202 0.613348 0.499756
O O9 0.117365 0.907557 0.108071
O O10 0.023627 0.755760 0.489238
O O11 0.419698 0.078978 0.132197
O O12 0.500000 0.000000 0.000000
O O13 0.376233 0.063764 0.290203
O O14 0.495393 0.728277 0.302277
O O15 0.500000 0.500000 0.000000
#
# Coordination Sequence:
#
# PCOD8020143 Si02
#       7
#     2   2   2   2   2   2   2
#     4  11  24  44  65 102 138 181 227 283 348 409
#     4  10  22  42  66 101 134 170 233 282 336 414
#     4  10  23  42  68 102 134 177 224 286 348 403
#     4  12  26  44  69 101 142 180 233 284 344 412
#     4  11  24  45  70 102 137 178 231 286 343 416
#     4  11  26  45  71 102 139 187 231 284 350 413
#     4  11  24  43  71  98 140 180 226 283 350 413
#
# _framework density 22.930879999999998
#
# number of rings (size 3 to 8) (size 9 to 14) (size 15 to 20)
#    0.000    1.143    2.857    2.143    6.000    2.286 
#    0.000    2.143    0.000    0.000    0.000    0.000 
#    0.000    0.000    0.000    0.000    0.000    0.000 
#
# Total GULP energy -173489.159114 kJ/mol
# GULP energy per Si atom -12392.082794 kJ/mol
# Density = 2.287869 g / cm^3
# Si number density = 22.930880 Si / 1000 Ang^3
#
#
#
# Elastic Constant Matrix: (Units=GPa)
#
#
# Indices 1 2 3 4 5 6 
#
# 1 132.3010 30.8876 37.2454 -8.8472 -26.5821 -21.5273
# 2 30.8876 96.8467 39.5982 -17.6664 -2.9247 -12.8734
# 3 37.2454 39.5982 131.5773 -9.4768 -24.8010 -6.1964
# 4 -8.8472 -17.6664 -9.4768 21.9037 3.5237 -0.8674
# 5 -26.5821 -2.9247 -24.8010 3.5237 31.0150 -3.1036
# 6 -21.5273 -12.8734 -6.1964 -0.8674 -3.1036 44.6535
#
#
#
# Elastic Compliance Matrix: (Units=1/GPa)
#
#
# Indices 1 2 3 4 5 6 
#
# 1 0.010975 -0.002132 -0.000373 0.001266 0.009293 0.005295
# 2 -0.002132 0.014590 -0.003761 0.010079 -0.004349 0.002550
# 3 -0.000373 -0.003761 0.010315 0.000078 0.007636 0.000700
# 4 0.001266 0.010079 0.000078 0.055101 -0.003727 0.004339
# 5 0.009293 -0.004349 0.007636 -0.003727 0.047075 0.007485
# 6 0.005295 0.002550 0.000700 0.004339 0.007485 0.026384
#
#
# Mechanical properties :
#
#
# Convention : Reuss Voigt Hill
#
# Bulk Modulus (GPa) = 42.83046 64.02082 53.42564
# Shear Modulus (GPa) = 27.06298 36.38069 31.72183
#
# Velocity S-wave (km/s) = 3.43913 3.98746 3.72340
# Velocity P-wave (km/s) = 5.87271 7.01280 6.46793
#
# Compressibility (1/GPa) = 0.02334787
#
# Stress axis : x y z
#
# Youngs Moduli (GPa) = 91.11898 68.54183 96.94375
#
# Poissons Ratio (x) = 0.14615 0.03613
# Poissons Ratio (y) = 0.19429 0.36459
# Poissons Ratio (z) = 0.03396 0.25778
#
# Static dielectric constant tensor:
#      x y z
#    x 4.658050 -0.364510 -0.325930 
#    y -0.364510 4.355850 0.035470 
#    z -0.325930 0.035470 3.963020 
# 
# 
# High freq. dielectric constant tensor:
#      x y z
#    x 1.918720 -0.010100 -0.017360 
#    y -0.010100 1.910760 -0.004130 
#    z -0.017360 -0.004130 1.889180 
# 
# From -- ./inp_files/191115.got.cif
#   From: 2010.06.25/outbox.cif.g09.slc.cpg/sg2_96_cif.got.tgz:191115.got - 2010.06.27 13:26:56.
