data_PCOD8020775
_publ_section_title
;
Structure prediction by ZEFSAII (Michael W. Deem and Ramdas Pophale) SiO2 
 PCOD8020775
Probable space group: P -1
;
_chemical_formula_sum "Si O2"
_cell_formula_units_Z 16
_cell_length_a 11.727767
_cell_length_b 19.601290
_cell_length_c 17.931976
_cell_angle_alpha 21.629762
_cell_angle_beta 147.744664
_cell_angle_gamma 149.495761
_cell_volume 748.896595
_symmetry_space_group_name_H-M "P -1"
_symmetry_group_IT_number 2
_symmetry_cell_setting 'triclinic'
loop_
_space_group_symop_operation_xyz
x,y,z
-x,-y,-z
loop_
_atom_site_type_symbol
_atom_site_label
_atom_site_fract_x
_atom_site_fract_y
_atom_site_fract_z
Si Si1 0.675039 0.875141 0.798787
Si Si2 0.188114 0.843206 0.544244
Si Si3 0.334364 0.965552 0.743303
Si Si4 0.795577 0.496798 0.603309
Si Si5 0.088862 0.229375 0.394186
Si Si6 0.599611 0.357342 0.792650
Si Si7 0.234285 0.817697 0.340297
Si Si8 0.922601 0.607513 0.251886
O O1 0.401792 0.798361 0.742040
O O2 0.722263 0.956050 0.658657
O O3 0.815226 0.044650 0.764293
O O4 0.751381 0.688555 0.032839
O O5 0.040673 0.655972 0.602893
O O6 0.040841 0.882115 0.490008
O O7 0.091020 0.811976 0.731257
O O8 0.290308 0.147472 0.573712
O O9 0.519582 0.058722 0.686379
O O10 0.429859 0.851326 0.972851
O O11 0.667424 0.352989 0.747535
O O12 0.641835 0.612683 0.367492
O O13 0.855585 0.372825 0.696581
O O14 0.205199 0.465964 0.233423
O O15 0.236859 0.618079 0.583872
O O16 0.023594 0.748837 0.235626
#
# Coordination Sequence:
#
# PCOD8020775 Si02
#       8
#     2   2   2   2   2   2   2   2
#     4  11  23  42  67  93 128 174 209 264 324 370
#     4  10  22  43  64  93 134 162 218 266 307 386
#     4  11  23  40  70  92 128 173 209 259 324 379
#     4  10  22  44  63  98 131 163 217 262 311 386
#     4  10  22  43  61 100 126 163 219 264 307 386
#     4  10  23  42  66  93 132 168 207 267 320 370
#     4  11  24  44  62 101 129 161 219 262 314 386
#     4  11  25  42  67  95 129 171 209 269 317 377
#
# _framework density 21.364764999999998
#
# number of rings (size 3 to 8) (size 9 to 14) (size 15 to 20)
#    0.000    1.500    2.500    1.500    3.500    3.500 
#    9.000    2.500    0.000    0.000    0.000    0.000 
#    0.000    0.000    0.000    0.000    0.000    0.000 
#
# Total GULP energy -198459.815857 kJ/mol
# GULP energy per Si atom -12403.738491 kJ/mol
# Density = 2.131614 g / cm^3
# Si number density = 21.364765 Si / 1000 Ang^3
#
#
#
# Elastic Constant Matrix: (Units=GPa)
#
#
# Indices 1 2 3 4 5 6 
#
# 1 90.5536 5.9985 47.3959 3.9968 -5.3784 8.8647
# 2 5.9985 56.7953 23.8198 3.2069 -2.5543 5.3130
# 3 47.3959 23.8198 148.0714 11.8749 3.0316 14.4336
# 4 3.9968 3.2069 11.8749 22.9517 2.2822 -2.6163
# 5 -5.3784 -2.5543 3.0316 2.2822 17.9323 1.4991
# 6 8.8647 5.3130 14.4336 -2.6163 1.4991 29.1411
#
#
#
# Elastic Compliance Matrix: (Units=1/GPa)
#
#
# Indices 1 2 3 4 5 6 
#
# 1 0.013890 0.000911 -0.004358 -0.001125 0.005394 -0.002611
# 2 0.000911 0.019339 -0.003066 -0.001978 0.004021 -0.002669
# 3 -0.004358 -0.003066 0.009274 -0.003683 -0.002600 -0.002905
# 4 -0.001125 -0.001978 -0.003683 0.047419 -0.006627 0.007126
# 5 0.005394 0.004021 -0.002600 -0.006627 0.059636 -0.004749
# 6 -0.002611 -0.002669 -0.002905 0.007126 -0.004749 0.037920
#
#
# Mechanical properties :
#
#
# Convention : Reuss Voigt Hill
#
# Bulk Modulus (GPa) = 33.92597 49.98319 41.95458
# Shear Modulus (GPa) = 23.77235 28.55209 26.16222
#
# Velocity S-wave (km/s) = 3.33932 3.65966 3.50315
# Velocity P-wave (km/s) = 5.54815 6.42677 6.00356
#
# Compressibility (1/GPa) = 0.02947594
#
# Stress axis : x y z
#
# Youngs Moduli (GPa) = 71.99674 51.70890 107.83343
#
# Poissons Ratio (x) = -0.04712 0.46995
# Poissons Ratio (y) = -0.06560 0.33064
# Poissons Ratio (z) = 0.31377 0.15855
#
# Static dielectric constant tensor:
#      x y z
#    x 3.982770 -0.067450 -0.086980 
#    y -0.067450 3.834170 0.103780 
#    z -0.086980 0.103780 3.612760 
# 
# 
# High freq. dielectric constant tensor:
#      x y z
#    x 1.848310 -0.001510 -0.005190 
#    y -0.001510 1.842200 0.009570 
#    z -0.005190 0.009570 1.824400 
# 
# From -- ./inp_files/82784.got.cif
#   From: 2010.06.25/outbox.cif.g09.slc.cpg/sg2_42_cif.got.tgz:82784.got - 2010.06.27 13:26:56.
