data_PCOD8020749
_publ_section_title
;
Structure prediction by ZEFSAII (Michael W. Deem and Ramdas Pophale) SiO2 
 PCOD8020749
Probable space group: P -1
;
_chemical_formula_sum "Si O2"
_cell_formula_units_Z 14
_cell_length_a 8.875520
_cell_length_b 11.700232
_cell_length_c 17.432954
_cell_angle_alpha 28.886883
_cell_angle_beta 58.004114
_cell_angle_gamma 75.747298
_cell_volume 628.275216
_symmetry_space_group_name_H-M "P -1"
_symmetry_group_IT_number 2
_symmetry_cell_setting 'triclinic'
loop_
_space_group_symop_operation_xyz
x,y,z
-x,-y,-z
loop_
_atom_site_type_symbol
_atom_site_label
_atom_site_fract_x
_atom_site_fract_y
_atom_site_fract_z
Si Si1 0.838990 0.372315 0.050428
Si Si2 0.555021 0.627199 0.826748
Si Si3 0.960357 0.197428 0.799176
Si Si4 0.214695 0.453411 0.306963
Si Si5 0.748278 0.770486 0.417426
Si Si6 0.725648 0.588855 0.270650
Si Si7 0.091057 0.753242 0.622737
O O1 0.628380 0.323381 0.175257
O O2 0.803089 0.081285 0.201515
O O3 0.000000 0.500000 0.000000
O O4 0.909274 0.584112 0.834655
O O5 0.583424 0.431015 0.873217
O O6 0.778899 0.918372 0.588274
O O7 0.500000 0.500000 0.000000
O O8 0.799022 0.301066 0.792615
O O9 0.078618 0.280895 0.636677
O O10 0.149172 0.322051 0.735997
O O11 0.813690 0.864568 0.034483
O O12 0.240278 0.266014 0.473244
O O13 0.002330 0.279006 0.417963
O O14 0.522816 0.552227 0.569102
O O15 0.757993 0.367650 0.345858
#
# Coordination Sequence:
#
# PCOD8020749 Si02
#       7
#     2   2   2   2   2   2   2
#     4  12  27  43  73 102 137 182 231 285 344 401
#     4  12  26  45  71 100 138 184 229 280 349 408
#     4  10  23  46  68  98 142 180 227 284 342 398
#     4  11  26  43  68 103 144 178 225 282 343 414
#     4  12  24  44  70 105 135 181 232 283 341 402
#     4  10  22  42  73  99 132 181 236 278 330 415
#     4  11  23  48  66 100 139 182 228 282 339 414
#
# _framework density 22.283228000000001
#
# number of rings (size 3 to 8) (size 9 to 14) (size 15 to 20)
#    0.000    0.857    4.286    2.143    4.000    1.714 
#    5.143    0.000    0.000    0.000    0.000    0.000 
#    0.000    0.000    0.000    0.000    0.000    0.000 
#
# Total GULP energy -173592.133601 kJ/mol
# GULP energy per Si atom -12399.438114 kJ/mol
# Density = 2.223251 g / cm^3
# Si number density = 22.283228 Si / 1000 Ang^3
#
#
#
# Elastic Constant Matrix: (Units=GPa)
#
#
# Indices 1 2 3 4 5 6 
#
# 1 67.1292 29.0262 37.5752 -3.9555 3.9662 -8.6760
# 2 29.0262 140.2908 50.1236 23.5076 -0.7655 -32.8339
# 3 37.5752 50.1236 126.5840 5.5426 4.4966 -1.5133
# 4 -3.9555 23.5076 5.5426 39.5263 1.9856 -4.3437
# 5 3.9662 -0.7655 4.4966 1.9856 33.8025 3.0758
# 6 -8.6760 -32.8339 -1.5133 -4.3437 3.0758 42.5911
#
#
#
# Elastic Compliance Matrix: (Units=1/GPa)
#
#
# Indices 1 2 3 4 5 6 
#
# 1 0.019400 -0.002444 -0.004879 0.004464 -0.002173 0.002507
# 2 -0.002444 0.011725 -0.003590 -0.005895 0.000670 0.007764
# 3 -0.004879 -0.003590 0.010761 -0.000199 -0.000623 -0.003355
# 4 0.004464 -0.005895 -0.000199 0.029343 -0.002310 -0.000483
# 5 -0.002173 0.000670 -0.000623 -0.002310 0.030288 -0.002372
# 6 0.002507 0.007764 -0.003355 -0.000483 -0.002372 0.029978
#
#
# Mechanical properties :
#
#
# Convention : Reuss Voigt Hill
#
# Bulk Modulus (GPa) = 49.85293 63.05046 56.45170
# Shear Modulus (GPa) = 31.24867 37.66925 34.45896
#
# Velocity S-wave (km/s) = 3.74885 4.11600 3.93671
# Velocity P-wave (km/s) = 6.41556 7.13758 6.78618
#
# Compressibility (1/GPa) = 0.02005900
#
# Stress axis : x y z
#
# Youngs Moduli (GPa) = 51.54697 85.28924 92.93124
#
# Poissons Ratio (x) = 0.20841 0.45344
# Poissons Ratio (y) = 0.12596 0.33364
# Poissons Ratio (z) = 0.25151 0.30620
#
# Static dielectric constant tensor:
#      x y z
#    x 4.101150 -0.429590 -0.003070 
#    y -0.429590 4.307940 0.068650 
#    z -0.003070 0.068650 4.001970 
# 
# 
# High freq. dielectric constant tensor:
#      x y z
#    x 1.881890 -0.017500 0.001090 
#    y -0.017500 1.889820 0.007970 
#    z 0.001090 0.007970 1.867910 
# 
# From -- ./inp_files/40338.got.cif
#   From: 2010.06.25/outbox.cif.g09.slc.cpg/sg2_21_cif.got.tgz:40338.got - 2010.06.27 13:26:56.
