data_PCOD8020273
_publ_section_title
;
Structure prediction by ZEFSAII (Michael W. Deem and Ramdas Pophale) SiO2 
 PCOD8020273
Probable space group: P -1
;
_chemical_formula_sum "Si O2"
_cell_formula_units_Z 14
_cell_length_a 18.783217
_cell_length_b 10.438359
_cell_length_c 22.656977
_cell_angle_alpha 31.461033
_cell_angle_beta 17.655492
_cell_angle_gamma 31.794962
_cell_volume 683.574665
_symmetry_space_group_name_H-M "P -1"
_symmetry_group_IT_number 2
_symmetry_cell_setting 'triclinic'
loop_
_space_group_symop_operation_xyz
x,y,z
-x,-y,-z
loop_
_atom_site_type_symbol
_atom_site_label
_atom_site_fract_x
_atom_site_fract_y
_atom_site_fract_z
Si Si1 0.839928 0.864164 0.382545
Si Si2 0.672145 0.881689 0.290125
Si Si3 0.042756 0.417326 0.160261
Si Si4 0.290590 0.138172 0.188953
Si Si5 0.100924 0.690718 0.473194
Si Si6 0.150878 0.893891 0.231073
Si Si7 0.892842 0.097956 0.129937
O O1 0.797041 0.610882 0.484714
O O2 0.064608 0.794600 0.277145
O O3 0.608076 0.012173 0.545190
O O4 0.894283 0.055095 0.215297
O O5 0.766434 0.576614 0.329001
O O6 0.708984 0.954670 0.300420
O O7 0.835197 0.016589 0.065707
O O8 0.170997 0.315427 0.160093
O O9 0.034815 0.192384 0.210404
O O10 0.186244 0.603568 0.941044
O O11 0.149858 0.225927 0.326086
O O12 0.288625 0.846405 0.290044
O O13 0.560692 0.163977 0.973573
O O14 0.052964 0.755327 0.416873
#
# Coordination Sequence:
#
# PCOD8020273 Si02
#       7
#     2   2   2   2   2   2   2
#     4  12  24  38  62  95 126 153 199 240 317 360
#     4   9  21  38  61  92 117 156 198 255 290 347
#     4   9  19  42  62  86 120 153 211 240 293 355
#     4  10  22  42  67  87 115 162 205 253 293 340
#     4  10  23  40  62  92 116 159 210 245 288 359
#     4  11  25  40  60  91 126 165 187 250 305 357
#     4   9  21  38  60  92 115 160 197 248 297 344
#
# _framework density 20.480573
#
# number of rings (size 3 to 8) (size 9 to 14) (size 15 to 20)
#    0.857    1.143    0.000    3.429    4.000    2.857 
#    5.143    0.000    0.000    0.000    0.000    0.000 
#    0.000    0.000    0.000    0.000    0.000    0.000 
#
# Total GULP energy -173533.198034 kJ/mol
# GULP energy per Si atom -12395.228431 kJ/mol
# Density = 2.043396 g / cm^3
# Si number density = 20.480573 Si / 1000 Ang^3
#
#
#
# Elastic Constant Matrix: (Units=GPa)
#
#
# Indices 1 2 3 4 5 6 
#
# 1 85.6855 15.5437 51.2468 -2.2475 7.1232 -3.7679
# 2 15.5437 107.8970 39.9408 -1.0103 -3.9972 -13.7308
# 3 51.2468 39.9408 84.8623 3.4106 8.2207 -9.1345
# 4 -2.2475 -1.0103 3.4106 27.9063 -8.4344 2.7170
# 5 7.1232 -3.9972 8.2207 -8.4344 33.0573 -1.1500
# 6 -3.7679 -13.7308 -9.1345 2.7170 -1.1500 19.7592
#
#
#
# Elastic Compliance Matrix: (Units=1/GPa)
#
#
# Indices 1 2 3 4 5 6 
#
# 1 0.018845 0.001765 -0.012497 0.003258 0.000043 -0.001403
# 2 0.001765 0.012367 -0.006674 0.001887 0.003458 0.005787
# 3 -0.012497 -0.006674 0.023733 -0.006233 -0.005450 0.004491
# 4 0.003258 0.001887 -0.006233 0.040922 0.011311 -0.005917
# 5 0.000043 0.003458 -0.005450 0.011311 0.034914 0.000368
# 6 -0.001403 0.005787 0.004491 -0.005917 0.000368 0.057274
#
#
# Mechanical properties :
#
#
# Convention : Reuss Voigt Hill
#
# Bulk Modulus (GPa) = 49.67031 54.65637 52.16334
# Shear Modulus (GPa) = 21.77924 27.59211 24.68568
#
# Velocity S-wave (km/s) = 3.26453 3.67445 3.47554
# Velocity P-wave (km/s) = 6.20602 6.68932 6.45219
#
# Compressibility (1/GPa) = 0.02013275
#
# Stress axis : x y z
#
# Youngs Moduli (GPa) = 53.06546 80.86324 42.13487
#
# Poissons Ratio (x) = -0.14270 0.52654
# Poissons Ratio (y) = -0.09365 0.28121
# Poissons Ratio (z) = 0.66314 0.53968
#
# Static dielectric constant tensor:
#      x y z
#    x 3.415560 0.045170 0.169770 
#    y 0.045170 3.749430 -0.027760 
#    z 0.169770 -0.027760 3.583410 
# 
# 
# High freq. dielectric constant tensor:
#      x y z
#    x 1.779300 0.000600 0.017040 
#    y 0.000600 1.804910 0.001000 
#    z 0.017040 0.001000 1.792020 
# 
# From -- ./inp_files/599680.got.cif
#   From: 2010.06.25/outbox.cif.g09.slc.cpg/sg2_300_cif.got.tgz:599680.got - 2010.06.27 13:26:56.
