data_PCOD8020407
_publ_section_title
;
Structure prediction by ZEFSAII (Michael W. Deem and Ramdas Pophale) SiO2 
 PCOD8020407
Probable space group: P -1
;
_chemical_formula_sum "Si O2"
_cell_formula_units_Z 16
_cell_length_a 8.908284
_cell_length_b 11.182276
_cell_length_c 11.196192
_cell_angle_alpha 79.932331
_cell_angle_beta 132.515226
_cell_angle_gamma 117.443491
_cell_volume 713.483280
_symmetry_space_group_name_H-M "P -1"
_symmetry_group_IT_number 2
_symmetry_cell_setting 'triclinic'
loop_
_space_group_symop_operation_xyz
x,y,z
-x,-y,-z
loop_
_atom_site_type_symbol
_atom_site_label
_atom_site_fract_x
_atom_site_fract_y
_atom_site_fract_z
Si Si1 0.555366 0.227763 0.185949
Si Si2 0.244135 0.785275 0.942380
Si Si3 0.703701 0.791350 0.282516
Si Si4 0.421466 0.096822 0.377643
Si Si5 0.433598 0.298459 0.530899
Si Si6 0.228433 0.435039 0.220487
Si Si7 0.891167 0.972844 0.146300
Si Si8 0.459478 0.507282 0.838203
O O1 0.733572 0.221977 0.187597
O O2 0.552479 0.140696 0.314658
O O3 0.645858 0.386884 0.246937
O O4 0.294277 0.160537 0.003098
O O5 0.048166 0.639716 0.914361
O O6 0.192311 0.910841 0.922772
O O7 0.473860 0.802169 0.124465
O O8 0.739077 0.805919 0.442458
O O9 0.905181 0.919336 0.297325
O O10 0.701167 0.647483 0.268314
O O11 0.519993 0.226422 0.495295
O O12 0.500000 0.000000 0.500000
O O13 0.146233 0.032839 0.217968
O O14 0.295327 0.359133 0.372723
O O15 0.658795 0.406976 0.705183
O O16 0.310756 0.424722 0.133005
O O17 0.500000 0.500000 0.000000
#
# Coordination Sequence:
#
# PCOD8020407 Si02
#       8
#     2   2   2   2   2   2   2   2
#     4  11  23  43  67  96 130 162 214 273 315 368
#     4  11  22  41  67  97 122 167 218 263 313 378
#     4  10  23  38  67  98 125 168 214 258 316 384
#     4  12  27  44  63  95 129 172 211 264 320 381
#     4  10  22  43  62  87 130 169 209 252 314 386
#     4  10  22  42  68  87 124 175 208 257 323 372
#     4  11  23  43  65  91 128 170 213 263 320 375
#     4  11  19  41  64  94 132 158 211 268 310 362
#
# _framework density 22.425194999999999
#
# number of rings (size 3 to 8) (size 9 to 14) (size 15 to 20)
#    0.000    1.250    5.000    1.875    3.500    3.500 
#    4.500    0.625    0.000    0.000    0.000    0.000 
#    0.000    0.000    0.000    0.000    0.000    0.000 
#
# Total GULP energy -198295.006561 kJ/mol
# GULP energy per Si atom -12393.437910 kJ/mol
# Density = 2.237415 g / cm^3
# Si number density = 22.425195 Si / 1000 Ang^3
#
#
#
# Elastic Constant Matrix: (Units=GPa)
#
#
# Indices 1 2 3 4 5 6 
#
# 1 80.1416 0.9233 25.9559 -4.7229 -16.9335 11.8528
# 2 0.9233 68.5079 12.4729 -8.3683 5.3151 0.2020
# 3 25.9559 12.4729 46.3785 -11.2558 -15.3982 4.2081
# 4 -4.7229 -8.3683 -11.2558 36.8605 6.3029 -10.2354
# 5 -16.9335 5.3151 -15.3982 6.3029 38.5452 -19.8969
# 6 11.8528 0.2020 4.2081 -10.2354 -19.8969 46.1268
#
#
#
# Elastic Compliance Matrix: (Units=1/GPa)
#
#
# Indices 1 2 3 4 5 6 
#
# 1 0.016051 0.000991 -0.008586 -0.001481 0.002355 -0.002658
# 2 0.000991 0.016416 -0.006031 0.002509 -0.005461 -0.001575
# 3 -0.008586 -0.006031 0.033298 0.007293 0.012335 0.006134
# 4 -0.001481 0.002509 0.007293 0.031586 0.000279 0.006834
# 5 0.002355 -0.005461 0.012335 0.000279 0.040863 0.015982
# 6 -0.002658 -0.001575 0.006134 0.006834 0.015982 0.030220
#
#
# Mechanical properties :
#
#
# Convention : Reuss Voigt Hill
#
# Bulk Modulus (GPa) = 25.96512 30.41469 28.18991
# Shear Modulus (GPa) = 23.97828 34.68489 29.33158
#
# Velocity S-wave (km/s) = 3.27350 3.93707 3.62052
# Velocity P-wave (km/s) = 5.08836 5.85316 5.48411
#
# Compressibility (1/GPa) = 0.03851320
#
# Stress axis : x y z
#
# Youngs Moduli (GPa) = 62.30268 60.91523 30.03223
#
# Poissons Ratio (x) = -0.06037 0.25785
# Poissons Ratio (y) = -0.06175 0.18112
# Poissons Ratio (z) = 0.53492 0.36737
#
# Static dielectric constant tensor:
#      x y z
#    x 4.228990 0.294370 -0.312040 
#    y 0.294370 4.596040 -0.015910 
#    z -0.312040 -0.015910 3.847970 
# 
# 
# High freq. dielectric constant tensor:
#      x y z
#    x 1.883250 0.009720 -0.028750 
#    y 0.009720 1.905320 -0.013740 
#    z -0.028750 -0.013740 1.857610 
# 
# From -- ./inp_files/382935.got.cif
#   From: 2010.06.25/outbox.cif.g09.slc.cpg/sg2_192_cif.got.tgz:382935.got - 2010.06.27 13:26:56.
