data_PCOD8020122
_publ_section_title
;
Structure prediction by ZEFSAII (Michael W. Deem and Ramdas Pophale) SiO2 
 PCOD8020122
Probable space group: P -1
;
_chemical_formula_sum "Si O2"
_cell_formula_units_Z 14
_cell_length_a 8.681505
_cell_length_b 9.235197
_cell_length_c 24.110995
_cell_angle_alpha 29.106411
_cell_angle_beta 40.278872
_cell_angle_gamma 45.463045
_cell_volume 604.195794
_symmetry_space_group_name_H-M "P -1"
_symmetry_group_IT_number 2
_symmetry_cell_setting 'triclinic'
loop_
_space_group_symop_operation_xyz
x,y,z
-x,-y,-z
loop_
_atom_site_type_symbol
_atom_site_label
_atom_site_fract_x
_atom_site_fract_y
_atom_site_fract_z
Si Si1 0.065979 0.823423 0.224613
Si Si2 0.511458 0.386870 0.745627
Si Si3 0.870470 0.096174 0.287960
Si Si4 0.156389 0.995785 0.026831
Si Si5 0.194776 0.722632 0.529396
Si Si6 0.782433 0.464104 0.923238
Si Si7 0.634020 0.536900 0.541421
O O1 0.236829 0.639720 0.283627
O O2 0.899260 0.591229 0.322211
O O3 0.208318 0.964221 0.088632
O O4 0.907363 0.086923 0.213909
O O5 0.365886 0.694891 0.700953
O O6 0.546277 0.372925 0.674511
O O7 0.374951 0.110787 0.894909
O O8 0.109282 0.216003 0.208606
O O9 0.832386 0.758669 0.431149
O O10 0.142041 0.666505 0.114761
O O11 0.913446 0.222392 0.011500
O O12 0.420532 0.750790 0.498049
O O13 0.263334 0.712089 0.448496
O O14 0.000000 0.000000 0.500000
O O15 0.500000 0.500000 0.000000
#
# Coordination Sequence:
#
# PCOD8020122 Si02
#       7
#     2   2   2   2   2   2   2
#     4  11  24  42  65  98 136 174 224 272 332 391
#     4  11  23  41  69  96 137 175 218 274 330 397
#     4  10  23  41  67  98 129 175 220 274 329 392
#     4  10  24  42  64  97 138 172 222 275 326 395
#     4  10  23  43  67  96 134 179 219 275 334 391
#     4  10  22  42  65  97 129 176 223 272 332 387
#     4  10  23  43  67  99 134 171 223 276 328 397
#
# _framework density 23.171296000000002
#
# number of rings (size 3 to 8) (size 9 to 14) (size 15 to 20)
#    0.000    1.714    0.000    2.571    6.000    6.857 
#    2.571    0.000    0.000    0.000    0.000    0.000 
#    0.000    0.000    0.000    0.000    0.000    0.000 
#
# Total GULP energy -173554.475474 kJ/mol
# GULP energy per Si atom -12396.748248 kJ/mol
# Density = 2.311856 g / cm^3
# Si number density = 23.171296 Si / 1000 Ang^3
#
#
#
# Elastic Constant Matrix: (Units=GPa)
#
#
# Indices 1 2 3 4 5 6 
#
# 1 87.9112 54.1277 46.1571 12.8657 -0.5023 4.4182
# 2 54.1277 154.9068 61.1879 17.9750 14.8685 6.3412
# 3 46.1571 61.1879 114.1176 29.7027 -2.3074 25.9499
# 4 12.8657 17.9750 29.7027 40.4965 13.7889 3.4978
# 5 -0.5023 14.8685 -2.3074 13.7889 45.2726 7.1810
# 6 4.4182 6.3412 25.9499 3.4978 7.1810 44.5598
#
#
#
# Elastic Compliance Matrix: (Units=1/GPa)
#
#
# Indices 1 2 3 4 5 6 
#
# 1 0.016255 -0.003964 -0.004626 -0.000541 0.001173 0.001500
# 2 -0.003964 0.009838 -0.004715 0.001643 -0.004383 0.002316
# 3 -0.004626 -0.004715 0.018702 -0.011897 0.007670 -0.010064
# 4 -0.000541 0.001643 -0.011897 0.036886 -0.013339 0.006003
# 5 0.001173 -0.004383 0.007670 -0.013339 0.029203 -0.007619
# 6 0.001500 0.002316 -0.010064 0.006003 -0.007619 0.028581
#
#
# Mechanical properties :
#
#
# Convention : Reuss Voigt Hill
#
# Bulk Modulus (GPa) = 54.98564 75.54232 65.26398
# Shear Modulus (GPa) = 29.04691 39.09663 34.07177
#
# Velocity S-wave (km/s) = 3.54442 4.11212 3.83878
# Velocity P-wave (km/s) = 6.36649 7.43091 6.91920
#
# Compressibility (1/GPa) = 0.01818657
#
# Stress axis : x y z
#
# Youngs Moduli (GPa) = 61.51976 101.64576 53.47006
#
# Poissons Ratio (x) = 0.40291 0.24734
# Poissons Ratio (y) = 0.24386 0.25209
# Poissons Ratio (z) = 0.28457 0.47922
#
# Static dielectric constant tensor:
#      x y z
#    x 4.188700 0.092950 -0.258860 
#    y 0.092950 4.327760 0.058120 
#    z -0.258860 0.058120 3.940560 
# 
# 
# High freq. dielectric constant tensor:
#      x y z
#    x 1.911150 0.003850 -0.019870 
#    y 0.003850 1.936110 0.007190 
#    z -0.019870 0.007190 1.900090 
# 
# From -- ./inp_files/606543.got.cif
#   From: 2010.06.25/outbox.cif.g09.slc.cpg/sg2_304_cif.got.tgz:606543.got - 2010.06.27 13:26:56.
