data_PCOD8020891
_publ_section_title
;
Structure prediction by ZEFSAII (Michael W. Deem and Ramdas Pophale) SiO2 
 PCOD8020891
Probable space group: P -1
;
_chemical_formula_sum "Si O2"
_cell_formula_units_Z 14
_cell_length_a 14.938115
_cell_length_b 12.128499
_cell_length_c 14.957529
_cell_angle_alpha 48.912740
_cell_angle_beta 161.238391
_cell_angle_gamma 132.383953
_cell_volume 641.760811
_symmetry_space_group_name_H-M "P -1"
_symmetry_group_IT_number 2
_symmetry_cell_setting 'triclinic'
loop_
_space_group_symop_operation_xyz
x,y,z
-x,-y,-z
loop_
_atom_site_type_symbol
_atom_site_label
_atom_site_fract_x
_atom_site_fract_y
_atom_site_fract_z
Si Si1 0.779393 0.683779 0.712682
Si Si2 0.192503 0.537491 0.291249
Si Si3 0.967516 0.542163 0.615065
Si Si4 0.674374 0.199912 0.279415
Si Si5 0.886170 0.981986 0.138501
Si Si6 0.699773 0.932812 0.788788
Si Si7 0.442203 0.378354 0.115351
O O1 0.468799 0.674800 0.468613
O O2 0.744047 0.608196 0.621723
O O3 0.956428 0.851462 0.776599
O O4 0.927935 0.589352 0.970545
O O5 0.103194 0.489398 0.332079
O O6 0.672618 0.519398 0.294461
O O7 0.138426 0.713119 0.670959
O O8 0.140820 0.426534 0.796819
O O9 0.545697 0.322286 0.149173
O O10 0.879470 0.120892 0.577562
O O11 0.401047 0.082666 0.039805
O O12 0.723993 0.976039 0.892885
O O13 0.600234 0.754260 0.780653
O O14 0.500000 0.000000 0.500000
O O15 0.000000 0.000000 0.000000
#
# Coordination Sequence:
#
# PCOD8020891 Si02
#       7
#     2   2   2   2   2   2   2
#     4  10  22  43  65  88 127 156 200 257 324 363
#     4  10  23  40  64  96 118 157 207 260 303 370
#     4  12  23  39  64  89 123 162 215 251 297 356
#     4  11  23  42  59  91 124 167 210 248 294 375
#     4  11  23  40  64  85 124 170 198 249 323 355
#     4  11  23  36  54  87 123 155 203 245 288 375
#     4  11  23  38  57  88 124 167 201 248 309 348
#
# _framework density 21.814979999999998
#
# number of rings (size 3 to 8) (size 9 to 14) (size 15 to 20)
#    0.000    1.143    0.000    7.714    6.000    0.000 
#    0.000    1.429    0.000    0.000    0.000    0.000 
#    0.000    0.000    0.000    0.000    0.000    0.000 
#
# Total GULP energy -173504.905181 kJ/mol
# GULP energy per Si atom -12393.207513 kJ/mol
# Density = 2.176533 g / cm^3
# Si number density = 21.814980 Si / 1000 Ang^3
#
#
#
# Elastic Constant Matrix: (Units=GPa)
#
#
# Indices 1 2 3 4 5 6 
#
# 1 93.7830 48.7283 24.5171 9.6532 8.2803 20.7989
# 2 48.7283 126.4544 20.0016 33.2284 7.7992 22.8901
# 3 24.5171 20.0016 102.6687 15.9232 10.6627 2.8337
# 4 9.6532 33.2284 15.9232 43.6967 8.4679 10.7538
# 5 8.2803 7.7992 10.6627 8.4679 23.8266 6.9775
# 6 20.7989 22.8901 2.8337 10.7538 6.9775 31.4852
#
#
#
# Elastic Compliance Matrix: (Units=1/GPa)
#
#
# Indices 1 2 3 4 5 6 
#
# 1 0.015371 -0.005008 -0.002880 0.003517 -0.001583 -0.007104
# 2 -0.005008 0.012409 -0.000077 -0.007752 0.001459 -0.003382
# 3 -0.002880 -0.000077 0.011273 -0.003424 -0.003658 0.002924
# 4 0.003517 -0.007752 -0.003424 0.032000 -0.006828 -0.005796
# 5 -0.001583 0.001459 -0.003658 -0.006828 0.048477 -0.008096
# 6 -0.007104 -0.003382 0.002924 -0.005796 -0.008096 0.042423
#
#
# Mechanical properties :
#
#
# Convention : Reuss Voigt Hill
#
# Bulk Modulus (GPa) = 43.24798 56.60000 49.92399
# Shear Modulus (GPa) = 26.94053 35.11231 31.02642
#
# Velocity S-wave (km/s) = 3.51801 4.01627 3.77537
# Velocity P-wave (km/s) = 6.03073 6.89268 6.47606
#
# Compressibility (1/GPa) = 0.02312247
#
# Stress axis : x y z
#
# Youngs Moduli (GPa) = 65.05583 80.58384 88.70696
#
# Poissons Ratio (x) = 0.40359 0.25547
# Poissons Ratio (y) = 0.32582 0.00687
# Poissons Ratio (z) = 0.18736 0.00624
#
# Static dielectric constant tensor:
#      x y z
#    x 3.827890 0.387660 0.217140 
#    y 0.387660 4.228450 0.244760 
#    z 0.217140 0.244760 4.158120 
# 
# 
# High freq. dielectric constant tensor:
#      x y z
#    x 1.831410 0.035560 0.011370 
#    y 0.035560 1.858510 0.012920 
#    z 0.011370 0.012920 1.881160 
# 
# From -- ./inp_files/531762.got.cif
#   From: 2010.06.25/outbox.cif.g09.slc.cpg/sg2_266_cif.got.tgz:531762.got - 2010.06.27 13:26:56.
