data_PCOD8020338
_publ_section_title
;
Structure prediction by ZEFSAII (Michael W. Deem and Ramdas Pophale) SiO2 
 PCOD8020338
Probable space group: P -1
;
_chemical_formula_sum "Si O2"
_cell_formula_units_Z 16
_cell_length_a 14.127600
_cell_length_b 14.841729
_cell_length_c 8.616744
_cell_angle_alpha 86.968938
_cell_angle_beta 63.814411
_cell_angle_gamma 142.559098
_cell_volume 663.881584
_symmetry_space_group_name_H-M "P -1"
_symmetry_group_IT_number 2
_symmetry_cell_setting 'triclinic'
loop_
_space_group_symop_operation_xyz
x,y,z
-x,-y,-z
loop_
_atom_site_type_symbol
_atom_site_label
_atom_site_fract_x
_atom_site_fract_y
_atom_site_fract_z
Si Si1 0.799378 0.260663 0.173993
Si Si2 0.269850 0.741833 0.108970
Si Si3 0.316291 0.772366 0.408892
Si Si4 0.796557 0.061519 0.143927
Si Si5 0.025580 0.120098 0.732545
Si Si6 0.506914 0.730035 0.951942
Si Si7 0.260217 0.367242 0.247175
Si Si8 0.789048 0.927835 0.434712
O O1 0.636838 0.138814 0.466512
O O2 0.924002 0.257746 0.082324
O O3 0.643851 0.142777 0.128247
O O4 0.000000 0.500000 0.000000
O O5 0.332736 0.840139 0.222359
O O6 0.960722 0.490727 0.352725
O O7 0.408350 0.754381 0.017739
O O8 0.544736 0.876402 0.232886
O O9 0.700559 0.932278 0.374328
O O10 0.012529 0.171018 0.891189
O O11 0.235785 0.329284 0.450660
O O12 0.122685 0.095890 0.709068
O O13 0.752133 0.904052 0.865951
O O14 0.555336 0.732186 0.741312
O O15 0.280224 0.490370 0.202460
O O16 0.013998 0.143034 0.355444
O O17 0.500000 0.500000 0.000000
#
# Coordination Sequence:
#
# PCOD8020338 Si02
#       8
#     2   2   2   2   2   2   2   2
#     4  10  24  44  63  96 141 178 238 296 342 420
#     4  10  22  42  69 100 133 185 234 285 354 413
#     4  10  22  42  67  95 138 181 232 291 346 414
#     4  12  25  45  64 100 143 185 232 288 358 419
#     4  11  23  44  68 105 138 180 232 284 348 432
#     4  11  21  43  72 102 137 179 232 293 349 420
#     4  11  21  41  72  98 139 178 233 287 346 416
#     4  11  24  42  70 101 141 185 227 285 357 422
#
# _framework density 24.100683
#
# number of rings (size 3 to 8) (size 9 to 14) (size 15 to 20)
#    0.000    1.250    3.750    2.250    3.500    3.500 
#    4.500    0.625    0.000    0.000    0.000    0.000 
#    0.000    0.000    0.000    0.000    0.000    0.000 
#
# Total GULP energy -198298.017633 kJ/mol
# GULP energy per Si atom -12393.626102 kJ/mol
# Density = 2.404583 g / cm^3
# Si number density = 24.100683 Si / 1000 Ang^3
#
#
#
# Elastic Constant Matrix: (Units=GPa)
#
#
# Indices 1 2 3 4 5 6 
#
# 1 134.8916 45.1836 32.8153 8.1461 25.1187 -18.9926
# 2 45.1836 102.1244 42.7320 32.3631 14.2572 -5.2077
# 3 32.8153 42.7320 111.7559 19.3377 30.2825 -1.4358
# 4 8.1461 32.3631 19.3377 30.1332 3.6494 -3.0909
# 5 25.1187 14.2572 30.2825 3.6494 51.6741 5.3985
# 6 -18.9926 -5.2077 -1.4358 -3.0909 5.3985 46.7924
#
#
#
# Elastic Compliance Matrix: (Units=1/GPa)
#
#
# Indices 1 2 3 4 5 6 
#
# 1 0.010266 -0.004577 -0.000739 0.003543 -0.003997 0.004330
# 2 -0.004577 0.018177 -0.002775 -0.016624 0.000118 -0.001032
# 3 -0.000739 -0.002775 0.012561 -0.004139 -0.005964 0.000191
# 4 0.003543 -0.016624 -0.004139 0.052874 0.001263 0.002808
# 5 -0.003997 0.000118 -0.005964 0.001263 0.025150 -0.004611
# 6 0.004330 -0.001032 0.000191 0.002808 -0.004611 0.023737
#
#
# Mechanical properties :
#
#
# Convention : Reuss Voigt Hill
#
# Bulk Modulus (GPa) = 40.28500 65.58152 52.93326
# Shear Modulus (GPa) = 29.90055 40.92268 35.41161
#
# Velocity S-wave (km/s) = 3.52611 4.12514 3.83733
# Velocity P-wave (km/s) = 5.77317 7.06821 6.45326
#
# Compressibility (1/GPa) = 0.02482313
#
# Stress axis : x y z
#
# Youngs Moduli (GPa) = 97.40686 55.01356 79.61332
#
# Poissons Ratio (x) = 0.25179 0.05881
# Poissons Ratio (y) = 0.44582 0.22093
# Poissons Ratio (z) = 0.07195 0.15267
#
# Static dielectric constant tensor:
#      x y z
#    x 4.369650 0.071030 0.465080 
#    y 0.071030 4.446040 0.379800 
#    z 0.465080 0.379800 4.984930 
# 
# 
# High freq. dielectric constant tensor:
#      x y z
#    x 1.954770 0.002290 0.018740 
#    y 0.002290 1.962790 0.008110 
#    z 0.018740 0.008110 1.980770 
# 
# From -- ./inp_files/313311.got.cif
#   From: 2010.06.25/outbox.cif.g09.slc.cpg/sg2_157_cif.got.tgz:313311.got - 2010.06.27 13:26:56.
