data_PCOD8020354
_publ_section_title
;
Structure prediction by ZEFSAII (Michael W. Deem and Ramdas Pophale) SiO2 
 PCOD8020354
Probable space group: P -1
;
_chemical_formula_sum "Si O2"
_cell_formula_units_Z 16
_cell_length_a 15.445749
_cell_length_b 8.033612
_cell_length_c 9.298373
_cell_angle_alpha 103.721252
_cell_angle_beta 139.655725
_cell_angle_gamma 68.667573
_cell_volume 694.226078
_symmetry_space_group_name_H-M "P -1"
_symmetry_group_IT_number 2
_symmetry_cell_setting 'triclinic'
loop_
_space_group_symop_operation_xyz
x,y,z
-x,-y,-z
loop_
_atom_site_type_symbol
_atom_site_label
_atom_site_fract_x
_atom_site_fract_y
_atom_site_fract_z
Si Si1 0.163553 0.199086 0.842863
Si Si2 0.435983 0.260926 0.310322
Si Si3 0.611798 0.043790 0.258113
Si Si4 0.454110 0.619969 0.257414
Si Si5 0.815966 0.200053 0.190609
Si Si6 0.679360 0.394291 0.323837
Si Si7 0.063277 0.543183 0.236630
Si Si8 0.897651 0.750028 0.530997
O O1 0.144273 0.311753 0.691454
O O2 0.026654 0.262626 0.780595
O O3 0.187730 0.991152 0.788386
O O4 0.282750 0.241610 0.096426
O O5 0.542722 0.087263 0.336659
O O6 0.449881 0.437495 0.287367
O O7 0.468723 0.269751 0.521918
O O8 0.643929 0.213855 0.267821
O O9 0.757253 0.893501 0.438507
O O10 0.500000 0.000000 0.000000
O O11 0.538363 0.564765 0.198911
O O12 0.298634 0.750172 0.069603
O O13 0.763763 0.365978 0.273204
O O14 0.968815 0.177040 0.314495
O O15 0.781630 0.438266 0.584337
O O16 0.057901 0.400567 0.323450
O O17 0.000000 0.500000 0.000000
#
# Coordination Sequence:
#
# PCOD8020354 Si02
#       8
#     2   2   2   2   2   2   2   2
#     4  12  23  44  72  98 137 180 228 287 334 408
#     4  10  22  42  67  96 141 181 231 273 344 402
#     4  11  22  42  71 102 136 177 227 287 335 404
#     4  10  24  41  64 100 138 185 222 282 340 410
#     4  12  24  42  71 102 134 179 232 283 342 405
#     4  11  23  42  67  98 141 174 232 281 336 405
#     4  12  28  45  68 102 141 181 230 284 345 415
#     4  12  25  44  72 100 133 181 228 280 348 398
#
# _framework density 23.047248
#
# number of rings (size 3 to 8) (size 9 to 14) (size 15 to 20)
#    0.000    0.750    3.750    3.375    1.750    5.500 
#    0.000    1.875    0.000    0.000    0.000    0.000 
#    0.000    0.000    0.000    0.000    0.000    0.000 
#
# Total GULP energy -198298.863080 kJ/mol
# GULP energy per Si atom -12393.678942 kJ/mol
# Density = 2.299479 g / cm^3
# Si number density = 23.047248 Si / 1000 Ang^3
#
#
#
# Elastic Constant Matrix: (Units=GPa)
#
#
# Indices 1 2 3 4 5 6 
#
# 1 79.8982 39.9305 37.2473 -1.0464 8.9036 -14.5017
# 2 39.9305 75.9344 51.2822 8.1825 -2.5795 -19.6450
# 3 37.2473 51.2822 144.6915 3.9950 13.2720 8.7595
# 4 -1.0464 8.1825 3.9950 34.1841 -1.5260 15.4578
# 5 8.9036 -2.5795 13.2720 -1.5260 46.6260 0.8679
# 6 -14.5017 -19.6450 8.7595 15.4578 0.8679 34.3068
#
#
#
# Elastic Compliance Matrix: (Units=1/GPa)
#
#
# Indices 1 2 3 4 5 6 
#
# 1 0.018237 -0.007537 -0.001954 0.000805 -0.003384 0.003615
# 2 -0.007537 0.035379 -0.012331 -0.020197 0.005702 0.029177
# 3 -0.001954 -0.012331 0.012765 0.007848 -0.003414 -0.014596
# 4 0.000805 -0.020197 0.007848 0.049115 -0.001240 -0.035328
# 5 -0.003384 0.005702 -0.003414 -0.001240 0.023290 0.002676
# 6 0.003615 0.029177 -0.014596 -0.035328 0.002676 0.066961
#
#
# Mechanical properties :
#
#
# Convention : Reuss Voigt Hill
#
# Bulk Modulus (GPa) = 43.98053 61.93822 52.95937
# Shear Modulus (GPa) = 19.45750 34.49431 26.97590
#
# Velocity S-wave (km/s) = 2.90874 3.87289 3.42491
# Velocity P-wave (km/s) = 5.51409 6.85068 6.21840
#
# Compressibility (1/GPa) = 0.02273734
#
# Stress axis : x y z
#
# Youngs Moduli (GPa) = 54.83213 28.26554 78.34139
#
# Poissons Ratio (x) = 0.21304 0.15309
# Poissons Ratio (y) = 0.41327 0.96600
# Poissons Ratio (z) = 0.10715 0.34853
#
# Static dielectric constant tensor:
#      x y z
#    x 4.423390 -0.561000 0.257490 
#    y -0.561000 4.305390 0.004710 
#    z 0.257490 0.004710 4.344170 
# 
# 
# High freq. dielectric constant tensor:
#      x y z
#    x 1.910250 -0.018380 0.020980 
#    y -0.018380 1.907410 0.004460 
#    z 0.020980 0.004460 1.923440 
# 
# From -- ./inp_files/299008.got.cif
#   From: 2010.06.25/outbox.cif.g09.slc.cpg/sg2_150_cif.got.tgz:299008.got - 2010.06.27 13:26:56.
