data_PCOD8020238
_publ_section_title
;
Structure prediction by ZEFSAII (Michael W. Deem and Ramdas Pophale) SiO2 
 PCOD8020238
Probable space group: P -1
;
_chemical_formula_sum "Si O2"
_cell_formula_units_Z 16
_cell_length_a 11.977138
_cell_length_b 10.089409
_cell_length_c 8.726864
_cell_angle_alpha 82.103679
_cell_angle_beta 114.440719
_cell_angle_gamma 128.563796
_cell_volume 739.853200
_symmetry_space_group_name_H-M "P -1"
_symmetry_group_IT_number 2
_symmetry_cell_setting 'triclinic'
loop_
_space_group_symop_operation_xyz
x,y,z
-x,-y,-z
loop_
_atom_site_type_symbol
_atom_site_label
_atom_site_fract_x
_atom_site_fract_y
_atom_site_fract_z
Si Si1 0.337486 0.986711 0.223655
Si Si2 0.635386 0.628488 0.174719
Si Si3 0.333507 0.851868 0.560641
Si Si4 0.736503 0.497514 0.498944
Si Si5 0.815699 0.843950 0.965095
Si Si6 0.170079 0.645565 0.013002
Si Si7 0.637563 0.476614 0.769094
Si Si8 0.065209 0.649255 0.635414
O O1 0.513191 0.065902 0.257638
O O2 0.346676 0.966461 0.413668
O O3 0.296516 0.113771 0.161399
O O4 0.213569 0.818904 0.081168
O O5 0.698929 0.538945 0.307943
O O6 0.779921 0.800319 0.136599
O O7 0.542851 0.649391 0.250355
O O8 0.500000 0.500000 0.000000
O O9 0.290855 0.679146 0.491711
O O10 0.198849 0.824621 0.595199
O O11 0.636154 0.493706 0.580882
O O12 0.924118 0.647189 0.615895
O O13 0.753974 0.668057 0.875473
O O14 0.000000 0.000000 0.000000
O O15 0.158481 0.638671 0.824960
O O16 0.295008 0.622221 0.139112
O O17 0.000000 0.500000 0.000000
O O18 0.000000 0.500000 0.500000
#
# Coordination Sequence:
#
# PCOD8020238 Si02
#       8
#     2   2   2   2   2   2   2   2
#     4  11  24  43  65  95 137 174 217 275 345 394
#     4  10  24  41  67  95 128 178 224 266 325 405
#     4  10  22  42  66  98 134 174 219 277 341 390
#     4  11  21  43  69 100 130 172 235 273 325 394
#     4  11  26  43  65  94 138 179 213 271 343 398
#     4  12  22  42  68  98 130 166 231 270 327 396
#     4  11  23  43  69  98 127 181 223 278 320 398
#     4  10  23  36  66  99 128 171 216 283 324 390
#
# _framework density 21.625910999999999
#
# number of rings (size 3 to 8) (size 9 to 14) (size 15 to 20)
#    0.000    1.250    2.500    3.375   10.500    0.500 
#    0.000    0.625    0.000    0.000    0.000    0.000 
#    0.000    0.000    0.000    0.000    0.000    0.000 
#
# Total GULP energy -198251.909328 kJ/mol
# GULP energy per Si atom -12390.744333 kJ/mol
# Density = 2.157669 g / cm^3
# Si number density = 21.625911 Si / 1000 Ang^3
#
#
#
# Elastic Constant Matrix: (Units=GPa)
#
#
# Indices 1 2 3 4 5 6 
#
# 1 111.0015 35.5188 21.9284 -12.7324 -13.4630 30.6218
# 2 35.5188 57.9523 18.7717 -9.8989 -4.8867 13.0082
# 3 21.9284 18.7717 110.0629 -20.6414 -3.4228 4.6913
# 4 -12.7324 -9.8989 -20.6414 39.9919 -2.5618 5.3211
# 5 -13.4630 -4.8867 -3.4228 -2.5618 31.8864 -5.1236
# 6 30.6218 13.0082 4.6913 5.3211 -5.1236 42.7272
#
#
#
# Elastic Compliance Matrix: (Units=1/GPa)
#
#
# Indices 1 2 3 4 5 6 
#
# 1 0.014221 -0.005553 -0.000606 0.004229 0.004067 -0.008474
# 2 -0.005553 0.022587 -0.001990 0.003239 0.000682 -0.003000
# 3 -0.000606 -0.001990 0.010514 0.004879 0.000860 -0.000619
# 4 0.004229 0.003239 0.004879 0.030984 0.004021 -0.007929
# 5 0.004067 0.000682 0.000860 0.004021 0.033649 0.000318
# 6 -0.008474 -0.003000 -0.000619 -0.007929 0.000318 0.031485
#
#
# Mechanical properties :
#
#
# Convention : Reuss Voigt Hill
#
# Bulk Modulus (GPa) = 32.23007 47.93940 40.08474
# Shear Modulus (GPa) = 29.39823 36.44095 32.91959
#
# Velocity S-wave (km/s) = 3.69100 4.10940 3.90581
# Velocity P-wave (km/s) = 5.75330 6.68819 6.23829
#
# Compressibility (1/GPa) = 0.03102693
#
# Stress axis : x y z
#
# Youngs Moduli (GPa) = 70.31688 44.27234 95.11287
#
# Poissons Ratio (x) = 0.24583 0.05760
# Poissons Ratio (y) = 0.39045 0.18923
# Poissons Ratio (z) = 0.04259 0.08808
#
# Static dielectric constant tensor:
#      x y z
#    x 4.516790 0.873440 -0.209820 
#    y 0.873440 3.431560 0.081220 
#    z -0.209820 0.081220 3.692940 
# 
# 
# High freq. dielectric constant tensor:
#      x y z
#    x 1.864950 0.020060 0.002090 
#    y 0.020060 1.828640 -0.013250 
#    z 0.002090 -0.013250 1.855910 
# 
# From -- ./inp_files/243653.got.cif
#   From: 2010.06.25/outbox.cif.g09.slc.cpg/sg2_122_cif.got.tgz:243653.got - 2010.06.27 13:26:56.
