data_PCOD8020263
_publ_section_title
;
Structure prediction by ZEFSAII (Michael W. Deem and Ramdas Pophale) SiO2 
 PCOD8020263
Probable space group: P -1
;
_chemical_formula_sum "Si O2"
_cell_formula_units_Z 12
_cell_length_a 14.228602
_cell_length_b 7.717344
_cell_length_c 15.159388
_cell_angle_alpha 82.781344
_cell_angle_beta 19.505820
_cell_angle_gamma 91.072017
_cell_volume 501.926492
_symmetry_space_group_name_H-M "P -1"
_symmetry_group_IT_number 2
_symmetry_cell_setting 'triclinic'
loop_
_space_group_symop_operation_xyz
x,y,z
-x,-y,-z
loop_
_atom_site_type_symbol
_atom_site_label
_atom_site_fract_x
_atom_site_fract_y
_atom_site_fract_z
Si Si1 0.683455 0.439665 0.527773
Si Si2 0.799538 0.620215 0.172283
Si Si3 0.027470 0.855890 0.112503
Si Si4 0.254014 0.633005 0.333479
Si Si5 0.749463 0.062804 0.463379
Si Si6 0.917327 0.879884 0.669173
O O1 0.325969 0.352846 0.814500
O O2 0.657360 0.466539 0.655520
O O3 0.890066 0.649112 0.294670
O O4 0.828101 0.290556 0.376658
O O5 0.500000 0.500000 0.500000
O O6 0.981692 0.822274 0.049071
O O7 0.000000 0.500000 0.000000
O O8 0.848859 0.987944 0.290824
O O9 0.387464 0.952620 0.811238
O O10 0.000000 0.500000 0.500000
O O11 0.102155 0.750029 0.512115
O O12 0.549329 0.761453 0.005860
O O13 0.946990 0.005583 0.367453
O O14 0.000000 0.000000 0.500000
#
# Coordination Sequence:
#
# PCOD8020263 Si02
#       6
#     2   2   2   2   2   2
#     4  10  25  45  69  97 149 173 229 305 329 410
#     4  10  22  42  67 102 135 181 230 279 349 406
#     4  11  24  42  70  99 136 186 233 276 349 420
#     4  11  25  43  69 103 129 184 233 272 362 410
#     4  11  25  42  67 103 133 183 237 272 359 409
#     4  11  25  44  67  96 143 173 226 300 336 404
#
# _framework density 23.907883999999999
#
# number of rings (size 3 to 8) (size 9 to 14) (size 15 to 20)
#    0.000    1.333    0.000    5.000    4.667   13.333 
#    0.000    0.000    0.000    0.000    0.000    0.000 
#    0.000    0.000    0.000    0.000    0.000    0.000 
#
# Total GULP energy -148705.129452 kJ/mol
# GULP energy per Si atom -12392.094121 kJ/mol
# Density = 2.385347 g / cm^3
# Si number density = 23.907884 Si / 1000 Ang^3
#
#
#
# Elastic Constant Matrix: (Units=GPa)
#
#
# Indices 1 2 3 4 5 6 
#
# 1 176.9388 30.8640 33.1942 2.6097 -23.0775 19.9067
# 2 30.8640 123.3904 34.6070 18.3888 -6.8713 18.1499
# 3 33.1942 34.6070 155.7805 8.3850 -20.7889 2.9901
# 4 2.6097 18.3888 8.3850 44.9824 3.5291 -1.5319
# 5 -23.0775 -6.8713 -20.7889 3.5291 32.0381 2.2777
# 6 19.9067 18.1499 2.9901 -1.5319 2.2777 36.2199
#
#
#
# Elastic Compliance Matrix: (Units=1/GPa)
#
#
# Indices 1 2 3 4 5 6 
#
# 1 0.006934 -0.000674 -0.000588 -0.000521 0.004792 -0.003748
# 2 -0.000674 0.010120 -0.001600 -0.004077 0.001440 -0.004832
# 3 -0.000588 -0.001600 0.007514 -0.001036 0.004209 0.000197
# 4 -0.000521 -0.004077 -0.001036 0.024634 -0.004903 0.003765
# 5 0.004792 0.001440 0.004209 -0.004903 0.038695 -0.006343
# 6 -0.003748 -0.004832 0.000197 0.003765 -0.006343 0.032632
#
#
# Mechanical properties :
#
#
# Convention : Reuss Voigt Hill
#
# Bulk Modulus (GPa) = 53.06911 72.60445 62.83678
# Shear Modulus (GPa) = 37.72574 46.47771 42.10173
#
# Velocity S-wave (km/s) = 3.97667 4.41390 4.20098
# Velocity P-wave (km/s) = 6.58260 7.51073 7.06193
#
# Compressibility (1/GPa) = 0.01884335
#
# Stress axis : x y z
#
# Youngs Moduli (GPa) = 144.21776 98.81186 133.08825
#
# Poissons Ratio (x) = 0.06656 0.07831
# Poissons Ratio (y) = 0.09714 0.21299
# Poissons Ratio (z) = 0.08485 0.15814
#
# Static dielectric constant tensor:
#      x y z
#    x 6.192880 0.294710 -0.264560 
#    y 0.294710 4.390880 0.036750 
#    z -0.264560 0.036750 4.208750 
# 
# 
# High freq. dielectric constant tensor:
#      x y z
#    x 1.970870 0.010320 -0.004890 
#    y 0.010320 1.942400 0.004700 
#    z -0.004890 0.004700 1.955010 
# 
# From -- ./inp_files/528556.got.cif
#   From: 2010.06.25/outbox.cif.g09.slc.cpg/sg2_265_cif.got.tgz:528556.got - 2010.06.27 13:26:56.
