data_PCOD8020084
_publ_section_title
;
Structure prediction by ZEFSAII (Michael W. Deem and Ramdas Pophale) SiO2 
 PCOD8020084
Probable space group: P -1
;
_chemical_formula_sum "Si O2"
_cell_formula_units_Z 14
_cell_length_a 12.334003
_cell_length_b 8.463305
_cell_length_c 19.182927
_cell_angle_alpha 43.939003
_cell_angle_beta 35.550848
_cell_angle_gamma 69.117061
_cell_volume 664.574944
_symmetry_space_group_name_H-M "P -1"
_symmetry_group_IT_number 2
_symmetry_cell_setting 'triclinic'
loop_
_space_group_symop_operation_xyz
x,y,z
-x,-y,-z
loop_
_atom_site_type_symbol
_atom_site_label
_atom_site_fract_x
_atom_site_fract_y
_atom_site_fract_z
Si Si1 0.848747 0.115157 0.528969
Si Si2 0.768298 0.340182 0.128521
Si Si3 0.109553 0.129885 0.166257
Si Si4 0.162057 0.748631 0.159590
Si Si5 0.032668 0.757378 0.070671
Si Si6 0.716387 0.118779 0.442047
Si Si7 0.589367 0.795463 0.890595
O O1 0.748238 0.043483 0.526999
O O2 0.985079 0.435558 0.370974
O O3 0.653747 0.990580 0.728294
O O4 0.000000 0.000000 0.500000
O O5 0.553413 0.100596 0.362989
O O6 0.725094 0.566637 0.051245
O O7 0.000000 0.500000 0.000000
O O8 0.792441 0.193856 0.095979
O O9 0.199747 0.112303 0.199338
O O10 0.860894 0.066575 0.328851
O O11 0.096951 0.915306 0.187860
O O12 0.153604 0.807183 0.064770
O O13 0.409577 0.814544 0.023901
O O14 0.801677 0.441876 0.288304
O O15 0.000000 0.000000 0.000000
O O16 0.500000 0.500000 0.000000
#
# Coordination Sequence:
#
# PCOD8020084 Si02
#       7
#     2   2   2   2   2   2   2
#     4  11  20  38  63  90 123 167 208 252 317 387
#     4  11  24  43  67  91 124 168 217 269 320 377
#     4  11  24  39  60  94 129 167 212 262 320 385
#     4  11  24  39  60  95 129 163 213 262 317 381
#     4  10  22  43  66  93 126 164 215 264 319 384
#     4  10  22  42  65  93 126 169 211 259 324 384
#     4  12  21  38  63  88 128 170 208 259 313 380
#
# _framework density 21.066098
#
# number of rings (size 3 to 8) (size 9 to 14) (size 15 to 20)
#    0.000    1.143    2.857    4.714    0.000    4.571 
#    0.000    4.286    0.000    0.000    0.000    0.000 
#    0.000    0.000    0.000    0.000    0.000    0.000 
#
# Total GULP energy -173577.240392 kJ/mol
# GULP energy per Si atom -12398.374314 kJ/mol
# Density = 2.101815 g / cm^3
# Si number density = 21.066098 Si / 1000 Ang^3
#
#
#
# Elastic Constant Matrix: (Units=GPa)
#
#
# Indices 1 2 3 4 5 6 
#
# 1 55.6049 44.4234 36.1330 0.8124 3.6718 1.1396
# 2 44.4234 177.9958 59.8957 -5.6598 3.5082 6.1080
# 3 36.1330 59.8957 141.1213 5.6826 1.3627 -1.8591
# 4 0.8124 -5.6598 5.6826 23.3305 -2.6317 8.9242
# 5 3.6718 3.5082 1.3627 -2.6317 36.1503 -1.3989
# 6 1.1396 6.1080 -1.8591 8.9242 -1.3989 36.3922
#
#
#
# Elastic Compliance Matrix: (Units=1/GPa)
#
#
# Indices 1 2 3 4 5 6 
#
# 1 0.024665 -0.004729 -0.004240 -0.001205 -0.001973 0.000025
# 2 -0.004729 0.007730 -0.002233 0.003382 -0.000020 -0.002094
# 3 -0.004240 -0.002233 0.009276 -0.003329 0.000125 0.001803
# 4 -0.001205 0.003382 -0.003329 0.049771 0.003048 -0.012788
# 5 -0.001973 -0.000020 0.000125 0.003048 0.028097 0.000404
# 6 0.000025 -0.002094 0.001803 -0.012788 0.000404 0.031073
#
#
# Mechanical properties :
#
#
# Convention : Reuss Voigt Hill
#
# Bulk Modulus (GPa) = 51.90649 72.84736 62.37692
# Shear Modulus (GPa) = 27.86456 34.79260 31.32858
#
# Velocity S-wave (km/s) = 3.64087 4.06839 3.86055
# Velocity P-wave (km/s) = 6.50906 7.53157 7.03890
#
# Compressibility (1/GPa) = 0.01926541
#
# Stress axis : x y z
#
# Youngs Moduli (GPa) = 40.54329 129.37027 107.80198
#
# Poissons Ratio (x) = 0.61182 0.45710
# Poissons Ratio (y) = 0.19174 0.24077
# Poissons Ratio (z) = 0.17191 0.28894
#
# Static dielectric constant tensor:
#      x y z
#    x 4.517720 -0.476930 0.366630 
#    y -0.476930 4.042820 -0.090710 
#    z 0.366630 -0.090710 4.037990 
# 
# 
# High freq. dielectric constant tensor:
#      x y z
#    x 1.835330 -0.000690 0.015100 
#    y -0.000690 1.823530 -0.000360 
#    z 0.015100 -0.000360 1.828840 
# 
# From -- ./inp_files/138597.got.cif
#   From: 2010.06.25/outbox.cif.g09.slc.cpg/sg2_70_cif.got.tgz:138597.got - 2010.06.27 13:26:56.
