data_PCOD8020854
_publ_section_title
;
Structure prediction by ZEFSAII (Michael W. Deem and Ramdas Pophale) SiO2 
 PCOD8020854
Probable space group: P -1
;
_chemical_formula_sum "Si O2"
_cell_formula_units_Z 16
_cell_length_a 11.825087
_cell_length_b 14.789032
_cell_length_c 6.749248
_cell_angle_alpha 132.052223
_cell_angle_beta 85.453121
_cell_angle_gamma 72.415769
_cell_volume 766.499985
_symmetry_space_group_name_H-M "P -1"
_symmetry_group_IT_number 2
_symmetry_cell_setting 'triclinic'
loop_
_space_group_symop_operation_xyz
x,y,z
-x,-y,-z
loop_
_atom_site_type_symbol
_atom_site_label
_atom_site_fract_x
_atom_site_fract_y
_atom_site_fract_z
Si Si1 0.785590 0.593585 0.692301
Si Si2 0.314963 0.118700 0.690080
Si Si3 0.556102 0.529161 0.733268
Si Si4 0.072304 0.943126 0.703917
Si Si5 0.496632 0.911271 0.683394
Si Si6 0.016677 0.529178 0.816800
Si Si7 0.624863 0.271818 0.619964
Si Si8 0.054337 0.158630 0.719415
O O1 0.671234 0.558679 0.696858
O O2 0.835899 0.568577 0.420562
O O3 0.911663 0.500173 0.672628
O O4 0.738665 0.753492 0.967008
O O5 0.363615 0.159217 0.541616
O O6 0.209140 0.079924 0.562566
O O7 0.411068 0.993078 0.627043
O O8 0.500000 0.500000 0.500000
O O9 0.618718 0.392507 0.659121
O O10 0.443344 0.660603 0.060264
O O11 0.227412 0.848346 0.553023
O O12 0.014734 0.849811 0.482592
O O13 0.022892 0.084388 0.794151
O O14 0.000000 0.000000 0.000000
O O15 0.453846 0.796846 0.580836
O O16 0.500000 0.000000 0.000000
O O17 0.000000 0.500000 0.000000
O O18 0.993886 0.681805 0.996995
#
# Coordination Sequence:
#
# PCOD8020854 Si02
#       8
#     2   2   2   2   2   2   2   2
#     4  10  23  43  64  95 129 169 222 275 336 392
#     4  10  22  43  64  94 132 163 225 272 331 403
#     4  11  27  44  73  95 138 181 221 288 340 407
#     4  11  26  43  68  95 138 176 224 278 336 411
#     4  11  24  40  69  95 129 175 215 283 330 396
#     4  10  24  41  68  94 133 172 220 278 333 405
#     4  11  26  47  66 105 131 175 240 274 338 416
#     4  10  24  43  65  98 128 177 220 277 336 395
#
# _framework density 20.874103000000002
#
# number of rings (size 3 to 8) (size 9 to 14) (size 15 to 20)
#    0.000    1.500    2.500    0.000    8.750    6.000 
#    0.000    0.000    0.000    0.000    0.000    0.000 
#    0.000    0.000    0.000    0.000    0.000    0.000 
#
# Total GULP energy -198289.487515 kJ/mol
# GULP energy per Si atom -12393.092970 kJ/mol
# Density = 2.082659 g / cm^3
# Si number density = 20.874103 Si / 1000 Ang^3
#
#
#
# Elastic Constant Matrix: (Units=GPa)
#
#
# Indices 1 2 3 4 5 6 
#
# 1 139.9059 21.7153 62.4792 -13.8445 2.2128 14.6261
# 2 21.7153 61.6947 37.1836 -4.5614 -8.6567 11.0153
# 3 62.4792 37.1836 147.9125 -13.2904 -12.2837 7.0258
# 4 -13.8445 -4.5614 -13.2904 31.1451 4.8056 0.8021
# 5 2.2128 -8.6567 -12.2837 4.8056 43.1150 -0.2585
# 6 14.6261 11.0153 7.0258 0.8021 -0.2585 25.3986
#
#
#
# Elastic Compliance Matrix: (Units=1/GPa)
#
#
# Indices 1 2 3 4 5 6 
#
# 1 0.009647 -0.000458 -0.003635 0.003093 -0.001994 -0.004469
# 2 -0.000458 0.020806 -0.004378 0.000734 0.002827 -0.007543
# 3 -0.003635 -0.004378 0.009629 0.001527 0.001889 0.001300
# 4 0.003093 0.000734 0.001527 0.034874 -0.003485 -0.003658
# 5 -0.001994 0.002827 0.001889 -0.003485 0.024789 -0.000238
# 6 -0.004469 -0.007543 0.001300 -0.003658 -0.000238 0.044971
#
#
# Mechanical properties :
#
#
# Convention : Reuss Voigt Hill
#
# Bulk Modulus (GPa) = 43.21493 65.80772 54.51132
# Shear Modulus (GPa) = 29.52083 35.14073 32.33078
#
# Velocity S-wave (km/s) = 3.76471 4.10745 3.93981
# Velocity P-wave (km/s) = 6.29642 7.35454 6.84596
#
# Compressibility (1/GPa) = 0.02314015
#
# Stress axis : x y z
#
# Youngs Moduli (GPa) = 103.65948 48.06217 103.84989
#
# Poissons Ratio (x) = 0.02200 0.37753
# Poissons Ratio (y) = 0.04745 0.45467
# Poissons Ratio (z) = 0.37683 0.21043
#
# Static dielectric constant tensor:
#      x y z
#    x 4.227810 0.135610 0.006840 
#    y 0.135610 3.563820 -0.008610 
#    z 0.006840 -0.008610 3.886780 
# 
# 
# High freq. dielectric constant tensor:
#      x y z
#    x 1.836810 0.007980 -0.001440 
#    y 0.007980 1.812230 0.002260 
#    z -0.001440 0.002260 1.823830 
# 
# From -- ./inp_files/78773.got.cif
#   From: 2010.06.25/outbox.cif.g09.slc.cpg/sg2_40_cif.got.tgz:78773.got - 2010.06.27 13:26:56.
