data_PCOD8020336
_publ_section_title
;
Structure prediction by ZEFSAII (Michael W. Deem and Ramdas Pophale) SiO2 
 PCOD8020336
Probable space group: P -1
;
_chemical_formula_sum "Si O2"
_cell_formula_units_Z 14
_cell_length_a 6.618060
_cell_length_b 13.966994
_cell_length_c 21.616370
_cell_angle_alpha 22.307513
_cell_angle_beta 106.136862
_cell_angle_gamma 116.422022
_cell_volume 624.426270
_symmetry_space_group_name_H-M "P -1"
_symmetry_group_IT_number 2
_symmetry_cell_setting 'triclinic'
loop_
_space_group_symop_operation_xyz
x,y,z
-x,-y,-z
loop_
_atom_site_type_symbol
_atom_site_label
_atom_site_fract_x
_atom_site_fract_y
_atom_site_fract_z
Si Si1 0.802364 0.891799 0.103354
Si Si2 0.927259 0.342975 0.653675
Si Si3 0.535850 0.225740 0.235486
Si Si4 0.053196 0.355884 0.188078
Si Si5 0.519646 0.223282 0.093278
Si Si6 0.265569 0.573461 0.200372
Si Si7 0.039481 0.796181 0.493328
O O1 0.877334 0.741701 0.253543
O O2 0.533546 0.652802 0.198345
O O3 0.774312 0.151451 0.974818
O O4 0.000000 0.000000 0.000000
O O5 0.000000 0.500000 0.500000
O O6 0.897801 0.554041 0.573032
O O7 0.661015 0.049131 0.802222
O O8 0.477646 0.128597 0.217127
O O9 0.809060 0.316176 0.220902
O O10 0.523228 0.508806 0.082698
O O11 0.335033 0.939442 0.427618
O O12 0.231490 0.416004 0.225734
O O13 0.195169 0.642178 0.983526
O O14 0.988159 0.061634 0.320773
O O15 0.053060 0.346676 0.363028
#
# Coordination Sequence:
#
# PCOD8020336 Si02
#       7
#     2   2   2   2   2   2   2
#     4  11  24  45  72  98 142 179 228 284 335 410
#     4  12  24  46  72 101 137 183 226 284 348 397
#     4  10  22  44  66  95 137 181 221 280 338 403
#     4  11  24  42  67  98 135 179 225 277 340 403
#     4  10  22  42  67  95 135 178 231 272 337 411
#     4  11  25  44  69 102 135 183 230 273 344 405
#     4  11  25  43  65 103 138 168 230 282 329 412
#
# _framework density 22.420580999999999
#
# number of rings (size 3 to 8) (size 9 to 14) (size 15 to 20)
#    0.000    1.143    2.857    2.571    4.000    1.714 
#    2.571    1.429    0.000    0.000    0.000    0.000 
#    0.000    0.000    0.000    0.000    0.000    0.000 
#
# Total GULP energy -173582.279203 kJ/mol
# GULP energy per Si atom -12398.734229 kJ/mol
# Density = 2.236955 g / cm^3
# Si number density = 22.420581 Si / 1000 Ang^3
#
#
#
# Elastic Constant Matrix: (Units=GPa)
#
#
# Indices 1 2 3 4 5 6 
#
# 1 107.9926 39.0818 49.9499 5.3957 -32.4774 10.7804
# 2 39.0818 89.4846 52.1944 -22.0078 3.3256 -0.3040
# 3 49.9499 52.1944 118.9858 -2.4916 -21.6394 8.5716
# 4 5.3957 -22.0078 -2.4916 39.0631 3.8631 -2.8506
# 5 -32.4774 3.3256 -21.6394 3.8631 41.4601 2.2495
# 6 10.7804 -0.3040 8.5716 -2.8506 2.2495 36.2449
#
#
#
# Elastic Compliance Matrix: (Units=1/GPa)
#
#
# Indices 1 2 3 4 5 6 
#
# 1 0.021671 -0.014447 0.001371 -0.013761 0.020635 -0.009254
# 2 -0.014447 0.030387 -0.011635 0.021343 -0.022378 0.010371
# 3 0.001371 -0.011635 0.015143 -0.007243 0.010875 -0.005331
# 4 -0.013761 0.021343 -0.007243 0.041886 -0.020748 0.010567
# 5 0.020635 -0.022378 0.010875 -0.020748 0.050429 -0.013658
# 6 -0.009254 0.010371 -0.005331 0.010567 -0.013658 0.033369
#
#
# Mechanical properties :
#
#
# Convention : Reuss Voigt Hill
#
# Bulk Modulus (GPa) = 56.24560 66.54611 61.39586
# Shear Modulus (GPa) = 20.14240 35.03610 27.58925
#
# Velocity S-wave (km/s) = 3.00056 3.95736 3.51170
# Velocity P-wave (km/s) = 6.09472 7.11521 6.62464
#
# Compressibility (1/GPa) = 0.01777917
#
# Stress axis : x y z
#
# Youngs Moduli (GPa) = 46.14482 32.90856 66.03862
#
# Poissons Ratio (x) = 0.47543 -0.09055
# Poissons Ratio (y) = 0.66666 0.76835
# Poissons Ratio (z) = -0.06327 0.38289
#
# Static dielectric constant tensor:
#      x y z
#    x 4.143260 -0.134840 -0.219960 
#    y -0.134840 4.031830 -0.175620 
#    z -0.219960 -0.175620 4.237350 
# 
# 
# High freq. dielectric constant tensor:
#      x y z
#    x 1.881550 -0.011660 -0.019110 
#    y -0.011660 1.884840 -0.012310 
#    z -0.019110 -0.012310 1.893180 
# 
# From -- ./inp_files/76682.got.cif
#   From: 2010.06.25/outbox.cif.g09.slc.cpg/sg2_39_cif.got.tgz:76682.got - 2010.06.27 13:26:56.
