data_PCOD8020724
_publ_section_title
;
Structure prediction by ZEFSAII (Michael W. Deem and Ramdas Pophale) SiO2 
 PCOD8020724
Probable space group: P -1
;
_chemical_formula_sum "Si O2"
_cell_formula_units_Z 16
_cell_length_a 16.858476
_cell_length_b 9.694799
_cell_length_c 11.634973
_cell_angle_alpha 51.938761
_cell_angle_beta 133.094073
_cell_angle_gamma 89.774788
_cell_volume 736.092282
_symmetry_space_group_name_H-M "P -1"
_symmetry_group_IT_number 2
_symmetry_cell_setting 'triclinic'
loop_
_space_group_symop_operation_xyz
x,y,z
-x,-y,-z
loop_
_atom_site_type_symbol
_atom_site_label
_atom_site_fract_x
_atom_site_fract_y
_atom_site_fract_z
Si Si1 0.816515 0.286555 0.152430
Si Si2 0.321040 0.695982 0.774757
Si Si3 0.842739 0.977559 0.908339
Si Si4 0.829780 0.303817 0.569198
Si Si5 0.686545 0.813385 0.748761
Si Si6 0.814244 0.765753 0.660822
Si Si7 0.642501 0.737581 0.339958
Si Si8 0.656940 0.422081 0.679984
O O1 0.687063 0.342230 0.078681
O O2 0.800600 0.512615 0.047603
O O3 0.761336 0.317743 0.952058
O O4 0.000000 0.000000 0.500000
O O5 0.236240 0.634451 0.657071
O O6 0.213319 0.995714 0.497852
O O7 0.500000 0.500000 0.000000
O O8 0.750128 0.906181 0.834597
O O9 0.865967 0.059606 0.770886
O O10 0.762100 0.195850 0.809174
O O11 0.022130 0.736103 0.260293
O O12 0.697012 0.538301 0.400346
O O13 0.701826 0.829750 0.619766
O O14 0.500000 0.000000 0.500000
O O15 0.768641 0.733304 0.510054
O O16 0.000000 0.500000 0.000000
O O17 0.599946 0.678231 0.443089
O O18 0.500000 0.000000 0.000000
O O19 0.500000 0.500000 0.500000
#
# Coordination Sequence:
#
# PCOD8020724 Si02
#       8
#     2   2   2   2   2   2   2   2
#     4  12  27  47  72 105 146 189 236 297 362 426
#     4  12  26  44  72 104 141 187 243 292 353 427
#     4  10  22  42  72  99 133 186 230 290 351 423
#     4  10  22  43  70 100 138 176 237 288 353 414
#     4  12  24  45  71 107 142 186 240 295 358 423
#     4  12  25  44  73 103 139 186 243 294 346 425
#     4  11  25  44  70 104 139 179 234 293 351 422
#     4  11  25  45  69  99 143 186 226 285 364 424
#
# _framework density 21.736405000000001
#
# number of rings (size 3 to 8) (size 9 to 14) (size 15 to 20)
#    0.000    0.750    2.500    4.500    8.750    0.000 
#    0.000    1.250    0.000    0.000    0.000    0.000 
#    0.000    0.000    0.000    0.000    0.000    0.000 
#
# Total GULP energy -198307.179588 kJ/mol
# GULP energy per Si atom -12394.198724 kJ/mol
# Density = 2.168693 g / cm^3
# Si number density = 21.736405 Si / 1000 Ang^3
#
#
#
# Elastic Constant Matrix: (Units=GPa)
#
#
# Indices 1 2 3 4 5 6 
#
# 1 105.2937 39.6543 41.1542 0.9966 -4.8913 4.7687
# 2 39.6543 140.2012 68.6743 9.6093 -7.4569 12.2177
# 3 41.1542 68.6743 151.5367 8.4656 -6.1059 12.1284
# 4 0.9966 9.6093 8.4656 35.9424 3.2724 3.6310
# 5 -4.8913 -7.4569 -6.1059 3.2724 33.5884 9.6319
# 6 4.7687 12.2177 12.1284 3.6310 9.6319 29.9635
#
#
#
# Elastic Compliance Matrix: (Units=1/GPa)
#
#
# Indices 1 2 3 4 5 6 
#
# 1 0.011144 -0.002120 -0.002036 0.000705 0.000840 -0.000440
# 2 -0.002120 0.009933 -0.003518 -0.001688 0.002224 -0.002799
# 3 -0.002036 -0.003518 0.009031 -0.001027 0.001292 -0.002188
# 4 0.000705 -0.001688 -0.001027 0.028915 -0.002815 -0.001608
# 5 0.000840 0.002224 0.001292 -0.002815 0.034421 -0.012287
# 6 -0.000440 -0.002799 -0.002188 -0.001608 -0.012287 0.039615
#
#
# Mechanical properties :
#
#
# Convention : Reuss Voigt Hill
#
# Bulk Modulus (GPa) = 67.75031 77.33302 72.54166
# Shear Modulus (GPa) = 32.61022 36.40211 34.50616
#
# Velocity S-wave (km/s) = 3.87752 4.09676 3.98864
# Velocity P-wave (km/s) = 7.16126 7.61793 7.39312
#
# Compressibility (1/GPa) = 0.01476008
#
# Stress axis : x y z
#
# Youngs Moduli (GPa) = 89.73722 100.67118 110.73253
#
# Poissons Ratio (x) = 0.21341 0.22545
# Poissons Ratio (y) = 0.19023 0.38955
# Poissons Ratio (z) = 0.18271 0.35416
#
# Static dielectric constant tensor:
#      x y z
#    x 4.073500 0.000240 -0.376160 
#    y 0.000240 4.279380 -0.098170 
#    z -0.376160 -0.098170 4.069470 
# 
# 
# High freq. dielectric constant tensor:
#      x y z
#    x 1.853050 -0.006990 0.002180 
#    y -0.006990 1.875550 0.002070 
#    z 0.002180 0.002070 1.854640 
# 
# From -- ./inp_files/461920.got.cif
#   From: 2010.06.25/outbox.cif.g09.slc.cpg/sg2_231_cif.got.tgz:461920.got - 2010.06.27 13:26:56.
