data_PCOD8020027
_publ_section_title
;
Structure prediction by ZEFSAII (Michael W. Deem and Ramdas Pophale) SiO2 
 PCOD8020027
Probable space group: P -1
;
_chemical_formula_sum "Si O2"
_cell_formula_units_Z 16
_cell_length_a 29.140502
_cell_length_b 11.498639
_cell_length_c 14.890574
_cell_angle_alpha 148.371540
_cell_angle_beta 18.071341
_cell_angle_gamma 148.963250
_cell_volume 776.470467
_symmetry_space_group_name_H-M "P -1"
_symmetry_group_IT_number 2
_symmetry_cell_setting 'triclinic'
loop_
_space_group_symop_operation_xyz
x,y,z
-x,-y,-z
loop_
_atom_site_type_symbol
_atom_site_label
_atom_site_fract_x
_atom_site_fract_y
_atom_site_fract_z
Si Si1 0.487971 0.748347 0.824955
Si Si2 0.739026 0.497868 0.229939
Si Si3 0.751545 0.980971 0.178277
Si Si4 0.449262 0.384162 0.112861
Si Si5 0.545755 0.140860 0.238476
Si Si6 0.280914 0.449601 0.148809
Si Si7 0.943878 0.338606 0.179651
Si Si8 0.797219 0.408417 0.247768
O O1 0.633005 0.669426 0.537750
O O2 0.487349 0.746808 0.718045
O O3 0.327450 0.594052 0.065289
O O4 0.500000 0.000000 0.000000
O O5 0.707329 0.315744 0.087075
O O6 0.711765 0.333862 0.261599
O O7 0.918321 0.662119 0.007412
O O8 0.859192 0.078487 0.129666
O O9 0.745966 0.202870 0.277850
O O10 0.583367 0.841051 0.436875
O O11 0.806272 0.811249 0.896331
O O12 0.272103 0.384526 0.455220
O O13 0.500000 0.500000 0.000000
O O14 0.565243 0.538809 0.072805
O O15 0.451729 0.121132 0.946166
O O16 0.172398 0.546980 0.479182
O O17 0.017677 0.489564 0.051239
#
# Coordination Sequence:
#
# PCOD8020027 Si02
#       8
#     2   2   2   2   2   2   2   2
#     4  12  22  44  69  91 129 174 228 274 327 384
#     4  10  24  42  66  95 129 170 220 275 329 388
#     4  12  23  41  72  97 136 177 217 273 339 387
#     4  12  22  38  69 103 131 166 224 273 325 394
#     4  12  23  40  71  97 129 173 221 280 325 385
#     4  12  24  42  67 100 130 181 222 268 328 403
#     4  10  24  46  61 100 141 170 219 267 340 393
#     4  10  22  42  64  97 138 169 216 272 334 390
#
# _framework density 20.606064
#
# number of rings (size 3 to 8) (size 9 to 14) (size 15 to 20)
#    0.750    0.000    6.250    0.750    1.750    2.500 
#    0.000    3.125    0.000    0.000    0.000    0.000 
#    0.000    0.000    0.000    0.000    0.000    0.000 
#
# Total GULP energy -198216.736646 kJ/mol
# GULP energy per Si atom -12388.546040 kJ/mol
# Density = 2.055916 g / cm^3
# Si number density = 20.606064 Si / 1000 Ang^3
#
#
#
# Elastic Constant Matrix: (Units=GPa)
#
#
# Indices 1 2 3 4 5 6 
#
# 1 89.9626 53.1971 22.0406 2.7296 1.9488 5.0724
# 2 53.1971 85.6518 44.1411 3.2660 0.7603 23.9688
# 3 22.0406 44.1411 117.8509 -2.6582 10.1904 7.3505
# 4 2.7296 3.2660 -2.6582 20.5768 4.4766 15.4320
# 5 1.9488 0.7603 10.1904 4.4766 27.6410 -2.1678
# 6 5.0724 23.9688 7.3505 15.4320 -2.1678 48.7288
#
#
#
# Elastic Compliance Matrix: (Units=1/GPa)
#
#
# Indices 1 2 3 4 5 6 
#
# 1 0.018804 -0.013832 0.001184 -0.004739 -0.000131 0.006163
# 2 -0.013832 0.027030 -0.006665 0.006091 0.000703 -0.012748
# 3 0.001184 -0.006665 0.011204 0.003124 -0.004515 0.000275
# 4 -0.004739 0.006091 0.003124 0.071564 -0.014637 -0.026289
# 5 -0.000131 0.000703 -0.004515 -0.014637 0.040736 0.006797
# 6 0.006163 -0.012748 0.000275 -0.026289 0.006797 0.034737
#
#
# Mechanical properties :
#
#
# Convention : Reuss Voigt Hill
#
# Bulk Modulus (GPa) = 54.31378 59.13587 56.72482
# Shear Modulus (GPa) = 20.09330 30.99508 25.54419
#
# Velocity S-wave (km/s) = 3.12607 3.88257 3.52468
# Velocity P-wave (km/s) = 6.28054 6.98998 6.64473
#
# Compressibility (1/GPa) = 0.01841154
#
# Stress axis : x y z
#
# Youngs Moduli (GPa) = 53.18076 36.99623 89.25242
#
# Poissons Ratio (x) = 0.51172 -0.10567
# Poissons Ratio (y) = 0.73558 0.59491
# Poissons Ratio (z) = -0.06296 0.24660
#
# Static dielectric constant tensor:
#      x y z
#    x 4.030860 0.258960 0.135150 
#    y 0.258960 3.692690 0.010410 
#    z 0.135150 0.010410 3.743230 
# 
# 
# High freq. dielectric constant tensor:
#      x y z
#    x 1.818150 0.005130 0.015280 
#    y 0.005130 1.794440 0.003120 
#    z 0.015280 0.003120 1.801740 
# 
# From -- ./inp_files/455058.got.cif
#   From: 2010.06.25/outbox.cif.g09.slc.cpg/sg2_228_cif.got.tgz:455058.got - 2010.06.27 13:26:56.
