data_PCOD8020311
_publ_section_title
;
Structure prediction by ZEFSAII (Michael W. Deem and Ramdas Pophale) SiO2 
 PCOD8020311
Probable space group: P -1
;
_chemical_formula_sum "Si O2"
_cell_formula_units_Z 14
_cell_length_a 23.709883
_cell_length_b 11.594313
_cell_length_c 7.907442
_cell_angle_alpha 144.106412
_cell_angle_beta 139.260630
_cell_angle_gamma 29.237521
_cell_volume 612.605422
_symmetry_space_group_name_H-M "P -1"
_symmetry_group_IT_number 2
_symmetry_cell_setting 'triclinic'
loop_
_space_group_symop_operation_xyz
x,y,z
-x,-y,-z
loop_
_atom_site_type_symbol
_atom_site_label
_atom_site_fract_x
_atom_site_fract_y
_atom_site_fract_z
Si Si1 0.231945 0.258452 0.089204
Si Si2 0.447524 0.155042 0.836370
Si Si3 0.028733 0.318485 0.589419
Si Si4 0.673449 0.872404 0.205747
Si Si5 0.851870 0.895641 0.745961
Si Si6 0.520133 0.247187 0.801196
Si Si7 0.902881 0.211186 0.397864
O O1 0.197830 0.497961 0.406525
O O2 0.349696 0.980316 0.097706
O O3 0.131173 0.248097 0.857900
O O4 0.245004 0.314308 0.989935
O O5 0.331255 0.285877 0.841376
O O6 0.427230 0.330829 0.838766
O O7 0.498921 0.868220 0.538716
O O8 0.541237 0.110272 0.123129
O O9 0.078227 0.179742 0.357028
O O10 0.927402 0.637786 0.730762
O O11 0.973388 0.207817 0.405671
O O12 0.723605 0.997779 0.546073
O O13 0.832961 0.131961 0.073837
O O14 0.500000 0.500000 0.000000
O O15 0.000000 0.000000 0.500000
#
# Coordination Sequence:
#
# PCOD8020311 Si02
#       7
#     2   2   2   2   2   2   2
#     4  10  22  43  68  96 136 174 218 274 329 392
#     4   9  20  44  68  94 132 166 225 278 326 391
#     4  10  22  43  63  97 137 174 223 268 321 405
#     4   9  20  43  68  92 130 180 212 276 330 387
#     4  10  22  42  67  93 135 177 221 269 330 393
#     4  10  22  44  71 102 131 169 220 279 331 389
#     4  12  24  40  65 100 135 177 219 272 331 389
#
# _framework density 22.853209
#
# number of rings (size 3 to 8) (size 9 to 14) (size 15 to 20)
#    0.000    2.000    1.429    0.857    2.000    0.000 
#   15.429    9.286    0.000    0.000    0.000    0.000 
#    0.000    0.000    0.000    0.000    0.000    0.000 
#
# Total GULP energy -173562.100942 kJ/mol
# GULP energy per Si atom -12397.292924 kJ/mol
# Density = 2.280119 g / cm^3
# Si number density = 22.853209 Si / 1000 Ang^3
#
#
#
# Elastic Constant Matrix: (Units=GPa)
#
#
# Indices 1 2 3 4 5 6 
#
# 1 161.2754 44.5302 55.3752 -0.4701 25.4515 7.7429
# 2 44.5302 87.2875 58.1339 -6.7279 9.4871 4.9523
# 3 55.3752 58.1339 155.4091 -15.3576 17.7376 3.7833
# 4 -0.4701 -6.7279 -15.3576 40.5508 -1.2217 9.9221
# 5 25.4515 9.4871 17.7376 -1.2217 32.4215 -0.9603
# 6 7.7429 4.9523 3.7833 9.9221 -0.9603 28.6787
#
#
#
# Elastic Compliance Matrix: (Units=1/GPa)
#
#
# Indices 1 2 3 4 5 6 
#
# 1 0.008294 -0.002723 -0.001392 -0.000661 -0.005023 -0.001525
# 2 -0.002723 0.016363 -0.004990 0.001251 0.000071 -0.001863
# 3 -0.001392 -0.004990 0.009398 0.002907 -0.002512 -0.001092
# 4 -0.000661 0.001251 0.002907 0.028459 -0.000670 -0.010290
# 5 -0.005023 0.000071 -0.002512 -0.000670 0.036207 0.003119
# 6 -0.001525 -0.001863 -0.001092 -0.010290 0.003119 0.039411
#
#
# Mechanical properties :
#
#
# Convention : Reuss Voigt Hill
#
# Bulk Modulus (GPa) = 63.10752 80.00563 71.55657
# Shear Modulus (GPa) = 30.93619 36.72570 33.83095
#
# Velocity S-wave (km/s) = 3.68325 4.01312 3.85172
# Velocity P-wave (km/s) = 6.76481 7.52051 7.15264
#
# Compressibility (1/GPa) = 0.01584597
#
# Stress axis : x y z
#
# Youngs Moduli (GPa) = 120.56517 61.11282 106.41073
#
# Poissons Ratio (x) = 0.16641 0.14809
# Poissons Ratio (y) = 0.32829 0.53097
# Poissons Ratio (z) = 0.16779 0.30494
#
# Static dielectric constant tensor:
#      x y z
#    x 4.737360 0.054590 -0.052150 
#    y 0.054590 3.949040 -0.320810 
#    z -0.052150 -0.320810 4.163880 
# 
# 
# High freq. dielectric constant tensor:
#      x y z
#    x 1.926310 -0.002530 0.000120 
#    y -0.002530 1.878290 -0.034880 
#    z 0.000120 -0.034880 1.898560 
# 
# From -- ./inp_files/353873.got.cif
#   From: 2010.06.25/outbox.cif.g09.slc.cpg/sg2_177_cif.got.tgz:353873.got - 2010.06.27 13:26:56.
