data_PCOD8020346
_publ_section_title
;
Structure prediction by ZEFSAII (Michael W. Deem and Ramdas Pophale) SiO2 
 PCOD8020346
Probable space group: P -1
;
_chemical_formula_sum "Si O2"
_cell_formula_units_Z 12
_cell_length_a 10.739184
_cell_length_b 8.554382
_cell_length_c 8.907446
_cell_angle_alpha 65.166257
_cell_angle_beta 62.379507
_cell_angle_gamma 43.411441
_cell_volume 493.601728
_symmetry_space_group_name_H-M "P -1"
_symmetry_group_IT_number 2
_symmetry_cell_setting 'triclinic'
loop_
_space_group_symop_operation_xyz
x,y,z
-x,-y,-z
loop_
_atom_site_type_symbol
_atom_site_label
_atom_site_fract_x
_atom_site_fract_y
_atom_site_fract_z
Si Si1 0.413009 0.256168 0.409677
Si Si2 0.702236 0.353798 0.515950
Si Si3 0.707763 0.707985 0.859827
Si Si4 0.793150 0.133576 0.254585
Si Si5 0.331276 0.910113 0.129274
Si Si6 0.980631 0.777077 0.070694
O O1 0.274635 0.459647 0.529983
O O2 0.294326 0.337321 0.294350
O O3 0.575910 0.266553 0.299153
O O4 0.500000 0.000000 0.500000
O O5 0.500000 0.500000 0.500000
O O6 0.841982 0.168183 0.381244
O O7 0.726425 0.221710 0.707257
O O8 0.681881 0.932496 0.800000
O O9 0.915627 0.490700 0.890513
O O10 0.545567 0.732495 0.026018
O O11 0.911432 0.867258 0.245598
O O12 0.853548 0.223878 0.060700
O O13 0.196650 0.067154 0.003189
#
# Coordination Sequence:
#
# PCOD8020346 Si02
#       6
#     2   2   2   2   2   2
#     4  11  23  43  71 100 135 176 226 279 338 397
#     4  10  22  42  67  96 131 181 220 271 334 394
#     4  11  23  42  70 101 135 179 223 278 339 393
#     4  10  23  44  66  98 140 170 228 273 331 402
#     4  11  24  44  71  97 138 178 227 277 330 403
#     4  11  24  43  71 101 136 176 227 275 334 403
#
# _framework density 24.311098000000001
#
# number of rings (size 3 to 8) (size 9 to 14) (size 15 to 20)
#    0.000    1.333    1.667    4.500    4.667    3.333 
#    3.000    1.667    0.000    0.000    0.000    0.000 
#    0.000    0.000    0.000    0.000    0.000    0.000 
#
# Total GULP energy -148680.187036 kJ/mol
# GULP energy per Si atom -12390.015586 kJ/mol
# Density = 2.425577 g / cm^3
# Si number density = 24.311098 Si / 1000 Ang^3
#
#
#
# Elastic Constant Matrix: (Units=GPa)
#
#
# Indices 1 2 3 4 5 6 
#
# 1 82.1295 44.8038 19.6281 12.4331 22.4414 20.6162
# 2 44.8038 163.6494 61.6637 10.9702 33.5897 12.7725
# 3 19.6281 61.6637 84.0499 13.5931 27.6163 16.9494
# 4 12.4331 10.9702 13.5931 35.0472 6.5834 9.1054
# 5 22.4414 33.5897 27.6163 6.5834 37.0744 9.7268
# 6 20.6162 12.7725 16.9494 9.1054 9.7268 37.7479
#
#
#
# Elastic Compliance Matrix: (Units=1/GPa)
#
#
# Indices 1 2 3 4 5 6 
#
# 1 0.017698 -0.003704 0.002833 -0.003039 -0.007056 -0.007133
# 2 -0.003704 0.009705 -0.005805 0.000556 -0.002835 0.001942
# 3 0.002833 -0.005805 0.020322 -0.003903 -0.009504 -0.005317
# 4 -0.003039 0.000556 -0.003903 0.032165 -0.000299 -0.004458
# 5 -0.007056 -0.002835 -0.009504 -0.000299 0.041338 -0.001500
# 6 -0.007133 0.001942 -0.005317 -0.004458 -0.001500 0.033579
#
#
# Mechanical properties :
#
#
# Convention : Reuss Voigt Hill
#
# Bulk Modulus (GPa) = 29.09367 64.66890 46.88129
# Shear Modulus (GPa) = 27.83679 35.55609 31.69644
#
# Velocity S-wave (km/s) = 3.38749 3.82847 3.61471
# Velocity P-wave (km/s) = 5.22430 6.79715 6.06196
#
# Compressibility (1/GPa) = 0.03437173
#
# Stress axis : x y z
#
# Youngs Moduli (GPa) = 56.50273 103.03708 49.20877
#
# Poissons Ratio (x) = 0.38166 -0.13940
# Poissons Ratio (y) = 0.20929 0.28568
# Poissons Ratio (z) = -0.16006 0.59817
#
# Static dielectric constant tensor:
#      x y z
#    x 4.278470 0.456960 0.190260 
#    y 0.456960 5.055540 0.551910 
#    z 0.190260 0.551910 4.391900 
# 
# 
# High freq. dielectric constant tensor:
#      x y z
#    x 1.955920 0.017060 0.016160 
#    y 0.017060 1.988210 0.018930 
#    z 0.016160 0.018930 1.941170 
# 
# From -- ./inp_files/168144.got.cif
#   From: 2010.06.25/outbox.cif.g09.slc.cpg/sg2_85_cif.got.tgz:168144.got - 2010.06.27 13:26:56.
