data_PCOD8020903
_publ_section_title
;
Structure prediction by ZEFSAII (Michael W. Deem and Ramdas Pophale) SiO2 
 PCOD8020903
Probable space group: P -1
;
_chemical_formula_sum "Si O2"
_cell_formula_units_Z 12
_cell_length_a 10.223904
_cell_length_b 9.837339
_cell_length_c 10.761702
_cell_angle_alpha 65.964238
_cell_angle_beta 54.853938
_cell_angle_gamma 40.347996
_cell_volume 571.989448
_symmetry_space_group_name_H-M "P -1"
_symmetry_group_IT_number 2
_symmetry_cell_setting 'triclinic'
loop_
_space_group_symop_operation_xyz
x,y,z
-x,-y,-z
loop_
_atom_site_type_symbol
_atom_site_label
_atom_site_fract_x
_atom_site_fract_y
_atom_site_fract_z
Si Si1 0.631664 0.346281 0.266062
Si Si2 0.980117 0.129262 0.352014
Si Si3 0.621077 0.775636 0.569118
Si Si4 0.703739 0.262631 0.832761
Si Si5 0.773212 0.430731 0.938309
Si Si6 0.956686 0.592804 0.679053
O O1 0.726428 0.296879 0.372507
O O2 0.580482 0.210181 0.305444
O O3 0.394949 0.593229 0.292447
O O4 0.812876 0.300957 0.086381
O O5 0.058432 0.240090 0.307049
O O6 0.000000 0.000000 0.500000
O O7 0.136720 0.975511 0.207938
O O8 0.754290 0.722523 0.642159
O O9 0.795871 0.591098 0.444079
O O10 0.500000 0.000000 0.500000
O O11 0.840323 0.296224 0.826124
O O12 0.494002 0.345709 0.002687
O O13 0.920002 0.484915 0.840082
#
# Coordination Sequence:
#
# PCOD8020903 Si02
#       6
#     2   2   2   2   2   2
#     4  10  22  43  65  92 126 169 214 254 315 382
#     4  12  26  38  65  99 132 169 202 265 328 372
#     4  11  23  40  66  93 124 175 213 254 312 379
#     4   9  20  43  66  90 129 166 211 255 323 366
#     4   9  20  45  68  89 125 173 211 267 302 374
#     4  11  24  42  62  96 133 154 220 270 300 378
#
# _framework density 20.979406999999998
#
# number of rings (size 3 to 8) (size 9 to 14) (size 15 to 20)
#    1.000    0.667    1.667    2.000    4.667    6.000 
#    3.000    0.000    0.000    0.000    0.000    0.000 
#    0.000    0.000    0.000    0.000    0.000    0.000 
#
# Total GULP energy -148722.584689 kJ/mol
# GULP energy per Si atom -12393.548724 kJ/mol
# Density = 2.093166 g / cm^3
# Si number density = 20.979407 Si / 1000 Ang^3
#
#
#
# Elastic Constant Matrix: (Units=GPa)
#
#
# Indices 1 2 3 4 5 6 
#
# 1 133.8673 51.0181 50.8736 -23.7154 -9.6457 24.0766
# 2 51.0181 99.0889 46.9037 -13.1524 -4.5462 26.7824
# 3 50.8736 46.9037 100.4817 -26.6351 -13.3227 14.5551
# 4 -23.7154 -13.1524 -26.6351 37.4936 3.8560 6.6857
# 5 -9.6457 -4.5462 -13.3227 3.8560 23.9937 -12.3122
# 6 24.0766 26.7824 14.5551 6.6857 -12.3122 44.3495
#
#
#
# Elastic Compliance Matrix: (Units=1/GPa)
#
#
# Indices 1 2 3 4 5 6 
#
# 1 0.011117 -0.002679 -0.002393 0.005268 -0.000565 -0.004583
# 2 -0.002679 0.016295 -0.005067 0.002553 -0.005668 -0.008682
# 3 -0.002393 -0.005067 0.016484 0.007969 0.005591 -0.000700
# 4 0.005268 0.002553 0.007969 0.039967 -0.007101 -0.015013
# 5 -0.000565 -0.005668 0.005591 -0.007101 0.053809 0.017904
# 6 -0.004583 -0.008682 -0.000700 -0.015013 0.017904 0.037742
#
#
# Mechanical properties :
#
#
# Convention : Reuss Voigt Hill
#
# Bulk Modulus (GPa) = 42.34108 70.11429 56.22769
# Shear Modulus (GPa) = 24.56206 33.47687 29.01946
#
# Velocity S-wave (km/s) = 3.42536 3.99896 3.72322
# Velocity P-wave (km/s) = 5.98917 7.40374 6.73370
#
# Compressibility (1/GPa) = 0.02361773
#
# Stress axis : x y z
#
# Youngs Moduli (GPa) = 89.95025 61.36724 60.66556
#
# Poissons Ratio (x) = 0.16443 0.14515
# Poissons Ratio (y) = 0.24101 0.30741
# Poissons Ratio (z) = 0.21522 0.31096
#
# Static dielectric constant tensor:
#      x y z
#    x 3.647430 -0.028360 -0.037380 
#    y -0.028360 3.701390 -0.110750 
#    z -0.037380 -0.110750 3.690660 
# 
# 
# High freq. dielectric constant tensor:
#      x y z
#    x 1.814370 0.001240 -0.001990 
#    y 0.001240 1.814390 -0.010800 
#    z -0.001990 -0.010800 1.816710 
# 
# From -- ./inp_files/381581.got.cif
#   From: 2010.06.25/outbox.cif.g09.slc.cpg/sg2_191_cif.got.tgz:381581.got - 2010.06.27 13:26:56.
