data_PCOD8020141
_publ_section_title
;
Structure prediction by ZEFSAII (Michael W. Deem and Ramdas Pophale) SiO2 
 PCOD8020141
Probable space group: P -1
;
_chemical_formula_sum "Si O2"
_cell_formula_units_Z 16
_cell_length_a 8.883036
_cell_length_b 17.896624
_cell_length_c 8.759932
_cell_angle_alpha 86.919760
_cell_angle_beta 86.872424
_cell_angle_gamma 31.177267
_cell_volume 719.802282
_symmetry_space_group_name_H-M "P -1"
_symmetry_group_IT_number 2
_symmetry_cell_setting 'triclinic'
loop_
_space_group_symop_operation_xyz
x,y,z
-x,-y,-z
loop_
_atom_site_type_symbol
_atom_site_label
_atom_site_fract_x
_atom_site_fract_y
_atom_site_fract_z
Si Si1 0.672561 0.809826 0.173966
Si Si2 0.817065 0.365656 0.420358
Si Si3 0.003012 0.060797 0.119560
Si Si4 0.861227 0.637957 0.460018
Si Si5 0.899791 0.855006 0.334890
Si Si6 0.746626 0.083797 0.395593
Si Si7 0.874500 0.374846 0.070669
Si Si8 0.681769 0.317787 0.924452
O O1 0.843984 0.675239 0.281754
O O2 0.714306 0.875336 0.238694
O O3 0.328207 0.940195 0.173893
O O4 0.798426 0.748058 0.998829
O O5 0.500000 0.500000 0.500000
O O6 0.843897 0.344810 0.237990
O O7 0.948540 0.389798 0.443146
O O8 0.013588 0.217241 0.499973
O O9 0.782946 0.121481 0.246587
O O10 0.846118 0.201939 0.056837
O O11 0.000000 0.000000 0.000000
O O12 0.539024 0.770421 0.521725
O O13 0.000000 0.500000 0.500000
O O14 0.193606 0.755927 0.241061
O O15 0.722654 0.005779 0.362931
O O16 0.000000 0.000000 0.500000
O O17 0.672678 0.536269 0.070866
O O18 0.751037 0.375519 0.941589
#
# Coordination Sequence:
#
# PCOD8020141 Si02
#       8
#     2   2   2   2   2   2   2   2
#     4  10  25  48  68 101 142 182 230 292 336 417
#     4  11  24  41  74 103 136 184 234 289 343 409
#     4  12  26  44  70  99 141 182 229 279 351 415
#     4  11  28  47  67 102 142 180 231 290 353 417
#     4  10  23  46  71  98 140 178 241 286 341 411
#     4  12  27  47  70 101 140 189 230 288 356 408
#     4  10  23  40  70 102 133 178 231 279 346 395
#     4  10  22  42  66 100 138 178 225 285 337 412
#
# _framework density 22.228324000000001
#
# number of rings (size 3 to 8) (size 9 to 14) (size 15 to 20)
#    0.000    1.250    3.750    0.000    8.750    6.000 
#    0.000    1.250    0.000    0.000    0.000    0.000 
#    0.000    0.000    0.000    0.000    0.000    0.000 
#
# Total GULP energy -198258.145904 kJ/mol
# GULP energy per Si atom -12391.134119 kJ/mol
# Density = 2.217773 g / cm^3
# Si number density = 22.228324 Si / 1000 Ang^3
#
#
#
# Elastic Constant Matrix: (Units=GPa)
#
#
# Indices 1 2 3 4 5 6 
#
# 1 90.0496 46.3527 20.4391 -0.0204 -5.0972 -0.3745
# 2 46.3527 122.6207 33.3985 -1.1312 -8.0532 11.9126
# 3 20.4391 33.3985 123.9231 5.3557 -20.4844 0.9648
# 4 -0.0204 -1.1312 5.3557 37.1534 -3.6336 -8.9494
# 5 -5.0972 -8.0532 -20.4844 -3.6336 37.4348 -3.7528
# 6 -0.3745 11.9126 0.9648 -8.9494 -3.7528 40.4270
#
#
#
# Elastic Compliance Matrix: (Units=1/GPa)
#
#
# Indices 1 2 3 4 5 6 
#
# 1 0.014016 -0.005204 -0.000852 0.000469 0.000552 0.001839
# 2 -0.005204 0.011007 -0.002044 -0.000137 0.000201 -0.003255
# 3 -0.000852 -0.002044 0.009562 -0.000838 0.004657 0.000613
# 4 0.000469 -0.000137 -0.000838 0.028960 0.003064 0.006760
# 5 0.000552 0.000201 0.004657 0.003064 0.030008 0.003299
# 6 0.001839 -0.003255 0.000613 0.006760 0.003299 0.027500
#
#
# Mechanical properties :
#
#
# Convention : Reuss Voigt Hill
#
# Bulk Modulus (GPa) = 54.39203 59.66378 57.02790
# Shear Modulus (GPa) = 34.87151 38.76325 36.81738
#
# Velocity S-wave (km/s) = 3.96509 4.18049 4.07422
# Velocity P-wave (km/s) = 6.74429 7.08531 6.91690
#
# Compressibility (1/GPa) = 0.01838505
#
# Stress axis : x y z
#
# Youngs Moduli (GPa) = 71.34502 90.84855 104.57935
#
# Poissons Ratio (x) = 0.47280 0.08915
# Poissons Ratio (y) = 0.37130 0.21372
# Poissons Ratio (z) = 0.06082 0.18566
#
# Static dielectric constant tensor:
#      x y z
#    x 3.936810 0.086280 -0.216530 
#    y 0.086280 3.707310 0.244910 
#    z -0.216530 0.244910 4.066850 
# 
# 
# High freq. dielectric constant tensor:
#      x y z
#    x 1.866060 -0.003550 -0.011950 
#    y -0.003550 1.881400 0.003530 
#    z -0.011950 0.003530 1.887940 
# 
# From -- ./inp_files/190842.got.cif
#   From: 2010.06.25/outbox.cif.g09.slc.cpg/sg2_96_cif.got.tgz:190842.got - 2010.06.27 13:26:56.
