data_PCOD8020459
_publ_section_title
;
Structure prediction by ZEFSAII (Michael W. Deem and Ramdas Pophale) SiO2 
 PCOD8020459
Probable space group: P -1
;
_chemical_formula_sum "Si O2"
_cell_formula_units_Z 14
_cell_length_a 8.898156
_cell_length_b 5.133199
_cell_length_c 14.600499
_cell_angle_alpha 98.623778
_cell_angle_beta 75.143764
_cell_angle_gamma 120.677105
_cell_volume 554.245138
_symmetry_space_group_name_H-M "P -1"
_symmetry_group_IT_number 2
_symmetry_cell_setting 'triclinic'
loop_
_space_group_symop_operation_xyz
x,y,z
-x,-y,-z
loop_
_atom_site_type_symbol
_atom_site_label
_atom_site_fract_x
_atom_site_fract_y
_atom_site_fract_z
Si Si1 0.772652 0.214825 0.930785
Si Si2 0.585490 0.229497 0.131943
Si Si3 0.075216 0.172066 0.171412
Si Si4 0.462364 0.700846 0.443211
Si Si5 0.336056 0.141154 0.763884
Si Si6 0.134687 0.177958 0.369105
Si Si7 0.166567 0.828538 0.492528
O O1 0.820915 0.511982 0.880677
O O2 0.593153 0.926138 0.907936
O O3 0.919948 0.104736 0.896845
O O4 0.751069 0.280120 0.043591
O O5 0.613625 0.546842 0.178590
O O6 0.566917 0.018119 0.208927
O O7 0.168271 0.207402 0.257661
O O8 0.873597 0.092710 0.212062
O O9 0.500000 0.500000 0.500000
O O10 0.608526 0.812313 0.347474
O O11 0.266885 0.504514 0.413301
O O12 0.367210 0.915611 0.508428
O O13 0.921539 0.020275 0.419668
O O14 0.201871 0.958376 0.390177
O O15 0.000000 0.500000 0.500000
#
# Coordination Sequence:
#
# PCOD8020459 Si02
#       7
#     2   2   2   2   2   2   2
#     4  11  25  46  76 103 139 188 235 285 352 425
#     4  11  25  49  73 105 140 183 237 293 350 414
#     4  12  26  43  72 108 142 189 231 285 352 422
#     4  11  24  42  66  97 138 182 231 288 345 405
#     4  12  27  45  70 106 148 182 234 293 349 411
#     4  10  22  42  68  96 136 184 233 282 342 419
#     4   9  21  41  65  94 128 183 227 286 335 410
#
# _framework density 25.259582999999999
#
# number of rings (size 3 to 8) (size 9 to 14) (size 15 to 20)
#    0.000    1.143    0.000    5.143    8.000    6.286 
#   10.286    0.000    0.000    0.000    0.000    0.000 
#    0.000    0.000    0.000    0.000    0.000    0.000 
#
# Total GULP energy -173566.742668 kJ/mol
# GULP energy per Si atom -12397.624476 kJ/mol
# Density = 2.520209 g / cm^3
# Si number density = 25.259583 Si / 1000 Ang^3
#
#
#
# Elastic Constant Matrix: (Units=GPa)
#
#
# Indices 1 2 3 4 5 6 
#
# 1 119.2310 14.9920 6.0425 -14.5516 -6.5455 13.7585
# 2 14.9920 68.7481 -1.4222 -39.7377 28.7708 25.5762
# 3 6.0425 -1.4222 92.9882 -43.9933 11.0306 30.6958
# 4 -14.5516 -39.7377 -43.9933 20.8417 6.2741 25.9347
# 5 -6.5455 28.7708 11.0306 6.2741 31.5735 -14.7072
# 6 13.7585 25.5762 30.6958 25.9347 -14.7072 21.9890
#
#
#
# Elastic Compliance Matrix: (Units=1/GPa)
#
#
# Indices 1 2 3 4 5 6 
#
# 1 0.009170 -0.002609 -0.000274 0.000990 0.003707 -0.001009
# 2 -0.002609 0.008283 -0.005630 -0.007329 -0.001025 0.007816
# 3 -0.000274 -0.005630 0.006999 -0.003329 0.005371 0.004468
# 4 0.000990 -0.007329 -0.003329 0.006368 0.013261 0.013911
# 5 0.003707 -0.001025 0.005371 0.013261 0.025506 -0.007207
# 6 -0.001009 0.007816 0.004468 0.013911 -0.007207 0.009553
#
#
# Mechanical properties :
#
#
# Convention : Reuss Voigt Hill
#
# Bulk Modulus (GPa) = 134.64800 35.57689 85.11244
# Shear Modulus (GPa) = 58.56268 32.30450 45.43359
#
# Velocity S-wave (km/s) = 4.82024 3.58005 4.24567
# Velocity P-wave (km/s) = 9.18700 5.58606 7.60280
#
# Compressibility (1/GPa) = 0.00742677
#
# Stress axis : x y z
#
# Youngs Moduli (GPa) = 109.05335 120.72798 142.88390
#
# Poissons Ratio (x) = 0.31496 0.03913
# Poissons Ratio (y) = 0.28450 0.80440
# Poissons Ratio (z) = 0.02986 0.67967
#
# Static dielectric constant tensor:
#      x y z
#    x 4.211360 -0.041260 -0.290260 
#    y -0.041260 5.081740 0.010950 
#    z -0.290260 0.010950 5.018710 
# 
# 
# High freq. dielectric constant tensor:
#      x y z
#    x 2.041080 0.010140 -0.010730 
#    y 0.010140 2.037040 0.002220 
#    z -0.010730 0.002220 2.013960 
# 
# From -- ./inp_files/480369.got.cif
#   From: 2010.06.25/outbox.cif.g09.slc.cpg/sg2_241_cif.got.tgz:480369.got - 2010.06.27 13:26:56.
