data_PCOD8020810
_publ_section_title
;
Structure prediction by ZEFSAII (Michael W. Deem and Ramdas Pophale) SiO2 
 PCOD8020810
Probable space group: P -1
;
_chemical_formula_sum "Si O2"
_cell_formula_units_Z 10
_cell_length_a 10.162941
_cell_length_b 13.350832
_cell_length_c 7.382675
_cell_angle_alpha 120.479931
_cell_angle_beta 56.467093
_cell_angle_gamma 142.912938
_cell_volume 499.089861
_symmetry_space_group_name_H-M "P -1"
_symmetry_group_IT_number 2
_symmetry_cell_setting 'triclinic'
loop_
_space_group_symop_operation_xyz
x,y,z
-x,-y,-z
loop_
_atom_site_type_symbol
_atom_site_label
_atom_site_fract_x
_atom_site_fract_y
_atom_site_fract_z
Si Si1 0.045545 0.127242 0.444835
Si Si2 0.723258 0.296539 0.180315
Si Si3 0.546871 0.750394 0.962695
Si Si4 0.434865 0.088963 0.553513
Si Si5 0.855161 0.590688 0.181649
O O1 0.174140 0.297542 0.611174
O O2 0.206865 0.169943 0.199786
O O3 0.000000 0.000000 0.500000
O O4 0.814972 0.054315 0.470462
O O5 0.617147 0.223234 0.389231
O O6 0.852301 0.490568 0.251520
O O7 0.526853 0.190764 0.076571
O O8 0.905880 0.291303 0.999846
O O9 0.560256 0.810434 0.205605
O O10 0.357675 0.546658 0.917554
O O11 0.500000 0.000000 0.500000
#
# Coordination Sequence:
#
# PCOD8020810 Si02
#       5
#     2   2   2   2   2
#     4  12  23  42  68  94 134 168 208 269 327 370
#     4   9  21  44  67  90 132 167 220 253 322 375
#     4  10  22  43  63  93 130 168 216 253 326 376
#     4  12  26  40  67  99 129 168 217 267 314 380
#     4   9  21  43  69  90 127 179 208 259 319 388
#
# _framework density 20.036472
#
# number of rings (size 3 to 8) (size 9 to 14) (size 15 to 20)
#    1.200    0.400    2.000    2.400    2.800    2.400 
#    0.000    2.000    0.000    0.000    0.000    0.000 
#    0.000    0.000    0.000    0.000    0.000    0.000 
#
# Total GULP energy -123985.702124 kJ/mol
# GULP energy per Si atom -12398.570212 kJ/mol
# Density = 1.999087 g / cm^3
# Si number density = 20.036472 Si / 1000 Ang^3
#
#
#
# Elastic Constant Matrix: (Units=GPa)
#
#
# Indices 1 2 3 4 5 6 
#
# 1 90.3688 32.9370 22.2050 -10.7888 -6.3659 14.7220
# 2 32.9370 89.2081 59.1496 -0.7902 -4.6860 7.9930
# 3 22.2050 59.1496 136.1768 -14.6784 -8.4525 7.3553
# 4 -10.7888 -0.7902 -14.6784 39.8799 13.2488 -3.3849
# 5 -6.3659 -4.6860 -8.4525 13.2488 28.5659 -6.5321
# 6 14.7220 7.9930 7.3553 -3.3849 -6.5321 28.7776
#
#
#
# Elastic Compliance Matrix: (Units=1/GPa)
#
#
# Indices 1 2 3 4 5 6 
#
# 1 0.014086 -0.005064 0.000565 0.003601 -0.000482 -0.005630
# 2 -0.005064 0.018054 -0.007346 -0.004267 0.001475 -0.000713
# 3 0.000565 -0.007346 0.010905 0.003904 0.000216 -0.000528
# 4 0.003601 -0.004267 0.003904 0.031888 -0.013767 -0.001029
# 5 -0.000482 0.001475 0.000216 -0.013767 0.043424 0.008019
# 6 -0.005630 -0.000713 -0.000528 -0.001029 0.008019 0.039661
#
#
# Mechanical properties :
#
#
# Convention : Reuss Voigt Hill
#
# Bulk Modulus (GPa) = 51.66833 60.48188 56.07510
# Shear Modulus (GPa) = 26.57314 32.87551 29.72432
#
# Velocity S-wave (km/s) = 3.64571 4.05505 3.85582
# Velocity P-wave (km/s) = 6.60036 7.22330 6.91884
#
# Compressibility (1/GPa) = 0.01935422
#
# Stress axis : x y z
#
# Youngs Moduli (GPa) = 70.99351 55.38963 91.70313
#
# Poissons Ratio (x) = 0.28052 -0.05183
# Poissons Ratio (y) = 0.35954 0.67364
# Poissons Ratio (z) = -0.04013 0.40689
#
# Static dielectric constant tensor:
#      x y z
#    x 3.511850 0.016170 -0.233820 
#    y 0.016170 3.204450 -0.278730 
#    z -0.233820 -0.278730 3.363180 
# 
# 
# High freq. dielectric constant tensor:
#      x y z
#    x 1.775550 0.014470 -0.019200 
#    y 0.014470 1.780260 -0.004040 
#    z -0.019200 -0.004040 1.782180 
# 
# From -- ./inp_files/15997.got.cif
#   From: 2010.06.25/outbox.cif.g09.slc.cpg/sg2_8_cif.got.tgz:15997.got - 2010.06.27 13:26:56.
