data_PCOD8020119
_publ_section_title
;
Structure prediction by ZEFSAII (Michael W. Deem and Ramdas Pophale) SiO2 
 PCOD8020119
Probable space group: P -1
;
_chemical_formula_sum "Si O2"
_cell_formula_units_Z 16
_cell_length_a 19.149451
_cell_length_b 9.320153
_cell_length_c 13.912854
_cell_angle_alpha 113.246062
_cell_angle_beta 21.090167
_cell_angle_gamma 123.164115
_cell_volume 690.574677
_symmetry_space_group_name_H-M "P -1"
_symmetry_group_IT_number 2
_symmetry_cell_setting 'triclinic'
loop_
_space_group_symop_operation_xyz
x,y,z
-x,-y,-z
loop_
_atom_site_type_symbol
_atom_site_label
_atom_site_fract_x
_atom_site_fract_y
_atom_site_fract_z
Si Si1 0.097631 0.183710 0.862790
Si Si2 0.795754 0.598796 0.855041
Si Si3 0.213346 0.093622 0.949804
Si Si4 0.940541 0.322116 0.647989
Si Si5 0.996148 0.521735 0.900049
Si Si6 0.636257 0.437855 0.696369
Si Si7 0.602963 0.971169 0.112394
Si Si8 0.498435 0.206243 0.421754
O O1 0.375330 0.296953 0.547597
O O2 0.007571 0.109081 0.851228
O O3 0.006201 0.295145 0.063559
O O4 0.000000 0.000000 0.000000
O O5 0.831515 0.741033 0.932263
O O6 0.815526 0.437963 0.839069
O O7 0.005807 0.704315 0.537215
O O8 0.555123 0.520223 0.083292
O O9 0.416433 0.157936 0.625954
O O10 0.260713 0.048869 0.981317
O O11 0.185806 0.420683 0.415753
O O12 0.768455 0.120449 0.860270
O O13 0.226344 0.546009 0.571821
O O14 0.000000 0.500000 0.000000
O O15 0.772075 0.343049 0.095057
O O16 0.532151 0.230542 0.818554
O O17 0.434728 0.023566 0.393847
#
# Coordination Sequence:
#
# PCOD8020119 Si02
#       8
#     2   2   2   2   2   2   2   2
#     4  10  23  37  60  94 133 176 219 272 330 401
#     4  10  25  47  72  98 133 177 224 291 331 403
#     4  10  22  42  65  96 139 175 225 276 336 399
#     4  11  25  48  72  99 134 175 234 278 344 393
#     4  12  23  39  61  96 137 178 223 267 336 406
#     4  11  24  44  70  99 138 177 224 281 338 397
#     4  11  23  42  68 101 133 179 220 278 332 408
#     4  11  22  38  65  99 136 178 222 272 334 405
#
# _framework density 23.169108999999999
#
# number of rings (size 3 to 8) (size 9 to 14) (size 15 to 20)
#    0.000    1.250    1.250    4.875    5.250    4.000 
#    0.000    2.500    0.000    0.000    0.000    0.000 
#    0.000    0.000    0.000    0.000    0.000    0.000 
#
# Total GULP energy -198240.745653 kJ/mol
# GULP energy per Si atom -12390.046603 kJ/mol
# Density = 2.311638 g / cm^3
# Si number density = 23.169109 Si / 1000 Ang^3
#
#
#
# Elastic Constant Matrix: (Units=GPa)
#
#
# Indices 1 2 3 4 5 6 
#
# 1 39.5389 9.0015 21.8980 -8.4723 -1.0315 -3.4703
# 2 9.0015 52.4517 23.9421 -2.6227 -7.3146 -10.4172
# 3 21.8980 23.9421 100.8030 -3.2773 -3.6679 -12.4141
# 4 -8.4723 -2.6227 -3.2773 42.9243 -4.5786 1.1241
# 5 -1.0315 -7.3146 -3.6679 -4.5786 34.1880 0.1036
# 6 -3.4703 -10.4172 -12.4141 1.1241 0.1036 29.6556
#
#
#
# Elastic Compliance Matrix: (Units=1/GPa)
#
#
# Indices 1 2 3 4 5 6 
#
# 1 0.030205 -0.002143 -0.005840 0.005441 0.000555 0.000129
# 2 -0.002143 0.023208 -0.004092 0.001010 0.004579 0.006134
# 3 -0.005840 -0.004092 0.012540 -0.000505 0.000217 0.003147
# 4 0.005441 0.001010 -0.000505 0.024787 0.003646 -0.000172
# 5 0.000555 0.004579 0.000217 0.003646 0.030753 0.001518
# 6 0.000129 0.006134 0.003147 -0.000172 0.001518 0.037209
#
#
# Mechanical properties :
#
#
# Convention : Reuss Voigt Hill
#
# Bulk Modulus (GPa) = 23.92110 33.60852 28.76481
# Shear Modulus (GPa) = 25.40823 30.55039 27.97931
#
# Velocity S-wave (km/s) = 3.31515 3.63517 3.47884
# Velocity P-wave (km/s) = 5.00006 5.67067 5.34589
#
# Compressibility (1/GPa) = 0.04180410
#
# Stress axis : x y z
#
# Youngs Moduli (GPa) = 33.10676 43.08853 79.74600
#
# Poissons Ratio (x) = 0.09234 0.46569
# Poissons Ratio (y) = 0.07095 0.32630
# Poissons Ratio (z) = 0.19333 0.17631
#
# Static dielectric constant tensor:
#      x y z
#    x 3.045730 -0.132550 1.030600 
#    y -0.132550 4.510670 0.271920 
#    z 1.030600 0.271920 2.914780 
# 
# 
# High freq. dielectric constant tensor:
#      x y z
#    x 1.916090 -0.001820 -0.004900 
#    y -0.001820 1.922500 0.010620 
#    z -0.004900 0.010620 1.912630 
# 
# From -- ./inp_files/540511.got.cif
#   From: 2010.06.25/outbox.cif.g09.slc.cpg/sg2_271_cif.got.tgz:540511.got - 2010.06.27 13:26:56.
