data_PCOD8020313
_publ_section_title
;
Structure prediction by ZEFSAII (Michael W. Deem and Ramdas Pophale) SiO2 
 PCOD8020313
Probable space group: P -1
;
_chemical_formula_sum "Si O2"
_cell_formula_units_Z 16
_cell_length_a 8.663109
_cell_length_b 20.087659
_cell_length_c 22.685612
_cell_angle_alpha 156.895911
_cell_angle_beta 29.799330
_cell_angle_gamma 148.795381
_cell_volume 736.053279
_symmetry_space_group_name_H-M "P -1"
_symmetry_group_IT_number 2
_symmetry_cell_setting 'triclinic'
loop_
_space_group_symop_operation_xyz
x,y,z
-x,-y,-z
loop_
_atom_site_type_symbol
_atom_site_label
_atom_site_fract_x
_atom_site_fract_y
_atom_site_fract_z
Si Si1 0.406928 0.352634 0.961007
Si Si2 0.618957 0.905327 0.047454
Si Si3 0.357044 0.740822 0.478110
Si Si4 0.664866 0.177114 0.054227
Si Si5 0.383470 0.545447 0.901327
Si Si6 0.202599 0.913891 0.407837
Si Si7 0.420337 0.203069 0.419083
Si Si8 0.381765 0.445544 0.430412
O O1 0.662720 0.238804 0.788298
O O2 0.500000 0.500000 0.000000
O O3 0.434783 0.456777 0.098513
O O4 0.052823 0.217168 0.955403
O O5 0.436807 0.041380 0.241384
O O6 0.493966 0.839489 0.970658
O O7 0.534430 0.738840 0.982533
O O8 0.000000 0.000000 0.000000
O O9 0.538066 0.595458 0.283659
O O10 0.407470 0.796249 0.574880
O O11 0.979018 0.677331 0.541305
O O12 0.499175 0.916668 0.533496
O O13 0.605325 0.343071 0.242145
O O14 0.500000 0.000000 0.000000
O O15 0.000000 0.500000 0.000000
O O16 0.965372 0.823242 0.466267
O O17 0.000000 0.000000 0.500000
O O18 0.608928 0.384236 0.472574
O O19 0.500000 0.500000 0.500000
#
# Coordination Sequence:
#
# PCOD8020313 Si02
#       8
#     2   2   2   2   2   2   2   2
#     4  12  25  44  67  99 137 175 217 277 339 393
#     4  12  24  42  67  96 129 176 225 272 326 399
#     4  11  22  40  65  93 123 166 214 268 319 381
#     4  12  25  43  64  95 133 173 217 277 338 394
#     4  12  23  41  66  97 130 173 224 272 326 399
#     4  10  22  42  67  94 127 170 217 266 322 393
#     4  11  22  41  64  92 123 164 216 269 318 380
#     4  12  24  41  61  90 128 169 211 261 324 393
#
# _framework density 21.737556999999999
#
# number of rings (size 3 to 8) (size 9 to 14) (size 15 to 20)
#    0.000    0.500    0.000   10.875    0.000    0.000 
#    0.000    1.875    0.000    0.000    0.000    0.000 
#    0.000    0.000    0.000    0.000    0.000    0.000 
#
# Total GULP energy -198445.611526 kJ/mol
# GULP energy per Si atom -12402.850720 kJ/mol
# Density = 2.168808 g / cm^3
# Si number density = 21.737557 Si / 1000 Ang^3
#
#
#
# Elastic Constant Matrix: (Units=GPa)
#
#
# Indices 1 2 3 4 5 6 
#
# 1 124.6510 51.1612 21.3206 -1.5999 13.4668 2.1858
# 2 51.1612 165.4061 12.0058 2.5696 1.5075 14.0032
# 3 21.3206 12.0058 126.8120 -1.9364 9.5730 -1.5185
# 4 -1.5999 2.5696 -1.9364 43.0774 -0.6987 -7.5613
# 5 13.4668 1.5075 9.5730 -0.6987 33.9783 0.6089
# 6 2.1858 14.0032 -1.5185 -7.5613 0.6089 33.0316
#
#
#
# Elastic Compliance Matrix: (Units=1/GPa)
#
#
# Indices 1 2 3 4 5 6 
#
# 1 0.009804 -0.002996 -0.001086 0.000573 -0.003449 0.000766
# 2 -0.002996 0.007272 -0.000314 -0.001099 0.000987 -0.003169
# 3 -0.001086 -0.000314 0.008256 0.000446 -0.001885 0.000721
# 4 0.000573 -0.001099 0.000446 0.024380 0.000090 0.006028
# 5 -0.003449 0.000987 -0.001885 0.000090 0.031301 -0.000834
# 6 0.000766 -0.003169 0.000721 0.006028 -0.000834 0.032995
#
#
# Mechanical properties :
#
#
# Convention : Reuss Voigt Hill
#
# Bulk Modulus (GPa) = 60.46385 65.09381 62.77883
# Shear Modulus (GPa) = 38.96671 44.17622 41.57146
#
# Velocity S-wave (km/s) = 4.23850 4.51294 4.37787
# Velocity P-wave (km/s) = 7.19923 7.56081 7.38224
#
# Compressibility (1/GPa) = 0.01653881
#
# Stress axis : x y z
#
# Youngs Moduli (GPa) = 101.99487 137.52236 121.12638
#
# Poissons Ratio (x) = 0.41202 0.13160
# Poissons Ratio (y) = 0.30558 0.03803
# Poissons Ratio (z) = 0.11082 0.04318
#
# Static dielectric constant tensor:
#      x y z
#    x 3.885720 -0.194930 -0.140130 
#    y -0.194930 4.423410 0.037720 
#    z -0.140130 0.037720 4.294620 
# 
# 
# High freq. dielectric constant tensor:
#      x y z
#    x 1.845220 0.003230 0.006500 
#    y 0.003230 1.887050 0.001610 
#    z 0.006500 0.001610 1.867030 
# 
# From -- ./inp_files/282732.got.cif
#   From: 2010.06.25/outbox.cif.g09.slc.cpg/sg2_142_cif.got.tgz:282732.got - 2010.06.27 13:26:56.
