data_PCOD8020774
_publ_section_title
;
Structure prediction by ZEFSAII (Michael W. Deem and Ramdas Pophale) SiO2 
 PCOD8020774
Probable space group: P -1
;
_chemical_formula_sum "Si O2"
_cell_formula_units_Z 16
_cell_length_a 14.988065
_cell_length_b 9.176248
_cell_length_c 14.643410
_cell_angle_alpha 71.916465
_cell_angle_beta 149.364328
_cell_angle_gamma 88.085816
_cell_volume 765.204505
_symmetry_space_group_name_H-M "P -1"
_symmetry_group_IT_number 2
_symmetry_cell_setting 'triclinic'
loop_
_space_group_symop_operation_xyz
x,y,z
-x,-y,-z
loop_
_atom_site_type_symbol
_atom_site_label
_atom_site_fract_x
_atom_site_fract_y
_atom_site_fract_z
Si Si1 0.267206 0.084794 0.997007
Si Si2 0.717449 0.710995 0.483302
Si Si3 0.025469 0.509506 0.630001
Si Si4 0.478958 0.504948 0.588673
Si Si5 0.899382 0.031350 0.275017
Si Si6 0.748272 0.311147 0.239379
Si Si7 0.959647 0.251475 0.145365
Si Si8 0.066891 0.929100 0.174726
O O1 0.528785 0.946675 0.279992
O O2 0.186594 0.296967 0.858880
O O3 0.113609 0.090297 0.938033
O O4 0.268721 0.974710 0.931786
O O5 0.797069 0.637001 0.462973
O O6 0.605745 0.617273 0.438554
O O7 0.915252 0.656760 0.737613
O O8 0.000000 0.500000 0.500000
O O9 0.133463 0.614691 0.722930
O O10 0.500000 0.500000 0.500000
O O11 0.308808 0.722929 0.433958
O O12 0.709801 0.420616 0.858333
O O13 0.763866 0.147714 0.224767
O O14 0.969108 0.150788 0.266311
O O15 0.118980 0.804969 0.528553
O O16 0.500000 0.500000 0.000000
O O17 0.082458 0.083535 0.209272
O O18 0.000000 0.000000 0.000000
#
# Coordination Sequence:
#
# PCOD8020774 Si02
#       8
#     2   2   2   2   2   2   2   2
#     4  11  24  42  69  94 138 184 224 287 351 398
#     4  12  26  46  69 103 144 178 238 289 338 420
#     4  12  26  42  63 102 133 184 240 277 344 410
#     4  12  24  47  77 101 141 184 224 290 359 417
#     4  10  22  43  60  96 133 177 229 280 340 403
#     4  11  25  40  65  94 136 178 237 284 342 403
#     4  11  25  43  70 103 136 183 229 284 351 407
#     4  11  22  46  72 101 136 175 229 281 355 421
#
# _framework density 20.909443
#
# number of rings (size 3 to 8) (size 9 to 14) (size 15 to 20)
#    0.000    0.750    7.500    0.000    3.500    4.000 
#    0.000    1.250    0.000    0.000    0.000    0.000 
#    0.000    0.000    0.000    0.000    0.000    0.000 
#
# Total GULP energy -198344.191269 kJ/mol
# GULP energy per Si atom -12396.511954 kJ/mol
# Density = 2.086185 g / cm^3
# Si number density = 20.909443 Si / 1000 Ang^3
#
#
#
# Elastic Constant Matrix: (Units=GPa)
#
#
# Indices 1 2 3 4 5 6 
#
# 1 117.5166 28.8813 61.6463 -5.7860 -5.6200 -10.9755
# 2 28.8813 75.8503 60.4900 -6.7685 -2.5009 -12.7668
# 3 61.6463 60.4900 173.1781 -18.7779 10.3338 -1.6828
# 4 -5.7860 -6.7685 -18.7779 46.2636 -4.3778 3.4135
# 5 -5.6200 -2.5009 10.3338 -4.3778 31.7833 -8.7734
# 6 -10.9755 -12.7668 -1.6828 3.4135 -8.7734 31.8919
#
#
#
# Elastic Compliance Matrix: (Units=1/GPa)
#
#
# Indices 1 2 3 4 5 6 
#
# 1 0.011486 0.000144 -0.004406 -0.000250 0.004859 0.005141
# 2 0.000144 0.021286 -0.007820 -0.000123 0.007014 0.010101
# 3 -0.004406 -0.007820 0.010655 0.002491 -0.006186 -0.006053
# 4 -0.000250 -0.000123 0.002491 0.022888 0.001744 -0.001974
# 5 0.004859 0.007014 -0.006186 0.001744 0.039197 0.014750
# 6 0.005141 0.010101 -0.006053 -0.001974 0.014750 0.041118
#
#
# Mechanical properties :
#
#
# Convention : Reuss Voigt Hill
#
# Bulk Modulus (GPa) = 51.91658 74.28670 63.10164
# Shear Modulus (GPa) = 28.21448 36.35625 32.28537
#
# Velocity S-wave (km/s) = 3.67736 4.17435 3.93371
# Velocity P-wave (km/s) = 6.55086 7.67063 7.13275
#
# Compressibility (1/GPa) = 0.01926167
#
# Stress axis : x y z
#
# Youngs Moduli (GPa) = 87.06566 46.97967 93.85655
#
# Poissons Ratio (x) = -0.00674 0.41351
# Poissons Ratio (y) = -0.01250 0.73394
# Poissons Ratio (z) = 0.38359 0.36737
#
# Static dielectric constant tensor:
#      x y z
#    x 3.750310 0.061780 -0.170250 
#    y 0.061780 3.750280 -0.128420 
#    z -0.170250 -0.128420 3.916580 
# 
# 
# High freq. dielectric constant tensor:
#      x y z
#    x 1.821380 -0.006310 -0.004980 
#    y -0.006310 1.824950 -0.014790 
#    z -0.004980 -0.014790 1.823440 
# 
# From -- ./inp_files/504959.got.cif
#   From: 2010.06.25/outbox.cif.g09.slc.cpg/sg2_253_cif.got.tgz:504959.got - 2010.06.27 13:26:56.
