data_PCOD8020842
_publ_section_title
;
Structure prediction by ZEFSAII (Michael W. Deem and Ramdas Pophale) SiO2 
 PCOD8020842
Probable space group: P -1
;
_chemical_formula_sum "Si O2"
_cell_formula_units_Z 16
_cell_length_a 8.774369
_cell_length_b 8.698020
_cell_length_c 12.816893
_cell_angle_alpha 104.774210
_cell_angle_beta 129.426806
_cell_angle_gamma 85.631186
_cell_volume 725.767357
_symmetry_space_group_name_H-M "P -1"
_symmetry_group_IT_number 2
_symmetry_cell_setting 'triclinic'
loop_
_space_group_symop_operation_xyz
x,y,z
-x,-y,-z
loop_
_atom_site_type_symbol
_atom_site_label
_atom_site_fract_x
_atom_site_fract_y
_atom_site_fract_z
Si Si1 0.209368 0.377529 0.750158
Si Si2 0.116031 0.626348 0.215855
Si Si3 0.349237 0.734896 0.803982
Si Si4 0.647389 0.852764 0.798192
Si Si5 0.983913 0.284845 0.030966
Si Si6 0.423367 0.818077 0.073646
Si Si7 0.093679 0.841288 0.533306
Si Si8 0.573397 0.157475 0.493521
O O1 0.279228 0.559885 0.786252
O O2 0.398126 0.280852 0.832258
O O3 0.068718 0.360467 0.786613
O O4 0.075699 0.306822 0.583241
O O5 0.126472 0.446366 0.149751
O O6 0.332948 0.695568 0.367760
O O7 0.077991 0.734605 0.119276
O O8 0.530782 0.719386 0.800205
O O9 0.177110 0.817326 0.682059
O O10 0.426020 0.846984 0.954779
O O11 0.884138 0.859906 0.915757
O O12 0.612681 0.807005 0.652703
O O13 0.566779 0.019346 0.826986
O O14 0.788281 0.283672 0.015030
O O15 0.264725 0.863307 0.526619
O O16 0.000000 0.000000 0.500000
O O17 0.500000 0.000000 0.500000
#
# Coordination Sequence:
#
# PCOD8020842 Si02
#       8
#     2   2   2   2   2   2   2   2
#     4  11  22  42  67  94 129 170 215 261 316 382
#     4  10  23  41  65  93 130 166 211 265 315 378
#     4  11  23  40  64  97 127 167 218 258 322 379
#     4  11  25  42  62  95 130 166 213 267 314 379
#     4  11  24  41  63  95 131 166 215 261 320 373
#     4  12  24  41  68  95 130 170 214 261 322 378
#     4  10  23  42  64  94 131 167 210 266 317 377
#     4  10  22  43  64  90 125 168 214 253 321 379
#
# _framework density 22.045632000000001
#
# number of rings (size 3 to 8) (size 9 to 14) (size 15 to 20)
#    0.000    1.250    1.250    4.500    3.500    3.500 
#    0.000    0.000    0.000    0.000    0.000    0.000 
#    0.000    0.000    0.000    0.000    0.000    0.000 
#
# Total GULP energy -198281.282330 kJ/mol
# GULP energy per Si atom -12392.580146 kJ/mol
# Density = 2.199546 g / cm^3
# Si number density = 22.045632 Si / 1000 Ang^3
#
#
#
# Elastic Constant Matrix: (Units=GPa)
#
#
# Indices 1 2 3 4 5 6 
#
# 1 72.3951 36.1828 40.1826 -15.9367 7.8198 10.8661
# 2 36.1828 72.8202 50.3281 -5.4959 2.6714 -0.4235
# 3 40.1826 50.3281 172.1098 -11.3120 -4.9246 3.6744
# 4 -15.9367 -5.4959 -11.3120 44.7105 -0.3449 7.4879
# 5 7.8198 2.6714 -4.9246 -0.3449 30.5527 -5.2181
# 6 10.8661 -0.4235 3.6744 7.4879 -5.2181 37.5297
#
#
#
# Elastic Compliance Matrix: (Units=1/GPa)
#
#
# Indices 1 2 3 4 5 6 
#
# 1 0.023780 -0.009426 -0.002256 0.008268 -0.007140 -0.009413
# 2 -0.009426 0.021145 -0.004215 -0.002484 0.000531 0.003950
# 3 -0.002256 -0.004215 0.007673 0.000630 0.002196 0.000034
# 4 0.008268 -0.002484 0.000630 0.026514 -0.002895 -0.008176
# 5 -0.007140 0.000531 0.002196 -0.002895 0.036106 0.007456
# 6 -0.009413 0.003950 0.000034 -0.008176 0.007456 0.032080
#
#
# Mechanical properties :
#
#
# Convention : Reuss Voigt Hill
#
# Bulk Modulus (GPa) = 48.06425 63.41245 55.73835
# Shear Modulus (GPa) = 26.87784 35.26735 31.07259
#
# Velocity S-wave (km/s) = 3.49548 4.00402 3.75836
# Velocity P-wave (km/s) = 6.17581 7.08540 6.64618
#
# Compressibility (1/GPa) = 0.02080549
#
# Stress axis : x y z
#
# Youngs Moduli (GPa) = 42.05162 47.29252 130.32810
#
# Poissons Ratio (x) = 0.44577 0.29397
# Poissons Ratio (y) = 0.39637 0.54933
# Poissons Ratio (z) = 0.09485 0.19934
#
# Static dielectric constant tensor:
#      x y z
#    x 4.078200 0.174040 0.077440 
#    y 0.174040 3.859610 -0.005730 
#    z 0.077440 -0.005730 4.560550 
# 
# 
# High freq. dielectric constant tensor:
#      x y z
#    x 1.866510 0.014560 0.003340 
#    y 0.014560 1.861150 0.005160 
#    z 0.003340 0.005160 1.891060 
# 
# From -- ./inp_files/184399.got.cif
#   From: 2010.06.25/outbox.cif.g09.slc.cpg/sg2_93_cif.got.tgz:184399.got - 2010.06.27 13:26:56.
