data_PCOD8020543
_publ_section_title
;
Structure prediction by ZEFSAII (Michael W. Deem and Ramdas Pophale) SiO2 
 PCOD8020543
Probable space group: P -1
;
_chemical_formula_sum "Si O2"
_cell_formula_units_Z 14
_cell_length_a 5.312108
_cell_length_b 9.114316
_cell_length_c 12.017674
_cell_angle_alpha 90.120548
_cell_angle_beta 110.562276
_cell_angle_gamma 86.401513
_cell_volume 543.583455
_symmetry_space_group_name_H-M "P -1"
_symmetry_group_IT_number 2
_symmetry_cell_setting 'triclinic'
loop_
_space_group_symop_operation_xyz
x,y,z
-x,-y,-z
loop_
_atom_site_type_symbol
_atom_site_label
_atom_site_fract_x
_atom_site_fract_y
_atom_site_fract_z
Si Si1 0.036802 0.841534 0.639754
Si Si2 0.607104 0.085419 0.911524
Si Si3 0.718678 0.114869 0.534714
Si Si4 0.376213 0.359326 0.534788
Si Si5 0.703153 0.638117 0.230282
Si Si6 0.051635 0.171627 0.132670
Si Si7 0.149229 0.489814 0.137985
O O1 0.799178 0.730111 0.580117
O O2 0.266813 0.804302 0.584350
O O3 0.127308 0.833058 0.781863
O O4 0.984485 0.019612 0.612851
O O5 0.372893 0.193273 0.820117
O O6 0.851941 0.178614 0.995444
O O7 0.729622 0.968117 0.839602
O O8 0.500000 0.000000 0.000000
O O9 0.637018 0.248402 0.606851
O O10 0.500000 0.000000 0.500000
O O11 0.500000 0.500000 0.500000
O O12 0.214129 0.382953 0.625958
O O13 0.959839 0.569529 0.202878
O O14 0.439751 0.550553 0.171725
O O15 0.211418 0.317194 0.169056
O O16 0.000000 0.500000 0.000000
#
# Coordination Sequence:
#
# PCOD8020543 Si02
#       7
#     2   2   2   2   2   2   2
#     4  10  22  42  69  95 138 183 234 291 352 431
#     4  11  26  45  71 105 141 184 248 304 362 426
#     4   9  21  41  63  94 133 183 233 285 346 422
#     4  11  25  42  68 103 142 183 238 292 360 431
#     4  12  28  47  76 107 151 192 237 306 361 430
#     4  11  25  43  72 103 139 189 240 299 359 432
#     4  12  26  49  74 106 146 193 240 292 369 434
#
# _framework density 25.755015
#
# number of rings (size 3 to 8) (size 9 to 14) (size 15 to 20)
#    0.000    1.143    1.429    3.000    8.000    6.286 
#    0.000    0.000    0.000    0.000    0.000    0.000 
#    0.000    0.000    0.000    0.000    0.000    0.000 
#
# Total GULP energy -173448.088320 kJ/mol
# GULP energy per Si atom -12389.149166 kJ/mol
# Density = 2.569639 g / cm^3
# Si number density = 25.755015 Si / 1000 Ang^3
#
#
#
# Elastic Constant Matrix: (Units=GPa)
#
#
# Indices 1 2 3 4 5 6 
#
# 1 68.4580 18.5908 -1.3529 12.6426 -15.9348 14.7055
# 2 18.5908 142.0071 17.7892 6.2552 -2.6922 9.1135
# 3 -1.3529 17.7892 114.5095 7.6863 -20.7311 7.4311
# 4 12.6426 6.2552 7.6863 31.8761 1.6750 -14.6684
# 5 -15.9348 -2.6922 -20.7311 1.6750 36.4400 -7.1502
# 6 14.7055 9.1135 7.4311 -14.6684 -7.1502 28.9664
#
#
#
# Elastic Compliance Matrix: (Units=1/GPa)
#
#
# Indices 1 2 3 4 5 6 
#
# 1 0.027302 -0.001504 0.005773 -0.023555 0.011494 -0.023959
# 2 -0.001504 0.007593 -0.001130 -0.001702 -0.001148 -0.002481
# 3 0.005773 -0.001130 0.011526 -0.009018 0.007810 -0.008171
# 4 -0.023555 -0.001702 -0.009018 0.064468 -0.009677 0.045065
# 5 0.011494 -0.001148 0.007810 -0.009677 0.036616 -0.003339
# 6 -0.023959 -0.002481 -0.008171 0.045065 -0.003339 0.071559
#
#
# Mechanical properties :
#
#
# Convention : Reuss Voigt Hill
#
# Bulk Modulus (GPa) = 18.97592 43.89211 31.43402
# Shear Modulus (GPa) = 21.70579 38.78631 30.24605
#
# Velocity S-wave (km/s) = 2.90622 3.88489 3.43063
# Velocity P-wave (km/s) = 4.31802 6.09937 5.28430
#
# Compressibility (1/GPa) = 0.05269836
#
# Stress axis : x y z
#
# Youngs Moduli (GPa) = 36.62713 131.70376 86.75979
#
# Poissons Ratio (x) = 0.19813 -0.50087
# Poissons Ratio (y) = 0.05510 0.09804
# Poissons Ratio (z) = -0.21145 0.14882
#
# Static dielectric constant tensor:
#      x y z
#    x 4.971910 0.105130 0.040190 
#    y 0.105130 4.721700 -0.260610 
#    z 0.040190 -0.260610 4.837420 
# 
# 
# High freq. dielectric constant tensor:
#      x y z
#    x 2.028350 0.009700 -0.020420 
#    y 0.009700 2.048040 0.008900 
#    z -0.020420 0.008900 2.025290 
# 
# From -- ./inp_files/131776.got.cif
#   From: 2010.06.25/outbox.cif.g09.slc.cpg/sg2_66_cif.got.tgz:131776.got - 2010.06.27 13:26:56.
