data_PCOD8020312
_publ_section_title
;
Structure prediction by ZEFSAII (Michael W. Deem and Ramdas Pophale) SiO2 
 PCOD8020312
Probable space group: P -1
;
_chemical_formula_sum "Si O2"
_cell_formula_units_Z 12
_cell_length_a 5.082501
_cell_length_b 15.640039
_cell_length_c 10.423634
_cell_angle_alpha 130.656066
_cell_angle_beta 70.753269
_cell_angle_gamma 123.058872
_cell_volume 526.394363
_symmetry_space_group_name_H-M "P -1"
_symmetry_group_IT_number 2
_symmetry_cell_setting 'triclinic'
loop_
_space_group_symop_operation_xyz
x,y,z
-x,-y,-z
loop_
_atom_site_type_symbol
_atom_site_label
_atom_site_fract_x
_atom_site_fract_y
_atom_site_fract_z
Si Si1 0.398938 0.016496 0.886462
Si Si2 0.857757 0.486585 0.820423
Si Si3 0.223965 0.210081 0.206404
Si Si4 0.162999 0.357222 0.782624
Si Si5 0.895260 0.368667 0.319405
Si Si6 0.222793 0.937236 0.381753
O O1 0.663627 0.039601 0.761882
O O2 0.319904 0.135162 0.010383
O O3 0.084288 0.892211 0.769810
O O4 0.500000 0.000000 0.000000
O O5 0.519103 0.394294 0.723455
O O6 0.008949 0.390961 0.718961
O O7 0.075022 0.603456 0.809252
O O8 0.826998 0.549084 0.016070
O O9 0.525636 0.276123 0.317662
O O10 0.131510 0.311548 0.257975
O O11 0.968111 0.212164 0.710881
O O12 0.000000 0.500000 0.500000
O O13 0.500000 0.000000 0.500000
O O14 0.000000 0.000000 0.500000
#
# Coordination Sequence:
#
# PCOD8020312 Si02
#       6
#     2   2   2   2   2   2
#     4  11  26  50  76 104 139 195 248 291 351 432
#     4  10  22  42  67  94 125 180 229 272 330 414
#     4  11  25  44  73 102 136 193 240 288 345 434
#     4  10  22  43  66  91 130 178 224 273 336 415
#     4  12  25  42  66 106 144 179 228 294 355 414
#     4  12  29  45  71 108 147 181 232 301 365 414
#
# _framework density 22.796596000000001
#
# number of rings (size 3 to 8) (size 9 to 14) (size 15 to 20)
#    0.000    1.000    1.667    3.500    4.667    6.667 
#    0.000    0.000    0.000    0.000    0.000    0.000 
#    0.000    0.000    0.000    0.000    0.000    0.000 
#
# Total GULP energy -148761.361547 kJ/mol
# GULP energy per Si atom -12396.780129 kJ/mol
# Density = 2.274471 g / cm^3
# Si number density = 22.796596 Si / 1000 Ang^3
#
#
#
# Elastic Constant Matrix: (Units=GPa)
#
#
# Indices 1 2 3 4 5 6 
#
# 1 189.1583 47.3756 60.4875 21.7363 -15.4079 -2.6270
# 2 47.3756 84.0260 55.4917 29.4362 -11.3635 -0.0189
# 3 60.4875 55.4917 83.6710 15.8347 -13.7708 -1.1248
# 4 21.7363 29.4362 15.8347 33.0481 2.2227 8.9089
# 5 -15.4079 -11.3635 -13.7708 2.2227 41.2733 16.0367
# 6 -2.6270 -0.0189 -1.1248 8.9089 16.0367 44.3753
#
#
#
# Elastic Compliance Matrix: (Units=1/GPa)
#
#
# Indices 1 2 3 4 5 6 
#
# 1 0.007120 0.000082 -0.004471 -0.002814 0.001165 0.000452
# 2 0.000082 0.029146 -0.015128 -0.019636 0.003113 0.002451
# 3 -0.004471 -0.015128 0.024745 0.004807 0.002792 -0.001618
# 4 -0.002814 -0.019636 0.004807 0.049883 -0.004220 -0.008543
# 5 0.001165 0.003113 0.002792 -0.004220 0.030591 -0.010067
# 6 0.000452 0.002451 -0.001618 -0.008543 -0.010067 0.027875
#
#
# Mechanical properties :
#
#
# Convention : Reuss Voigt Hill
#
# Bulk Modulus (GPa) = 45.50333 75.95167 60.72750
# Shear Modulus (GPa) = 23.17819 36.63937 29.90878
#
# Velocity S-wave (km/s) = 3.19209 4.01338 3.62606
# Velocity P-wave (km/s) = 5.79568 7.40714 6.65040
#
# Compressibility (1/GPa) = 0.02197641
#
# Stress axis : x y z
#
# Youngs Moduli (GPa) = 140.44099 34.31001 40.41256
#
# Poissons Ratio (x) = -0.00280 0.18070
# Poissons Ratio (y) = -0.01146 0.61135
# Poissons Ratio (z) = 0.62797 0.51903
#
# Static dielectric constant tensor:
#      x y z
#    x 4.570840 -0.026560 -0.007390 
#    y -0.026560 4.177140 0.304750 
#    z -0.007390 0.304750 3.975140 
# 
# 
# High freq. dielectric constant tensor:
#      x y z
#    x 1.922410 0.007730 -0.007500 
#    y 0.007730 1.901670 0.022080 
#    z -0.007500 0.022080 1.894660 
# 
# From -- ./inp_files/368039.got.cif
#   From: 2010.06.25/outbox.cif.g09.slc.cpg/sg2_185_cif.got.tgz:368039.got - 2010.06.27 13:26:56.
