data_PCOD8020142
_publ_section_title
;
Structure prediction by ZEFSAII (Michael W. Deem and Ramdas Pophale) SiO2 
 PCOD8020142
Probable space group: P -1
;
_chemical_formula_sum "Si O2"
_cell_formula_units_Z 16
_cell_length_a 11.398896
_cell_length_b 18.474394
_cell_length_c 9.220994
_cell_angle_alpha 46.337567
_cell_angle_beta 80.949826
_cell_angle_gamma 44.077649
_cell_volume 722.754415
_symmetry_space_group_name_H-M "P -1"
_symmetry_group_IT_number 2
_symmetry_cell_setting 'triclinic'
loop_
_space_group_symop_operation_xyz
x,y,z
-x,-y,-z
loop_
_atom_site_type_symbol
_atom_site_label
_atom_site_fract_x
_atom_site_fract_y
_atom_site_fract_z
Si Si1 0.795184 0.867221 0.595142
Si Si2 0.392346 0.184170 0.782093
Si Si3 0.960898 0.144137 0.274642
Si Si4 0.035916 0.362647 0.401484
Si Si5 0.173788 0.672453 0.364812
Si Si6 0.321528 0.231392 0.065981
Si Si7 0.485559 0.462921 0.326206
Si Si8 0.768965 0.065133 0.770310
O O1 0.854726 0.757197 0.598560
O O2 0.766118 0.817097 0.810748
O O3 0.973525 0.828543 0.644086
O O4 0.560826 0.086022 0.292360
O O5 0.189743 0.333170 0.498563
O O6 0.573880 0.136980 0.773444
O O7 0.308163 0.258836 0.858830
O O8 0.500000 0.000000 0.000000
O O9 0.693029 0.359438 0.998005
O O10 0.000000 0.000000 0.500000
O O11 0.139030 0.041384 0.254053
O O12 0.976160 0.316200 0.586891
O O13 0.822565 0.579206 0.090418
O O14 0.333073 0.529653 0.394749
O O15 0.341879 0.575827 0.598654
O O16 0.998185 0.891915 0.066234
O O17 0.653997 0.257255 0.511814
#
# Coordination Sequence:
#
# PCOD8020142 Si02
#       8
#     2   2   2   2   2   2   2   2
#     4  11  26  45  65  96 139 177 224 273 331 398
#     4  12  22  43  70 104 134 172 219 272 343 392
#     4  11  28  46  66  95 134 180 230 275 327 399
#     4  12  25  41  72 100 136 175 221 272 338 403
#     4  10  22  42  66 101 129 166 225 285 330 391
#     4  11  25  43  69  98 139 178 216 275 331 402
#     4  10  24  43  68  95 128 175 230 278 332 387
#     4  11  23  43  71  94 133 173 219 283 333 395
#
# _framework density 22.137532
#
# number of rings (size 3 to 8) (size 9 to 14) (size 15 to 20)
#    0.000    1.000    2.500    2.625    8.750    1.500 
#    2.250    0.000    0.000    0.000    0.000    0.000 
#    0.000    0.000    0.000    0.000    0.000    0.000 
#
# Total GULP energy -198336.285187 kJ/mol
# GULP energy per Si atom -12396.017824 kJ/mol
# Density = 2.208715 g / cm^3
# Si number density = 22.137532 Si / 1000 Ang^3
#
#
#
# Elastic Constant Matrix: (Units=GPa)
#
#
# Indices 1 2 3 4 5 6 
#
# 1 93.3518 39.2364 47.8167 2.0498 31.3776 16.7048
# 2 39.2364 117.6616 46.2442 -17.7590 40.8572 25.7298
# 3 47.8167 46.2442 163.6827 -26.6812 17.7497 20.1735
# 4 2.0498 -17.7590 -26.6812 46.6025 -3.2591 -10.2613
# 5 31.3776 40.8572 17.7497 -3.2591 39.1751 14.8534
# 6 16.7048 25.7298 20.1735 -10.2613 14.8534 44.5143
#
#
#
# Elastic Compliance Matrix: (Units=1/GPa)
#
#
# Indices 1 2 3 4 5 6 
#
# 1 0.017203 -0.000588 -0.004203 -0.004504 -0.011043 -0.001565
# 2 -0.000588 0.015004 -0.001806 0.003240 -0.013141 -0.002502
# 3 -0.004203 -0.001806 0.008425 0.004266 0.002139 -0.000928
# 4 -0.004504 0.003240 0.004266 0.026201 -0.001159 0.004311
# 5 -0.011043 -0.013141 0.002139 -0.001159 0.049261 -0.005934
# 6 -0.001565 -0.002502 -0.000928 0.004311 -0.005934 0.027892
#
#
# Mechanical properties :
#
#
# Convention : Reuss Voigt Hill
#
# Bulk Modulus (GPa) = 36.44549 71.25452 53.85001
# Shear Modulus (GPa) = 30.06154 42.15164 36.10659
#
# Velocity S-wave (km/s) = 3.68903 4.36831 4.04296
# Velocity P-wave (km/s) = 5.88593 7.59605 6.79500
#
# Compressibility (1/GPa) = 0.02743824
#
# Stress axis : x y z
#
# Youngs Moduli (GPa) = 58.13013 66.64951 118.69236
#
# Poissons Ratio (x) = 0.03917 0.49890
# Poissons Ratio (y) = 0.03416 0.21434
# Poissons Ratio (z) = 0.24434 0.12036
#
# Static dielectric constant tensor:
#      x y z
#    x 2.908760 -0.323660 -0.172050 
#    y -0.323660 3.981120 -0.240340 
#    z -0.172050 -0.240340 4.131020 
# 
# 
# High freq. dielectric constant tensor:
#      x y z
#    x 1.863490 -0.004580 0.006860 
#    y -0.004580 1.877180 -0.012570 
#    z 0.006860 -0.012570 1.885270 
# 
# From -- ./inp_files/279030.got.cif
#   From: 2010.06.25/outbox.cif.g09.slc.cpg/sg2_140_cif.got.tgz:279030.got - 2010.06.27 13:26:56.
