data_PCOD8020360
_publ_section_title
;
Structure prediction by ZEFSAII (Michael W. Deem and Ramdas Pophale) SiO2 
 PCOD8020360
Probable space group: P -1
;
_chemical_formula_sum "Si O2"
_cell_formula_units_Z 16
_cell_length_a 13.867205
_cell_length_b 11.766853
_cell_length_c 8.666344
_cell_angle_alpha 81.872459
_cell_angle_beta 94.375184
_cell_angle_gamma 32.088717
_cell_volume 690.061082
_symmetry_space_group_name_H-M "P -1"
_symmetry_group_IT_number 2
_symmetry_cell_setting 'triclinic'
loop_
_space_group_symop_operation_xyz
x,y,z
-x,-y,-z
loop_
_atom_site_type_symbol
_atom_site_label
_atom_site_fract_x
_atom_site_fract_y
_atom_site_fract_z
Si Si1 0.121608 0.020329 0.162761
Si Si2 0.808600 0.849574 0.627930
Si Si3 0.863840 0.891355 0.174072
Si Si4 0.109665 0.912099 0.687255
Si Si5 0.525910 0.498767 0.682928
Si Si6 0.181326 0.316686 0.806751
Si Si7 0.526893 0.209116 0.264313
Si Si8 0.390144 0.119475 0.186342
O O1 0.297595 0.757258 0.180826
O O2 0.942790 0.126189 0.179642
O O3 0.190903 0.030651 0.306330
O O4 0.065469 0.151180 0.981215
O O5 0.661683 0.912331 0.677330
O O6 0.028786 0.573796 0.696776
O O7 0.719520 0.965690 0.427504
O O8 0.952052 0.895701 0.301857
O O9 0.922906 0.697007 0.247102
O O10 0.624877 0.141699 0.122976
O O11 0.338019 0.662813 0.730399
O O12 0.000000 0.000000 0.500000
O O13 0.500000 0.500000 0.500000
O O14 0.578453 0.578616 0.700014
O O15 0.382685 0.135758 0.777560
O O16 0.235077 0.257652 0.005441
O O17 0.365516 0.276672 0.209731
#
# Coordination Sequence:
#
# PCOD8020360 Si02
#       8
#     2   2   2   2   2   2   2   2
#     4  12  24  42  68  98 131 174 221 263 331 395
#     4  12  23  42  68 100 134 173 223 274 328 391
#     4  10  23  44  66  93 134 171 216 272 325 390
#     4  11  23  43  67  98 129 165 222 267 322 395
#     4  11  22  45  68  92 134 175 207 277 332 378
#     4  10  23  44  67  95 136 174 217 278 329 388
#     4  10  23  43  68  99 133 172 228 275 326 397
#     4  10  22  42  67  97 133 173 223 269 332 395
#
# _framework density 23.186353
#
# number of rings (size 3 to 8) (size 9 to 14) (size 15 to 20)
#    0.000    1.250    3.750    1.875    0.000    6.000 
#    2.250    0.000    0.000    0.000    0.000    0.000 
#    0.000    0.000    0.000    0.000    0.000    0.000 
#
# Total GULP energy -198361.432300 kJ/mol
# GULP energy per Si atom -12397.589519 kJ/mol
# Density = 2.313358 g / cm^3
# Si number density = 23.186353 Si / 1000 Ang^3
#
#
#
# Elastic Constant Matrix: (Units=GPa)
#
#
# Indices 1 2 3 4 5 6 
#
# 1 157.4670 49.8875 17.3114 17.6810 0.6940 13.9064
# 2 49.8875 119.2354 24.9652 -2.9011 -3.9030 9.1373
# 3 17.3114 24.9652 52.3534 10.7959 1.1715 -1.9878
# 4 17.6810 -2.9011 10.7959 31.2172 5.1023 1.7162
# 5 0.6940 -3.9030 1.1715 5.1023 33.1008 12.0440
# 6 13.9064 9.1373 -1.9878 1.7162 12.0440 44.4502
#
#
#
# Elastic Compliance Matrix: (Units=1/GPa)
#
#
# Indices 1 2 3 4 5 6 
#
# 1 0.008134 -0.003303 -0.000201 -0.004886 0.000903 -0.001931
# 2 -0.003303 0.011212 -0.005321 0.004601 0.001647 -0.002133
# 3 -0.000201 -0.005321 0.023593 -0.008503 -0.001189 0.002862
# 4 -0.004886 0.004601 -0.008503 0.038997 -0.005093 0.000077
# 5 0.000903 0.001647 -0.001189 -0.005093 0.034820 -0.009912
# 6 -0.001931 -0.002133 0.002862 0.000077 -0.009912 0.026350
#
#
# Mechanical properties :
#
#
# Convention : Reuss Voigt Hill
#
# Bulk Modulus (GPa) = 39.54023 57.04267 48.29145
# Shear Modulus (GPa) = 29.55325 37.54642 33.54984
#
# Velocity S-wave (km/s) = 3.57402 4.02846 3.80803
# Velocity P-wave (km/s) = 5.84138 6.80391 6.34094
#
# Compressibility (1/GPa) = 0.02529070
#
# Stress axis : x y z
#
# Youngs Moduli (GPa) = 122.93997 89.19029 42.38457
#
# Poissons Ratio (x) = 0.29456 0.00851
# Poissons Ratio (y) = 0.40602 0.22553
# Poissons Ratio (z) = 0.02468 0.47459
#
# Static dielectric constant tensor:
#      x y z
#    x 4.642370 0.182870 0.018200 
#    y 0.182870 4.252350 0.300420 
#    z 0.018200 0.300420 3.951650 
# 
# 
# High freq. dielectric constant tensor:
#      x y z
#    x 1.936400 0.009830 -0.000990 
#    y 0.009830 1.916670 0.027410 
#    z -0.000990 0.027410 1.899990 
# 
# From -- ./inp_files/307338.got.cif
#   From: 2010.06.25/outbox.cif.g09.slc.cpg/sg2_154_cif.got.tgz:307338.got - 2010.06.27 13:26:56.
