data_PCOD8020196
_publ_section_title
;
Structure prediction by ZEFSAII (Michael W. Deem and Ramdas Pophale) SiO2 
 PCOD8020196
Probable space group: P -1
;
_chemical_formula_sum "Si O2"
_cell_formula_units_Z 12
_cell_length_a 4.909307
_cell_length_b 6.107792
_cell_length_c 23.050630
_cell_angle_alpha 131.160931
_cell_angle_beta 97.846114
_cell_angle_gamma 84.217273
_cell_volume 515.433165
_symmetry_space_group_name_H-M "P -1"
_symmetry_group_IT_number 2
_symmetry_cell_setting 'triclinic'
loop_
_space_group_symop_operation_xyz
x,y,z
-x,-y,-z
loop_
_atom_site_type_symbol
_atom_site_label
_atom_site_fract_x
_atom_site_fract_y
_atom_site_fract_z
Si Si1 0.878103 0.683272 0.944666
Si Si2 0.296688 0.227836 0.448502
Si Si3 0.380249 0.592027 0.340193
Si Si4 0.755923 0.806436 0.086966
Si Si5 0.264327 0.200431 0.160575
Si Si6 0.914984 0.517098 0.403593
O O1 0.696048 0.645458 0.874562
O O2 0.120499 0.440260 0.910098
O O3 0.703310 0.666595 0.996742
O O4 0.000000 0.000000 0.000000
O O5 0.500000 0.500000 0.500000
O O6 0.147635 0.226249 0.506865
O O7 0.063843 0.251805 0.395873
O O8 0.466265 0.928019 0.391064
O O9 0.320459 0.441828 0.251720
O O10 0.624516 0.418215 0.350174
O O11 0.105173 0.617269 0.374271
O O12 0.469433 0.923173 0.125051
O O13 0.958101 0.081089 0.137788
#
# Coordination Sequence:
#
# PCOD8020196 Si02
#       6
#     2   2   2   2   2   2
#     4   9  21  41  69  95 125 170 218 262 310 377
#     4  11  25  44  71  97 122 172 229 271 318 387
#     4  12  26  41  66  95 137 172 211 271 335 384
#     4  10  22  42  66  94 128 169 218 263 309 376
#     4  11  24  41  61  96 133 171 209 260 327 381
#     4  11  25  44  66  95 126 169 221 271 324 384
#
# _framework density 23.281386999999999
#
# number of rings (size 3 to 8) (size 9 to 14) (size 15 to 20)
#    0.000    1.333    1.667    2.500    4.667   11.333 
#    0.000    0.000    0.000    0.000    0.000    0.000 
#    0.000    0.000    0.000    0.000    0.000    0.000 
#
# Total GULP energy -148790.853194 kJ/mol
# GULP energy per Si atom -12399.237766 kJ/mol
# Density = 2.322840 g / cm^3
# Si number density = 23.281387 Si / 1000 Ang^3
#
#
#
# Elastic Constant Matrix: (Units=GPa)
#
#
# Indices 1 2 3 4 5 6 
#
# 1 84.2063 19.0732 45.6648 -8.8293 -4.6915 -20.7213
# 2 19.0732 105.9656 73.0905 -8.4523 1.2860 -23.8137
# 3 45.6648 73.0905 167.5940 -17.9231 7.4480 -13.8121
# 4 -8.8293 -8.4523 -17.9231 28.1120 -8.2462 4.2301
# 5 -4.6915 1.2860 7.4480 -8.2462 32.3012 -5.4770
# 6 -20.7213 -23.8137 -13.8121 4.2301 -5.4770 33.2167
#
#
#
# Elastic Compliance Matrix: (Units=1/GPa)
#
#
# Indices 1 2 3 4 5 6 
#
# 1 0.017534 0.003219 -0.005145 0.003317 0.006443 0.011746
# 2 0.003219 0.016332 -0.007156 0.000711 0.003554 0.011237
# 3 -0.005145 -0.007156 0.010524 0.002789 -0.002993 -0.004812
# 4 0.003317 0.000711 0.002789 0.041653 0.010471 0.000161
# 5 0.006443 0.003554 -0.002993 0.010471 0.036822 0.010061
# 6 0.011746 0.011237 -0.004812 0.000161 0.010061 0.045126
#
#
# Mechanical properties :
#
#
# Convention : Reuss Voigt Hill
#
# Bulk Modulus (GPa) = 38.12908 70.38032 54.25470
# Shear Modulus (GPa) = 25.65466 33.38850 29.52158
#
# Velocity S-wave (km/s) = 3.32315 3.79110 3.56481
# Velocity P-wave (km/s) = 5.58009 7.03272 6.34809
#
# Compressibility (1/GPa) = 0.02622670
#
# Stress axis : x y z
#
# Youngs Moduli (GPa) = 57.03264 61.22923 95.02164
#
# Poissons Ratio (x) = -0.19708 0.48887
# Poissons Ratio (y) = -0.18358 0.67993
# Poissons Ratio (z) = 0.29342 0.43813
#
# Static dielectric constant tensor:
#      x y z
#    x 4.093720 -0.231830 -0.076990 
#    y -0.231830 4.487830 -0.393230 
#    z -0.076990 -0.393230 4.271690 
# 
# 
# High freq. dielectric constant tensor:
#      x y z
#    x 1.918820 -0.015490 -0.005200 
#    y -0.015490 1.923880 -0.012630 
#    z -0.005200 -0.012630 1.907390 
# 
# From -- ./inp_files/8170.got.cif
#   From: 2010.06.25/outbox.cif.g09.slc.cpg/sg2_5_cif.got.tgz:8170.got - 2010.06.27 13:26:56.
