data_PCOD8020248
_publ_section_title
;
Structure prediction by ZEFSAII (Michael W. Deem and Ramdas Pophale) SiO2 
 PCOD8020248
Probable space group: P -1
;
_chemical_formula_sum "Si O2"
_cell_formula_units_Z 14
_cell_length_a 9.138565
_cell_length_b 14.225455
_cell_length_c 12.888917
_cell_angle_alpha 149.473468
_cell_angle_beta 131.578162
_cell_angle_gamma 57.628509
_cell_volume 633.747805
_symmetry_space_group_name_H-M "P -1"
_symmetry_group_IT_number 2
_symmetry_cell_setting 'triclinic'
loop_
_space_group_symop_operation_xyz
x,y,z
-x,-y,-z
loop_
_atom_site_type_symbol
_atom_site_label
_atom_site_fract_x
_atom_site_fract_y
_atom_site_fract_z
Si Si1 0.775919 0.225522 0.125259
Si Si2 0.190329 0.177940 0.199170
Si Si3 0.856855 0.655294 0.050439
Si Si4 0.226765 0.300476 0.719184
Si Si5 0.329327 0.688977 0.063429
Si Si6 0.465779 0.525051 0.627687
Si Si7 0.978042 0.073514 0.788242
O O1 0.675298 0.321717 0.073414
O O2 0.682378 0.314839 0.267909
O O3 0.013815 0.252407 0.255090
O O4 0.725004 0.003622 0.886463
O O5 0.368878 0.331700 0.441843
O O6 0.128724 0.135109 0.009941
O O7 0.778972 0.739518 0.199199
O O8 0.951725 0.830429 0.195208
O O9 0.675337 0.557711 0.809963
O O10 0.000000 0.500000 0.000000
O O11 0.187752 0.511703 0.873106
O O12 0.060480 0.151533 0.449698
O O13 0.448265 0.291107 0.771275
O O14 0.236451 0.869307 0.231509
O O15 0.500000 0.500000 0.500000
#
# Coordination Sequence:
#
# PCOD8020248 Si02
#       7
#     2   2   2   2   2   2   2
#     4  10  23  44  70 100 134 174 232 281 338 403
#     4  10  24  44  69 103 130 180 230 282 341 400
#     4  12  25  46  66 101 138 183 225 272 341 402
#     4  11  23  42  68  96 132 175 219 279 334 397
#     4  10  22  42  67 100 129 170 225 275 337 395
#     4  12  25  46  70  97 144 180 227 282 335 410
#     4  11  23  42  66  97 136 171 226 273 336 399
#
# _framework density 22.090806000000001
#
# number of rings (size 3 to 8) (size 9 to 14) (size 15 to 20)
#    0.000    1.143    4.286    1.286    0.000    8.571 
#    2.571    0.000    0.000    0.000    0.000    0.000 
#    0.000    0.000    0.000    0.000    0.000    0.000 
#
# Total GULP energy -173564.828298 kJ/mol
# GULP energy per Si atom -12397.487736 kJ/mol
# Density = 2.204053 g / cm^3
# Si number density = 22.090806 Si / 1000 Ang^3
#
#
#
# Elastic Constant Matrix: (Units=GPa)
#
#
# Indices 1 2 3 4 5 6 
#
# 1 110.5654 29.6785 46.7464 4.9060 -5.1206 8.9484
# 2 29.6785 81.4634 29.1971 4.1433 5.3079 11.2642
# 3 46.7464 29.1971 112.5130 5.7560 14.8158 -5.9567
# 4 4.9060 4.1433 5.7560 24.8054 12.2404 10.8870
# 5 -5.1206 5.3079 14.8158 12.2404 41.7092 -0.0875
# 6 8.9484 11.2642 -5.9567 10.8870 -0.0875 18.9656
#
#
#
# Elastic Compliance Matrix: (Units=1/GPa)
#
#
# Indices 1 2 3 4 5 6 
#
# 1 0.012633 -0.001921 -0.005604 0.000235 0.003703 -0.006698
# 2 -0.001921 0.016128 -0.004042 0.005681 -0.002547 -0.013215
# 3 -0.005604 -0.004042 0.013629 -0.004977 -0.003528 0.012166
# 4 0.000235 0.005681 -0.004977 0.070031 -0.019573 -0.045339
# 5 0.003703 -0.002547 -0.003528 -0.019573 0.031773 0.010040
# 6 -0.006698 -0.013215 0.012166 -0.045339 0.010040 0.093630
#
#
# Mechanical properties :
#
#
# Convention : Reuss Voigt Hill
#
# Bulk Modulus (GPa) = 51.93413 57.30953 54.62183
# Shear Modulus (GPa) = 18.70028 30.35737 24.52882
#
# Velocity S-wave (km/s) = 2.91266 3.71105 3.33583
# Velocity P-wave (km/s) = 5.90524 6.66045 6.29418
#
# Compressibility (1/GPa) = 0.01925516
#
# Stress axis : x y z
#
# Youngs Moduli (GPa) = 79.16033 62.00290 73.37509
#
# Poissons Ratio (x) = 0.11909 0.41122
# Poissons Ratio (y) = 0.15205 0.29659
# Poissons Ratio (z) = 0.44364 0.25062
#
# Static dielectric constant tensor:
#      x y z
#    x 4.283170 0.167840 0.030890 
#    y 0.167840 3.987590 0.043630 
#    z 0.030890 0.043630 3.961300 
# 
# 
# High freq. dielectric constant tensor:
#      x y z
#    x 1.880630 0.009910 0.000310 
#    y 0.009910 1.867410 0.008730 
#    z 0.000310 0.008730 1.861970 
# 
# From -- ./inp_files/124359.got.cif
#   From: 2010.06.25/outbox.cif.g09.slc.cpg/sg2_63_cif.got.tgz:124359.got - 2010.06.27 13:26:56.
