data_PCOD8020364
_publ_section_title
;
Structure prediction by ZEFSAII (Michael W. Deem and Ramdas Pophale) SiO2 
 PCOD8020364
Probable space group: P -1
;
_chemical_formula_sum "Si O2"
_cell_formula_units_Z 16
_cell_length_a 8.389027
_cell_length_b 11.278154
_cell_length_c 13.797673
_cell_angle_alpha 112.738440
_cell_angle_beta 64.522617
_cell_angle_gamma 62.179654
_cell_volume 706.098679
_symmetry_space_group_name_H-M "P -1"
_symmetry_group_IT_number 2
_symmetry_cell_setting 'triclinic'
loop_
_space_group_symop_operation_xyz
x,y,z
-x,-y,-z
loop_
_atom_site_type_symbol
_atom_site_label
_atom_site_fract_x
_atom_site_fract_y
_atom_site_fract_z
Si Si1 0.762785 0.154370 0.857696
Si Si2 0.869237 0.975940 0.103375
Si Si3 0.925584 0.352372 0.178798
Si Si4 0.148755 0.733564 0.633000
Si Si5 0.633357 0.246153 0.580369
Si Si6 0.980710 0.176778 0.626949
Si Si7 0.291340 0.402266 0.378459
Si Si8 0.215143 0.446041 0.195054
O O1 0.951658 0.119706 0.876877
O O2 0.795776 0.207243 0.764054
O O3 0.840692 0.957786 0.769208
O O4 0.445434 0.338406 0.021112
O O5 0.554340 0.179028 0.278250
O O6 0.883647 0.825478 0.004369
O O7 0.000000 0.000000 0.000000
O O8 0.677311 0.553280 0.247518
O O9 0.813143 0.312632 0.276586
O O10 0.082095 0.379615 0.201305
O O11 0.327916 0.752046 0.545955
O O12 0.259170 0.552808 0.488714
O O13 0.835775 0.231960 0.579114
O O14 0.716467 0.053101 0.523771
O O15 0.003885 0.316926 0.684707
O O16 0.355882 0.382387 0.242121
O O17 0.000000 0.500000 0.500000
#
# Coordination Sequence:
#
# PCOD8020364 Si02
#       8
#     2   2   2   2   2   2   2   2
#     4  11  25  43  71  92 128 177 228 263 318 400
#     4  12  24  44  67  98 134 175 219 269 323 404
#     4  12  25  39  68  98 135 166 213 276 339 381
#     4  11  22  38  69  97 126 167 210 271 329 395
#     4  10  22  42  67  98 125 169 225 270 316 398
#     4  10  23  43  68  90 126 178 230 263 317 390
#     4  12  25  38  65 102 140 164 209 277 340 387
#     4  12  24  43  63  97 136 174 211 278 327 392
#
# _framework density 22.659721999999999
#
# number of rings (size 3 to 8) (size 9 to 14) (size 15 to 20)
#    0.000    0.750    5.000    2.250    5.250    1.500 
#    0.000    2.500    0.000    0.000    0.000    0.000 
#    0.000    0.000    0.000    0.000    0.000    0.000 
#
# Total GULP energy -198260.180746 kJ/mol
# GULP energy per Si atom -12391.261297 kJ/mol
# Density = 2.260815 g / cm^3
# Si number density = 22.659722 Si / 1000 Ang^3
#
#
#
# Elastic Constant Matrix: (Units=GPa)
#
#
# Indices 1 2 3 4 5 6 
#
# 1 61.6447 22.7483 47.8240 22.6481 20.4960 2.1133
# 2 22.7483 85.3155 37.6598 17.9487 8.1898 0.7386
# 3 47.8240 37.6598 115.7374 28.3773 21.8810 4.2980
# 4 22.6481 17.9487 28.3773 47.5505 5.8988 10.6978
# 5 20.4960 8.1898 21.8810 5.8988 41.9496 6.8848
# 6 2.1133 0.7386 4.2980 10.6978 6.8848 25.8050
#
#
#
# Elastic Compliance Matrix: (Units=1/GPa)
#
#
# Indices 1 2 3 4 5 6 
#
# 1 0.028899 -0.001648 -0.007735 -0.008484 -0.009389 0.004991
# 2 -0.001648 0.014219 -0.003254 -0.002971 -0.000107 0.001530
# 3 -0.007735 -0.003254 0.014185 -0.003330 -0.002587 0.000435
# 4 -0.008484 -0.002971 -0.003330 0.030450 0.004218 -0.012414
# 5 -0.009389 -0.000107 -0.002587 0.004218 0.030634 -0.008719
# 6 0.004991 0.001530 0.000435 -0.012414 -0.008719 0.045700
#
#
# Mechanical properties :
#
#
# Convention : Reuss Voigt Hill
#
# Bulk Modulus (GPa) = 31.22201 53.24023 42.23112
# Shear Modulus (GPa) = 24.99548 33.35872 29.17710
#
# Velocity S-wave (km/s) = 3.32487 3.84104 3.59223
# Velocity P-wave (km/s) = 5.34305 6.57404 5.99025
#
# Compressibility (1/GPa) = 0.03202869
#
# Stress axis : x y z
#
# Youngs Moduli (GPa) = 34.60343 70.32809 70.49889
#
# Poissons Ratio (x) = 0.11591 0.54531
# Poissons Ratio (y) = 0.05703 0.22939
# Poissons Ratio (z) = 0.26766 0.22883
#
# Static dielectric constant tensor:
#      x y z
#    x 4.288450 0.368900 0.322760 
#    y 0.368900 4.507180 0.138400 
#    z 0.322760 0.138400 4.511460 
# 
# 
# High freq. dielectric constant tensor:
#      x y z
#    x 1.863410 -0.006780 0.031520 
#    y -0.006780 1.895440 0.017980 
#    z 0.031520 0.017980 1.910820 
# 
# From -- ./inp_files/500538.got.cif
#   From: 2010.06.25/outbox.cif.g09.slc.cpg/sg2_251_cif.got.tgz:500538.got - 2010.06.27 13:26:56.
