data_PCOD8020213
_publ_section_title
;
Structure prediction by ZEFSAII (Michael W. Deem and Ramdas Pophale) SiO2 
 PCOD8020213
Probable space group: P -1
;
_chemical_formula_sum "Si O2"
_cell_formula_units_Z 16
_cell_length_a 27.638375
_cell_length_b 12.706043
_cell_length_c 8.912268
_cell_angle_alpha 141.986629
_cell_angle_beta 28.860464
_cell_angle_gamma 150.768991
_cell_volume 734.001532
_symmetry_space_group_name_H-M "P -1"
_symmetry_group_IT_number 2
_symmetry_cell_setting 'triclinic'
loop_
_space_group_symop_operation_xyz
x,y,z
-x,-y,-z
loop_
_atom_site_type_symbol
_atom_site_label
_atom_site_fract_x
_atom_site_fract_y
_atom_site_fract_z
Si Si1 0.277293 0.835015 0.546838
Si Si2 0.235648 0.056838 0.659767
Si Si3 0.291340 0.128483 0.253013
Si Si4 0.017222 0.397368 0.197214
Si Si5 0.517068 0.880694 0.447896
Si Si6 0.076235 0.740644 0.215214
Si Si7 0.753073 0.538034 0.233566
Si Si8 0.179891 0.376680 0.190900
O O1 0.262479 0.620695 0.303239
O O2 0.302183 0.987095 0.508624
O O3 0.397892 0.962591 0.470908
O O4 0.151609 0.780448 0.904091
O O5 0.311678 0.128422 0.376329
O O6 0.240318 0.255898 0.937944
O O7 0.088534 0.860227 0.807377
O O8 0.264843 0.293417 0.463295
O O9 0.171849 0.891508 0.258288
O O10 0.418425 0.213348 0.913507
O O11 0.003647 0.493203 0.189618
O O12 0.000000 0.500000 0.500000
O O13 0.157735 0.464029 0.891899
O O14 0.381718 0.695135 0.678253
O O15 0.500000 0.000000 0.500000
O O16 0.966017 0.765572 0.513270
O O17 0.824765 0.615650 0.967552
#
# Coordination Sequence:
#
# PCOD8020213 Si02
#       8
#     2   2   2   2   2   2   2   2
#     4  11  25  45  63  91 137 169 213 274 320 390
#     4  11  23  41  68  99 131 171 209 271 333 381
#     4  10  22  42  66  96 129 165 224 268 314 390
#     4  12  20  36  71  98 132 170 214 266 324 385
#     4  11  26  46  68  92 122 175 221 268 324 382
#     4  11  21  39  63  98 134 170 215 264 320 386
#     4  11  22  41  65  98 128 172 217 269 319 378
#     4  11  23  40  64  99 133 171 216 260 333 392
#
# _framework density 21.798318999999999
#
# number of rings (size 3 to 8) (size 9 to 14) (size 15 to 20)
#    0.000    1.000    3.750    3.000    1.750    3.000 
#   11.250    1.250    0.000    0.000    0.000    0.000 
#    0.000    0.000    0.000    0.000    0.000    0.000 
#
# Total GULP energy -198439.820829 kJ/mol
# GULP energy per Si atom -12402.488802 kJ/mol
# Density = 2.174870 g / cm^3
# Si number density = 21.798319 Si / 1000 Ang^3
#
#
#
# Elastic Constant Matrix: (Units=GPa)
#
#
# Indices 1 2 3 4 5 6 
#
# 1 95.6684 28.9499 23.3158 17.6947 -11.6210 8.2889
# 2 28.9499 88.8910 32.4842 19.2211 -9.2192 1.3136
# 3 23.3158 32.4842 73.5165 20.4889 -10.0748 16.2419
# 4 17.6947 19.2211 20.4889 41.8530 1.9379 -3.7795
# 5 -11.6210 -9.2192 -10.0748 1.9379 25.3117 -1.6351
# 6 8.2889 1.3136 16.2419 -3.7795 -1.6351 27.4265
#
#
#
# Elastic Compliance Matrix: (Units=1/GPa)
#
#
# Indices 1 2 3 4 5 6 
#
# 1 0.013163 -0.002611 0.000026 -0.005004 0.005211 -0.004247
# 2 -0.002611 0.014877 -0.005176 -0.003054 0.002579 0.002875
# 3 0.000026 -0.005176 0.022965 -0.010506 0.007143 -0.014382
# 4 -0.005004 -0.003054 -0.010506 0.034076 -0.009424 0.012014
# 5 0.005211 0.002579 0.007143 -0.009424 0.046115 -0.004478
# 6 -0.004247 0.002875 -0.014382 0.012014 -0.004478 0.047513
#
#
# Mechanical properties :
#
#
# Convention : Reuss Voigt Hill
#
# Bulk Modulus (GPa) = 28.18193 47.50842 37.84517
# Shear Modulus (GPa) = 24.26494 30.47333 27.36913
#
# Velocity S-wave (km/s) = 3.34002 3.74300 3.54723
# Velocity P-wave (km/s) = 5.27550 6.36568 5.84606
#
# Compressibility (1/GPa) = 0.03548374
#
# Stress axis : x y z
#
# Youngs Moduli (GPa) = 75.96996 67.21745 43.54376
#
# Poissons Ratio (x) = 0.17553 -0.00114
# Poissons Ratio (y) = 0.19838 0.22537
# Poissons Ratio (z) = -0.00199 0.34791
#
# Static dielectric constant tensor:
#      x y z
#    x 3.588670 -0.340590 0.310630 
#    y -0.340590 3.724180 0.480260 
#    z 0.310630 0.480260 3.653810 
# 
# 
# High freq. dielectric constant tensor:
#      x y z
#    x 1.848280 -0.002300 0.002700 
#    y -0.002300 1.856060 0.007040 
#    z 0.002700 0.007040 1.864460 
# 
# From -- ./inp_files/283029.got.cif
#   From: 2010.06.25/outbox.cif.g09.slc.cpg/sg2_142_cif.got.tgz:283029.got - 2010.06.27 13:26:56.
