data_PCOD8020234
_publ_section_title
;
Structure prediction by ZEFSAII (Michael W. Deem and Ramdas Pophale) SiO2 
 PCOD8020234
Probable space group: P -1
;
_chemical_formula_sum "Si O2"
_cell_formula_units_Z 14
_cell_length_a 9.363036
_cell_length_b 19.880108
_cell_length_c 22.443793
_cell_angle_alpha 17.671350
_cell_angle_beta 38.851856
_cell_angle_gamma 30.696530
_cell_volume 624.836754
_symmetry_space_group_name_H-M "P -1"
_symmetry_group_IT_number 2
_symmetry_cell_setting 'triclinic'
loop_
_space_group_symop_operation_xyz
x,y,z
-x,-y,-z
loop_
_atom_site_type_symbol
_atom_site_label
_atom_site_fract_x
_atom_site_fract_y
_atom_site_fract_z
Si Si1 0.027470 0.115733 0.301171
Si Si2 0.719719 0.209892 0.099766
Si Si3 0.372510 0.850632 0.690619
Si Si4 0.702007 0.026291 0.952859
Si Si5 0.170609 0.209296 0.764572
Si Si6 0.610175 0.687235 0.994217
Si Si7 0.590223 0.550795 0.595354
O O1 0.154012 0.268152 0.104473
O O2 0.906047 0.046484 0.344461
O O3 0.288909 0.818968 0.496585
O O4 0.768931 0.349229 0.233867
O O5 0.725096 0.061247 0.283504
O O6 0.505467 0.218270 0.115827
O O7 0.623200 0.517145 0.886154
O O8 0.038827 0.026735 0.124255
O O9 0.500000 0.000000 0.500000
O O10 0.526343 0.343353 0.767166
O O11 0.500000 0.000000 0.000000
O O12 0.818278 0.801148 0.158797
O O13 0.323738 0.337205 0.581490
O O14 0.836999 0.403804 0.689318
O O15 0.335177 0.886586 0.959195
#
# Coordination Sequence:
#
# PCOD8020234 Si02
#       7
#     2   2   2   2   2   2   2
#     4   9  20  39  67 100 125 167 225 276 326 385
#     4  10  23  43  65  93 132 180 218 270 339 390
#     4  10  23  44  67  92 134 174 221 277 332 397
#     4  12  27  41  67 101 136 182 221 270 336 403
#     4  10  22  44  68  94 137 174 223 275 333 393
#     4   9  18  41  67  94 133 175 214 277 332 380
#     4  10  22  42  66  98 131 176 223 276 324 395
#
# _framework density 22.405851999999999
#
# number of rings (size 3 to 8) (size 9 to 14) (size 15 to 20)
#    0.000    2.000    1.429    0.429    6.000    1.714 
#    0.000    1.429    0.000    0.000    0.000    0.000 
#    0.000    0.000    0.000    0.000    0.000    0.000 
#
# Total GULP energy -173554.094874 kJ/mol
# GULP energy per Si atom -12396.721062 kJ/mol
# Density = 2.235486 g / cm^3
# Si number density = 22.405852 Si / 1000 Ang^3
#
#
#
# Elastic Constant Matrix: (Units=GPa)
#
#
# Indices 1 2 3 4 5 6 
#
# 1 164.8935 55.8308 64.5375 5.6008 -0.3583 -5.1154
# 2 55.8308 80.4932 57.2076 -2.7840 29.6436 2.6427
# 3 64.5375 57.2076 112.8082 -2.2663 6.8197 -3.4294
# 4 5.6008 -2.7840 -2.2663 54.8075 -9.3944 12.5565
# 5 -0.3583 29.6436 6.8197 -9.3944 30.6458 -0.6957
# 6 -5.1154 2.6427 -3.4294 12.5565 -0.6957 31.7492
#
#
#
# Elastic Compliance Matrix: (Units=1/GPa)
#
#
# Indices 1 2 3 4 5 6 
#
# 1 0.009960 -0.009594 -0.001342 -0.000530 0.009594 0.002678
# 2 -0.009594 0.045418 -0.015287 -0.002952 -0.041701 -0.006724
# 3 -0.001342 -0.015287 0.016794 0.001448 0.011536 0.002550
# 4 -0.000530 -0.002952 0.001448 0.021584 0.008961 -0.008023
# 5 0.009594 -0.041701 0.011536 0.008961 0.073358 0.004326
# 6 0.002678 -0.006724 0.002550 -0.008023 0.004326 0.036031
#
#
# Mechanical properties :
#
#
# Convention : Reuss Voigt Hill
#
# Bulk Modulus (GPa) = 50.69218 79.26073 64.97646
# Shear Modulus (GPa) = 19.07181 35.48178 27.27679
#
# Velocity S-wave (km/s) = 2.92069 3.98376 3.49291
# Velocity P-wave (km/s) = 5.83503 7.52411 6.73275
#
# Compressibility (1/GPa) = 0.01972691
#
# Stress axis : x y z
#
# Youngs Moduli (GPa) = 100.40057 22.01752 59.54553
#
# Poissons Ratio (x) = 0.21124 0.07991
# Poissons Ratio (y) = 0.96324 0.91025
# Poissons Ratio (z) = 0.13474 0.33658
#
# Static dielectric constant tensor:
#      x y z
#    x 10.066440 0.169180 0.543760 
#    y 0.169180 4.140320 -0.336790 
#    z 0.543760 -0.336790 4.199600 
# 
# 
# High freq. dielectric constant tensor:
#      x y z
#    x 1.880170 -0.007800 -0.002050 
#    y -0.007800 1.880690 -0.013920 
#    z -0.002050 -0.013920 1.882330 
# 
# From -- ./inp_files/590847.got.cif
#   From: 2010.06.25/outbox.cif.g09.slc.cpg/sg2_296_cif.got.tgz:590847.got - 2010.06.27 13:26:56.
