data_PCOD8020418
_publ_section_title
;
Structure prediction by ZEFSAII (Michael W. Deem and Ramdas Pophale) SiO2 
 PCOD8020418
Probable space group: P -1
;
_chemical_formula_sum "Si O2"
_cell_formula_units_Z 16
_cell_length_a 9.510579
_cell_length_b 12.179589
_cell_length_c 12.058477
_cell_angle_alpha 50.744597
_cell_angle_beta 135.446238
_cell_angle_gamma 124.001905
_cell_volume 743.581629
_symmetry_space_group_name_H-M "P -1"
_symmetry_group_IT_number 2
_symmetry_cell_setting 'triclinic'
loop_
_space_group_symop_operation_xyz
x,y,z
-x,-y,-z
loop_
_atom_site_type_symbol
_atom_site_label
_atom_site_fract_x
_atom_site_fract_y
_atom_site_fract_z
Si Si1 0.504439 0.785749 0.208213
Si Si2 0.799149 0.247371 0.327286
Si Si3 0.274871 0.025921 0.972951
Si Si4 0.679378 0.837128 0.866596
Si Si5 0.764222 0.497848 0.849043
Si Si6 0.715069 0.531128 0.046866
Si Si7 0.171914 0.213333 0.424766
Si Si8 0.150182 0.003349 0.349883
O O1 0.574735 0.844094 0.088322
O O2 0.349454 0.633152 0.206883
O O3 0.704304 0.778427 0.396590
O O4 0.383922 0.891459 0.136894
O O5 0.555850 0.204696 0.198042
O O6 0.855127 0.425376 0.249032
O O7 0.931887 0.199830 0.330687
O O8 0.847497 0.167285 0.519178
O O9 0.205078 0.073223 0.023443
O O10 0.072251 0.972273 0.822172
O O11 0.692158 0.932107 0.700518
O O12 0.797783 0.703495 0.998295
O O13 0.735903 0.642828 0.681492
O O14 0.663665 0.490184 0.917272
O O15 0.000000 0.500000 0.000000
O O16 0.500000 0.500000 0.000000
O O17 0.204630 0.080995 0.449872
#
# Coordination Sequence:
#
# PCOD8020418 Si02
#       8
#     2   2   2   2   2   2   2   2
#     4  11  25  42  67 103 135 170 225 280 336 394
#     4  11  23  40  68  99 131 179 221 275 334 394
#     4  11  25  42  69  98 134 179 222 279 334 399
#     4  11  24  44  67  96 136 180 229 269 335 396
#     4  12  23  42  71  98 131 175 226 279 333 397
#     4  10  22  42  68  92 131 180 221 266 333 400
#     4  12  24  42  68 101 136 177 222 279 335 398
#     4  12  24  43  70 101 137 176 226 277 336 397
#
# _framework density 21.517475999999998
#
# number of rings (size 3 to 8) (size 9 to 14) (size 15 to 20)
#    0.000    0.750    3.750    4.500    3.500    0.000 
#    0.000    0.625    2.750    0.000    0.000    0.000 
#    0.000    0.000    0.000    0.000    0.000    0.000 
#
# Total GULP energy -198343.719432 kJ/mol
# GULP energy per Si atom -12396.482464 kJ/mol
# Density = 2.146850 g / cm^3
# Si number density = 21.517476 Si / 1000 Ang^3
#
#
#
# Elastic Constant Matrix: (Units=GPa)
#
#
# Indices 1 2 3 4 5 6 
#
# 1 105.3327 39.3027 48.5511 -3.2784 -17.6988 -9.0893
# 2 39.3027 100.4155 50.8331 -9.5703 -9.7646 -11.5701
# 3 48.5511 50.8331 120.3958 -28.6423 -6.5519 -11.7644
# 4 -3.2784 -9.5703 -28.6423 42.0526 8.8416 -0.0934
# 5 -17.6988 -9.7646 -6.5519 8.8416 32.3149 3.2282
# 6 -9.0893 -11.5701 -11.7644 -0.0934 3.2282 34.9104
#
#
#
# Elastic Compliance Matrix: (Units=1/GPa)
#
#
# Indices 1 2 3 4 5 6 
#
# 1 0.013892 -0.002514 -0.005193 -0.004495 0.006988 0.000376
# 2 -0.002514 0.013619 -0.004566 -0.000570 0.001753 0.002157
# 3 -0.005193 -0.004566 0.014567 0.009339 -0.004070 0.002445
# 4 -0.004495 -0.000570 0.009339 0.031704 -0.009692 0.002769
# 5 0.006988 0.001753 -0.004070 -0.009692 0.037374 -0.002453
# 6 0.000376 0.002157 0.002445 0.002769 -0.002453 0.030515
#
#
# Mechanical properties :
#
#
# Convention : Reuss Voigt Hill
#
# Bulk Modulus (GPa) = 57.03785 67.05754 62.04769
# Shear Modulus (GPa) = 29.05946 34.35271 31.70609
#
# Velocity S-wave (km/s) = 3.67891 3.99996 3.84279
# Velocity P-wave (km/s) = 6.67915 7.25016 6.97050
#
# Compressibility (1/GPa) = 0.01753222
#
# Stress axis : x y z
#
# Youngs Moduli (GPa) = 71.98299 73.42937 68.64879
#
# Poissons Ratio (x) = 0.18461 0.35649
# Poissons Ratio (y) = 0.18097 0.31342
# Poissons Ratio (z) = 0.37380 0.33525
#
# Static dielectric constant tensor:
#      x y z
#    x 4.104720 -0.202520 0.041730 
#    y -0.202520 4.451940 -0.780030 
#    z 0.041730 -0.780030 4.163160 
# 
# 
# High freq. dielectric constant tensor:
#      x y z
#    x 1.857440 0.005230 -0.007350 
#    y 0.005230 1.831430 -0.025510 
#    z -0.007350 -0.025510 1.847860 
# 
# From -- ./inp_files/328841.got.cif
#   From: 2010.06.25/outbox.cif.g09.slc.cpg/sg2_165_cif.got.tgz:328841.got - 2010.06.27 13:26:56.
