data_PCOD8020152
_publ_section_title
;
Structure prediction by ZEFSAII (Michael W. Deem and Ramdas Pophale) SiO2 
 PCOD8020152
Probable space group: P -1
;
_chemical_formula_sum "Si O2"
_cell_formula_units_Z 16
_cell_length_a 15.067711
_cell_length_b 7.990869
_cell_length_c 12.732738
_cell_angle_alpha 113.037177
_cell_angle_beta 126.385330
_cell_angle_gamma 111.604425
_cell_volume 665.511717
_symmetry_space_group_name_H-M "P -1"
_symmetry_group_IT_number 2
_symmetry_cell_setting 'triclinic'
loop_
_space_group_symop_operation_xyz
x,y,z
-x,-y,-z
loop_
_atom_site_type_symbol
_atom_site_label
_atom_site_fract_x
_atom_site_fract_y
_atom_site_fract_z
Si Si1 0.106199 0.564194 0.357611
Si Si2 0.568600 0.957437 0.947183
Si Si3 0.346433 0.300801 0.981207
Si Si4 0.775467 0.880178 0.373143
Si Si5 0.849944 0.703853 0.995835
Si Si6 0.172983 0.317057 0.463556
Si Si7 0.393964 0.755643 0.457917
Si Si8 0.752588 0.222972 0.937279
O O1 0.094250 0.418505 0.417300
O O2 0.286866 0.749570 0.460280
O O3 0.112069 0.782117 0.450054
O O4 0.915009 0.288546 0.085818
O O5 0.688048 0.959112 0.086234
O O6 0.396431 0.627589 0.684344
O O7 0.692264 0.223516 0.010409
O O8 0.500000 0.000000 0.000000
O O9 0.564967 0.640337 0.205784
O O10 0.229030 0.191619 0.767522
O O11 0.265894 0.306329 0.021384
O O12 0.872352 0.842411 0.496211
O O13 0.761919 0.585377 0.787612
O O14 0.836338 0.489275 0.987078
O O15 0.070696 0.059508 0.237146
O O16 0.500000 0.000000 0.500000
O O17 0.564029 0.881158 0.669989
#
# Coordination Sequence:
#
# PCOD8020152 Si02
#       8
#     2   2   2   2   2   2   2   2
#     4  12  23  46  76 104 144 188 245 289 365 420
#     4  11  24  44  70 104 149 191 238 294 360 434
#     4  10  23  40  69  99 143 188 234 285 374 416
#     4  10  22  42  66 105 136 187 227 299 349 430
#     4  11  24  45  66 104 144 183 244 298 353 429
#     4  11  24  42  69 104 141 179 237 298 349 421
#     4  10  24  45  75 103 144 192 238 299 358 427
#     4  11  24  45  72 107 139 195 241 289 364 431
#
# _framework density 24.041649
#
# number of rings (size 3 to 8) (size 9 to 14) (size 15 to 20)
#    0.000    1.250    2.500    3.000    5.250    4.000 
#    4.500    3.750    0.000    0.000    0.000    0.000 
#    0.000    0.000    0.000    0.000    0.000    0.000 
#
# Total GULP energy -198213.107150 kJ/mol
# GULP energy per Si atom -12388.319197 kJ/mol
# Density = 2.398693 g / cm^3
# Si number density = 24.041649 Si / 1000 Ang^3
#
#
#
# Elastic Constant Matrix: (Units=GPa)
#
#
# Indices 1 2 3 4 5 6 
#
# 1 70.5242 19.7165 30.0469 -12.0437 4.8269 -6.8964
# 2 19.7165 121.3476 49.4215 -22.4911 0.8004 -26.4106
# 3 30.0469 49.4215 147.3702 -7.6125 13.0903 -5.2785
# 4 -12.0437 -22.4911 -7.6125 38.9828 -8.3283 9.6561
# 5 4.8269 0.8004 13.0903 -8.3283 33.8263 -0.8455
# 6 -6.8964 -26.4106 -5.2785 9.6561 -0.8455 29.8328
#
#
#
# Elastic Compliance Matrix: (Units=1/GPa)
#
#
# Indices 1 2 3 4 5 6 
#
# 1 0.016365 -0.000396 -0.002928 0.003793 -0.000217 0.001680
# 2 -0.000396 0.012699 -0.003843 0.004791 0.002648 0.008995
# 3 -0.002928 -0.003843 0.008811 -0.001597 -0.003347 -0.002098
# 4 0.003793 0.004791 -0.001597 0.032273 0.007774 -0.005390
# 5 -0.000217 0.002648 -0.003347 0.007774 0.032743 0.000114
# 6 0.001680 0.008995 -0.002098 -0.005390 0.000114 0.043248
#
#
# Mechanical properties :
#
#
# Convention : Reuss Voigt Hill
#
# Bulk Modulus (GPa) = 42.48277 59.73466 51.10871
# Shear Modulus (GPa) = 29.70532 36.53219 33.11875
#
# Velocity S-wave (km/s) = 3.51889 3.90235 3.71557
# Velocity P-wave (km/s) = 5.84970 6.72345 6.30173
#
# Compressibility (1/GPa) = 0.02353896
#
# Stress axis : x y z
#
# Youngs Moduli (GPa) = 61.10675 78.74869 113.49201
#
# Poissons Ratio (x) = 0.03120 0.33235
# Poissons Ratio (y) = 0.02421 0.43619
# Poissons Ratio (z) = 0.17894 0.30266
#
# Static dielectric constant tensor:
#      x y z
#    x 3.811080 0.038810 0.169930 
#    y 0.038810 4.633810 -0.190390 
#    z 0.169930 -0.190390 5.254040 
# 
# 
# High freq. dielectric constant tensor:
#      x y z
#    x 1.913820 0.008160 0.021110 
#    y 0.008160 1.958950 -0.010620 
#    z 0.021110 -0.010620 1.977790 
# 
# From -- ./inp_files/448086.got.cif
#   From: 2010.06.25/outbox.cif.g09.slc.cpg/sg2_225_cif.got.tgz:448086.got - 2010.06.27 13:26:56.
