data_PCOD8020987
_publ_section_title
;
Structure prediction by ZEFSAII (Michael W. Deem and Ramdas Pophale) SiO2 
 PCOD8020987
Probable space group: P -1
;
_chemical_formula_sum "Si O2"
_cell_formula_units_Z 14
_cell_length_a 23.040670
_cell_length_b 6.643668
_cell_length_c 6.137961
_cell_angle_alpha 108.849705
_cell_angle_beta 131.759006
_cell_angle_gamma 60.343497
_cell_volume 609.032436
_symmetry_space_group_name_H-M "P -1"
_symmetry_group_IT_number 2
_symmetry_cell_setting 'triclinic'
loop_
_space_group_symop_operation_xyz
x,y,z
-x,-y,-z
loop_
_atom_site_type_symbol
_atom_site_label
_atom_site_fract_x
_atom_site_fract_y
_atom_site_fract_z
Si Si1 0.808580 0.318003 0.166416
Si Si2 0.319952 0.859678 0.353026
Si Si3 0.108163 0.058070 0.407507
Si Si4 0.194579 0.301705 0.406663
Si Si5 0.561938 0.350277 0.785266
Si Si6 0.921014 0.329323 0.069725
Si Si7 0.487938 0.782290 0.984491
O O1 0.771025 0.526403 0.320534
O O2 0.876396 0.373284 0.209719
O O3 0.850176 0.073206 0.311709
O O4 0.736360 0.294966 0.820464
O O5 0.350272 0.826751 0.162199
O O6 0.401361 0.765005 0.677545
O O7 0.268112 0.128472 0.375595
O O8 0.168852 0.157319 0.472206
O O9 0.020586 0.270260 0.329047
O O10 0.090363 0.889695 0.136867
O O11 0.117021 0.448342 0.105406
O O12 0.500000 0.500000 0.500000
O O13 0.568179 0.547147 0.034394
O O14 0.520989 0.200028 0.769180
O O15 0.500000 0.000000 0.000000
#
# Coordination Sequence:
#
# PCOD8020987 Si02
#       7
#     2   2   2   2   2   2   2
#     4  11  25  41  64  97 132 176 223 271 337 375
#     4  11  25  43  66  99 141 166 212 279 323 393
#     4  10  22  43  66  93 134 174 231 276 318 394
#     4  11  25  41  64  99 129 178 226 266 335 386
#     4   9  22  45  67  97 131 165 209 267 319 387
#     4  10  22  43  66  94 132 178 226 279 322 383
#     4  10  23  45  72 100 126 172 220 256 326 403
#
# _framework density 22.987283000000001
#
# number of rings (size 3 to 8) (size 9 to 14) (size 15 to 20)
#    0.000    1.714    1.429    0.857    6.000    2.857 
#    5.143    0.000    0.000    0.000    0.000    0.000 
#    0.000    0.000    0.000    0.000    0.000    0.000 
#
# Total GULP energy -173515.538082 kJ/mol
# GULP energy per Si atom -12393.967006 kJ/mol
# Density = 2.293496 g / cm^3
# Si number density = 22.987283 Si / 1000 Ang^3
#
#
#
# Elastic Constant Matrix: (Units=GPa)
#
#
# Indices 1 2 3 4 5 6 
#
# 1 139.0616 60.1491 37.3003 -2.3731 -24.6921 -10.1923
# 2 60.1491 118.7834 32.0618 -0.6021 -10.2860 -5.2059
# 3 37.3003 32.0618 74.8842 -4.3785 -1.5236 2.6531
# 4 -2.3731 -0.6021 -4.3785 28.3995 4.4632 -18.7723
# 5 -24.6921 -10.2860 -1.5236 4.4632 36.3300 -3.8698
# 6 -10.1923 -5.2059 2.6531 -18.7723 -3.8698 52.8816
#
#
#
# Elastic Compliance Matrix: (Units=1/GPa)
#
#
# Indices 1 2 3 4 5 6 
#
# 1 0.011356 -0.004012 -0.003840 0.001134 0.006588 0.002871
# 2 -0.004012 0.011273 -0.002853 -0.000347 0.000429 0.000388
# 3 -0.003840 -0.002853 0.016576 0.001680 -0.003087 -0.001482
# 4 0.001134 -0.000347 0.001680 0.047011 -0.003270 0.016549
# 5 0.006588 0.000429 -0.003087 -0.003270 0.032684 0.002698
# 6 0.002871 0.000388 -0.001482 0.016549 0.002698 0.025648
#
#
# Mechanical properties :
#
#
# Convention : Reuss Voigt Hill
#
# Bulk Modulus (GPa) = 56.19797 65.75019 60.97408
# Shear Modulus (GPa) = 29.08820 37.07010 33.07915
#
# Velocity S-wave (km/s) = 3.56111 4.02012 3.79756
# Velocity P-wave (km/s) = 6.43500 7.08614 6.76840
#
# Compressibility (1/GPa) = 0.01779424
#
# Stress axis : x y z
#
# Youngs Moduli (GPa) = 88.06026 88.70936 60.32679
#
# Poissons Ratio (x) = 0.35588 0.23166
# Poissons Ratio (y) = 0.35328 0.17214
# Poissons Ratio (z) = 0.33816 0.25313
#
# Static dielectric constant tensor:
#      x y z
#    x 4.688210 -0.456060 -0.379030 
#    y -0.456060 4.246560 0.101360 
#    z -0.379030 0.101360 4.109670 
# 
# 
# High freq. dielectric constant tensor:
#      x y z
#    x 1.912050 -0.010660 -0.021210 
#    y -0.010660 1.911990 0.001880 
#    z -0.021210 0.001880 1.896530 
# 
# From -- ./inp_files/7934.got.cif
#   From: 2010.06.25/outbox.cif.g09.slc.cpg/sg2_4_cif.got.tgz:7934.got - 2010.06.27 13:26:56.
