data_PCOD8020188
_publ_section_title
;
Structure prediction by ZEFSAII (Michael W. Deem and Ramdas Pophale) SiO2 
 PCOD8020188
Probable space group: P -1
;
_chemical_formula_sum "Si O2"
_cell_formula_units_Z 16
_cell_length_a 23.455306
_cell_length_b 13.052454
_cell_length_c 5.546622
_cell_angle_alpha 118.661120
_cell_angle_beta 107.795694
_cell_angle_gamma 28.400215
_cell_volume 680.636963
_symmetry_space_group_name_H-M "P -1"
_symmetry_group_IT_number 2
_symmetry_cell_setting 'triclinic'
loop_
_space_group_symop_operation_xyz
x,y,z
-x,-y,-z
loop_
_atom_site_type_symbol
_atom_site_label
_atom_site_fract_x
_atom_site_fract_y
_atom_site_fract_z
Si Si1 0.042130 0.518646 0.269885
Si Si2 0.011385 0.134916 0.432208
Si Si3 0.182342 0.707249 0.530753
Si Si4 0.385782 0.953589 0.608211
Si Si5 0.247465 0.779934 0.039596
Si Si6 0.470930 0.291675 0.971039
Si Si7 0.803025 0.880880 0.654283
Si Si8 0.378455 0.226039 0.941463
O O1 0.175720 0.246898 0.242899
O O2 0.052460 0.632423 0.309428
O O3 0.936877 0.698904 0.541445
O O4 0.000000 0.500000 0.000000
O O5 0.898903 0.238300 0.335303
O O6 0.086196 0.955487 0.550381
O O7 0.105606 0.993979 0.175058
O O8 0.263539 0.483988 0.217357
O O9 0.276788 0.633050 0.706527
O O10 0.456389 0.793124 0.271933
O O11 0.269038 0.064042 0.591707
O O12 0.457892 0.817290 0.802619
O O13 0.336080 0.170370 0.737159
O O14 0.266901 0.879820 0.085561
O O15 0.348296 0.584585 0.162412
O O16 0.423575 0.238735 0.805824
O O17 0.500000 0.000000 0.000000
#
# Coordination Sequence:
#
# PCOD8020188 Si02
#       8
#     2   2   2   2   2   2   2   2
#     4  10  22  42  66  93 135 178 225 282 350 404
#     4  10  23  39  65 101 132 180 229 291 339 416
#     4  11  22  41  66 101 136 177 233 284 348 413
#     4  11  26  45  69 104 136 182 238 281 343 416
#     4  11  22  43  66  94 139 178 227 283 355 401
#     4  11  24  44  70  99 140 180 230 288 347 409
#     4  10  25  42  64  99 131 180 229 287 339 417
#     4  10  22  42  67  98 136 179 227 284 349 407
#
# _framework density 23.507390999999998
#
# number of rings (size 3 to 8) (size 9 to 14) (size 15 to 20)
#    0.000    1.500    1.250    3.000    3.500    4.000 
#    4.500    0.000    0.000    0.000    0.000    0.000 
#    0.000    0.000    0.000    0.000    0.000    0.000 
#
# Total GULP energy -198225.035667 kJ/mol
# GULP energy per Si atom -12389.064729 kJ/mol
# Density = 2.345389 g / cm^3
# Si number density = 23.507391 Si / 1000 Ang^3
#
#
#
# Elastic Constant Matrix: (Units=GPa)
#
#
# Indices 1 2 3 4 5 6 
#
# 1 102.7224 56.1743 33.8688 5.9890 31.8746 11.4921
# 2 56.1743 145.7160 45.2136 6.5716 27.1387 20.7930
# 3 33.8688 45.2136 88.0661 -8.9212 25.7005 8.1670
# 4 5.9890 6.5716 -8.9212 30.4514 7.0380 11.5291
# 5 31.8746 27.1387 25.7005 7.0380 48.1634 0.9929
# 6 11.4921 20.7930 8.1670 11.5291 0.9929 29.0115
#
#
#
# Elastic Compliance Matrix: (Units=1/GPa)
#
#
# Indices 1 2 3 4 5 6 
#
# 1 0.014556 -0.003488 -0.001604 -0.000049 -0.006752 -0.002564
# 2 -0.003488 0.010149 -0.002901 -0.000060 -0.001750 -0.004992
# 3 -0.001604 -0.002901 0.017338 0.010083 -0.007907 -0.005902
# 4 -0.000049 -0.000060 0.010083 0.046392 -0.011665 -0.020813
# 5 -0.006752 -0.001750 -0.007907 -0.011665 0.031941 0.009697
# 6 -0.002564 -0.004992 -0.005902 -0.020813 0.009697 0.048663
#
#
# Mechanical properties :
#
#
# Convention : Reuss Voigt Hill
#
# Bulk Modulus (GPa) = 38.37907 67.44645 52.91276
# Shear Modulus (GPa) = 25.81173 34.94178 30.37676
#
# Velocity S-wave (km/s) = 3.31724 3.85959 3.59865
# Velocity P-wave (km/s) = 5.57081 6.97250 6.31070
#
# Compressibility (1/GPa) = 0.02605587
#
# Stress axis : x y z
#
# Youngs Moduli (GPa) = 68.69941 98.53668 57.67734
#
# Poissons Ratio (x) = 0.34372 0.09251
# Poissons Ratio (y) = 0.23964 0.16733
# Poissons Ratio (z) = 0.11019 0.28587
#
# Static dielectric constant tensor:
#      x y z
#    x 4.848490 -0.024320 -0.104950 
#    y -0.024320 4.871730 0.854250 
#    z -0.104950 0.854250 4.797220 
# 
# 
# High freq. dielectric constant tensor:
#      x y z
#    x 1.936010 0.007600 0.014160 
#    y 0.007600 1.939810 0.015560 
#    z 0.014160 0.015560 1.907820 
# 
# From -- ./inp_files/77221.got.cif
#   From: 2010.06.25/outbox.cif.g09.slc.cpg/sg2_39_cif.got.tgz:77221.got - 2010.06.27 13:26:56.
