data_PCOD8020053
_publ_section_title
;
Structure prediction by ZEFSAII (Michael W. Deem and Ramdas Pophale) SiO2 
 PCOD8020053
Probable space group: P -1
;
_chemical_formula_sum "Si O2"
_cell_formula_units_Z 14
_cell_length_a 10.507722
_cell_length_b 10.674061
_cell_length_c 11.222057
_cell_angle_alpha 79.960487
_cell_angle_beta 53.559794
_cell_angle_gamma 121.677094
_cell_volume 606.617685
_symmetry_space_group_name_H-M "P -1"
_symmetry_group_IT_number 2
_symmetry_cell_setting 'triclinic'
loop_
_space_group_symop_operation_xyz
x,y,z
-x,-y,-z
loop_
_atom_site_type_symbol
_atom_site_label
_atom_site_fract_x
_atom_site_fract_y
_atom_site_fract_z
Si Si1 0.781457 0.255280 0.169385
Si Si2 0.748236 0.990430 0.392024
Si Si3 0.853593 0.146457 0.687647
Si Si4 0.698451 0.812125 0.220423
Si Si5 0.247537 0.196676 0.207505
Si Si6 0.592325 0.492490 0.758915
Si Si7 0.642508 0.014735 0.072070
O O1 0.840641 0.177290 0.240569
O O2 0.500150 0.136913 0.369054
O O3 0.788550 0.207918 0.040591
O O4 0.000000 0.500000 0.000000
O O5 0.988171 0.103294 0.322897
O O6 0.660338 0.818080 0.380823
O O7 0.632050 0.106546 0.795801
O O8 0.120456 0.376410 0.452480
O O9 0.816073 0.983401 0.675584
O O10 0.852048 0.119846 0.834727
O O11 0.563566 0.601855 0.267305
O O12 0.565480 0.840145 0.215663
O O13 0.000000 0.000000 0.000000
O O14 0.386831 0.356151 0.214808
O O15 0.447169 0.309251 0.966065
#
# Coordination Sequence:
#
# PCOD8020053 Si02
#       7
#     2   2   2   2   2   2   2
#     4  10  23  40  62  94 123 172 212 252 313 384
#     4  10  22  42  65  87 134 165 204 269 314 360
#     4  11  23  43  63  94 130 164 208 266 311 375
#     4  11  21  45  65  94 131 164 208 267 310 380
#     4  11  23  44  63  98 127 162 214 268 304 381
#     4  11  24  38  70  96 119 175 211 250 328 369
#     4  10  23  43  61  91 134 160 206 270 309 364
#
# _framework density 23.078787999999999
#
# number of rings (size 3 to 8) (size 9 to 14) (size 15 to 20)
#    0.000    1.429    2.857    1.286    2.000    4.000 
#    0.000    1.429    0.000    0.000    0.000    0.000 
#    0.000    0.000    0.000    0.000    0.000    0.000 
#
# Total GULP energy -173506.855625 kJ/mol
# GULP energy per Si atom -12393.346830 kJ/mol
# Density = 2.302626 g / cm^3
# Si number density = 23.078788 Si / 1000 Ang^3
#
#
#
# Elastic Constant Matrix: (Units=GPa)
#
#
# Indices 1 2 3 4 5 6 
#
# 1 44.2738 25.0559 32.3942 -1.6613 -14.8785 0.8540
# 2 25.0559 154.0493 27.6981 -1.5099 -0.1092 18.4693
# 3 32.3942 27.6981 118.0729 -20.8827 -8.0532 -8.5885
# 4 -1.6613 -1.5099 -20.8827 33.0172 0.0205 -2.9434
# 5 -14.8785 -0.1092 -8.0532 0.0205 26.9839 4.1106
# 6 0.8540 18.4693 -8.5885 -2.9434 4.1106 20.2057
#
#
#
# Elastic Compliance Matrix: (Units=1/GPa)
#
#
# Indices 1 2 3 4 5 6 
#
# 1 0.038152 -0.003654 -0.009700 -0.005022 0.019202 -0.007034
# 2 -0.003654 0.008433 -0.001995 -0.001808 -0.001295 -0.008402
# 3 -0.009700 -0.001995 0.013722 0.008987 -0.002783 0.009941
# 4 -0.005022 -0.001808 0.008987 0.036654 -0.001859 0.011403
# 5 0.019202 -0.001295 -0.002783 -0.001859 0.048480 -0.010944
# 6 -0.007034 -0.008402 0.009941 0.011403 -0.010944 0.065582
#
#
# Mechanical properties :
#
#
# Convention : Reuss Voigt Hill
#
# Bulk Modulus (GPa) = 33.77398 54.07693 43.92545
# Shear Modulus (GPa) = 19.87364 31.45789 25.66576
#
# Velocity S-wave (km/s) = 2.93767 3.69598 3.33842
# Velocity P-wave (km/s) = 5.11591 6.45724 5.82531
#
# Compressibility (1/GPa) = 0.02960860
#
# Stress axis : x y z
#
# Youngs Moduli (GPa) = 26.21089 118.58023 72.87781
#
# Poissons Ratio (x) = 0.43324 0.70694
# Poissons Ratio (y) = 0.09576 0.14540
# Poissons Ratio (z) = 0.25426 0.23659
#
# Static dielectric constant tensor:
#      x y z
#    x 4.092750 0.128900 0.149690 
#    y 0.128900 4.707080 0.344030 
#    z 0.149690 0.344030 4.343180 
# 
# 
# High freq. dielectric constant tensor:
#      x y z
#    x 1.890450 0.008100 -0.005690 
#    y 0.008100 1.931360 0.018620 
#    z -0.005690 0.018620 1.917990 
# 
# From -- ./inp_files/425919.got.cif
#   From: 2010.06.25/outbox.cif.g09.slc.cpg/sg2_213_cif.got.tgz:425919.got - 2010.06.27 13:26:56.
