data_PCOD8020845
_publ_section_title
;
Structure prediction by ZEFSAII (Michael W. Deem and Ramdas Pophale) SiO2 
 PCOD8020845
Probable space group: P -1
;
_chemical_formula_sum "Si O2"
_cell_formula_units_Z 12
_cell_length_a 10.118723
_cell_length_b 9.617295
_cell_length_c 8.752739
_cell_angle_alpha 45.173696
_cell_angle_beta 95.065284
_cell_angle_gamma 113.805736
_cell_volume 526.831925
_symmetry_space_group_name_H-M "P -1"
_symmetry_group_IT_number 2
_symmetry_cell_setting 'triclinic'
loop_
_space_group_symop_operation_xyz
x,y,z
-x,-y,-z
loop_
_atom_site_type_symbol
_atom_site_label
_atom_site_fract_x
_atom_site_fract_y
_atom_site_fract_z
Si Si1 0.742267 0.450216 0.859419
Si Si2 0.990034 0.222910 0.846499
Si Si3 0.461643 0.045446 0.293722
Si Si4 0.217326 0.116769 0.353515
Si Si5 0.022307 0.754688 0.832437
Si Si6 0.230176 0.647674 0.406908
O O1 0.703562 0.652093 0.720538
O O2 0.900136 0.512457 0.925957
O O3 0.756119 0.434789 0.693828
O O4 0.610823 0.222209 0.087428
O O5 0.157019 0.433678 0.676907
O O6 0.876489 0.234440 0.700422
O O7 0.926943 0.250470 0.984220
O O8 0.000000 0.000000 0.000000
O O9 0.336895 0.128139 0.231582
O O10 0.500000 0.000000 0.500000
O O11 0.392875 0.820559 0.358964
O O12 0.068605 0.101747 0.268897
O O13 0.167096 0.899481 0.626497
#
# Coordination Sequence:
#
# PCOD8020845 Si02
#       6
#     2   2   2   2   2   2
#     4  10  22  43  64  91 134 170 211 272 326 379
#     4  11  23  41  69 101 132 170 216 274 334 378
#     4  12  25  42  63  93 135 176 217 262 335 389
#     4   9  21  41  70  96 127 170 224 268 316 397
#     4   9  20  39  73  94 123 168 220 264 331 373
#     4  11  26  41  65 100 135 165 225 275 313 397
#
# _framework density 22.777664000000001
#
# number of rings (size 3 to 8) (size 9 to 14) (size 15 to 20)
#    1.000    0.667    0.000    4.000    7.000    0.667 
#    3.000    0.833    0.000    0.000    0.000    0.000 
#    0.000    0.000    0.000    0.000    0.000    0.000 
#
# Total GULP energy -148803.020869 kJ/mol
# GULP energy per Si atom -12400.251739 kJ/mol
# Density = 2.272582 g / cm^3
# Si number density = 22.777664 Si / 1000 Ang^3
#
#
#
# Elastic Constant Matrix: (Units=GPa)
#
#
# Indices 1 2 3 4 5 6 
#
# 1 36.4151 6.2443 1.1850 -8.6114 -3.2105 3.2536
# 2 6.2443 127.5750 39.5031 -13.2806 2.6553 13.1381
# 3 1.1850 39.5031 126.7985 -23.4232 -18.1766 19.0774
# 4 -8.6114 -13.2806 -23.4232 44.0237 0.7689 -2.8786
# 5 -3.2105 2.6553 -18.1766 0.7689 33.2858 -5.9712
# 6 3.2536 13.1381 19.0774 -2.8786 -5.9712 34.1516
#
#
#
# Elastic Compliance Matrix: (Units=1/GPa)
#
#
# Indices 1 2 3 4 5 6 
#
# 1 0.029639 -0.001291 0.002167 0.006343 0.003572 -0.002378
# 2 -0.001291 0.009133 -0.002709 0.000961 -0.002763 -0.002279
# 3 0.002167 -0.002709 0.011058 0.005135 0.005641 -0.003922
# 4 0.006343 0.000961 0.005135 0.026859 0.002515 -0.001139
# 5 0.003572 -0.002763 0.005641 0.002515 0.034309 0.003782
# 6 -0.002378 -0.002279 -0.003922 -0.001139 0.003782 0.033141
#
#
# Mechanical properties :
#
#
# Convention : Reuss Voigt Hill
#
# Bulk Modulus (GPa) = 21.66198 42.73927 32.20062
# Shear Modulus (GPa) = 30.63870 38.54931 34.59401
#
# Velocity S-wave (km/s) = 3.67157 4.11836 3.90137
# Velocity P-wave (km/s) = 5.24449 6.43576 5.87042
#
# Compressibility (1/GPa) = 0.04616383
#
# Stress axis : x y z
#
# Youngs Moduli (GPa) = 33.73888 109.49589 90.43611
#
# Poissons Ratio (x) = 0.14133 -0.19595
# Poissons Ratio (y) = 0.04355 0.24499
# Poissons Ratio (z) = -0.07310 0.29662
#
# Static dielectric constant tensor:
#      x y z
#    x 4.149170 -0.050250 -0.004620 
#    y -0.050250 4.034450 -0.029450 
#    z -0.004620 -0.029450 4.267680 
# 
# 
# High freq. dielectric constant tensor:
#      x y z
#    x 1.893190 -0.013560 0.004520 
#    y -0.013560 1.907540 -0.005990 
#    z 0.004520 -0.005990 1.907560 
# 
# From -- ./inp_files/199139.got.cif
#   From: 2010.06.25/outbox.cif.g09.slc.cpg/sg2_100_cif.got.tgz:199139.got - 2010.06.27 13:26:56.
