data_PCOD8020984
_publ_section_title
;
Structure prediction by ZEFSAII (Michael W. Deem and Ramdas Pophale) SiO2 
 PCOD8020984
Probable space group: P -1
;
_chemical_formula_sum "Si O2"
_cell_formula_units_Z 10
_cell_length_a 13.985633
_cell_length_b 11.829709
_cell_length_c 8.095867
_cell_angle_alpha 67.611844
_cell_angle_beta 114.602031
_cell_angle_gamma 158.564384
_cell_volume 444.976424
_symmetry_space_group_name_H-M "P -1"
_symmetry_group_IT_number 2
_symmetry_cell_setting 'triclinic'
loop_
_space_group_symop_operation_xyz
x,y,z
-x,-y,-z
loop_
_atom_site_type_symbol
_atom_site_label
_atom_site_fract_x
_atom_site_fract_y
_atom_site_fract_z
Si Si1 0.155467 0.786995 0.500797
Si Si2 0.529988 0.157752 0.841910
Si Si3 0.059825 0.811957 0.737099
Si Si4 0.152747 0.146151 0.778127
Si Si5 0.272305 0.141938 0.201193
O O1 0.989551 0.691457 0.568105
O O2 0.000000 0.500000 0.500000
O O3 0.430542 0.038743 0.646410
O O4 0.213224 0.934635 0.301723
O O5 0.834476 0.525271 0.861350
O O6 0.346117 0.061188 0.858645
O O7 0.500000 0.000000 0.000000
O O8 0.075577 0.976716 0.661699
O O9 0.418016 0.505481 0.729155
O O10 0.206665 0.107242 0.986662
O O11 0.906965 0.970824 0.739478
#
# Coordination Sequence:
#
# PCOD8020984 Si02
#       5
#     2   2   2   2   2
#     4  10  26  43  64  99 130 168 212 268 314 376
#     4  10  23  41  62  96 127 172 212 253 321 375
#     4  10  23  41  65  95 122 173 209 263 318 372
#     4  10  22  43  66  93 127 170 210 260 319 381
#     4  10  23  41  65  95 128 166 212 262 317 374
#
# _framework density 22.473101
#
# number of rings (size 3 to 8) (size 9 to 14) (size 15 to 20)
#    1.200    0.800    0.000    1.800    5.600    2.400 
#    0.000    0.000    0.000    0.000    0.000    0.000 
#    0.000    0.000    0.000    0.000    0.000    0.000 
#
# Total GULP energy -123944.477709 kJ/mol
# GULP energy per Si atom -12394.447771 kJ/mol
# Density = 2.242195 g / cm^3
# Si number density = 22.473101 Si / 1000 Ang^3
#
#
#
# Elastic Constant Matrix: (Units=GPa)
#
#
# Indices 1 2 3 4 5 6 
#
# 1 105.7729 55.9408 23.2043 -12.3487 -8.3668 -7.8822
# 2 55.9408 143.6924 24.4322 -34.8424 -8.2122 1.4380
# 3 23.2043 24.4322 60.7979 -24.4894 19.4184 -10.9404
# 4 -12.3487 -34.8424 -24.4894 35.1154 -13.0319 2.6670
# 5 -8.3668 -8.2122 19.4184 -13.0319 30.2254 -3.0932
# 6 -7.8822 1.4380 -10.9404 2.6670 -3.0932 58.9172
#
#
#
# Elastic Compliance Matrix: (Units=1/GPa)
#
#
# Indices 1 2 3 4 5 6 
#
# 1 0.013282 -0.004284 -0.005475 -0.001436 0.005535 0.001221
# 2 -0.004284 0.012583 -0.000881 0.013630 0.008551 -0.001212
# 3 -0.005475 -0.000881 0.028950 0.011560 -0.015027 0.003353
# 4 -0.001436 0.013630 0.011560 0.057172 0.020541 0.000112
# 5 0.005535 0.008551 -0.015027 0.020541 0.055422 -0.000279
# 6 0.001221 -0.001212 0.003353 0.000112 -0.000279 0.017769
#
#
# Mechanical properties :
#
#
# Convention : Reuss Voigt Hill
#
# Bulk Modulus (GPa) = 29.81838 57.49088 43.65463
# Shear Modulus (GPa) = 22.97423 38.63065 30.80244
#
# Velocity S-wave (km/s) = 3.20081 4.15055 3.70623
# Velocity P-wave (km/s) = 5.19206 6.97187 6.14673
#
# Compressibility (1/GPa) = 0.03353636
#
# Stress axis : x y z
#
# Youngs Moduli (GPa) = 75.28905 79.47491 34.54209
#
# Poissons Ratio (x) = 0.34048 0.18910
# Poissons Ratio (y) = 0.32255 0.03041
# Poissons Ratio (z) = 0.41218 0.06998
#
# Static dielectric constant tensor:
#      x y z
#    x 3.978020 0.105340 0.031780 
#    y 0.105340 4.065470 -0.061340 
#    z 0.031780 -0.061340 3.839740 
# 
# 
# High freq. dielectric constant tensor:
#      x y z
#    x 1.883920 0.003540 0.009340 
#    y 0.003540 1.888340 -0.013120 
#    z 0.009340 -0.013120 1.873630 
# 
# From -- ./inp_files/17929.got.cif
#   From: 2010.06.25/outbox.cif.g09.slc.cpg/sg2_9_cif.got.tgz:17929.got - 2010.06.27 13:26:56.
