data_PCOD8020021
_publ_section_title
;
Structure prediction by ZEFSAII (Michael W. Deem and Ramdas Pophale) SiO2 
 PCOD8020021
Probable space group: P -1
;
_chemical_formula_sum "Si O2"
_cell_formula_units_Z 16
_cell_length_a 17.309822
_cell_length_b 25.837149
_cell_length_c 14.237089
_cell_angle_alpha 157.198591
_cell_angle_beta 22.221548
_cell_angle_gamma 160.179078
_cell_volume 749.264892
_symmetry_space_group_name_H-M "P -1"
_symmetry_group_IT_number 2
_symmetry_cell_setting 'triclinic'
loop_
_space_group_symop_operation_xyz
x,y,z
-x,-y,-z
loop_
_atom_site_type_symbol
_atom_site_label
_atom_site_fract_x
_atom_site_fract_y
_atom_site_fract_z
Si Si1 0.025766 0.609591 0.310851
Si Si2 0.640182 0.990984 0.636779
Si Si3 0.557063 0.253135 0.192559
Si Si4 0.328712 0.200860 0.556553
Si Si5 0.517189 0.662099 0.771470
Si Si6 0.130936 0.496666 0.488849
Si Si7 0.052288 0.725628 0.850157
Si Si8 0.994523 0.889426 0.739514
O O1 0.756219 0.450344 0.311931
O O2 0.036092 0.609438 0.411462
O O3 0.071447 0.777881 0.509177
O O4 0.240642 0.600394 0.010935
O O5 0.706067 0.940587 0.574429
O O6 0.345321 0.866166 0.732178
O O7 0.802834 0.991799 0.370180
O O8 0.710781 0.173891 0.877451
O O9 0.365371 0.165560 0.349498
O O10 0.400244 0.227277 0.231506
O O11 0.570378 0.381798 0.620573
O O12 0.076074 0.191722 0.826572
O O13 0.500000 0.500000 0.500000
O O14 0.714558 0.775224 0.819760
O O15 0.025566 0.598715 0.744683
O O16 0.093698 0.370172 0.240630
O O17 0.000000 0.000000 0.000000
#
# Coordination Sequence:
#
# PCOD8020021 Si02
#       8
#     2   2   2   2   2   2   2   2
#     4  11  24  45  70  98 135 176 230 286 331 403
#     4  11  25  44  63  97 140 173 217 283 335 396
#     4  11  23  46  68  98 136 172 230 283 331 400
#     4  10  23  41  67  98 129 175 222 276 334 398
#     4  12  25  44  72  99 131 186 225 277 342 399
#     4   9  22  40  66  95 132 170 223 276 330 396
#     4  10  22  42  64  97 131 179 217 274 336 402
#     4  12  29  46  68 103 139 179 229 279 340 406
#
# _framework density 21.354265000000002
#
# number of rings (size 3 to 8) (size 9 to 14) (size 15 to 20)
#    0.000    1.250    2.500    1.875    7.000    1.000 
#    4.500    0.000    0.000    0.000    0.000    0.000 
#    0.000    0.000    0.000    0.000    0.000    0.000 
#
# Total GULP energy -198499.747875 kJ/mol
# GULP energy per Si atom -12406.234242 kJ/mol
# Density = 2.130566 g / cm^3
# Si number density = 21.354265 Si / 1000 Ang^3
#
#
#
# Elastic Constant Matrix: (Units=GPa)
#
#
# Indices 1 2 3 4 5 6 
#
# 1 128.9902 40.6516 43.0123 -6.2602 7.5846 -21.1203
# 2 40.6516 67.1258 34.0928 3.3318 2.2098 -15.0069
# 3 43.0123 34.0928 130.5836 -6.8900 0.5678 -12.6354
# 4 -6.2602 3.3318 -6.8900 22.1028 -2.6926 4.7270
# 5 7.5846 2.2098 0.5678 -2.6926 33.7738 -0.4713
# 6 -21.1203 -15.0069 -12.6354 4.7270 -0.4713 42.4450
#
#
#
# Elastic Compliance Matrix: (Units=1/GPa)
#
#
# Indices 1 2 3 4 5 6 
#
# 1 0.010573 -0.004948 -0.001797 0.002387 -0.001793 0.002691
# 2 -0.004948 0.021245 -0.003825 -0.006880 -0.000698 0.004669
# 3 -0.001797 -0.003825 0.009428 0.003048 0.000741 0.000229
# 4 0.002387 -0.006880 0.003048 0.049606 0.003737 -0.005821
# 5 -0.001793 -0.000698 0.000741 0.003737 0.030329 -0.000997
# 6 0.002691 0.004669 0.000229 -0.005821 -0.000997 0.027255
#
#
# Mechanical properties :
#
#
# Convention : Reuss Voigt Hill
#
# Bulk Modulus (GPa) = 49.73554 62.46810 56.10182
# Shear Modulus (GPa) = 28.36431 33.59385 30.97908
#
# Velocity S-wave (km/s) = 3.64850 3.97062 3.81297
# Velocity P-wave (km/s) = 6.41015 7.09492 6.76121
#
# Compressibility (1/GPa) = 0.02010635
#
# Stress axis : x y z
#
# Youngs Moduli (GPa) = 94.58121 47.06964 106.06628
#
# Poissons Ratio (x) = 0.23292 0.19055
# Poissons Ratio (y) = 0.46803 0.40570
# Poissons Ratio (z) = 0.16992 0.18004
#
# Static dielectric constant tensor:
#      x y z
#    x 4.130280 -0.172260 0.030160 
#    y -0.172260 3.895830 0.001420 
#    z 0.030160 0.001420 3.785380 
# 
# 
# High freq. dielectric constant tensor:
#      x y z
#    x 1.853450 -0.008680 -0.000370 
#    y -0.008680 1.836480 0.000050 
#    z -0.000370 0.000050 1.840620 
# 
# From -- ./inp_files/519990.got.cif
#   From: 2010.06.25/outbox.cif.g09.slc.cpg/sg2_260_cif.got.tgz:519990.got - 2010.06.27 13:26:56.
