data_PCOD8020577
_publ_section_title
;
Structure prediction by ZEFSAII (Michael W. Deem and Ramdas Pophale) SiO2 
 PCOD8020577
Probable space group: P -1
;
_chemical_formula_sum "Si O2"
_cell_formula_units_Z 16
_cell_length_a 11.859547
_cell_length_b 15.494845
_cell_length_c 9.605957
_cell_angle_alpha 120.810245
_cell_angle_beta 43.161297
_cell_angle_gamma 140.746061
_cell_volume 758.384375
_symmetry_space_group_name_H-M "P -1"
_symmetry_group_IT_number 2
_symmetry_cell_setting 'triclinic'
loop_
_space_group_symop_operation_xyz
x,y,z
-x,-y,-z
loop_
_atom_site_type_symbol
_atom_site_label
_atom_site_fract_x
_atom_site_fract_y
_atom_site_fract_z
Si Si1 0.741040 0.611121 0.440293
Si Si2 0.255092 0.518008 0.149837
Si Si3 0.170217 0.526052 0.538298
Si Si4 0.253396 0.239234 0.198133
Si Si5 0.895471 0.019256 0.983435
Si Si6 0.781938 0.096831 0.384637
Si Si7 0.961360 0.728579 0.053472
Si Si8 0.370576 0.819187 0.608814
O O1 0.500000 0.500000 0.500000
O O2 0.799842 0.538030 0.416068
O O3 0.739072 0.712564 0.614902
O O4 0.920565 0.693222 0.223219
O O5 0.211247 0.480474 0.321839
O O6 0.083412 0.535058 0.271589
O O7 0.516605 0.651377 0.003314
O O8 0.210221 0.400052 0.001387
O O9 0.358456 0.692930 0.515587
O O10 0.042137 0.203256 0.280409
O O11 0.216551 0.103430 0.127289
O O12 0.066183 0.163479 0.864979
O O13 0.725890 0.021711 0.221472
O O14 0.000000 0.000000 0.000000
O O15 0.716474 0.183659 0.471957
O O16 0.623065 0.969833 0.531817
O O17 0.213692 0.793654 0.853821
#
# Coordination Sequence:
#
# PCOD8020577 Si02
#       8
#     2   2   2   2   2   2   2   2
#     4  12  27  44  61  96 141 179 212 269 331 399
#     4  10  22  42  70 101 125 167 227 281 322 380
#     4  10  24  40  69  98 129 171 228 270 330 391
#     4  11  23  40  66  99 131 173 217 272 327 388
#     4   9  20  37  65  93 126 162 216 272 322 378
#     4   9  19  37  66 101 133 161 214 284 332 376
#     4  10  22  43  62  91 135 175 210 267 333 387
#     4   9  19  39  65  95 134 169 215 272 336 379
#
# _framework density 21.097480999999998
#
# number of rings (size 3 to 8) (size 9 to 14) (size 15 to 20)
#    0.000    2.000    1.250    0.750    8.750    8.000 
#    0.000    0.625    0.000    0.000    0.000    0.000 
#    0.000    0.000    0.000    0.000    0.000    0.000 
#
# Total GULP energy -198212.801517 kJ/mol
# GULP energy per Si atom -12388.300095 kJ/mol
# Density = 2.104946 g / cm^3
# Si number density = 21.097481 Si / 1000 Ang^3
#
#
#
# Elastic Constant Matrix: (Units=GPa)
#
#
# Indices 1 2 3 4 5 6 
#
# 1 106.0986 58.4096 51.8657 -14.3816 12.1788 -4.8098
# 2 58.4096 157.9607 69.4807 2.5566 12.8277 -6.6575
# 3 51.8657 69.4807 126.0269 -11.9929 17.5203 6.8848
# 4 -14.3816 2.5566 -11.9929 40.2124 8.3729 0.3174
# 5 12.1788 12.8277 17.5203 8.3729 33.1822 -13.8848
# 6 -4.8098 -6.6575 6.8848 0.3174 -13.8848 35.9937
#
#
#
# Elastic Compliance Matrix: (Units=1/GPa)
#
#
# Indices 1 2 3 4 5 6 
#
# 1 0.013910 -0.003737 -0.002732 0.005094 -0.003357 0.000350
# 2 -0.003737 0.009802 -0.004745 -0.003900 0.002404 0.003183
# 3 -0.002732 -0.004745 0.013824 0.005358 -0.008897 -0.007366
# 4 0.005094 -0.003900 0.005358 0.031494 -0.013952 -0.006725
# 5 -0.003357 0.002404 -0.008897 -0.013952 0.047007 0.019954
# 6 0.000350 0.003183 -0.007366 -0.006725 0.019954 0.037584
#
#
# Mechanical properties :
#
#
# Convention : Reuss Voigt Hill
#
# Bulk Modulus (GPa) = 66.19194 83.28869 74.74031
# Shear Modulus (GPa) = 27.61150 35.89969 31.75559
#
# Velocity S-wave (km/s) = 3.62160 4.12953 3.88388
# Velocity P-wave (km/s) = 6.99503 7.89311 7.45760
#
# Compressibility (1/GPa) = 0.01510758
#
# Stress axis : x y z
#
# Youngs Moduli (GPa) = 71.89322 102.02249 72.33575
#
# Poissons Ratio (x) = 0.38123 0.19762
# Poissons Ratio (y) = 0.26865 0.34325
# Poissons Ratio (z) = 0.19641 0.48413
#
# Static dielectric constant tensor:
#      x y z
#    x 3.731690 -0.292190 -0.028110 
#    y -0.292190 4.630960 0.255030 
#    z -0.028110 0.255030 4.187890 
# 
# 
# High freq. dielectric constant tensor:
#      x y z
#    x 1.794920 -0.011640 -0.017080 
#    y -0.011640 1.844290 -0.001790 
#    z -0.017080 -0.001790 1.826920 
# 
# From -- ./inp_files/273585.got.cif
#   From: 2010.06.25/outbox.cif.g09.slc.cpg/sg2_137_cif.got.tgz:273585.got - 2010.06.27 13:26:56.
