data_PCOD8020665
_publ_section_title
;
Structure prediction by ZEFSAII (Michael W. Deem and Ramdas Pophale) SiO2 
 PCOD8020665
Probable space group: P -1
;
_chemical_formula_sum "Si O2"
_cell_formula_units_Z 14
_cell_length_a 14.219785
_cell_length_b 7.952448
_cell_length_c 11.524672
_cell_angle_alpha 61.450785
_cell_angle_beta 55.856775
_cell_angle_gamma 105.718685
_cell_volume 635.585175
_symmetry_space_group_name_H-M "P -1"
_symmetry_group_IT_number 2
_symmetry_cell_setting 'triclinic'
loop_
_space_group_symop_operation_xyz
x,y,z
-x,-y,-z
loop_
_atom_site_type_symbol
_atom_site_label
_atom_site_fract_x
_atom_site_fract_y
_atom_site_fract_z
Si Si1 0.433949 0.853245 0.968986
Si Si2 0.305105 0.067370 0.869969
Si Si3 0.019191 0.098026 0.792849
Si Si4 0.519643 0.694119 0.555312
Si Si5 0.694954 0.016744 0.557418
Si Si6 0.848069 0.807927 0.578394
Si Si7 0.190430 0.462307 0.766619
O O1 0.598453 0.002464 0.732648
O O2 0.329772 0.893656 0.968690
O O3 0.310704 0.516271 0.165015
O O4 0.500000 0.000000 0.000000
O O5 0.454137 0.394573 0.700957
O O6 0.317937 0.074671 0.717959
O O7 0.122460 0.917650 0.082042
O O8 0.088754 0.203607 0.581472
O O9 0.170332 0.320155 0.706474
O O10 0.944445 0.790267 0.964482
O O11 0.562955 0.792138 0.624741
O O12 0.378704 0.665071 0.616802
O O13 0.793341 0.958360 0.556032
O O14 0.832043 0.339068 0.304116
O O15 0.000000 0.000000 0.500000
#
# Coordination Sequence:
#
# PCOD8020665 Si02
#       7
#     2   2   2   2   2   2   2
#     4  12  27  47  73  96 136 194 242 273 330 413
#     4  10  23  41  74  96 137 175 226 278 349 402
#     4  10  25  45  67 100 142 178 220 275 356 418
#     4  10  22  42  71 110 132 167 227 296 346 399
#     4  12  26  44  73 100 137 176 236 291 339 397
#     4  12  31  46  66  99 148 186 232 280 339 411
#     4  10  22  43  73 102 135 171 226 285 354 404
#
# _framework density 22.026945999999999
#
# number of rings (size 3 to 8) (size 9 to 14) (size 15 to 20)
#    0.000    1.143    1.429    2.571   16.000    1.143 
#    0.000    0.000    0.000    0.000    0.000    0.000 
#    0.000    0.000    0.000    0.000    0.000    0.000 
#
# Total GULP energy -173636.958944 kJ/mol
# GULP energy per Si atom -12402.639925 kJ/mol
# Density = 2.197681 g / cm^3
# Si number density = 22.026946 Si / 1000 Ang^3
#
#
#
# Elastic Constant Matrix: (Units=GPa)
#
#
# Indices 1 2 3 4 5 6 
#
# 1 153.7949 44.4317 36.9731 -8.8466 5.9796 -16.5438
# 2 44.4317 76.8541 11.2986 1.4842 6.3203 9.1679
# 3 36.9731 11.2986 58.6914 -5.1386 7.9776 -9.2050
# 4 -8.8466 1.4842 -5.1386 46.0960 -4.3774 10.5951
# 5 5.9796 6.3203 7.9776 -4.3774 28.9598 -9.0081
# 6 -16.5438 9.1679 -9.2050 10.5951 -9.0081 50.7122
#
#
#
# Elastic Compliance Matrix: (Units=1/GPa)
#
#
# Indices 1 2 3 4 5 6 
#
# 1 0.009500 -0.005372 -0.004572 0.000873 0.001644 0.003350
# 2 -0.005372 0.017193 -0.000261 -0.000761 -0.004407 -0.005532
# 3 -0.004572 -0.000261 0.020826 0.000724 -0.004178 0.001442
# 4 0.000873 -0.000761 0.000724 0.023058 0.002059 -0.003898
# 5 0.001644 -0.004407 -0.004178 0.002059 0.038804 0.007037
# 6 0.003350 -0.005532 0.001442 -0.003898 0.007037 0.024138
#
#
# Mechanical properties :
#
#
# Convention : Reuss Voigt Hill
#
# Bulk Modulus (GPa) = 36.88788 52.74969 44.81879
# Shear Modulus (GPa) = 30.68143 38.26274 34.47209
#
# Velocity S-wave (km/s) = 3.73621 4.17236 3.96029
# Velocity P-wave (km/s) = 5.94941 6.87104 6.42677
#
# Compressibility (1/GPa) = 0.02710917
#
# Stress axis : x y z
#
# Youngs Moduli (GPa) = 105.26478 58.16470 48.01633
#
# Poissons Ratio (x) = 0.31244 0.21953
# Poissons Ratio (y) = 0.56545 0.01253
# Poissons Ratio (z) = 0.48128 0.01518
#
# Static dielectric constant tensor:
#      x y z
#    x -1.389900 0.439720 -1.346400 
#    y 0.439720 3.950860 0.084490 
#    z -1.346400 0.084490 3.600040 
# 
# 
# High freq. dielectric constant tensor:
#      x y z
#    x 1.876220 -0.001720 0.008660 
#    y -0.001720 1.869500 -0.005230 
#    z 0.008660 -0.005230 1.868700 
# 
# From -- ./inp_files/446933.got.cif
#   From: 2010.06.25/outbox.cif.g09.slc.cpg/sg2_224_cif.got.tgz:446933.got - 2010.06.27 13:26:56.
