data_PCOD8021751
_publ_section_title
;
Structure prediction by ZEFSAII (Michael W. Deem and Ramdas Pophale) SiO2 
 PCOD8021751
Probable space group: P -1
;
_chemical_formula_sum "Si O2"
_cell_formula_units_Z 16
_cell_length_a 15.710230
_cell_length_b 8.905277
_cell_length_c 8.929884
_cell_angle_alpha 81.908973
_cell_angle_beta 40.201686
_cell_angle_gamma 69.600953
_cell_volume 739.409250
_symmetry_space_group_name_H-M "P -1"
_symmetry_group_IT_number 2
_symmetry_cell_setting 'triclinic'
loop_
_space_group_symop_operation_xyz
x,y,z
-x,-y,-z
loop_
_atom_site_type_symbol
_atom_site_label
_atom_site_fract_x
_atom_site_fract_y
_atom_site_fract_z
Si Si1 0.183189 0.681031 0.178019
Si Si2 0.030736 0.649964 0.676229
Si Si3 0.257974 0.392086 0.907211
Si Si4 0.322410 0.846323 0.400353
Si Si5 0.302266 0.512583 0.515195
Si Si6 0.560392 0.249383 0.048160
Si Si7 0.481962 0.044345 0.690005
Si Si8 0.980947 0.008874 0.346267
O O1 0.078118 0.639295 0.439962
O O2 0.093019 0.831802 0.166009
O O3 0.273994 0.528817 0.975168
O O4 0.290019 0.732446 0.127772
O O5 0.159011 0.529325 0.619718
O O6 0.982131 0.836404 0.778795
O O7 0.905792 0.584889 0.874897
O O8 0.313240 0.412398 0.666197
O O9 0.354496 0.216612 0.866138
O O10 0.305345 0.690006 0.523634
O O11 0.371979 0.947300 0.442648
O O12 0.175283 0.968671 0.506761
O O13 0.444664 0.780801 0.118064
O O14 0.431517 0.412823 0.246427
O O15 0.558109 0.091902 0.156579
O O16 0.500000 0.000000 0.500000
O O17 0.000000 0.000000 0.500000
#
# Coordination Sequence:
#
# PCOD8021751 Si02
#       8
#     2   2   2   2   2   2   2   2
#     4  11  23  41  73 102 129 183 222 280 337 400
#     4  10  22  44  67  98 136 177 227 280 330 403
#     4  12  26  43  65  99 143 179 220 279 342 403
#     4  11  24  44  73 100 134 179 230 279 335 405
#     4  11  24  43  69 101 136 177 227 275 348 401
#     4  12  23  45  72  98 135 175 229 284 334 403
#     4  12  28  46  65 103 139 180 225 281 344 401
#     4   9  18  42  70  99 131 171 224 278 332 392
#
# _framework density 21.638897
#
# number of rings (size 3 to 8) (size 9 to 14) (size 15 to 20)
#    0.000    1.000    5.000    3.000    5.250    2.000 
#    2.250    1.250    0.000    0.000    0.000    0.000 
#    0.000    0.000    0.000    0.000    0.000    0.000 
#
# Total GULP energy -198441.670631 kJ/mol
# GULP energy per Si atom -12402.604414 kJ/mol
# Density = 2.158965 g / cm^3
# Si number density = 21.638897 Si / 1000 Ang^3
#
#
#
# Elastic Constant Matrix: (Units=GPa)
#
#
# Indices 1 2 3 4 5 6 
#
# 1 120.0506 27.0740 33.1037 2.2510 -4.5203 9.9063
# 2 27.0740 88.7920 16.6652 11.4658 1.0731 -0.3876
# 3 33.1037 16.6652 54.5007 -0.7850 -12.3652 2.8907
# 4 2.2510 11.4658 -0.7850 42.1084 1.6075 1.1696
# 5 -4.5203 1.0731 -12.3652 1.6075 21.0286 0.9165
# 6 9.9063 -0.3876 2.8907 1.1696 0.9165 28.6616
#
#
#
# Elastic Compliance Matrix: (Units=1/GPa)
#
#
# Indices 1 2 3 4 5 6 
#
# 1 0.010650 -0.002155 -0.005851 0.000029 -0.000909 -0.003092
# 2 -0.002155 0.013061 -0.003492 -0.003434 -0.002986 0.001509
# 3 -0.005851 -0.003492 0.026306 0.001239 0.014346 -0.001187
# 4 0.000029 -0.003434 0.001239 0.024773 -0.000933 -0.001163
# 5 -0.000909 -0.002986 0.014346 -0.000933 0.056146 -0.002930
# 6 -0.003092 0.001509 -0.001187 -0.001163 -0.002930 0.036240
#
#
# Mechanical properties :
#
#
# Convention : Reuss Voigt Hill
#
# Bulk Modulus (GPa) = 37.01004 46.33656 41.67330
# Shear Modulus (GPa) = 25.10313 30.79306 27.94809
#
# Velocity S-wave (km/s) = 3.40971 3.77642 3.59774
# Velocity P-wave (km/s) = 5.71333 6.36201 6.04637
#
# Compressibility (1/GPa) = 0.02701969
#
# Stress axis : x y z
#
# Youngs Moduli (GPa) = 93.89858 76.56412 38.01449
#
# Poissons Ratio (x) = 0.16502 0.22244
# Poissons Ratio (y) = 0.20238 0.13273
# Poissons Ratio (z) = 0.54944 0.26734
#
# Static dielectric constant tensor:
#      x y z
#    x 3.851990 -0.122110 -0.094990 
#    y -0.122110 4.352160 0.110750 
#    z -0.094990 0.110750 3.865200 
# 
# 
# High freq. dielectric constant tensor:
#      x y z
#    x 1.848470 -0.006870 -0.008600 
#    y -0.006870 1.865470 0.002250 
#    z -0.008600 0.002250 1.838370 
# 
# From -- ./inp_files/272388.got.cif
#   From: 2010.06.25/outbox.cif.g09.slc.cpg/sg2_137_cif.got.tgz:272388.got - 2010.06.27 13:26:56.
