data_PCOD8021598
_publ_section_title
;
Structure prediction by ZEFSAII (Michael W. Deem and Ramdas Pophale) SiO2 
 PCOD8021598
Probable space group: P -1
;
_chemical_formula_sum "Si O2"
_cell_formula_units_Z 14
_cell_length_a 9.711886
_cell_length_b 9.217197
_cell_length_c 11.768849
_cell_angle_alpha 38.365308
_cell_angle_beta 105.143485
_cell_angle_gamma 106.961935
_cell_volume 624.499716
_symmetry_space_group_name_H-M "P -1"
_symmetry_group_IT_number 2
_symmetry_cell_setting 'triclinic'
loop_
_space_group_symop_operation_xyz
x,y,z
-x,-y,-z
loop_
_atom_site_type_symbol
_atom_site_label
_atom_site_fract_x
_atom_site_fract_y
_atom_site_fract_z
Si Si1 0.441254 0.425075 0.657705
Si Si2 0.291417 0.255929 0.076271
Si Si3 0.578630 0.416365 0.916610
Si Si4 0.795554 0.275856 0.581137
Si Si5 0.754189 0.017153 0.186021
Si Si6 0.991763 0.401891 0.931373
Si Si7 0.068236 0.336414 0.455304
O O1 0.500000 0.500000 0.500000
O O2 0.576808 0.437424 0.765845
O O3 0.334174 0.599928 0.572783
O O4 0.354846 0.160125 0.804760
O O5 0.338892 0.341520 0.161644
O O6 0.275274 0.976536 0.233316
O O7 0.412738 0.371467 0.945151
O O8 0.143599 0.344915 0.953978
O O9 0.663023 0.204988 0.108399
O O10 0.868587 0.427435 0.608673
O O11 0.910542 0.240470 0.530172
O O12 0.828743 0.866272 0.388303
O O13 0.878489 0.161135 0.046367
O O14 0.942035 0.602303 0.717028
O O15 0.000000 0.500000 0.000000
#
# Coordination Sequence:
#
# PCOD8021598 Si02
#       7
#     2   2   2   2   2   2   2
#     4  11  25  43  68 100 136 179 227 274 336 402
#     4  11  24  44  67  97 140 178 221 278 338 398
#     4  11  25  44  66 100 137 179 226 272 337 407
#     4  10  22  44  65 101 132 178 223 276 337 392
#     4  11  24  44  72 101 129 180 226 278 337 386
#     4  12  25  45  69 104 136 177 223 280 340 396
#     4  10  24  43  70 102 136 168 229 279 335 399
#
# _framework density 22.417943000000001
#
# number of rings (size 3 to 8) (size 9 to 14) (size 15 to 20)
#    0.000    1.143    2.857    2.143    6.000    1.714 
#    2.571    0.000    0.000    0.000    0.000    0.000 
#    0.000    0.000    0.000    0.000    0.000    0.000 
#
# Total GULP energy -173634.257799 kJ/mol
# GULP energy per Si atom -12402.446986 kJ/mol
# Density = 2.236692 g / cm^3
# Si number density = 22.417943 Si / 1000 Ang^3
#
#
#
# Elastic Constant Matrix: (Units=GPa)
#
#
# Indices 1 2 3 4 5 6 
#
# 1 122.7791 23.8952 30.2697 -2.7066 11.8529 3.2512
# 2 23.8952 68.8915 45.9178 8.9689 5.1544 -0.8348
# 3 30.2697 45.9178 101.6347 13.9599 9.1163 1.2610
# 4 -2.7066 8.9689 13.9599 42.1627 -2.7083 -0.6633
# 5 11.8529 5.1544 9.1163 -2.7083 32.7302 -10.2250
# 6 3.2512 -0.8348 1.2610 -0.6633 -10.2250 30.6414
#
#
#
# Elastic Compliance Matrix: (Units=1/GPa)
#
#
# Indices 1 2 3 4 5 6 
#
# 1 0.009356 -0.002054 -0.001748 0.001387 -0.003080 -0.001974
# 2 -0.002054 0.021334 -0.008808 -0.001733 0.000050 0.001141
# 3 -0.001748 -0.008808 0.015108 -0.003463 -0.003024 -0.001760
# 4 0.001387 -0.001733 -0.003463 0.025563 0.003357 0.001622
# 5 -0.003080 0.000050 -0.003024 0.003357 0.036778 0.012798
# 6 -0.001974 0.001141 -0.001760 0.001622 0.012798 0.037254
#
#
# Mechanical properties :
#
#
# Convention : Reuss Voigt Hill
#
# Bulk Modulus (GPa) = 48.59554 54.83008 51.71281
# Shear Modulus (GPa) = 28.17347 33.98838 31.08092
#
# Velocity S-wave (km/s) = 3.54890 3.89797 3.72752
# Velocity P-wave (km/s) = 6.20621 6.69105 6.45318
#
# Compressibility (1/GPa) = 0.02057802
#
# Stress axis : x y z
#
# Youngs Moduli (GPa) = 106.88764 46.87337 66.19122
#
# Poissons Ratio (x) = 0.09627 0.11572
# Poissons Ratio (y) = 0.21954 0.58298
# Poissons Ratio (z) = 0.18687 0.41284
#
# Static dielectric constant tensor:
#      x y z
#    x 4.375310 0.208210 0.101940 
#    y 0.208210 3.915820 -0.183460 
#    z 0.101940 -0.183460 3.883130 
# 
# 
# High freq. dielectric constant tensor:
#      x y z
#    x 1.905090 0.011000 0.007770 
#    y 0.011000 1.870370 -0.012410 
#    z 0.007770 -0.012410 1.877420 
# 
# From -- ./inp_files/243271.got.cif
#   From: 2010.06.25/outbox.cif.g09.slc.cpg/sg2_122_cif.got.tgz:243271.got - 2010.06.27 13:26:56.
