data_PCOD8021096
_publ_section_title
;
Structure prediction by ZEFSAII (Michael W. Deem and Ramdas Pophale) SiO2 
 PCOD8021096
Probable space group: P -1
;
_chemical_formula_sum "Si O2"
_cell_formula_units_Z 16
_cell_length_a 18.484064
_cell_length_b 10.909081
_cell_length_c 8.514035
_cell_angle_alpha 55.049240
_cell_angle_beta 113.999470
_cell_angle_gamma 147.908868
_cell_volume 735.300739
_symmetry_space_group_name_H-M "P -1"
_symmetry_group_IT_number 2
_symmetry_cell_setting 'triclinic'
loop_
_space_group_symop_operation_xyz
x,y,z
-x,-y,-z
loop_
_atom_site_type_symbol
_atom_site_label
_atom_site_fract_x
_atom_site_fract_y
_atom_site_fract_z
Si Si1 0.556960 0.352048 0.545339
Si Si2 0.041450 0.753181 0.557964
Si Si3 0.539717 0.003132 0.862023
Si Si4 0.185269 0.079538 0.752064
Si Si5 0.777241 0.169320 0.851885
Si Si6 0.707784 0.936915 0.636626
Si Si7 0.979802 0.980134 0.812865
Si Si8 0.669050 0.542576 0.849344
O O1 0.551327 0.165214 0.640444
O O2 0.673702 0.606537 0.351929
O O3 0.408068 0.188883 0.494108
O O4 0.585376 0.430254 0.695498
O O5 0.929323 0.472857 0.742793
O O6 0.140390 0.982133 0.605982
O O7 0.140541 0.807187 0.494549
O O8 0.970816 0.779429 0.379166
O O9 0.686271 0.145095 0.888238
O O10 0.500000 0.000000 0.000000
O O11 0.417564 0.697652 0.930834
O O12 0.065208 0.983100 0.803383
O O13 0.210723 0.964124 0.945375
O O14 0.702949 0.026167 0.724875
O O15 0.685552 0.727903 0.812083
O O16 0.819029 0.703297 0.831099
O O17 0.000000 0.000000 0.000000
#
# Coordination Sequence:
#
# PCOD8021096 Si02
#       8
#     2   2   2   2   2   2   2   2
#     4  11  23  42  71  96 132 177 229 270 337 398
#     4  11  25  44  69  99 139 178 227 272 332 407
#     4  10  25  41  68  95 136 172 225 278 332 397
#     4  12  24  41  73  98 134 183 229 268 335 407
#     4  12  27  44  65 105 138 175 227 282 336 390
#     4  11  24  43  71  97 138 175 219 282 339 395
#     4  11  24  42  70 101 136 179 220 280 340 395
#     4  10  22  43  67  97 136 174 223 271 335 406
#
# _framework density 21.759805
#
# number of rings (size 3 to 8) (size 9 to 14) (size 15 to 20)
#    0.000    1.000    2.500    4.500    7.000    5.500 
#    0.000    0.000    0.000    0.000    0.000    0.000 
#    0.000    0.000    0.000    0.000    0.000    0.000 
#
# Total GULP energy -198456.663335 kJ/mol
# GULP energy per Si atom -12403.541458 kJ/mol
# Density = 2.171028 g / cm^3
# Si number density = 21.759805 Si / 1000 Ang^3
#
#
#
# Elastic Constant Matrix: (Units=GPa)
#
#
# Indices 1 2 3 4 5 6 
#
# 1 133.6820 43.3303 49.6066 -2.8636 12.1035 25.9562
# 2 43.3303 92.6582 48.2551 -23.6651 9.2625 10.1085
# 3 49.6066 48.2551 135.3960 -25.9496 21.7736 10.0588
# 4 -2.8636 -23.6651 -25.9496 55.6206 -13.2838 -3.7042
# 5 12.1035 9.2625 21.7736 -13.2838 35.9701 6.4336
# 6 25.9562 10.1085 10.0588 -3.7042 6.4336 28.0382
#
#
#
# Elastic Compliance Matrix: (Units=1/GPa)
#
#
# Indices 1 2 3 4 5 6 
#
# 1 0.011288 -0.003663 -0.002639 -0.002971 -0.000856 -0.008378
# 2 -0.003663 0.015499 -0.003363 0.005099 0.001269 -0.000607
# 3 -0.002639 -0.003363 0.010581 0.002506 -0.003920 0.001091
# 4 -0.002971 0.005099 0.002506 0.022774 0.006298 0.001577
# 5 -0.000856 0.001269 -0.003920 0.006298 0.033370 -0.005084
# 6 -0.008378 -0.000607 0.001091 0.001577 -0.005084 0.044624
#
#
# Mechanical properties :
#
#
# Convention : Reuss Voigt Hill
#
# Bulk Modulus (GPa) = 55.44548 71.56891 63.50720
# Shear Modulus (GPa) = 30.58472 38.62873 34.60673
#
# Velocity S-wave (km/s) = 3.75315 4.21792 3.99230
# Velocity P-wave (km/s) = 6.65714 7.52881 7.10635
#
# Compressibility (1/GPa) = 0.01803573
#
# Stress axis : x y z
#
# Youngs Moduli (GPa) = 88.59070 64.52140 94.50725
#
# Poissons Ratio (x) = 0.23636 0.24945
# Poissons Ratio (y) = 0.32454 0.31785
# Poissons Ratio (z) = 0.23383 0.21700
#
# Static dielectric constant tensor:
#      x y z
#    x 3.902650 -0.031450 0.304590 
#    y -0.031450 4.081620 -0.298240 
#    z 0.304590 -0.298240 4.068610 
# 
# 
# High freq. dielectric constant tensor:
#      x y z
#    x 1.861350 0.007690 0.007880 
#    y 0.007690 1.855770 -0.014550 
#    z 0.007880 -0.014550 1.861620 
# 
# From -- ./inp_files/226149.got.cif
#   From: 2010.06.25/outbox.cif.g09.slc.cpg/sg2_114_cif.got.tgz:226149.got - 2010.06.27 13:26:56.
