data_PCOD8021867
_publ_section_title
;
Structure prediction by ZEFSAII (Michael W. Deem and Ramdas Pophale) SiO2 
 PCOD8021867
Probable space group: P -1
;
_chemical_formula_sum "Si O2"
_cell_formula_units_Z 16
_cell_length_a 7.869947
_cell_length_b 4.946114
_cell_length_c 16.907239
_cell_angle_alpha 88.127216
_cell_angle_beta 109.323943
_cell_angle_gamma 87.303837
_cell_volume 619.547779
_symmetry_space_group_name_H-M "P -1"
_symmetry_group_IT_number 2
_symmetry_cell_setting 'triclinic'
loop_
_space_group_symop_operation_xyz
x,y,z
-x,-y,-z
loop_
_atom_site_type_symbol
_atom_site_label
_atom_site_fract_x
_atom_site_fract_y
_atom_site_fract_z
Si Si1 0.141048 0.262281 0.955910
Si Si2 0.536813 0.483180 0.202027
Si Si3 0.318950 0.287581 0.630672
Si Si4 0.171658 0.798165 0.533333
Si Si5 0.837225 0.241224 0.144994
Si Si6 0.623014 0.136112 0.581073
Si Si7 0.249497 0.852280 0.098451
Si Si8 0.764012 0.832898 0.754705
O O1 0.210106 0.549112 0.936553
O O2 0.931516 0.295414 0.953249
O O3 0.159391 0.060644 0.885533
O O4 0.261315 0.133257 0.048301
O O5 0.649800 0.685224 0.271512
O O6 0.680740 0.268188 0.186519
O O7 0.429104 0.657004 0.115025
O O8 0.391541 0.350255 0.236441
O O9 0.155975 0.504085 0.575479
O O10 0.501206 0.361301 0.609773
O O11 0.300199 0.971821 0.608216
O O12 0.229974 0.729275 0.452598
O O13 0.000000 0.000000 0.500000
O O14 0.032980 0.311253 0.209900
O O15 0.500000 0.000000 0.500000
O O16 0.725973 0.924064 0.658337
O O17 0.238396 0.909057 0.189965
#
# Coordination Sequence:
#
# PCOD8021867 Si02
#       8
#     2   2   2   2   2   2   2   2
#     4  10  24  47  68 105 138 185 235 290 345 424
#     4  12  25  43  72 102 142 185 230 295 342 415
#     4  11  24  45  66 101 136 180 235 276 345 420
#     4  11  25  45  69 102 138 181 225 290 347 404
#     4  11  27  44  70 103 142 180 239 286 351 417
#     4  10  22  44  69  96 134 180 228 277 339 418
#     4  10  23  43  74  96 144 185 233 288 354 412
#     4  11  24  47  67 104 138 190 230 286 360 409
#
# _framework density 25.825286999999999
#
# number of rings (size 3 to 8) (size 9 to 14) (size 15 to 20)
#    0.000    1.250    2.500    2.250    5.250    3.500 
#    4.500    0.000    0.000    0.000    0.000    0.000 
#    0.000    0.000    0.000    0.000    0.000    0.000 
#
# Total GULP energy -198313.292389 kJ/mol
# GULP energy per Si atom -12394.580774 kJ/mol
# Density = 2.576651 g / cm^3
# Si number density = 25.825287 Si / 1000 Ang^3
#
#
#
# Elastic Constant Matrix: (Units=GPa)
#
#
# Indices 1 2 3 4 5 6 
#
# 1 76.5663 -2.3548 13.7485 -1.2092 7.1811 -33.7384
# 2 -2.3548 53.5514 -2.5529 -11.1083 4.6411 -11.4693
# 3 13.7485 -2.5529 120.7660 -15.8631 12.4445 -9.7169
# 4 -1.2092 -11.1083 -15.8631 44.0801 -12.9760 -2.0137
# 5 7.1811 4.6411 12.4445 -12.9760 25.1891 -7.0005
# 6 -33.7384 -11.4693 -9.7169 -2.0137 -7.0005 41.8496
#
#
#
# Elastic Compliance Matrix: (Units=1/GPa)
#
#
# Indices 1 2 3 4 5 6 
#
# 1 0.021785 0.005590 -0.000448 0.002603 -0.000384 0.019052
# 2 0.005590 0.022939 0.001693 0.007142 0.000238 0.011570
# 3 -0.000448 0.001693 0.009193 0.003041 -0.002619 0.001946
# 4 0.002603 0.007142 0.003041 0.030299 0.014449 0.008636
# 5 -0.000384 0.000238 -0.002619 0.014449 0.050821 0.008344
# 6 0.019052 0.011570 0.001946 0.008636 0.008344 0.044688
#
#
# Mechanical properties :
#
#
# Convention : Reuss Voigt Hill
#
# Bulk Modulus (GPa) = 14.79548 29.84060 22.31804
# Shear Modulus (GPa) = 26.51334 38.35994 32.43664
#
# Velocity S-wave (km/s) = 3.20760 3.85822 3.54786
# Velocity P-wave (km/s) = 4.41133 5.60604 5.04418
#
# Compressibility (1/GPa) = 0.06758823
#
# Stress axis : x y z
#
# Youngs Moduli (GPa) = 45.90302 43.59394 108.77771
#
# Poissons Ratio (x) = -0.24370 0.04869
# Poissons Ratio (y) = -0.25660 -0.18416
# Poissons Ratio (z) = 0.02055 -0.07381
#
# Static dielectric constant tensor:
#      x y z
#    x 4.981580 -0.138810 0.093910 
#    y -0.138810 4.669490 0.229360 
#    z 0.093910 0.229360 5.029510 
# 
# 
# High freq. dielectric constant tensor:
#      x y z
#    x 2.015810 -0.020590 0.011490 
#    y -0.020590 2.028200 0.002250 
#    z 0.011490 0.002250 2.043020 
# 
# From -- ./inp_files/141367.got.cif
#   From: 2010.06.25/outbox.cif.g09.slc.cpg/sg2_71_cif.got.tgz:141367.got - 2010.06.27 13:26:56.
