data_PCOD8021334
_publ_section_title
;
Structure prediction by ZEFSAII (Michael W. Deem and Ramdas Pophale) SiO2 
 PCOD8021334
Probable space group: P -1
;
_chemical_formula_sum "Si O2"
_cell_formula_units_Z 16
_cell_length_a 11.920393
_cell_length_b 15.523349
_cell_length_c 9.515137
_cell_angle_alpha 39.334218
_cell_angle_beta 137.392529
_cell_angle_gamma 114.174040
_cell_volume 701.193866
_symmetry_space_group_name_H-M "P -1"
_symmetry_group_IT_number 2
_symmetry_cell_setting 'triclinic'
loop_
_space_group_symop_operation_xyz
x,y,z
-x,-y,-z
loop_
_atom_site_type_symbol
_atom_site_label
_atom_site_fract_x
_atom_site_fract_y
_atom_site_fract_z
Si Si1 0.643317 0.376030 0.701902
Si Si2 0.756268 0.082854 0.330333
Si Si3 0.838028 0.809034 0.589237
Si Si4 0.097119 0.590504 0.301861
Si Si5 0.129079 0.589661 0.641446
Si Si6 0.420664 0.292985 0.390874
Si Si7 0.042737 0.151314 0.640513
Si Si8 0.457570 0.994620 0.306365
O O1 0.500000 0.500000 0.500000
O O2 0.770441 0.450870 0.656665
O O3 0.588413 0.310768 0.594821
O O4 0.735101 0.244858 0.058856
O O5 0.575524 0.077079 0.238314
O O6 0.932294 0.043710 0.644211
O O7 0.798890 0.980334 0.360986
O O8 0.662404 0.768631 0.477667
O O9 0.941280 0.763174 0.595760
O O10 0.931854 0.731180 0.918604
O O11 0.166262 0.628665 0.466658
O O12 0.047307 0.449606 0.463100
O O13 0.086192 0.732803 0.515656
O O14 0.298737 0.453501 0.022099
O O15 0.476251 0.174909 0.465692
O O16 0.244980 0.068305 0.987614
O O17 0.500000 0.000000 0.500000
#
# Coordination Sequence:
#
# PCOD8021334 Si02
#       8
#     2   2   2   2   2   2   2   2
#     4  12  25  40  70 106 137 180 234 296 346 415
#     4  11  25  45  67 104 141 176 237 291 350 416
#     4  10  22  43  70  95 135 180 229 287 345 414
#     4  10  24  42  68  92 140 176 228 282 348 410
#     4  10  25  44  67  98 137 189 228 279 352 426
#     4  10  24  44  66  98 144 184 227 287 365 406
#     4  12  24  42  76 101 132 189 237 283 352 419
#     4  11  28  45  70 103 144 184 231 295 351 419
#
# _framework density 22.818225000000002
#
# number of rings (size 3 to 8) (size 9 to 14) (size 15 to 20)
#    0.000    1.250    1.250    2.625   12.250    5.000 
#    0.000    0.000    0.000    0.000    0.000    0.000 
#    0.000    0.000    0.000    0.000    0.000    0.000 
#
# Total GULP energy -198253.618432 kJ/mol
# GULP energy per Si atom -12390.851152 kJ/mol
# Density = 2.276629 g / cm^3
# Si number density = 22.818225 Si / 1000 Ang^3
#
#
#
# Elastic Constant Matrix: (Units=GPa)
#
#
# Indices 1 2 3 4 5 6 
#
# 1 95.3319 21.6595 33.7608 -2.1163 1.1362 -10.4196
# 2 21.6595 69.8576 24.0669 10.8098 5.5049 -7.6283
# 3 33.7608 24.0669 87.5579 9.0072 10.0408 -1.0221
# 4 -2.1163 10.8098 9.0072 32.8587 -2.1219 5.8965
# 5 1.1362 5.5049 10.0408 -2.1219 33.9844 5.5453
# 6 -10.4196 -7.6283 -1.0221 5.8965 5.5453 41.5720
#
#
#
# Elastic Compliance Matrix: (Units=1/GPa)
#
#
# Indices 1 2 3 4 5 6 
#
# 1 0.013039 -0.002718 -0.004674 0.002715 0.001211 0.002108
# 2 -0.002718 0.017711 -0.002812 -0.006095 -0.002941 0.003756
# 3 -0.004674 -0.002812 0.014821 -0.003643 -0.003949 -0.000280
# 4 0.002715 -0.006095 -0.003643 0.035057 0.005172 -0.006190
# 5 0.001211 -0.002941 -0.003949 0.005172 0.032226 -0.005365
# 6 0.002108 0.003756 -0.000280 -0.006190 -0.005365 0.026859
#
#
# Mechanical properties :
#
#
# Convention : Reuss Voigt Hill
#
# Bulk Modulus (GPa) = 39.74177 45.74685 42.74431
# Shear Modulus (GPa) = 29.67217 33.23370 31.45294
#
# Velocity S-wave (km/s) = 3.60998 3.82049 3.71673
# Velocity P-wave (km/s) = 5.90173 6.28915 6.09852
#
# Compressibility (1/GPa) = 0.02516244
#
# Stress axis : x y z
#
# Youngs Moduli (GPa) = 76.69538 56.46087 67.47368
#
# Poissons Ratio (x) = 0.15345 0.31537
# Poissons Ratio (y) = 0.20844 0.18976
# Poissons Ratio (z) = 0.35847 0.15879
#
# Static dielectric constant tensor:
#      x y z
#    x 4.317780 0.219580 0.070560 
#    y 0.219580 4.274830 0.228340 
#    z 0.070560 0.228340 4.014160 
# 
# 
# High freq. dielectric constant tensor:
#      x y z
#    x 1.907580 0.003810 0.003620 
#    y 0.003810 1.905750 0.011740 
#    z 0.003620 0.011740 1.893500 
# 
# From -- ./inp_files/271641.got.cif
#   From: 2010.06.25/outbox.cif.g09.slc.cpg/sg2_136_cif.got.tgz:271641.got - 2010.06.27 13:26:56.
