data_PCOD8021086
_publ_section_title
;
Structure prediction by ZEFSAII (Michael W. Deem and Ramdas Pophale) SiO2 
 PCOD8021086
Probable space group: P -1
;
_chemical_formula_sum "Si O2"
_cell_formula_units_Z 14
_cell_length_a 15.108361
_cell_length_b 13.912085
_cell_length_c 8.726591
_cell_angle_alpha 118.001923
_cell_angle_beta 82.127088
_cell_angle_gamma 150.537207
_cell_volume 621.254652
_symmetry_space_group_name_H-M "P -1"
_symmetry_group_IT_number 2
_symmetry_cell_setting 'triclinic'
loop_
_space_group_symop_operation_xyz
x,y,z
-x,-y,-z
loop_
_atom_site_type_symbol
_atom_site_label
_atom_site_fract_x
_atom_site_fract_y
_atom_site_fract_z
Si Si1 0.019380 0.382388 0.786920
Si Si2 0.732084 0.889183 0.682041
Si Si3 0.985980 0.785389 0.584300
Si Si4 0.248665 0.704689 0.266993
Si Si5 0.683630 0.600870 0.374467
Si Si6 0.509673 0.382765 0.927930
Si Si7 0.136807 0.351391 0.146919
O O1 0.896559 0.348974 0.716594
O O2 0.127102 0.436888 0.659847
O O3 0.827538 0.095777 0.711671
O O4 0.232411 0.655630 0.052318
O O5 0.679558 0.727197 0.462910
O O6 0.497978 0.655020 0.652422
O O7 0.913808 0.052496 0.890207
O O8 0.938027 0.844244 0.546996
O O9 0.866527 0.668449 0.687017
O O10 0.249789 0.048593 0.738869
O O11 0.134770 0.478033 0.215580
O O12 0.500000 0.000000 0.500000
O O13 0.630166 0.488858 0.138620
O O14 0.638785 0.462537 0.823020
O O15 0.500000 0.500000 0.000000
#
# Coordination Sequence:
#
# PCOD8021086 Si02
#       7
#     2   2   2   2   2   2   2
#     4  10  23  43  66  97 132 171 221 279 328 394
#     4  10  22  43  67  95 138 177 222 270 331 395
#     4  12  26  42  67 102 137 175 223 270 337 398
#     4  10  22  43  73  94 126 175 224 275 338 388
#     4  11  24  40  66 100 135 179 221 267 329 401
#     4  12  26  43  68  99 138 183 223 271 329 395
#     4  11  25  45  69  97 138 177 221 284 329 393
#
# _framework density 22.535043000000002
#
# number of rings (size 3 to 8) (size 9 to 14) (size 15 to 20)
#    0.000    1.143    1.429    4.286    8.000    3.429 
#    0.000    0.714    0.000    0.000    0.000    0.000 
#    0.000    0.000    0.000    0.000    0.000    0.000 
#
# Total GULP energy -173572.708786 kJ/mol
# GULP energy per Si atom -12398.050628 kJ/mol
# Density = 2.248375 g / cm^3
# Si number density = 22.535043 Si / 1000 Ang^3
#
#
#
# Elastic Constant Matrix: (Units=GPa)
#
#
# Indices 1 2 3 4 5 6 
#
# 1 123.2132 33.0302 37.0678 -10.2003 1.1989 2.9252
# 2 33.0302 94.0035 46.1496 -16.3585 -4.4515 21.4149
# 3 37.0678 46.1496 142.5753 -12.8287 9.8862 13.3274
# 4 -10.2003 -16.3585 -12.8287 39.9296 5.7046 -6.7216
# 5 1.1989 -4.4515 9.8862 5.7046 42.1768 -2.8472
# 6 2.9252 21.4149 13.3274 -6.7216 -2.8472 24.7031
#
#
#
# Elastic Compliance Matrix: (Units=1/GPa)
#
#
# Indices 1 2 3 4 5 6 
#
# 1 0.009422 -0.002902 -0.001635 0.001151 -0.000173 0.002576
# 2 -0.002902 0.016403 -0.003364 0.002815 0.001470 -0.011126
# 3 -0.001635 -0.003364 0.008982 0.001184 -0.002690 -0.001724
# 4 0.001151 0.002815 0.001184 0.028052 -0.003537 0.004010
# 5 -0.000173 0.001470 -0.002690 -0.003537 0.025123 0.002131
# 6 0.002576 -0.011126 -0.001724 0.004010 0.002131 0.052088
#
#
# Mechanical properties :
#
#
# Convention : Reuss Voigt Hill
#
# Bulk Modulus (GPa) = 52.61967 65.80968 59.21468
# Shear Modulus (GPa) = 30.82489 37.59819 34.21154
#
# Velocity S-wave (km/s) = 3.70248 4.08908 3.90057
# Velocity P-wave (km/s) = 6.45590 7.18058 6.82786
#
# Compressibility (1/GPa) = 0.01900430
#
# Stress axis : x y z
#
# Youngs Moduli (GPa) = 106.13617 60.96404 111.33366
#
# Poissons Ratio (x) = 0.17695 0.18207
# Poissons Ratio (y) = 0.30806 0.37447
# Poissons Ratio (z) = 0.17357 0.20505
#
# Static dielectric constant tensor:
#      x y z
#    x 4.130020 0.047110 0.061230 
#    y 0.047110 3.834120 -0.053420 
#    z 0.061230 -0.053420 4.701100 
# 
# 
# High freq. dielectric constant tensor:
#      x y z
#    x 1.893760 0.007970 0.009110 
#    y 0.007970 1.862480 -0.011540 
#    z 0.009110 -0.011540 1.914990 
# 
# From -- ./inp_files/179536.got.cif
#   From: 2010.06.25/outbox.cif.g09.slc.cpg/sg2_90_cif.got.tgz:179536.got - 2010.06.27 13:26:56.
