data_PCOD8021394
_publ_section_title
;
Structure prediction by ZEFSAII (Michael W. Deem and Ramdas Pophale) SiO2 
 PCOD8021394
Probable space group: P -1
;
_chemical_formula_sum "Si O2"
_cell_formula_units_Z 16
_cell_length_a 23.092938
_cell_length_b 5.277676
_cell_length_c 9.048180
_cell_angle_alpha 54.487810
_cell_angle_beta 126.116004
_cell_angle_gamma 128.513536
_cell_volume 655.947188
_symmetry_space_group_name_H-M "P -1"
_symmetry_group_IT_number 2
_symmetry_cell_setting 'triclinic'
loop_
_space_group_symop_operation_xyz
x,y,z
-x,-y,-z
loop_
_atom_site_type_symbol
_atom_site_label
_atom_site_fract_x
_atom_site_fract_y
_atom_site_fract_z
Si Si1 0.776247 0.043575 0.270486
Si Si2 0.575674 0.488779 0.799666
Si Si3 0.674632 0.301929 0.227419
Si Si4 0.148814 0.307891 0.308527
Si Si5 0.999126 0.200647 0.285400
Si Si6 0.565789 0.377460 0.493144
Si Si7 0.908492 0.635183 0.098881
Si Si8 0.322284 0.820237 0.408877
O O1 0.718408 0.183476 0.210402
O O2 0.829087 0.318226 0.138382
O O3 0.730463 0.678864 0.245016
O O4 0.834547 0.002748 0.494872
O O5 0.594080 0.386127 0.700896
O O6 0.481511 0.392058 0.699660
O O7 0.636152 0.895702 0.751473
O O8 0.597129 0.302709 0.031078
O O9 0.652853 0.049019 0.426204
O O10 0.228514 0.662096 0.302263
O O11 0.087344 0.385740 0.290359
O O12 0.113790 0.191422 0.132525
O O13 0.971505 0.496207 0.184035
O O14 0.942053 0.923556 0.176615
O O15 0.000000 0.000000 0.500000
O O16 0.641741 0.462422 0.470623
O O17 0.500000 0.000000 0.500000
#
# Coordination Sequence:
#
# PCOD8021394 Si02
#       8
#     2   2   2   2   2   2   2   2
#     4  11  26  44  67 105 137 178 228 288 339 397
#     4  10  22  43  71  95 138 183 221 281 335 407
#     4  11  26  41  70 103 140 178 232 273 344 403
#     4  11  26  45  72 100 139 175 230 286 334 411
#     4  12  26  48  70 100 141 180 229 286 339 404
#     4   9  21  43  66 100 135 177 227 275 339 399
#     4  12  26  46  73  98 134 188 230 274 352 402
#     4  10  24  43  67 102 135 176 225 284 338 401
#
# _framework density 24.392206999999999
#
# number of rings (size 3 to 8) (size 9 to 14) (size 15 to 20)
#    0.000    1.250    1.250    2.625   10.500    2.500 
#    0.000    5.625    0.000    0.000    0.000    0.000 
#    0.000    0.000    0.000    0.000    0.000    0.000 
#
# Total GULP energy -198351.625726 kJ/mol
# GULP energy per Si atom -12396.976608 kJ/mol
# Density = 2.433669 g / cm^3
# Si number density = 24.392207 Si / 1000 Ang^3
#
#
#
# Elastic Constant Matrix: (Units=GPa)
#
#
# Indices 1 2 3 4 5 6 
#
# 1 60.5989 -4.0088 5.8324 2.7040 8.0533 -12.6450
# 2 -4.0088 36.5221 -7.8760 8.7839 2.3756 -9.4535
# 3 5.8324 -7.8760 144.3957 10.6580 -12.3565 -5.2435
# 4 2.7040 8.7839 10.6580 30.0025 2.7090 -0.3685
# 5 8.0533 2.3756 -12.3565 2.7090 31.7728 -0.1822
# 6 -12.6450 -9.4535 -5.2435 -0.3685 -0.1822 33.6374
#
#
#
# Elastic Compliance Matrix: (Units=1/GPa)
#
#
# Indices 1 2 3 4 5 6 
#
# 1 0.019516 0.005250 -0.000447 -0.002557 -0.005245 0.008686
# 2 0.005250 0.034474 0.002779 -0.011244 -0.001800 0.011963
# 3 -0.000447 0.002779 0.007717 -0.003785 0.003239 0.001792
# 4 -0.002557 -0.011244 -0.003785 0.038441 -0.003285 -0.004308
# 5 -0.005245 -0.001800 0.003239 -0.003285 0.034467 -0.001822
# 6 0.008686 0.011963 0.001792 -0.004308 -0.001822 0.036578
#
#
# Mechanical properties :
#
#
# Convention : Reuss Voigt Hill
#
# Bulk Modulus (GPa) = 13.00880 25.49020 19.24950
# Shear Modulus (GPa) = 27.52515 35.58714 31.55614
#
# Velocity S-wave (km/s) = 3.36287 3.82377 3.60070
# Velocity P-wave (km/s) = 4.51921 5.47428 5.01952
#
# Compressibility (1/GPa) = 0.07687102
#
# Stress axis : x y z
#
# Youngs Moduli (GPa) = 51.24036 29.00741 129.58961
#
# Poissons Ratio (x) = -0.15230 0.05787
# Poissons Ratio (y) = -0.26903 -0.36007
# Poissons Ratio (z) = 0.02288 -0.08060
#
# Static dielectric constant tensor:
#      x y z
#    x 5.067840 0.049520 0.132590 
#    y 0.049520 4.115410 0.122070 
#    z 0.132590 0.122070 4.634790 
# 
# 
# High freq. dielectric constant tensor:
#      x y z
#    x 1.983790 0.002920 -0.000320 
#    y 0.002920 1.973020 0.007500 
#    z -0.000320 0.007500 1.972660 
# 
# From -- ./inp_files/340196.got.cif
#   From: 2010.06.25/outbox.cif.g09.slc.cpg/sg2_171_cif.got.tgz:340196.got - 2010.06.27 13:26:56.
