data_PCOD8021977
_publ_section_title
;
Structure prediction by ZEFSAII (Michael W. Deem and Ramdas Pophale) SiO2 
 PCOD8021977
Probable space group: P -1
;
_chemical_formula_sum "Si O2"
_cell_formula_units_Z 14
_cell_length_a 9.030419
_cell_length_b 8.819922
_cell_length_c 11.989280
_cell_angle_alpha 107.604210
_cell_angle_beta 111.077797
_cell_angle_gamma 123.205971
_cell_volume 573.060046
_symmetry_space_group_name_H-M "P -1"
_symmetry_group_IT_number 2
_symmetry_cell_setting 'triclinic'
loop_
_space_group_symop_operation_xyz
x,y,z
-x,-y,-z
loop_
_atom_site_type_symbol
_atom_site_label
_atom_site_fract_x
_atom_site_fract_y
_atom_site_fract_z
Si Si1 0.745391 0.624619 0.224321
Si Si2 0.212733 0.850316 0.333012
Si Si3 0.642898 0.362837 0.588719
Si Si4 0.000655 0.832548 0.899206
Si Si5 0.359437 0.168589 0.889755
Si Si6 0.373201 0.926182 0.149648
Si Si7 0.780945 0.453992 0.406636
O O1 0.726710 0.800275 0.237284
O O2 0.827955 0.635374 0.373914
O O3 0.947505 0.712553 0.213487
O O4 0.490719 0.371527 0.063353
O O5 0.210688 0.695117 0.378226
O O6 0.335718 0.881312 0.260550
O O7 0.369807 0.114704 0.482510
O O8 0.683653 0.458280 0.495611
O O9 0.737032 0.568761 0.745635
O O10 0.128584 0.930697 0.835548
O O11 0.127258 0.795459 0.000787
O O12 0.000000 0.000000 0.000000
O O13 0.546419 0.178497 0.903878
O O14 0.574674 0.201590 0.235668
O O15 0.000000 0.500000 0.500000
#
# Coordination Sequence:
#
# PCOD8021977 Si02
#       7
#     2   2   2   2   2   2   2
#     4  11  23  43  73 104 149 185 241 299 349 425
#     4  10  22  44  71 110 138 187 235 298 357 419
#     4  10  23  42  72 102 146 183 238 292 361 425
#     4  12  25  46  74 107 141 189 245 295 355 424
#     4  11  25  43  72 108 143 186 244 296 358 416
#     4  11  24  43  73 101 142 190 241 289 358 425
#     4  11  21  42  73 102 140 190 236 289 360 427
#
# _framework density 24.430249
#
# number of rings (size 3 to 8) (size 9 to 14) (size 15 to 20)
#    0.000    1.143    2.857    3.000    0.000    4.571 
#    0.000   10.714    3.143    0.000    0.000    0.000 
#    0.000    0.000    0.000    0.000    0.000    0.000 
#
# Total GULP energy -173565.747638 kJ/mol
# GULP energy per Si atom -12397.553403 kJ/mol
# Density = 2.437464 g / cm^3
# Si number density = 24.430249 Si / 1000 Ang^3
#
#
#
# Elastic Constant Matrix: (Units=GPa)
#
#
# Indices 1 2 3 4 5 6 
#
# 1 75.3833 30.6037 5.7377 -15.6314 -3.6992 -12.3595
# 2 30.6037 104.6956 47.7592 -20.1612 -1.4247 -7.4552
# 3 5.7377 47.7592 100.7722 1.3502 -2.5511 -8.7519
# 4 -15.6314 -20.1612 1.3502 48.2038 -7.9631 12.3767
# 5 -3.6992 -1.4247 -2.5511 -7.9631 35.0910 0.7028
# 6 -12.3595 -7.4552 -8.7519 12.3767 0.7028 32.1259
#
#
#
# Elastic Compliance Matrix: (Units=1/GPa)
#
#
# Indices 1 2 3 4 5 6 
#
# 1 0.016453 -0.004780 0.001760 0.002426 0.002124 0.004719
# 2 -0.004780 0.015184 -0.007198 0.005812 0.000959 -0.002536
# 3 0.001760 -0.007198 0.013653 -0.003926 -0.000090 0.004241
# 4 0.002426 0.005812 -0.003926 0.027634 0.006669 -0.009580
# 5 0.002124 0.000959 -0.000090 0.006669 0.030312 -0.002217
# 6 0.004719 -0.002536 0.004241 -0.009580 -0.002217 0.037249
#
#
# Mechanical properties :
#
#
# Convention : Reuss Voigt Hill
#
# Bulk Modulus (GPa) = 40.23528 49.89468 45.06498
# Shear Modulus (GPa) = 29.54992 36.20085 32.87539
#
# Velocity S-wave (km/s) = 3.48165 3.85360 3.67234
# Velocity P-wave (km/s) = 5.71557 6.34570 6.03886
#
# Compressibility (1/GPa) = 0.02485381
#
# Stress axis : x y z
#
# Youngs Moduli (GPa) = 60.77849 65.85965 73.24368
#
# Poissons Ratio (x) = 0.31481 -0.12889
# Poissons Ratio (y) = 0.29052 0.52719
# Poissons Ratio (z) = -0.10695 0.47404
#
# Static dielectric constant tensor:
#      x y z
#    x 3.997070 0.003990 0.213190 
#    y 0.003990 4.537310 0.004420 
#    z 0.213190 0.004420 4.322380 
# 
# 
# High freq. dielectric constant tensor:
#      x y z
#    x 1.950470 0.003660 0.016770 
#    y 0.003660 1.982180 -0.004730 
#    z 0.016770 -0.004730 1.969220 
# 
# From -- ./inp_files/158401.got.cif
#   From: 2010.06.25/outbox.cif.g09.slc.cpg/sg2_80_cif.got.tgz:158401.got - 2010.06.27 13:26:56.
