data_PCOD8021019
_publ_section_title
;
Structure prediction by ZEFSAII (Michael W. Deem and Ramdas Pophale) SiO2 
 PCOD8021019
Probable space group: P -1
;
_chemical_formula_sum "Si O2"
_cell_formula_units_Z 16
_cell_length_a 15.149226
_cell_length_b 12.292450
_cell_length_c 9.825600
_cell_angle_alpha 143.901669
_cell_angle_beta 44.221968
_cell_angle_gamma 121.557414
_cell_volume 744.921356
_symmetry_space_group_name_H-M "P -1"
_symmetry_group_IT_number 2
_symmetry_cell_setting 'triclinic'
loop_
_space_group_symop_operation_xyz
x,y,z
-x,-y,-z
loop_
_atom_site_type_symbol
_atom_site_label
_atom_site_fract_x
_atom_site_fract_y
_atom_site_fract_z
Si Si1 0.124764 0.076063 0.897595
Si Si2 0.372643 0.086024 0.300870
Si Si3 0.892165 0.861961 0.493088
Si Si4 0.679828 0.563965 0.122847
Si Si5 0.633696 0.165249 0.692508
Si Si6 0.941321 0.632642 0.958289
Si Si7 0.415501 0.337792 0.954924
Si Si8 0.833978 0.669372 0.641851
O O1 0.234616 0.897559 0.595925
O O2 0.100823 0.170483 0.871550
O O3 0.150972 0.226512 0.130239
O O4 0.000000 0.000000 0.000000
O O5 0.247575 0.047642 0.315204
O O6 0.372128 0.306801 0.559572
O O7 0.376055 0.986326 0.338471
O O8 0.500000 0.000000 0.000000
O O9 0.869581 0.795856 0.604902
O O10 0.944358 0.679922 0.162958
O O11 0.000000 0.000000 0.500000
O O12 0.621840 0.371127 0.982290
O O13 0.831885 0.504073 0.915519
O O14 0.653623 0.689919 0.141109
O O15 0.516399 0.161692 0.712549
O O16 0.077084 0.528821 0.656546
O O17 0.312143 0.377281 0.233639
O O18 0.500000 0.500000 0.000000
#
# Coordination Sequence:
#
# PCOD8021019 Si02
#       8
#     2   2   2   2   2   2   2   2
#     4  12  24  39  70 102 127 176 228 278 346 407
#     4  11  24  45  68  95 135 185 234 273 342 423
#     4  11  25  46  63 101 139 179 230 285 350 403
#     4  10  22  43  66  97 135 175 223 284 340 398
#     4  11  23  43  68  94 140 172 225 281 340 406
#     4  11  23  44  67  97 137 176 227 278 349 405
#     4  10  23  41  65 103 134 172 227 280 342 404
#     4  12  24  41  69  99 136 178 227 284 342 406
#
# _framework density 21.478777000000001
#
# number of rings (size 3 to 8) (size 9 to 14) (size 15 to 20)
#    0.000    1.000    3.750    3.000    5.250    3.500 
#    4.500    0.000    0.000    0.000    0.000    0.000 
#    0.000    0.000    0.000    0.000    0.000    0.000 
#
# Total GULP energy -198272.771925 kJ/mol
# GULP energy per Si atom -12392.048245 kJ/mol
# Density = 2.142989 g / cm^3
# Si number density = 21.478777 Si / 1000 Ang^3
#
#
#
# Elastic Constant Matrix: (Units=GPa)
#
#
# Indices 1 2 3 4 5 6 
#
# 1 91.5090 29.1218 50.6880 -7.2916 -20.9310 10.1406
# 2 29.1218 85.3195 33.2073 -13.2111 -6.0969 8.7867
# 3 50.6880 33.2073 150.0965 -13.7235 -30.5020 17.1465
# 4 -7.2916 -13.2111 -13.7235 34.1583 1.6140 -5.4723
# 5 -20.9310 -6.0969 -30.5020 1.6140 42.7858 -0.1421
# 6 10.1406 8.7867 17.1465 -5.4723 -0.1421 33.2009
#
#
#
# Elastic Compliance Matrix: (Units=1/GPa)
#
#
# Indices 1 2 3 4 5 6 
#
# 1 0.015031 -0.003347 -0.003155 0.000102 0.004616 -0.002039
# 2 -0.003347 0.014193 -0.001713 0.003941 -0.000989 -0.001204
# 3 -0.003155 -0.001713 0.009663 0.001787 0.005023 -0.003257
# 4 0.000102 0.003941 0.001787 0.032033 0.000688 0.003286
# 5 0.004616 -0.000989 0.005023 0.000688 0.029033 -0.003505
# 6 -0.002039 -0.001204 -0.003257 0.003286 -0.003505 0.033270
#
#
# Mechanical properties :
#
#
# Convention : Reuss Voigt Hill
#
# Bulk Modulus (GPa) = 44.52879 61.43991 52.98435
# Shear Modulus (GPa) = 31.81911 36.28953 34.05432
#
# Velocity S-wave (km/s) = 3.85310 4.11488 3.98614
# Velocity P-wave (km/s) = 6.36959 7.15844 6.77551
#
# Compressibility (1/GPa) = 0.02245738
#
# Stress axis : x y z
#
# Youngs Moduli (GPa) = 66.53124 70.45622 103.48640
#
# Poissons Ratio (x) = 0.23580 0.32651
# Poissons Ratio (y) = 0.22266 0.17727
# Poissons Ratio (z) = 0.20991 0.12069
#
# Static dielectric constant tensor:
#      x y z
#    x 5.751930 1.812880 -1.359590 
#    y 1.812880 6.203990 -1.833710 
#    z -1.359590 -1.833710 4.592440 
# 
# 
# High freq. dielectric constant tensor:
#      x y z
#    x 1.858610 -0.000160 -0.010190 
#    y -0.000160 1.837540 -0.006940 
#    z -0.010190 -0.006940 1.845200 
# 
# From -- ./inp_files/308672.got.cif
#   From: 2010.06.25/outbox.cif.g09.slc.cpg/sg2_155_cif.got.tgz:308672.got - 2010.06.27 13:26:56.
