data_PCOD8021115
_publ_section_title
;
Structure prediction by ZEFSAII (Michael W. Deem and Ramdas Pophale) SiO2 
 PCOD8021115
Probable space group: P -1
;
_chemical_formula_sum "Si O2"
_cell_formula_units_Z 14
_cell_length_a 7.065335
_cell_length_b 7.682093
_cell_length_c 15.768873
_cell_angle_alpha 56.850352
_cell_angle_beta 108.239522
_cell_angle_gamma 80.022928
_cell_volume 613.430462
_symmetry_space_group_name_H-M "P -1"
_symmetry_group_IT_number 2
_symmetry_cell_setting 'triclinic'
loop_
_space_group_symop_operation_xyz
x,y,z
-x,-y,-z
loop_
_atom_site_type_symbol
_atom_site_label
_atom_site_fract_x
_atom_site_fract_y
_atom_site_fract_z
Si Si1 0.045206 0.103441 0.789345
Si Si2 0.956771 0.780675 0.569773
Si Si3 0.534343 0.726024 0.956435
Si Si4 0.789885 0.798483 0.817944
Si Si5 0.806406 0.370125 0.521389
Si Si6 0.908790 0.555312 0.173865
Si Si7 0.511168 0.831323 0.443091
O O1 0.916486 0.947886 0.826953
O O2 0.306284 0.952415 0.861441
O O3 0.965931 0.253507 0.653658
O O4 0.992182 0.282822 0.811978
O O5 0.046166 0.621477 0.540250
O O6 0.085363 0.643421 0.707348
O O7 0.695634 0.845369 0.528291
O O8 0.000000 0.000000 0.500000
O O9 0.690642 0.735346 0.901903
O O10 0.500000 0.500000 0.000000
O O11 0.655770 0.707220 0.068928
O O12 0.598004 0.934496 0.687567
O O13 0.045015 0.438525 0.139832
O O14 0.623835 0.625789 0.445938
O O15 0.676690 0.213261 0.520450
#
# Coordination Sequence:
#
# PCOD8021115 Si02
#       7
#     2   2   2   2   2   2   2
#     4  11  24  50  74 103 141 184 243 288 347 420
#     4  12  25  41  68 105 146 180 228 287 348 418
#     4  12  27  50  74  98 143 190 234 297 360 408
#     4  11  26  48  74 100 143 188 229 296 357 409
#     4  10  22  44  70  98 142 182 221 287 346 416
#     4  12  27  47  71 110 139 184 244 291 340 426
#     4  10  22  43  68 100 134 184 223 270 357 414
#
# _framework density 22.822472999999999
#
# number of rings (size 3 to 8) (size 9 to 14) (size 15 to 20)
#    0.000    0.857    2.857    3.857    4.000    2.857 
#    2.571    0.000    0.000    0.000    0.000    0.000 
#    0.000    0.000    0.000    0.000    0.000    0.000 
#
# Total GULP energy -173675.804718 kJ/mol
# GULP energy per Si atom -12405.414623 kJ/mol
# Density = 2.277053 g / cm^3
# Si number density = 22.822473 Si / 1000 Ang^3
#
#
#
# Elastic Constant Matrix: (Units=GPa)
#
#
# Indices 1 2 3 4 5 6 
#
# 1 119.9036 29.8637 63.3035 2.0284 -2.8031 17.1177
# 2 29.8637 104.5538 20.7237 -8.3639 -1.7435 20.4619
# 3 63.3035 20.7237 97.5604 3.5495 10.2802 5.3353
# 4 2.0284 -8.3639 3.5495 30.6853 2.1732 11.1768
# 5 -2.8031 -1.7435 10.2802 2.1732 44.2825 -1.1319
# 6 17.1177 20.4619 5.3353 11.1768 -1.1319 25.5317
#
#
#
# Elastic Compliance Matrix: (Units=1/GPa)
#
#
# Indices 1 2 3 4 5 6 
#
# 1 0.014613 -0.000311 -0.009329 0.003046 0.002704 -0.008812
# 2 -0.000311 0.013628 -0.002272 0.009169 0.000230 -0.014243
# 3 -0.009329 -0.002272 0.017050 -0.003861 -0.004295 0.006012
# 4 0.003046 0.009169 -0.003861 0.045915 -0.001538 -0.028753
# 5 0.002704 0.000230 -0.004295 -0.001538 0.023851 0.000631
# 6 -0.008812 -0.014243 0.006012 -0.028753 0.000631 0.067848
#
#
# Mechanical properties :
#
#
# Convention : Reuss Voigt Hill
#
# Bulk Modulus (GPa) = 46.58463 61.08883 53.83673
# Shear Modulus (GPa) = 23.37689 33.97504 28.67597
#
# Velocity S-wave (km/s) = 3.20393 3.86251 3.54853
# Velocity P-wave (km/s) = 5.84320 6.83499 6.35846
#
# Compressibility (1/GPa) = 0.02146631
#
# Stress axis : x y z
#
# Youngs Moduli (GPa) = 68.43346 73.37603 58.64948
#
# Poissons Ratio (x) = 0.02284 0.54717
# Poissons Ratio (y) = 0.02130 0.13325
# Poissons Ratio (z) = 0.63844 0.16671
#
# Static dielectric constant tensor:
#      x y z
#    x 4.378160 -0.030160 0.199370 
#    y -0.030160 4.386040 -0.115430 
#    z 0.199370 -0.115430 4.226500 
# 
# 
# High freq. dielectric constant tensor:
#      x y z
#    x 1.905400 0.003550 0.012530 
#    y 0.003550 1.915680 -0.007770 
#    z 0.012530 -0.007770 1.906680 
# 
# From -- ./inp_files/556808.got.cif
#   From: 2010.06.25/outbox.cif.g09.slc.cpg/sg2_279_cif.got.tgz:556808.got - 2010.06.27 13:26:56.
