data_PCOD8021578
_publ_section_title
;
Structure prediction by ZEFSAII (Michael W. Deem and Ramdas Pophale) SiO2 
 PCOD8021578
Probable space group: P -1
;
_chemical_formula_sum "Si O2"
_cell_formula_units_Z 12
_cell_length_a 13.011402
_cell_length_b 6.722070
_cell_length_c 13.644485
_cell_angle_alpha 109.186561
_cell_angle_beta 136.235886
_cell_angle_gamma 100.493920
_cell_volume 597.652751
_symmetry_space_group_name_H-M "P -1"
_symmetry_group_IT_number 2
_symmetry_cell_setting 'triclinic'
loop_
_space_group_symop_operation_xyz
x,y,z
-x,-y,-z
loop_
_atom_site_type_symbol
_atom_site_label
_atom_site_fract_x
_atom_site_fract_y
_atom_site_fract_z
Si Si1 0.891940 0.714698 0.322206
Si Si2 0.556640 0.010621 0.773708
Si Si3 0.144224 0.561115 0.396376
Si Si4 0.107719 0.974964 0.985721
Si Si5 0.649017 0.403829 0.281335
Si Si6 0.313311 0.409760 0.034109
O O1 0.746807 0.454098 0.251861
O O2 0.042085 0.683707 0.378146
O O3 0.766734 0.707060 0.148674
O O4 0.000000 0.000000 0.500000
O O5 0.670750 0.329067 0.892695
O O6 0.357486 0.820069 0.542590
O O7 0.498623 0.916467 0.834863
O O8 0.696551 0.949975 0.823943
O O9 0.177961 0.432502 0.491380
O O10 0.025268 0.336163 0.194674
O O11 0.157859 0.179734 0.966249
O O12 0.000000 0.000000 0.000000
O O13 0.527823 0.509673 0.210488
#
# Coordination Sequence:
#
# PCOD8021578 Si02
#       6
#     2   2   2   2   2   2
#     4  12  22  37  67  99 129 177 210 251 319 385
#     4   9  22  42  62  95 131 161 215 265 312 374
#     4  10  22  44  64  94 136 164 214 263 309 388
#     4  11  24  45  68  92 127 171 211 276 330 363
#     4   9  22  38  63  93 136 167 203 254 323 369
#     4  11  22  43  64  97 132 163 224 261 307 394
#
# _framework density 20.078548999999999
#
# number of rings (size 3 to 8) (size 9 to 14) (size 15 to 20)
#    1.000    0.667    1.667    3.000    0.000    2.000 
#    0.000    0.833    0.000    0.000    0.000    0.000 
#    0.000    0.000    0.000    0.000    0.000    0.000 
#
# Total GULP energy -148701.279504 kJ/mol
# GULP energy per Si atom -12391.773292 kJ/mol
# Density = 2.003285 g / cm^3
# Si number density = 20.078549 Si / 1000 Ang^3
#
#
#
# Elastic Constant Matrix: (Units=GPa)
#
#
# Indices 1 2 3 4 5 6 
#
# 1 110.1097 24.5389 62.2130 11.3793 4.3534 -21.9588
# 2 24.5389 73.3444 36.9914 12.4699 0.0529 -18.1293
# 3 62.2130 36.9914 81.2622 4.6907 8.0235 -11.7395
# 4 11.3793 12.4699 4.6907 39.8869 -4.6159 5.9818
# 5 4.3534 0.0529 8.0235 -4.6159 25.9726 -2.6108
# 6 -21.9588 -18.1293 -11.7395 5.9818 -2.6108 29.2485
#
#
#
# Elastic Compliance Matrix: (Units=1/GPa)
#
#
# Indices 1 2 3 4 5 6 
#
# 1 0.020401 0.006170 -0.016043 -0.007846 0.001582 0.014447
# 2 0.006170 0.023818 -0.012894 -0.009837 0.002809 0.016483
# 3 -0.016043 -0.012894 0.029282 0.005946 -0.006285 -0.010061
# 4 -0.007846 -0.009837 0.005946 0.032498 0.003674 -0.015920
# 5 0.001582 0.002809 -0.006285 0.003674 0.041160 0.003329
# 6 0.014447 0.016483 -0.010061 -0.015920 0.003329 0.054767
#
#
# Mechanical properties :
#
#
# Convention : Reuss Voigt Hill
#
# Bulk Modulus (GPa) = 35.75867 56.91140 46.33504
# Shear Modulus (GPa) = 19.47169 28.41979 23.94574
#
# Velocity S-wave (km/s) = 3.11750 3.76630 3.45715
# Velocity P-wave (km/s) = 5.55036 6.87890 6.25003
#
# Compressibility (1/GPa) = 0.02796525
#
# Stress axis : x y z
#
# Youngs Moduli (GPa) = 49.01730 41.98546 34.15098
#
# Poissons Ratio (x) = -0.25904 0.54790
# Poissons Ratio (y) = -0.30243 0.44034
# Poissons Ratio (z) = 0.78640 0.54136
#
# Static dielectric constant tensor:
#      x y z
#    x 3.512470 -0.031030 0.296540 
#    y -0.031030 3.679340 -0.123800 
#    z 0.296540 -0.123800 3.675910 
# 
# 
# High freq. dielectric constant tensor:
#      x y z
#    x 1.769010 -0.006290 0.032000 
#    y -0.006290 1.787830 -0.005030 
#    z 0.032000 -0.005030 1.777800 
# 
# From -- ./inp_files/68081.got.cif
#   From: 2010.06.25/outbox.cif.g09.slc.cpg/sg2_35_cif.got.tgz:68081.got - 2010.06.27 13:26:56.
