data_PCOD8021422
_publ_section_title
;
Structure prediction by ZEFSAII (Michael W. Deem and Ramdas Pophale) SiO2 
 PCOD8021422
Probable space group: P -1
;
_chemical_formula_sum "Si O2"
_cell_formula_units_Z 16
_cell_length_a 20.220245
_cell_length_b 8.506726
_cell_length_c 7.002615
_cell_angle_alpha 57.343237
_cell_angle_beta 80.741386
_cell_angle_gamma 48.131293
_cell_volume 716.019659
_symmetry_space_group_name_H-M "P -1"
_symmetry_group_IT_number 2
_symmetry_cell_setting 'triclinic'
loop_
_space_group_symop_operation_xyz
x,y,z
-x,-y,-z
loop_
_atom_site_type_symbol
_atom_site_label
_atom_site_fract_x
_atom_site_fract_y
_atom_site_fract_z
Si Si1 0.432446 0.017140 0.876841
Si Si2 0.706236 0.652576 0.576799
Si Si3 0.985813 0.462388 0.819599
Si Si4 0.120110 0.078954 0.699696
Si Si5 0.401856 0.705889 0.308699
Si Si6 0.594268 0.566346 0.864236
Si Si7 0.309594 0.893522 0.610906
Si Si8 0.895863 0.265807 0.922148
O O1 0.491849 0.845937 0.773488
O O2 0.342487 0.301446 0.637732
O O3 0.388661 0.927887 0.064831
O O4 0.500000 0.000000 0.000000
O O5 0.668351 0.591841 0.803310
O O6 0.675397 0.921656 0.465585
O O7 0.820119 0.410823 0.686852
O O8 0.956864 0.703765 0.558353
O O9 0.081724 0.197384 0.854754
O O10 0.903243 0.465482 0.859453
O O11 0.000000 0.500000 0.000000
O O12 0.213187 0.010975 0.665316
O O13 0.137201 0.821341 0.845210
O O14 0.500000 0.500000 0.500000
O O15 0.397443 0.544915 0.271197
O O16 0.318058 0.848860 0.408233
O O17 0.610617 0.387101 0.143738
O O18 0.000000 0.000000 0.000000
#
# Coordination Sequence:
#
# PCOD8021422 Si02
#       8
#     2   2   2   2   2   2   2   2
#     4  12  25  46  71 105 142 188 237 296 355 421
#     4  12  24  44  72 102 139 186 236 294 352 422
#     4  10  22  43  72 102 134 178 230 291 353 420
#     4  10  22  44  69  97 142 178 228 288 351 418
#     4  12  24  43  69  97 139 187 233 285 352 418
#     4  12  25  46  69 100 141 180 232 295 352 412
#     4  12  24  44  69 102 139 187 235 286 349 422
#     4  10  22  44  70  99 138 181 227 287 353 416
#
# _framework density 22.345758
#
# number of rings (size 3 to 8) (size 9 to 14) (size 15 to 20)
#    0.000    0.750    5.000    3.000    0.000    1.500 
#    0.000    1.250    0.000    0.000    0.000    0.000 
#    0.000    0.000    0.000    0.000    0.000    0.000 
#
# Total GULP energy -198290.622050 kJ/mol
# GULP energy per Si atom -12393.163878 kJ/mol
# Density = 2.229490 g / cm^3
# Si number density = 22.345758 Si / 1000 Ang^3
#
#
#
# Elastic Constant Matrix: (Units=GPa)
#
#
# Indices 1 2 3 4 5 6 
#
# 1 140.3577 51.3166 68.2538 2.1383 -6.1849 1.2876
# 2 51.3166 73.5441 55.7905 9.2660 4.4892 -4.5591
# 3 68.2538 55.7905 137.2033 -2.3809 2.2028 5.6070
# 4 2.1383 9.2660 -2.3809 47.3203 -1.9536 0.7169
# 5 -6.1849 4.4892 2.2028 -1.9536 47.8971 -10.4523
# 6 1.2876 -4.5591 5.6070 0.7169 -10.4523 31.1609
#
#
#
# Elastic Compliance Matrix: (Units=1/GPa)
#
#
# Indices 1 2 3 4 5 6 
#
# 1 0.010670 -0.005170 -0.003233 0.000451 0.002042 0.000059
# 2 -0.005170 0.023786 -0.007342 -0.004935 -0.001771 0.004534
# 3 -0.003233 -0.007342 0.012078 0.002205 -0.000955 -0.003485
# 4 0.000451 -0.004935 0.002205 0.022252 0.001043 -0.001299
# 5 0.002042 -0.001771 -0.000955 0.001043 0.023038 0.007532
# 6 0.000059 0.004534 -0.003485 -0.001299 0.007532 0.035936
#
#
# Mechanical properties :
#
#
# Convention : Reuss Voigt Hill
#
# Bulk Modulus (GPa) = 66.47705 77.98077 72.22891
# Shear Modulus (GPa) = 30.43856 36.99195 33.71525
#
# Velocity S-wave (km/s) = 3.69475 4.07312 3.88854
# Velocity P-wave (km/s) = 6.92932 7.55602 7.24945
#
# Compressibility (1/GPa) = 0.01504278
#
# Stress axis : x y z
#
# Youngs Moduli (GPa) = 93.72411 42.04160 82.79343
#
# Poissons Ratio (x) = 0.21737 0.26765
# Poissons Ratio (y) = 0.48459 0.60790
# Poissons Ratio (z) = 0.30298 0.30869
#
# Static dielectric constant tensor:
#      x y z
#    x 4.346160 0.127520 -0.414030 
#    y 0.127520 4.094840 -0.304440 
#    z -0.414030 -0.304440 4.485570 
# 
# 
# High freq. dielectric constant tensor:
#      x y z
#    x 1.892090 -0.003270 -0.020690 
#    y -0.003270 1.859550 -0.022760 
#    z -0.020690 -0.022760 1.890740 
# 
# From -- ./inp_files/116650.got.cif
#   From: 2010.06.25/outbox.cif.g09.slc.cpg/sg2_59_cif.got.tgz:116650.got - 2010.06.27 13:26:56.
