data_PCOD8021211
_publ_section_title
;
Structure prediction by ZEFSAII (Michael W. Deem and Ramdas Pophale) SiO2 
 PCOD8021211
Probable space group: P -1
;
_chemical_formula_sum "Si O2"
_cell_formula_units_Z 10
_cell_length_a 9.178078
_cell_length_b 6.473899
_cell_length_c 12.953285
_cell_angle_alpha 96.220292
_cell_angle_beta 34.344471
_cell_angle_gamma 101.482390
_cell_volume 423.335844
_symmetry_space_group_name_H-M "P -1"
_symmetry_group_IT_number 2
_symmetry_cell_setting 'triclinic'
loop_
_space_group_symop_operation_xyz
x,y,z
-x,-y,-z
loop_
_atom_site_type_symbol
_atom_site_label
_atom_site_fract_x
_atom_site_fract_y
_atom_site_fract_z
Si Si1 0.251992 0.327178 0.607050
Si Si2 0.400097 0.147296 0.151422
Si Si3 0.435994 0.998919 0.334071
Si Si4 0.946023 0.390185 0.416505
Si Si5 0.116761 0.713253 0.003785
O O1 0.500000 0.500000 0.500000
O O2 0.331141 0.141991 0.486693
O O3 0.051234 0.436893 0.664323
O O4 0.110817 0.224300 0.788516
O O5 0.290759 0.004930 0.308072
O O6 0.645395 0.324859 0.060924
O O7 0.169427 0.256647 0.248254
O O8 0.500000 0.000000 0.000000
O O9 0.753209 0.088936 0.137532
O O10 0.348119 0.759869 0.414520
O O11 0.000000 0.500000 0.500000
O O12 0.000000 0.500000 0.000000
#
# Coordination Sequence:
#
# PCOD8021211 Si02
#       5
#     2   2   2   2   2
#     4  12  24  46  72 100 147 188 235 294 360 426
#     4  10  22  43  72 101 145 181 236 296 353 416
#     4  10  24  45  69 100 146 181 236 299 351 419
#     4  12  25  43  74 107 137 191 241 289 364 424
#     4  10  22  43  68  99 141 186 226 291 355 418
#
# _framework density 23.621908999999999
#
# number of rings (size 3 to 8) (size 9 to 14) (size 15 to 20)
#    1.200    0.000    4.000    1.800    2.800    1.600 
#    3.600    1.000    0.000    0.000    0.000    0.000 
#    0.000    0.000    0.000    0.000    0.000    0.000 
#
# Total GULP energy -123880.551480 kJ/mol
# GULP energy per Si atom -12388.055148 kJ/mol
# Density = 2.356814 g / cm^3
# Si number density = 23.621909 Si / 1000 Ang^3
#
#
#
# Elastic Constant Matrix: (Units=GPa)
#
#
# Indices 1 2 3 4 5 6 
#
# 1 66.2269 20.4869 21.0728 7.7052 2.7208 30.4601
# 2 20.4869 95.7763 55.2176 -5.8961 9.3386 34.0772
# 3 21.0728 55.2176 190.5767 2.5056 18.1010 19.4628
# 4 7.7052 -5.8961 2.5056 46.1077 13.3043 -3.9996
# 5 2.7208 9.3386 18.1010 13.3043 40.9828 0.7945
# 6 30.4601 34.0772 19.4628 -3.9996 0.7945 37.4499
#
#
#
# Elastic Compliance Matrix: (Units=1/GPa)
#
#
# Indices 1 2 3 4 5 6 
#
# 1 0.026521 0.003474 -0.001389 -0.006214 0.000557 -0.024686
# 2 0.003474 0.018382 -0.003672 0.001286 -0.002877 -0.017445
# 3 -0.001389 -0.003672 0.006540 0.000084 -0.002009 0.001124
# 4 -0.006214 0.001286 0.000084 0.025918 -0.008463 0.006788
# 5 0.000557 -0.002877 -0.002009 -0.008463 0.028621 0.001697
# 6 -0.024686 -0.017445 0.001124 0.006788 0.001697 0.062760
#
#
# Mechanical properties :
#
#
# Convention : Reuss Voigt Hill
#
# Bulk Modulus (GPa) = 20.71757 60.68162 40.69960
# Shear Modulus (GPa) = 26.59526 41.96157 34.27841
#
# Velocity S-wave (km/s) = 3.35904 4.21929 3.81350
# Velocity P-wave (km/s) = 4.88198 7.03427 6.05453
#
# Compressibility (1/GPa) = 0.04826820
#
# Stress axis : x y z
#
# Youngs Moduli (GPa) = 37.70599 54.40219 152.91321
#
# Poissons Ratio (x) = -0.18902 0.21245
# Poissons Ratio (y) = -0.13101 0.56152
# Poissons Ratio (z) = 0.05239 0.19977
#
# Static dielectric constant tensor:
#      x y z
#    x 4.481570 0.174330 0.085930 
#    y 0.174330 4.044320 -0.242770 
#    z 0.085930 -0.242770 4.521830 
# 
# 
# High freq. dielectric constant tensor:
#      x y z
#    x 1.929700 0.030560 0.008020 
#    y 0.030560 1.917680 -0.009780 
#    z 0.008020 -0.009780 1.953530 
# 
# From -- ./inp_files/94079.got.cif
#   From: 2010.06.25/outbox.cif.g09.slc.cpg/sg2_48_cif.got.tgz:94079.got - 2010.06.27 13:26:56.
