data_PCOD8021400
_publ_section_title
;
Structure prediction by ZEFSAII (Michael W. Deem and Ramdas Pophale) SiO2 
 PCOD8021400
Probable space group: P -1
;
_chemical_formula_sum "Si O2"
_cell_formula_units_Z 14
_cell_length_a 12.191698
_cell_length_b 8.281006
_cell_length_c 8.894765
_cell_angle_alpha 113.748114
_cell_angle_beta 66.273855
_cell_angle_gamma 69.658727
_cell_volume 597.318895
_symmetry_space_group_name_H-M "P -1"
_symmetry_group_IT_number 2
_symmetry_cell_setting 'triclinic'
loop_
_space_group_symop_operation_xyz
x,y,z
-x,-y,-z
loop_
_atom_site_type_symbol
_atom_site_label
_atom_site_fract_x
_atom_site_fract_y
_atom_site_fract_z
Si Si1 0.230931 0.562326 0.074608
Si Si2 0.673471 0.347941 0.657478
Si Si3 0.200432 0.264249 0.191944
Si Si4 0.877767 0.409583 0.402994
Si Si5 0.419318 0.779650 0.790835
Si Si6 0.135944 0.783774 0.929455
Si Si7 0.505844 0.787184 0.419076
O O1 0.303152 0.646597 0.174449
O O2 0.172526 0.445450 0.154097
O O3 0.099700 0.768284 0.119511
O O4 0.348526 0.406435 0.822141
O O5 0.826367 0.274954 0.464002
O O6 0.533614 0.598657 0.781219
O O7 0.638816 0.175249 0.570087
O O8 0.209065 0.345191 0.383441
O O9 0.058618 0.260093 0.266585
O O10 0.354359 0.023613 0.981371
O O11 0.836963 0.425159 0.255575
O O12 0.511080 0.721055 0.564039
O O13 0.283431 0.770657 0.829777
O O14 0.000000 0.000000 0.000000
O O15 0.500000 0.000000 0.500000
#
# Coordination Sequence:
#
# PCOD8021400 Si02
#       7
#     2   2   2   2   2   2   2
#     4  11  25  45  68 101 144 176 231 286 344 400
#     4  11  24  45  71 101 141 185 221 286 346 413
#     4  10  23  45  68 103 138 181 227 286 339 405
#     4  10  22  43  71  96 139 180 229 274 347 409
#     4  12  23  43  71 100 138 184 230 272 351 417
#     4  12  24  44  72  95 134 193 233 278 341 416
#     4  12  23  41  69 108 138 175 228 288 342 405
#
# _framework density 23.438065999999999
#
# number of rings (size 3 to 8) (size 9 to 14) (size 15 to 20)
#    0.000    0.857    5.714    1.714    0.000    2.857 
#    2.571    2.857    6.286    0.000    0.000    0.000 
#    0.000    0.000    0.000    0.000    0.000    0.000 
#
# Total GULP energy -173525.973284 kJ/mol
# GULP energy per Si atom -12394.712377 kJ/mol
# Density = 2.338472 g / cm^3
# Si number density = 23.438066 Si / 1000 Ang^3
#
#
#
# Elastic Constant Matrix: (Units=GPa)
#
#
# Indices 1 2 3 4 5 6 
#
# 1 141.4749 70.2408 49.6880 -6.4300 22.8369 2.6418
# 2 70.2408 131.4557 37.4817 -12.0489 17.0548 -8.8163
# 3 49.6880 37.4817 111.7713 -11.9526 24.6695 -10.7791
# 4 -6.4300 -12.0489 -11.9526 24.7809 -1.2512 10.6958
# 5 22.8369 17.0548 24.6695 -1.2512 54.0711 -9.6412
# 6 2.6418 -8.8163 -10.7791 10.6958 -9.6412 44.5585
#
#
#
# Elastic Compliance Matrix: (Units=1/GPa)
#
#
# Indices 1 2 3 4 5 6 
#
# 1 0.010975 -0.004897 -0.003006 0.000139 -0.002226 -0.002862
# 2 -0.004897 0.010929 -0.000891 0.002986 -0.000658 0.001378
# 3 -0.003006 -0.000891 0.011896 0.003832 -0.003576 0.001186
# 4 0.000139 0.002986 0.003832 0.048183 -0.003565 -0.010828
# 5 -0.002226 -0.000658 -0.003576 -0.003565 0.022040 0.004761
# 6 -0.002862 0.001378 0.001186 -0.010828 0.004761 0.026801
#
#
# Mechanical properties :
#
#
# Convention : Reuss Voigt Hill
#
# Bulk Modulus (GPa) = 61.68650 77.72475 69.70563
# Shear Modulus (GPa) = 32.50632 39.83485 36.17058
#
# Velocity S-wave (km/s) = 3.72815 4.12707 3.93267
# Velocity P-wave (km/s) = 6.70136 7.47957 7.10114
#
# Compressibility (1/GPa) = 0.01621100
#
# Stress axis : x y z
#
# Youngs Moduli (GPa) = 91.11712 91.49719 84.06532
#
# Poissons Ratio (x) = 0.44810 0.25273
# Poissons Ratio (y) = 0.44624 0.07486
# Poissons Ratio (z) = 0.27393 0.08148
#
# Static dielectric constant tensor:
#      x y z
#    x 4.721670 -0.094010 0.221070 
#    y -0.094010 4.971000 -0.039570 
#    z 0.221070 -0.039570 4.737520 
# 
# 
# High freq. dielectric constant tensor:
#      x y z
#    x 1.944030 0.007980 0.014540 
#    y 0.007980 1.899630 -0.012320 
#    z 0.014540 -0.012320 1.943270 
# 
# From -- ./inp_files/245414.got.cif
#   From: 2010.06.25/outbox.cif.g09.slc.cpg/sg2_123_cif.got.tgz:245414.got - 2010.06.27 13:26:56.
