data_PCOD8021507
_publ_section_title
;
Structure prediction by ZEFSAII (Michael W. Deem and Ramdas Pophale) SiO2 
 PCOD8021507
Probable space group: P -1
;
_chemical_formula_sum "Si O2"
_cell_formula_units_Z 14
_cell_length_a 9.106649
_cell_length_b 9.140792
_cell_length_c 18.111328
_cell_angle_alpha 155.678577
_cell_angle_beta 122.220335
_cell_angle_gamma 59.470993
_cell_volume 524.243230
_symmetry_space_group_name_H-M "P -1"
_symmetry_group_IT_number 2
_symmetry_cell_setting 'triclinic'
loop_
_space_group_symop_operation_xyz
x,y,z
-x,-y,-z
loop_
_atom_site_type_symbol
_atom_site_label
_atom_site_fract_x
_atom_site_fract_y
_atom_site_fract_z
Si Si1 0.488349 0.632281 0.368655
Si Si2 0.894752 0.381863 0.988014
Si Si3 0.318479 0.546738 0.793479
Si Si4 0.333363 0.296808 0.399542
Si Si5 0.382716 0.204269 0.803259
Si Si6 0.833631 0.754668 0.881517
Si Si7 0.968209 0.354306 0.606685
O O1 0.547039 0.364505 0.193958
O O2 0.616304 0.588586 0.452444
O O3 0.288597 0.578779 0.309064
O O4 0.500000 0.000000 0.500000
O O5 0.769206 0.066942 0.790452
O O6 0.795413 0.722131 0.162184
O O7 0.000000 0.500000 0.000000
O O8 0.052782 0.224842 0.006610
O O9 0.366865 0.236493 0.724088
O O10 0.147473 0.427210 0.647260
O O11 0.293740 0.893687 0.997968
O O12 0.204967 0.625973 0.482431
O O13 0.505906 0.189561 0.342669
O O14 0.500000 0.500000 0.000000
O O15 0.953849 0.700591 0.816797
O O16 0.000000 0.000000 0.500000
#
# Coordination Sequence:
#
# PCOD8021507 Si02
#       7
#     2   2   2   2   2   2   2
#     4  12  26  47  75 112 161 197 249 318 384 451
#     4  11  23  44  78 114 150 193 257 313 376 457
#     4  12  24  50  75 107 152 204 251 314 381 455
#     4  11  25  51  73 109 155 200 249 313 383 453
#     4  10  22  43  77 107 147 195 247 314 376 453
#     4  12  25  47  75 108 148 203 253 312 382 452
#     4  12  27  50  78 107 151 203 260 316 380 450
#
# _framework density 26.705162999999999
#
# number of rings (size 3 to 8) (size 9 to 14) (size 15 to 20)
#    0.000    0.571    4.286    4.286    2.000    1.143 
#    7.714    0.000    0.000    0.000    0.000    0.000 
#    0.000    0.000    0.000    0.000    0.000    0.000 
#
# Total GULP energy -173470.513282 kJ/mol
# GULP energy per Si atom -12390.750949 kJ/mol
# Density = 2.664438 g / cm^3
# Si number density = 26.705163 Si / 1000 Ang^3
#
#
#
# Elastic Constant Matrix: (Units=GPa)
#
#
# Indices 1 2 3 4 5 6 
#
# 1 111.4943 61.3050 18.7560 -13.0192 -7.0158 5.2946
# 2 61.3050 153.0344 38.4957 -3.7844 -9.5259 3.9605
# 3 18.7560 38.4957 71.6588 1.7270 -20.4590 -8.8261
# 4 -13.0192 -3.7844 1.7270 57.7035 -12.3079 -5.9788
# 5 -7.0158 -9.5259 -20.4590 -12.3079 49.2468 -6.7877
# 6 5.2946 3.9605 -8.8261 -5.9788 -6.7877 40.7607
#
#
#
# Elastic Compliance Matrix: (Units=1/GPa)
#
#
# Indices 1 2 3 4 5 6 
#
# 1 0.011937 -0.004498 -0.000514 0.002598 0.001177 -0.000648
# 2 -0.004498 0.009385 -0.004318 -0.000639 -0.000989 -0.001521
# 3 -0.000514 -0.004318 0.019574 0.001479 0.008468 0.006352
# 4 0.002598 -0.000639 0.001479 0.019585 0.006303 0.003967
# 5 0.001177 -0.000989 0.008468 0.006303 0.026353 0.007090
# 6 -0.000648 -0.001521 0.006352 0.003967 0.007090 0.027903
#
#
# Mechanical properties :
#
#
# Convention : Reuss Voigt Hill
#
# Bulk Modulus (GPa) = 44.97671 63.70008 54.33840
# Shear Modulus (GPa) = 35.50859 44.05093 39.77976
#
# Velocity S-wave (km/s) = 3.65040 4.06585 3.86371
# Velocity P-wave (km/s) = 5.88606 6.77837 6.34791
#
# Compressibility (1/GPa) = 0.02223373
#
# Stress axis : x y z
#
# Youngs Moduli (GPa) = 83.77230 106.55504 51.08790
#
# Poissons Ratio (x) = 0.47932 0.02628
# Poissons Ratio (y) = 0.37684 0.22062
# Poissons Ratio (z) = 0.04309 0.46016
#
# Static dielectric constant tensor:
#      x y z
#    x 2.428100 -2.477830 0.301660 
#    y -2.477830 2.704270 0.058590 
#    z 0.301660 0.058590 5.015560 
# 
# 
# High freq. dielectric constant tensor:
#      x y z
#    x 2.088970 -0.017260 0.011180 
#    y -0.017260 2.068950 0.007440 
#    z 0.011180 0.007440 2.102340 
# 
# From -- ./inp_files/557726.got.cif
#   From: 2010.06.25/outbox.cif.g09.slc.cpg/sg2_279_cif.got.tgz:557726.got - 2010.06.27 13:26:56.
