data_PCOD8021772
_publ_section_title
;
Structure prediction by ZEFSAII (Michael W. Deem and Ramdas Pophale) SiO2 
 PCOD8021772
Probable space group: P -1
;
_chemical_formula_sum "Si O2"
_cell_formula_units_Z 16
_cell_length_a 9.595299
_cell_length_b 11.541262
_cell_length_c 8.793724
_cell_angle_alpha 67.239303
_cell_angle_beta 120.160161
_cell_angle_gamma 128.268158
_cell_volume 656.946913
_symmetry_space_group_name_H-M "P -1"
_symmetry_group_IT_number 2
_symmetry_cell_setting 'triclinic'
loop_
_space_group_symop_operation_xyz
x,y,z
-x,-y,-z
loop_
_atom_site_type_symbol
_atom_site_label
_atom_site_fract_x
_atom_site_fract_y
_atom_site_fract_z
Si Si1 0.339404 0.644463 0.360451
Si Si2 0.181962 0.806920 0.324910
Si Si3 0.866316 0.935955 0.799454
Si Si4 0.764156 0.793005 0.513524
Si Si5 0.723846 0.827081 0.140112
Si Si6 0.998402 0.341141 0.379832
Si Si7 0.688767 0.356186 0.012026
Si Si8 0.792339 0.653734 0.061367
O O1 0.354218 0.792087 0.364808
O O2 0.543235 0.663563 0.493378
O O3 0.168264 0.508318 0.430983
O O4 0.280950 0.616019 0.165373
O O5 0.117534 0.747708 0.490788
O O6 0.011992 0.704636 0.164919
O O7 0.238577 0.977263 0.257438
O O8 0.853700 0.926430 0.614783
O O9 0.759973 0.766384 0.884256
O O10 0.095576 0.036416 0.922871
O O11 0.760605 0.866584 0.316103
O O12 0.898285 0.728038 0.617188
O O13 0.728962 0.677167 0.183737
O O14 0.517818 0.795531 0.994808
O O15 0.851891 0.338957 0.179916
O O16 0.674781 0.488174 0.016653
#
# Coordination Sequence:
#
# PCOD8021772 Si02
#       8
#     2   2   2   2   2   2   2   2
#     4  11  25  43  65 106 139 174 226 281 340 399
#     4  11  24  42  70  98 139 180 225 280 336 404
#     4  11  24  45  71  96 137 188 224 274 341 404
#     4  11  24  43  71  98 136 180 229 276 336 409
#     4  10  22  44  68 102 135 174 231 275 338 402
#     4  12  23  43  71 101 140 175 226 285 341 394
#     4  11  25  42  71 106 134 177 226 284 339 400
#     4  11  22  44  71  98 141 179 226 276 344 404
#
# _framework density 24.355087000000001
#
# number of rings (size 3 to 8) (size 9 to 14) (size 15 to 20)
#    0.000    1.000    3.750    4.125    1.750    2.500 
#    0.000    1.875    0.000    0.000    0.000    0.000 
#    0.000    0.000    0.000    0.000    0.000    0.000 
#
# Total GULP energy -198307.286585 kJ/mol
# GULP energy per Si atom -12394.205412 kJ/mol
# Density = 2.429965 g / cm^3
# Si number density = 24.355087 Si / 1000 Ang^3
#
#
#
# Elastic Constant Matrix: (Units=GPa)
#
#
# Indices 1 2 3 4 5 6 
#
# 1 50.4604 6.0099 4.8290 16.2071 -4.3057 -1.0783
# 2 6.0099 75.0377 30.2380 9.5333 1.4563 -2.7218
# 3 4.8290 30.2380 66.6140 9.2465 -1.1930 -1.0145
# 4 16.2071 9.5333 9.2465 27.9640 2.7863 -6.3474
# 5 -4.3057 1.4563 -1.1930 2.7863 35.8073 11.3456
# 6 -1.0783 -2.7218 -1.0145 -6.3474 11.3456 47.1072
#
#
#
# Elastic Compliance Matrix: (Units=1/GPa)
#
#
# Indices 1 2 3 4 5 6 
#
# 1 0.025295 -0.000468 0.000632 -0.015871 0.005213 -0.002828
# 2 -0.000468 0.016638 -0.007137 -0.002797 -0.000959 0.000651
# 3 0.000632 -0.007137 0.018854 -0.004562 0.001669 -0.001009
# 4 -0.015871 -0.002797 -0.004562 0.050113 -0.008432 0.008160
# 5 0.005213 -0.000959 0.001669 -0.008432 0.032081 -0.008763
# 6 -0.002828 0.000651 -0.001009 0.008160 -0.008763 0.024389
#
#
# Mechanical properties :
#
#
# Convention : Reuss Voigt Hill
#
# Bulk Modulus (GPa) = 21.34950 30.47397 25.91173
# Shear Modulus (GPa) = 25.38973 32.24473 28.81723
#
# Velocity S-wave (km/s) = 3.23225 3.64255 3.44352
# Velocity P-wave (km/s) = 4.76601 5.49822 5.14516
#
# Compressibility (1/GPa) = 0.04683951
#
# Stress axis : x y z
#
# Youngs Moduli (GPa) = 39.53413 60.10358 53.03982
#
# Poissons Ratio (x) = 0.02813 -0.03352
# Poissons Ratio (y) = 0.01850 0.37857
# Poissons Ratio (z) = -0.02499 0.42899
#
# Static dielectric constant tensor:
#      x y z
#    x 4.576090 -0.109630 -0.066730 
#    y -0.109630 4.192410 0.225410 
#    z -0.066730 0.225410 4.434870 
# 
# 
# High freq. dielectric constant tensor:
#      x y z
#    x 1.977940 -0.006830 -0.007340 
#    y -0.006830 1.953550 0.017330 
#    z -0.007340 0.017330 1.972200 
# 
# From -- ./inp_files/186172.got.cif
#   From: 2010.06.25/outbox.cif.g09.slc.cpg/sg2_94_cif.got.tgz:186172.got - 2010.06.27 13:26:56.
