data_PCOD8021341
_publ_section_title
;
Structure prediction by ZEFSAII (Michael W. Deem and Ramdas Pophale) SiO2 
 PCOD8021341
Probable space group: P -1
;
_chemical_formula_sum "Si O2"
_cell_formula_units_Z 14
_cell_length_a 8.807056
_cell_length_b 7.852304
_cell_length_c 17.065073
_cell_angle_alpha 95.428509
_cell_angle_beta 31.363213
_cell_angle_gamma 96.977024
_cell_volume 609.577616
_symmetry_space_group_name_H-M "P -1"
_symmetry_group_IT_number 2
_symmetry_cell_setting 'triclinic'
loop_
_space_group_symop_operation_xyz
x,y,z
-x,-y,-z
loop_
_atom_site_type_symbol
_atom_site_label
_atom_site_fract_x
_atom_site_fract_y
_atom_site_fract_z
Si Si1 0.658783 0.014637 0.665522
Si Si2 0.881907 0.367755 0.336535
Si Si3 0.238850 0.874808 0.970133
Si Si4 0.802157 0.027003 0.262509
Si Si5 0.519863 0.431002 0.075453
Si Si6 0.317861 0.370586 0.679277
Si Si7 0.682545 0.679777 0.150918
O O1 0.603376 0.212897 0.712728
O O2 0.539235 0.916191 0.792433
O O3 0.476731 0.941217 0.667489
O O4 0.000000 0.000000 0.500000
O O5 0.816282 0.171740 0.328274
O O6 0.642894 0.416880 0.505989
O O7 0.898739 0.507584 0.264318
O O8 0.188645 0.381033 0.247314
O O9 0.294105 0.734760 0.007147
O O10 0.978356 0.807123 0.022488
O O11 0.112154 0.037040 0.078114
O O12 0.765418 0.833166 0.305434
O O13 0.674529 0.566657 0.072792
O O14 0.500000 0.500000 0.000000
O O15 0.310812 0.428343 0.775955
#
# Coordination Sequence:
#
# PCOD8021341 Si02
#       7
#     2   2   2   2   2   2   2
#     4  10  23  41  70 102 127 174 232 276 330 407
#     4  11  24  41  70 100 140 176 225 278 343 396
#     4  10  23  44  68  95 132 180 221 275 342 397
#     4  10  22  43  70  96 139 179 222 272 347 400
#     4  12  27  40  66 101 132 172 234 280 330 400
#     4   9  22  45  67 100 134 184 222 274 344 405
#     4  10  23  46  69  91 138 175 224 275 339 397
#
# _framework density 22.966723000000002
#
# number of rings (size 3 to 8) (size 9 to 14) (size 15 to 20)
#    0.000    2.000    0.000    4.286   10.000    3.429 
#    2.571    0.000    0.000    0.000    0.000    0.000 
#    0.000    0.000    0.000    0.000    0.000    0.000 
#
# Total GULP energy -173533.334181 kJ/mol
# GULP energy per Si atom -12395.238156 kJ/mol
# Density = 2.291445 g / cm^3
# Si number density = 22.966723 Si / 1000 Ang^3
#
#
#
# Elastic Constant Matrix: (Units=GPa)
#
#
# Indices 1 2 3 4 5 6 
#
# 1 78.8668 29.2720 33.4406 4.0647 6.1184 -1.3038
# 2 29.2720 71.0292 13.9096 2.5979 -0.8396 -14.0323
# 3 33.4406 13.9096 133.0824 8.1973 -14.3251 -8.0276
# 4 4.0647 2.5979 8.1973 31.4483 -11.8644 -0.2411
# 5 6.1184 -0.8396 -14.3251 -11.8644 41.1780 5.4560
# 6 -1.3038 -14.0323 -8.0276 -0.2411 5.4560 32.4498
#
#
#
# Elastic Compliance Matrix: (Units=1/GPa)
#
#
# Indices 1 2 3 4 5 6 
#
# 1 0.017402 -0.006829 -0.004154 -0.002320 -0.004502 -0.002542
# 2 -0.006829 0.018372 0.000328 -0.000537 0.000329 0.007692
# 3 -0.004154 0.000328 0.009021 -0.000551 0.003387 0.001633
# 4 -0.002320 -0.000537 -0.000551 0.036380 0.010892 -0.002023
# 5 -0.004502 0.000329 0.003387 0.010892 0.029825 -0.004134
# 6 -0.002542 0.007692 0.001633 -0.002023 -0.004134 0.035125
#
#
# Mechanical properties :
#
#
# Convention : Reuss Voigt Hill
#
# Bulk Modulus (GPa) = 42.57905 48.46921 45.52413
# Shear Modulus (GPa) = 28.52872 34.77231 31.65051
#
# Velocity S-wave (km/s) = 3.52828 3.89528 3.71631
# Velocity P-wave (km/s) = 5.93110 6.43279 6.18704
#
# Compressibility (1/GPa) = 0.02348573
#
# Stress axis : x y z
#
# Youngs Moduli (GPa) = 57.46365 54.43135 110.85643
#
# Poissons Ratio (x) = 0.37170 0.46050
# Poissons Ratio (y) = 0.39240 -0.03639
# Poissons Ratio (z) = 0.23871 -0.01787
#
# Static dielectric constant tensor:
#      x y z
#    x 4.039750 -0.316840 -0.108730 
#    y -0.316840 4.075390 0.016550 
#    z -0.108730 0.016550 4.319310 
# 
# 
# High freq. dielectric constant tensor:
#      x y z
#    x 1.891820 -0.024410 -0.002910 
#    y -0.024410 1.901180 0.005050 
#    z -0.002910 0.005050 1.924730 
# 
# From -- ./inp_files/556194.got.cif
#   From: 2010.06.25/outbox.cif.g09.slc.cpg/sg2_279_cif.got.tgz:556194.got - 2010.06.27 13:26:56.
