data_PCOD8021137
_publ_section_title
;
Structure prediction by ZEFSAII (Michael W. Deem and Ramdas Pophale) SiO2 
 PCOD8021137
Probable space group: P -1
;
_chemical_formula_sum "Si O2"
_cell_formula_units_Z 16
_cell_length_a 8.807107
_cell_length_b 15.537410
_cell_length_c 5.317242
_cell_angle_alpha 80.910476
_cell_angle_beta 98.254008
_cell_angle_gamma 107.820712
_cell_volume 680.481966
_symmetry_space_group_name_H-M "P -1"
_symmetry_group_IT_number 2
_symmetry_cell_setting 'triclinic'
loop_
_space_group_symop_operation_xyz
x,y,z
-x,-y,-z
loop_
_atom_site_type_symbol
_atom_site_label
_atom_site_fract_x
_atom_site_fract_y
_atom_site_fract_z
Si Si1 0.209984 0.035034 0.793521
Si Si2 0.130436 0.931017 0.317805
Si Si3 0.614820 0.769462 0.216558
Si Si4 0.685644 0.526094 0.982736
Si Si5 0.734093 0.337272 0.920496
Si Si6 0.910106 0.247719 0.340501
Si Si7 0.965650 0.591725 0.375670
Si Si8 0.232413 0.281858 0.230162
O O1 0.362117 0.122323 0.844504
O O2 0.052338 0.068890 0.745429
O O3 0.223570 0.992604 0.543343
O O4 0.212225 0.963953 0.052238
O O5 0.142997 0.829941 0.424389
O O6 0.705449 0.758222 0.494992
O O7 0.428754 0.713913 0.236912
O O8 0.681770 0.734923 0.997326
O O9 0.727036 0.609234 0.758173
O O10 0.500000 0.500000 0.000000
O O11 0.736160 0.438735 0.948816
O O12 0.788319 0.567977 0.232810
O O13 0.752823 0.270695 0.184212
O O14 0.892677 0.348223 0.793101
O O15 0.030505 0.342797 0.421809
O O16 0.039951 0.227258 0.182720
O O17 0.000000 0.500000 0.500000
#
# Coordination Sequence:
#
# PCOD8021137 Si02
#       8
#     2   2   2   2   2   2   2   2
#     4  10  22  43  68 108 139 177 238 305 356 420
#     4  10  23  40  74 103 140 181 237 296 362 426
#     4  12  27  47  73 109 144 189 241 305 360 421
#     4  12  25  46  69 108 144 189 248 295 351 417
#     4  12  28  45  69 103 150 193 238 295 362 432
#     4  12  26  46  72 104 142 195 239 290 364 437
#     4  12  26  47  71 102 147 196 238 296 359 430
#     4  12  26  45  73 105 145 190 246 295 350 427
#
# _framework density 23.512746
#
# number of rings (size 3 to 8) (size 9 to 14) (size 15 to 20)
#    0.000    0.500    5.000    2.625    8.750    0.500 
#    0.000    1.250    0.000    0.000    0.000    0.000 
#    0.000    0.000    0.000    0.000    0.000    0.000 
#
# Total GULP energy -198311.224996 kJ/mol
# GULP energy per Si atom -12394.451562 kJ/mol
# Density = 2.345923 g / cm^3
# Si number density = 23.512746 Si / 1000 Ang^3
#
#
#
# Elastic Constant Matrix: (Units=GPa)
#
#
# Indices 1 2 3 4 5 6 
#
# 1 85.2431 17.4100 26.2360 -0.5537 9.6004 6.9147
# 2 17.4100 122.7791 29.2698 -19.5104 14.5599 5.6691
# 3 26.2360 29.2698 110.1405 -13.1505 -2.0031 -1.0236
# 4 -0.5537 -19.5104 -13.1505 48.9503 -3.0105 8.0418
# 5 9.6004 14.5599 -2.0031 -3.0105 12.6348 -0.1356
# 6 6.9147 5.6691 -1.0236 8.0418 -0.1356 28.0785
#
#
#
# Elastic Compliance Matrix: (Units=1/GPa)
#
#
# Indices 1 2 3 4 5 6 
#
# 1 0.014542 0.000358 -0.003926 -0.000916 -0.012341 -0.003594
# 2 0.000358 0.010966 -0.002855 0.003399 -0.012589 -0.003441
# 3 -0.003926 -0.002855 0.011196 0.002125 0.008569 0.001384
# 4 -0.000916 0.003399 0.002125 0.023684 0.002683 -0.007154
# 5 -0.012341 -0.012589 0.008569 0.002683 0.105089 0.005632
# 6 -0.003594 -0.003441 0.001384 -0.007154 0.005632 0.039321
#
#
# Mechanical properties :
#
#
# Convention : Reuss Voigt Hill
#
# Bulk Modulus (GPa) = 41.91524 51.55494 46.73509
# Shear Modulus (GPa) = 22.16349 34.28253 28.22301
#
# Velocity S-wave (km/s) = 3.07354 3.82257 3.46833
# Velocity P-wave (km/s) = 5.51913 6.43869 5.99656
#
# Compressibility (1/GPa) = 0.02385767
#
# Stress axis : x y z
#
# Youngs Moduli (GPa) = 68.76647 91.18823 89.32064
#
# Poissons Ratio (x) = -0.03262 0.35070
# Poissons Ratio (y) = -0.02460 0.25497
# Poissons Ratio (z) = 0.27000 0.26031
#
# Static dielectric constant tensor:
#      x y z
#    x 4.214720 -0.171030 -0.162360 
#    y -0.171030 5.431920 0.256780 
#    z -0.162360 0.256780 4.545070 
# 
# 
# High freq. dielectric constant tensor:
#      x y z
#    x 1.913850 0.000960 0.005520 
#    y 0.000960 1.945510 -0.013010 
#    z 0.005520 -0.013010 1.935740 
# 
# From -- ./inp_files/38059.got.cif
#   From: 2010.06.25/outbox.cif.g09.slc.cpg/sg2_20_cif.got.tgz:38059.got - 2010.06.27 13:26:56.
