data_PCOD8021581
_publ_section_title
;
Structure prediction by ZEFSAII (Michael W. Deem and Ramdas Pophale) SiO2 
 PCOD8021581
Probable space group: P -1
;
_chemical_formula_sum "Si O2"
_cell_formula_units_Z 16
_cell_length_a 12.615421
_cell_length_b 11.042785
_cell_length_c 9.262846
_cell_angle_alpha 75.070522
_cell_angle_beta 119.923688
_cell_angle_gamma 134.172781
_cell_volume 793.700276
_symmetry_space_group_name_H-M "P -1"
_symmetry_group_IT_number 2
_symmetry_cell_setting 'triclinic'
loop_
_space_group_symop_operation_xyz
x,y,z
-x,-y,-z
loop_
_atom_site_type_symbol
_atom_site_label
_atom_site_fract_x
_atom_site_fract_y
_atom_site_fract_z
Si Si1 0.858001 0.694934 0.587057
Si Si2 0.223976 0.123240 0.347915
Si Si3 0.629728 0.443620 0.031755
Si Si4 0.161447 0.846832 0.541077
Si Si5 0.032399 0.664156 0.937941
Si Si6 0.479642 0.559532 0.737775
Si Si7 0.330362 0.818404 0.899214
Si Si8 0.000072 0.226877 0.820938
O O1 0.855426 0.826654 0.621562
O O2 0.688021 0.549339 0.433568
O O3 0.014192 0.798451 0.555272
O O4 0.878948 0.606650 0.754890
O O5 0.375976 0.278695 0.308881
O O6 0.280285 0.047557 0.515336
O O7 0.075990 0.966099 0.192134
O O8 0.538349 0.375706 0.145247
O O9 0.662414 0.326051 0.034705
O O10 0.801345 0.639794 0.100636
O O11 0.519029 0.441527 0.839549
O O12 0.271783 0.814754 0.698388
O O13 0.075066 0.734651 0.369008
O O14 0.203587 0.794770 0.929110
O O15 0.055023 0.760485 0.066754
O O16 0.000000 0.500000 0.000000
O O17 0.500000 0.000000 0.000000
#
# Coordination Sequence:
#
# PCOD8021581 Si02
#       8
#     2   2   2   2   2   2   2   2
#     4  11  22  42  67  95 129 170 214 263 323 379
#     4  10  23  39  67  96 129 164 219 262 321 366
#     4  11  24  42  66  93 136 171 211 259 334 370
#     4   9  23  43  66  95 124 176 208 262 323 376
#     4  11  24  42  67  97 124 174 215 264 318 380
#     4  11  24  41  65 101 128 172 208 272 316 383
#     4  11  26  43  67  95 133 168 214 266 322 381
#     4  10  22  44  64  96 129 167 218 263 312 389
#
# _framework density 20.158745
#
# number of rings (size 3 to 8) (size 9 to 14) (size 15 to 20)
#    0.750    0.750    2.500    1.500    3.500    4.500 
#    4.500    1.250    0.000    0.000    0.000    0.000 
#    0.000    0.000    0.000    0.000    0.000    0.000 
#
# Total GULP energy -198317.678805 kJ/mol
# GULP energy per Si atom -12394.854925 kJ/mol
# Density = 2.011286 g / cm^3
# Si number density = 20.158745 Si / 1000 Ang^3
#
#
#
# Elastic Constant Matrix: (Units=GPa)
#
#
# Indices 1 2 3 4 5 6 
#
# 1 73.8881 28.0388 43.5345 -3.9527 -2.7581 6.7352
# 2 28.0388 98.5801 39.0186 0.3634 1.8560 5.9914
# 3 43.5345 39.0186 128.0330 -6.2993 0.1197 9.5019
# 4 -3.9527 0.3634 -6.2993 33.5156 1.6337 1.9234
# 5 -2.7581 1.8560 0.1197 1.6337 33.7146 -1.8690
# 6 6.7352 5.9914 9.5019 1.9234 -1.8690 26.5483
#
#
#
# Elastic Compliance Matrix: (Units=1/GPa)
#
#
# Indices 1 2 3 4 5 6 
#
# 1 0.017917 -0.003043 -0.004950 0.001263 0.001475 -0.002075
# 2 -0.003043 0.012133 -0.002629 -0.000881 -0.000922 -0.001026
# 3 -0.004950 -0.002629 0.010526 0.001565 -0.000488 -0.002066
# 4 0.001263 -0.000881 0.001565 0.030535 -0.001500 -0.003000
# 5 0.001475 -0.000922 -0.000488 -0.001500 0.030030 0.002231
# 6 -0.002075 -0.001026 -0.002066 -0.003000 0.002231 0.039539
#
#
# Mechanical properties :
#
#
# Convention : Reuss Voigt Hill
#
# Bulk Modulus (GPa) = 51.73022 57.96499 54.84760
# Shear Modulus (GPa) = 29.69674 31.41631 30.55653
#
# Velocity S-wave (km/s) = 3.84232 3.95200 3.89755
# Velocity P-wave (km/s) = 6.73808 7.04564 6.89358
#
# Compressibility (1/GPa) = 0.01933106
#
# Stress axis : x y z
#
# Youngs Moduli (GPa) = 55.81264 82.41838 95.00551
#
# Poissons Ratio (x) = 0.25081 0.47029
# Poissons Ratio (y) = 0.16985 0.24979
# Poissons Ratio (z) = 0.27628 0.21670
#
# Static dielectric constant tensor:
#      x y z
#    x 16.369150 -1.008930 -3.423920 
#    y -1.008930 3.619240 0.122600 
#    z -3.423920 0.122600 4.844900 
# 
# 
# High freq. dielectric constant tensor:
#      x y z
#    x 1.788840 0.008260 -0.006060 
#    y 0.008260 1.781050 -0.010230 
#    z -0.006060 -0.010230 1.800800 
# 
# From -- ./inp_files/262407.got.cif
#   From: 2010.06.25/outbox.cif.g09.slc.cpg/sg2_132_cif.got.tgz:262407.got - 2010.06.27 13:26:56.
