data_PCOD8021949
_publ_section_title
;
Structure prediction by ZEFSAII (Michael W. Deem and Ramdas Pophale) SiO2 
 PCOD8021949
Probable space group: P -1
;
_chemical_formula_sum "Si O2"
_cell_formula_units_Z 16
_cell_length_a 15.336643
_cell_length_b 12.597551
_cell_length_c 15.466559
_cell_angle_alpha 55.067694
_cell_angle_beta 153.692991
_cell_angle_gamma 142.237672
_cell_volume 701.694358
_symmetry_space_group_name_H-M "P -1"
_symmetry_group_IT_number 2
_symmetry_cell_setting 'triclinic'
loop_
_space_group_symop_operation_xyz
x,y,z
-x,-y,-z
loop_
_atom_site_type_symbol
_atom_site_label
_atom_site_fract_x
_atom_site_fract_y
_atom_site_fract_z
Si Si1 0.628046 0.572335 0.313876
Si Si2 0.342491 0.484932 0.446181
Si Si3 0.239568 0.995553 0.606300
Si Si4 0.872520 0.061682 0.185554
Si Si5 0.263494 0.696725 0.336425
Si Si6 0.364506 0.174978 0.229172
Si Si7 0.383931 0.725237 0.024097
Si Si8 0.645390 0.030223 0.825393
O O1 0.514020 0.487021 0.349204
O O2 0.507974 0.388436 0.238565
O O3 0.462677 0.618387 0.115783
O O4 0.991227 0.777162 0.532071
O O5 0.500000 0.500000 0.500000
O O6 0.403063 0.669162 0.401242
O O7 0.994803 0.258287 0.241533
O O8 0.483128 0.167813 0.813536
O O9 0.388989 0.987112 0.665464
O O10 0.075588 0.040932 0.401761
O O11 0.531958 0.886195 0.004488
O O12 0.869358 0.076535 0.072056
O O13 0.487615 0.824850 0.556917
O O14 0.177580 0.787376 0.171093
O O15 0.980063 0.460014 0.221360
O O16 0.474252 0.147512 0.256514
O O17 0.000000 0.000000 0.000000
#
# Coordination Sequence:
#
# PCOD8021949 Si02
#       8
#     2   2   2   2   2   2   2   2
#     4  10  22  44  71 100 138 193 227 283 355 417
#     4  11  22  37  68  99 142 179 234 282 347 416
#     4  11  23  45  73 106 151 178 227 291 360 424
#     4  11  24  42  71 108 146 188 222 287 354 424
#     4  11  27  44  70 103 138 185 240 294 352 419
#     4  11  27  50  73  93 138 194 244 290 353 412
#     4  11  22  46  71 106 146 183 226 285 368 425
#     4  12  28  43  72 105 140 187 244 292 338 410
#
# _framework density 22.801952
#
# number of rings (size 3 to 8) (size 9 to 14) (size 15 to 20)
#    0.000    1.000    2.500    3.375   10.500    2.500 
#    0.000    1.250    0.000    0.000    0.000    0.000 
#    0.000    0.000    0.000    0.000    0.000    0.000 
#
# Total GULP energy -198248.612072 kJ/mol
# GULP energy per Si atom -12390.538254 kJ/mol
# Density = 2.275005 g / cm^3
# Si number density = 22.801952 Si / 1000 Ang^3
#
#
#
# Elastic Constant Matrix: (Units=GPa)
#
#
# Indices 1 2 3 4 5 6 
#
# 1 106.0086 29.4813 28.9700 1.2900 -24.4743 -20.9193
# 2 29.4813 101.2077 27.6601 7.4511 -29.3073 -6.4895
# 3 28.9700 27.6601 109.2570 7.0740 -20.3526 4.6057
# 4 1.2900 7.4511 7.0740 30.1153 2.3081 -3.3179
# 5 -24.4743 -29.3073 -20.3526 2.3081 30.3953 4.9330
# 6 -20.9193 -6.4895 4.6057 -3.3179 4.9330 43.6789
#
#
#
# Elastic Compliance Matrix: (Units=1/GPa)
#
#
# Indices 1 2 3 4 5 6 
#
# 1 0.013024 -0.000705 -0.002125 0.000151 0.007476 0.005524
# 2 -0.000705 0.014427 -0.000731 -0.004370 0.013175 0.000063
# 3 -0.002125 -0.000731 0.011355 -0.003209 0.005957 -0.003240
# 4 0.000151 -0.004370 -0.003209 0.036163 -0.009569 0.003589
# 5 0.007476 0.013175 0.005957 -0.009569 0.056699 -0.002220
# 6 0.005524 0.000063 -0.003240 0.003589 -0.002220 0.026415
#
#
# Mechanical properties :
#
#
# Convention : Reuss Voigt Hill
#
# Bulk Modulus (GPa) = 31.56098 54.29957 42.93027
# Shear Modulus (GPa) = 28.44685 36.19537 32.32111
#
# Velocity S-wave (km/s) = 3.53592 3.98852 3.76902
# Velocity P-wave (km/s) = 5.52645 6.71389 6.14890
#
# Compressibility (1/GPa) = 0.03168469
#
# Stress axis : x y z
#
# Youngs Moduli (GPa) = 76.77919 69.31594 88.06463
#
# Poissons Ratio (x) = 0.04888 0.18713
# Poissons Ratio (y) = 0.05414 0.06436
# Poissons Ratio (z) = 0.16315 0.05066
#
# Static dielectric constant tensor:
#      x y z
#    x 4.213490 0.130620 0.164660 
#    y 0.130620 6.218070 0.975130 
#    z 0.164660 0.975130 4.456870 
# 
# 
# High freq. dielectric constant tensor:
#      x y z
#    x 1.898000 -0.008790 0.010480 
#    y -0.008790 1.922770 -0.005710 
#    z 0.010480 -0.005710 1.891940 
# 
# From -- ./inp_files/532449.got.cif
#   From: 2010.06.25/outbox.cif.g09.slc.cpg/sg2_267_cif.got.tgz:532449.got - 2010.06.27 13:26:56.
