data_PCOD8021625
_publ_section_title
;
Structure prediction by ZEFSAII (Michael W. Deem and Ramdas Pophale) SiO2 
 PCOD8021625
Probable space group: P -1
;
_chemical_formula_sum "Si O2"
_cell_formula_units_Z 14
_cell_length_a 11.928481
_cell_length_b 22.550727
_cell_length_c 7.999721
_cell_angle_alpha 44.715080
_cell_angle_beta 147.340946
_cell_angle_gamma 147.034963
_cell_volume 631.798195
_symmetry_space_group_name_H-M "P -1"
_symmetry_group_IT_number 2
_symmetry_cell_setting 'triclinic'
loop_
_space_group_symop_operation_xyz
x,y,z
-x,-y,-z
loop_
_atom_site_type_symbol
_atom_site_label
_atom_site_fract_x
_atom_site_fract_y
_atom_site_fract_z
Si Si1 0.419752 0.571335 0.811736
Si Si2 0.879268 0.331248 0.191766
Si Si3 0.954638 0.778704 0.162435
Si Si4 0.499370 0.967884 0.374822
Si Si5 0.401369 0.119308 0.839246
Si Si6 0.107331 0.515178 0.864057
Si Si7 0.877643 0.943643 0.725600
O O1 0.318257 0.544856 0.927937
O O2 0.194229 0.551496 0.449503
O O3 0.500000 0.500000 0.000000
O O4 0.691169 0.695351 0.887430
O O5 0.794395 0.372293 0.153338
O O6 0.020523 0.283426 0.534695
O O7 0.618207 0.240141 0.940096
O O8 0.097813 0.435929 0.142494
O O9 0.219387 0.844314 0.243969
O O10 0.938424 0.869125 0.037329
O O11 0.747127 0.969458 0.650123
O O12 0.500000 0.000000 0.500000
O O13 0.517045 0.053583 0.105382
O O14 0.327244 0.125774 0.545526
O O15 0.145602 0.056596 0.766669
#
# Coordination Sequence:
#
# PCOD8021625 Si02
#       7
#     2   2   2   2   2   2   2
#     4  11  23  44  66  93 126 169 217 260 320 384
#     4  11  22  45  63  98 130 165 216 269 321 372
#     4  11  24  39  66  96 130 167 212 262 321 383
#     4  11  23  41  66  99 131 165 214 265 313 386
#     4  10  22  44  65  95 130 168 216 262 316 385
#     4  10  25  43  68  91 131 169 213 271 317 377
#     4  10  24  42  68  95 129 175 211 257 323 384
#
# _framework density 22.158975000000002
#
# number of rings (size 3 to 8) (size 9 to 14) (size 15 to 20)
#    0.000    1.429    2.857    1.286    2.000    5.143 
#    0.000    0.000    0.000    0.000    0.000    0.000 
#    0.000    0.000    0.000    0.000    0.000    0.000 
#
# Total GULP energy -173613.041735 kJ/mol
# GULP energy per Si atom -12400.931552 kJ/mol
# Density = 2.210854 g / cm^3
# Si number density = 22.158975 Si / 1000 Ang^3
#
#
#
# Elastic Constant Matrix: (Units=GPa)
#
#
# Indices 1 2 3 4 5 6 
#
# 1 117.2610 31.7380 33.1654 -20.3437 22.2114 -11.6154
# 2 31.7380 113.1997 30.3266 -1.2698 4.5135 -12.7936
# 3 33.1654 30.3266 89.7991 -26.9360 15.3244 -3.9943
# 4 -20.3437 -1.2698 -26.9360 45.9642 -0.5608 -8.7734
# 5 22.2114 4.5135 15.3244 -0.5608 42.7316 4.4059
# 6 -11.6154 -12.7936 -3.9943 -8.7734 4.4059 22.2092
#
#
#
# Elastic Compliance Matrix: (Units=1/GPa)
#
#
# Indices 1 2 3 4 5 6 
#
# 1 0.012727 -0.002053 -0.000160 0.007255 -0.007251 0.009749
# 2 -0.002053 0.010668 -0.003391 -0.001913 0.000765 0.003554
# 3 -0.000160 -0.003391 0.016976 0.010963 -0.006180 0.006573
# 4 0.007255 -0.001913 0.010963 0.035111 -0.009138 0.020346
# 5 -0.007251 0.000765 -0.006180 -0.009138 0.030646 -0.014153
# 6 0.009749 0.003554 0.006573 0.020346 -0.014153 0.064200
#
#
# Mechanical properties :
#
#
# Convention : Reuss Voigt Hill
#
# Bulk Modulus (GPa) = 34.29035 56.74665 45.51850
# Shear Modulus (GPa) = 26.14316 37.18298 31.66307
#
# Velocity S-wave (km/s) = 3.43855 4.10080 3.78419
# Velocity P-wave (km/s) = 5.59224 6.93444 6.29919
#
# Compressibility (1/GPa) = 0.02916273
#
# Stress axis : x y z
#
# Youngs Moduli (GPa) = 78.57500 93.74112 58.90812
#
# Poissons Ratio (x) = 0.19246 0.00941
# Poissons Ratio (y) = 0.16132 0.19974
# Poissons Ratio (z) = 0.01255 0.31785
#
# Static dielectric constant tensor:
#      x y z
#    x 3.759800 -0.042930 -0.004990 
#    y -0.042930 4.428840 0.204160 
#    z -0.004990 0.204160 4.359440 
# 
# 
# High freq. dielectric constant tensor:
#      x y z
#    x 1.852050 -0.007950 -0.001530 
#    y -0.007950 1.883110 0.003560 
#    z -0.001530 0.003560 1.887490 
# 
# From -- ./inp_files/285146.got.cif
#   From: 2010.06.25/outbox.cif.g09.slc.cpg/sg2_143_cif.got.tgz:285146.got - 2010.06.27 13:26:56.
