data_PCOD8021190
_publ_section_title
;
Structure prediction by ZEFSAII (Michael W. Deem and Ramdas Pophale) SiO2 
 PCOD8021190
Probable space group: P -1
;
_chemical_formula_sum "Si O2"
_cell_formula_units_Z 14
_cell_length_a 14.489776
_cell_length_b 18.813451
_cell_length_c 6.924169
_cell_angle_alpha 135.781466
_cell_angle_beta 57.953212
_cell_angle_gamma 151.355930
_cell_volume 603.092952
_symmetry_space_group_name_H-M "P -1"
_symmetry_group_IT_number 2
_symmetry_cell_setting 'triclinic'
loop_
_space_group_symop_operation_xyz
x,y,z
-x,-y,-z
loop_
_atom_site_type_symbol
_atom_site_label
_atom_site_fract_x
_atom_site_fract_y
_atom_site_fract_z
Si Si1 0.432730 0.242563 0.155769
Si Si2 0.665796 0.048277 0.370554
Si Si3 0.871554 0.181866 0.801491
Si Si4 0.672291 0.397744 0.829284
Si Si5 0.202355 0.714472 0.631889
Si Si6 0.054898 0.938955 0.221879
Si Si7 0.638247 0.524999 0.793825
O O1 0.567970 0.432700 0.483414
O O2 0.203144 0.084031 0.163103
O O3 0.498732 0.305870 0.982946
O O4 0.452653 0.136522 0.969004
O O5 0.781500 0.094001 0.517506
O O6 0.830396 0.231557 0.403729
O O7 0.500000 0.000000 0.500000
O O8 0.855640 0.066600 0.724065
O O9 0.738624 0.168275 0.021581
O O10 0.105068 0.400219 0.945553
O O11 0.641336 0.251204 0.541215
O O12 0.630463 0.415126 0.706678
O O13 0.000000 0.500000 0.500000
O O14 0.000000 0.000000 0.500000
O O15 0.863348 0.741315 0.943678
O O16 0.500000 0.500000 0.000000
#
# Coordination Sequence:
#
# PCOD8021190 Si02
#       7
#     2   2   2   2   2   2   2
#     4  12  26  43  74 103 143 180 239 292 346 422
#     4  12  26  43  67 110 141 185 240 284 357 425
#     4  10  25  45  70  99 148 184 235 294 351 426
#     4  10  25  43  69 107 134 188 237 284 364 413
#     4  10  22  43  68  97 139 184 228 287 355 415
#     4  11  24  50  75 103 137 192 238 291 361 415
#     4  11  26  49  71  99 146 184 235 297 353 417
#
# _framework density 23.213668999999999
#
# number of rings (size 3 to 8) (size 9 to 14) (size 15 to 20)
#    0.000    1.143    4.286    0.000    6.000    3.429 
#    0.000    1.429    0.000    0.000    0.000    0.000 
#    0.000    0.000    0.000    0.000    0.000    0.000 
#
# Total GULP energy -173436.184717 kJ/mol
# GULP energy per Si atom -12388.298908 kJ/mol
# Density = 2.316083 g / cm^3
# Si number density = 23.213669 Si / 1000 Ang^3
#
#
#
# Elastic Constant Matrix: (Units=GPa)
#
#
# Indices 1 2 3 4 5 6 
#
# 1 56.5597 6.5848 30.4438 4.3638 -11.1447 5.7773
# 2 6.5848 116.9439 40.1231 -12.8028 4.4376 -1.0058
# 3 30.4438 40.1231 145.2410 -4.4695 -28.6329 1.6135
# 4 4.3638 -12.8028 -4.4695 41.8873 3.9723 -12.5860
# 5 -11.1447 4.4376 -28.6329 3.9723 38.0753 -5.6358
# 6 5.7773 -1.0058 1.6135 -12.5860 -5.6358 24.3938
#
#
#
# Elastic Compliance Matrix: (Units=1/GPa)
#
#
# Indices 1 2 3 4 5 6 
#
# 1 0.021506 -0.000643 -0.003817 -0.005188 0.003028 -0.006845
# 2 -0.000643 0.010355 -0.003439 0.003801 -0.004109 0.001819
# 3 -0.003817 -0.003439 0.010016 0.000314 0.007063 0.001894
# 4 -0.005188 0.003801 0.000314 0.030868 -0.002471 0.016720
# 5 0.003028 -0.004109 0.007063 -0.002471 0.033971 0.005220
# 6 -0.006845 0.001819 0.001894 0.016720 0.005220 0.052398
#
#
# Mechanical properties :
#
#
# Convention : Reuss Voigt Hill
#
# Bulk Modulus (GPa) = 38.34492 52.56088 45.45290
# Shear Modulus (GPa) = 27.23251 36.97747 32.10499
#
# Velocity S-wave (km/s) = 3.42881 3.99547 3.72293
# Velocity P-wave (km/s) = 5.67712 6.63147 6.17277
#
# Compressibility (1/GPa) = 0.02607907
#
# Stress axis : x y z
#
# Youngs Moduli (GPa) = 46.49915 96.57264 99.83711
#
# Poissons Ratio (x) = 0.06210 0.38107
# Poissons Ratio (y) = 0.02990 0.34334
# Poissons Ratio (z) = 0.17748 0.33211
#
# Static dielectric constant tensor:
#      x y z
#    x 4.148840 -0.093400 -0.295150 
#    y -0.093400 4.540970 -0.096730 
#    z -0.295150 -0.096730 4.549040 
# 
# 
# High freq. dielectric constant tensor:
#      x y z
#    x 1.889260 -0.007460 -0.029550 
#    y -0.007460 1.941140 -0.003440 
#    z -0.029550 -0.003440 1.931920 
# 
# From -- ./inp_files/99969.got.cif
#   From: 2010.06.25/outbox.cif.g09.slc.cpg/sg2_50_cif.got.tgz:99969.got - 2010.06.27 13:26:56.
