data_PCOD8021851
_publ_section_title
;
Structure prediction by ZEFSAII (Michael W. Deem and Ramdas Pophale) SiO2 
 PCOD8021851
Probable space group: P -1
;
_chemical_formula_sum "Si O2"
_cell_formula_units_Z 12
_cell_length_a 9.047634
_cell_length_b 11.343061
_cell_length_c 9.229015
_cell_angle_alpha 63.643879
_cell_angle_beta 66.127596
_cell_angle_gamma 39.366970
_cell_volume 535.157990
_symmetry_space_group_name_H-M "P -1"
_symmetry_group_IT_number 2
_symmetry_cell_setting 'triclinic'
loop_
_space_group_symop_operation_xyz
x,y,z
-x,-y,-z
loop_
_atom_site_type_symbol
_atom_site_label
_atom_site_fract_x
_atom_site_fract_y
_atom_site_fract_z
Si Si1 0.045272 0.036115 0.807652
Si Si2 0.737192 0.740063 0.666475
Si Si3 0.840839 0.559791 0.170032
Si Si4 0.299933 0.154112 0.691680
Si Si5 0.574570 0.389006 0.678670
Si Si6 0.501773 0.618297 0.824632
O O1 0.122428 0.139066 0.751548
O O2 0.823914 0.164845 0.714155
O O3 0.249295 0.828724 0.768452
O O4 0.000000 0.000000 0.000000
O O5 0.731140 0.735750 0.497060
O O6 0.668563 0.635277 0.809360
O O7 0.997073 0.618497 0.686020
O O8 0.568463 0.947057 0.693720
O O9 0.746314 0.744142 0.193915
O O10 0.622177 0.597100 0.193470
O O11 0.000000 0.500000 0.000000
O O12 0.500000 0.500000 0.500000
O O13 0.607155 0.497200 0.704587
O O14 0.500000 0.500000 0.000000
#
# Coordination Sequence:
#
# PCOD8021851 Si02
#       6
#     2   2   2   2   2   2
#     4  11  24  42  73  93 126 179 227 269 320 393
#     4  10  22  44  69  93 125 178 225 269 322 392
#     4  12  26  39  63  99 140 166 206 276 345 383
#     4  10  23  44  69  93 126 174 230 266 320 405
#     4  12  26  43  66 102 137 171 218 278 338 391
#     4  11  22  42  71  96 129 175 230 266 323 401
#
# _framework density 22.423283999999999
#
# number of rings (size 3 to 8) (size 9 to 14) (size 15 to 20)
#    0.000    1.000    1.667    4.500    4.667    2.667 
#    0.000    0.000    0.000    0.000    0.000    0.000 
#    0.000    0.000    0.000    0.000    0.000    0.000 
#
# Total GULP energy -148732.288189 kJ/mol
# GULP energy per Si atom -12394.357349 kJ/mol
# Density = 2.237225 g / cm^3
# Si number density = 22.423284 Si / 1000 Ang^3
#
#
#
# Elastic Constant Matrix: (Units=GPa)
#
#
# Indices 1 2 3 4 5 6 
#
# 1 68.7167 48.8345 9.2853 -11.3605 -6.6299 -14.4017
# 2 48.8345 132.1917 25.4328 -6.3419 9.4196 -3.1011
# 3 9.2853 25.4328 94.3339 -7.8437 -2.3823 10.0479
# 4 -11.3605 -6.3419 -7.8437 41.5781 2.1124 10.0349
# 5 -6.6299 9.4196 -2.3823 2.1124 39.1185 3.4453
# 6 -14.4017 -3.1011 10.0479 10.0349 3.4453 42.4796
#
#
#
# Elastic Compliance Matrix: (Units=1/GPa)
#
#
# Indices 1 2 3 4 5 6 
#
# 1 0.022918 -0.008504 -0.000206 0.003209 0.005216 0.006017
# 2 -0.008504 0.011392 -0.002275 -0.000550 -0.004202 -0.001042
# 3 -0.000206 -0.002275 0.011899 0.002686 0.001427 -0.003801
# 4 0.003209 -0.000550 0.002686 0.026781 -0.000086 -0.005907
# 5 0.005216 -0.004202 0.001427 -0.000086 0.027647 -0.001098
# 6 0.006017 -0.001042 -0.003801 -0.005907 -0.001098 0.027888
#
#
# Mechanical properties :
#
#
# Convention : Reuss Voigt Hill
#
# Bulk Modulus (GPa) = 41.25330 51.37196 46.31263
# Shear Modulus (GPa) = 31.53102 38.74788 35.13945
#
# Velocity S-wave (km/s) = 3.75397 4.16146 3.96295
# Velocity P-wave (km/s) = 6.10141 6.78602 6.45280
#
# Compressibility (1/GPa) = 0.02424048
#
# Stress axis : x y z
#
# Youngs Moduli (GPa) = 43.63346 87.77741 84.04417
#
# Poissons Ratio (x) = 0.74642 0.01728
# Poissons Ratio (y) = 0.37104 0.19122
# Poissons Ratio (z) = 0.00897 0.19972
#
# Static dielectric constant tensor:
#      x y z
#    x 3.950830 -0.651010 -0.357920 
#    y -0.651010 5.495940 0.361500 
#    z -0.357920 0.361500 4.017060 
# 
# 
# High freq. dielectric constant tensor:
#      x y z
#    x 1.877100 -0.009590 -0.009730 
#    y -0.009590 1.902050 -0.003760 
#    z -0.009730 -0.003760 1.888150 
# 
# From -- ./inp_files/157030.got.cif
#   From: 2010.06.25/outbox.cif.g09.slc.cpg/sg2_79_cif.got.tgz:157030.got - 2010.06.27 13:26:56.
