data_PCOD8021951
_publ_section_title
;
Structure prediction by ZEFSAII (Michael W. Deem and Ramdas Pophale) SiO2 
 PCOD8021951
Probable space group: P -1
;
_chemical_formula_sum "Si O2"
_cell_formula_units_Z 16
_cell_length_a 15.504847
_cell_length_b 13.025309
_cell_length_c 10.944366
_cell_angle_alpha 78.971314
_cell_angle_beta 65.806516
_cell_angle_gamma 27.505688
_cell_volume 849.789413
_symmetry_space_group_name_H-M "P -1"
_symmetry_group_IT_number 2
_symmetry_cell_setting 'triclinic'
loop_
_space_group_symop_operation_xyz
x,y,z
-x,-y,-z
loop_
_atom_site_type_symbol
_atom_site_label
_atom_site_fract_x
_atom_site_fract_y
_atom_site_fract_z
Si Si1 0.634640 0.801049 0.865663
Si Si2 0.291206 0.765208 0.006356
Si Si3 0.682271 0.969388 0.749670
Si Si4 0.200689 0.495435 0.957668
Si Si5 0.645340 0.437370 0.198239
Si Si6 0.742117 0.959740 0.998921
Si Si7 0.166016 0.974614 0.412511
Si Si8 0.907692 0.119714 0.332680
O O1 0.756660 0.773561 0.726142
O O2 0.801713 0.554671 0.893690
O O3 0.500000 0.000000 0.000000
O O4 0.457741 0.913073 0.861341
O O5 0.085203 0.932230 0.165659
O O6 0.312233 0.868633 0.969715
O O7 0.500000 0.500000 0.000000
O O8 0.276081 0.743664 0.879290
O O9 0.418766 0.240101 0.815405
O O10 0.815482 0.918329 0.598285
O O11 0.739156 0.952746 0.856494
O O12 0.213555 0.608277 0.931571
O O13 0.977091 0.685329 0.975559
O O14 0.384948 0.716713 0.273362
O O15 0.689929 0.378192 0.330906
O O16 0.966493 0.144882 0.398314
O O17 0.130813 0.955166 0.567684
#
# Coordination Sequence:
#
# PCOD8021951 Si02
#       8
#     2   2   2   2   2   2   2   2
#     4   8  17  27  43  67  96 124 160 200 249 289
#     4  12  20  33  50  75 107 133 164 207 245 296
#     4   9  17  31  45  68  96 127 161 206 240 291
#     4   9  16  27  45  67  97 127 153 199 248 290
#     4  11  20  33  50  75 105 132 165 201 247 297
#     4  10  17  29  43  70  98 126 159 200 250 290
#     4  10  20  36  51  71 104 134 167 200 246 294
#     4  11  21  33  51  73 102 137 164 202 244 297
#
# _framework density 18.828192999999999
#
# number of rings (size 3 to 8) (size 9 to 14) (size 15 to 20)
#    0.000    2.250    3.750    2.250    0.000    4.500 
#    0.000    0.000    0.000    0.000    0.000    4.375 
#    0.000    0.000    0.000    0.000    0.000    0.000 
#
# Total GULP energy -198229.924811 kJ/mol
# GULP energy per Si atom -12389.370301 kJ/mol
# Density = 1.878534 g / cm^3
# Si number density = 18.828193 Si / 1000 Ang^3
#
#
#
# Elastic Constant Matrix: (Units=GPa)
#
#
# Indices 1 2 3 4 5 6 
#
# 1 127.7295 62.3715 45.8031 -27.2958 -25.9716 13.8037
# 2 62.3715 90.7129 16.4503 -30.3541 -3.3001 -9.0677
# 3 45.8031 16.4503 49.1862 -19.0879 -16.7809 15.6334
# 4 -27.2958 -30.3541 -19.0879 25.7425 10.2712 -7.1457
# 5 -25.9716 -3.3001 -16.7809 10.2712 28.5284 -12.4716
# 6 13.8037 -9.0677 15.6334 -7.1457 -12.4716 36.9900
#
#
#
# Elastic Compliance Matrix: (Units=1/GPa)
#
#
# Indices 1 2 3 4 5 6 
#
# 1 0.020594 -0.016123 -0.013412 -0.013052 0.011707 -0.004543
# 2 -0.016123 0.034630 0.010304 0.040414 -0.013267 0.013485
# 3 -0.013412 0.010304 0.041909 0.027001 0.002042 -0.004277
# 4 -0.013052 0.040414 0.027001 0.106153 -0.022410 0.016317
# 5 0.011707 -0.013267 0.002042 -0.022410 0.056115 0.006107
# 6 -0.004543 0.013485 -0.004277 0.016317 0.006107 0.039054
#
#
# Mechanical properties :
#
#
# Convention : Reuss Voigt Hill
#
# Bulk Modulus (GPa) = 17.04467 57.43095 37.23781
# Shear Modulus (GPa) = 14.02624 27.78576 20.90600
#
# Velocity S-wave (km/s) = 2.73236 3.84572 3.33582
# Velocity P-wave (km/s) = 4.36197 7.09142 5.88706
#
# Compressibility (1/GPa) = 0.05866937
#
# Stress axis : x y z
#
# Youngs Moduli (GPa) = 48.55822 28.87682 23.86111
#
# Poissons Ratio (x) = 0.46559 0.32003
# Poissons Ratio (y) = 0.78292 -0.24586
# Poissons Ratio (z) = 0.65127 -0.29754
#
# Static dielectric constant tensor:
#      x y z
#    x 4.304070 -0.212790 -0.220560 
#    y -0.212790 4.452480 -0.836430 
#    z -0.220560 -0.836430 3.537710 
# 
# 
# High freq. dielectric constant tensor:
#      x y z
#    x 1.740660 -0.009550 -0.029620 
#    y -0.009550 1.735070 -0.029230 
#    z -0.029620 -0.029230 1.671220 
# 
# From -- ./inp_files/451404.got.cif
#   From: 2010.06.25/outbox.cif.g09.slc.cpg/sg2_226_cif.got.tgz:451404.got - 2010.06.27 13:26:56.
