data_PCOD8021735
_publ_section_title
;
Structure prediction by ZEFSAII (Michael W. Deem and Ramdas Pophale) SiO2 
 PCOD8021735
Probable space group: P -1
;
_chemical_formula_sum "Si O2"
_cell_formula_units_Z 14
_cell_length_a 9.266408
_cell_length_b 16.420208
_cell_length_c 9.775803
_cell_angle_alpha 43.598417
_cell_angle_beta 137.940208
_cell_angle_gamma 133.316569
_cell_volume 650.755283
_symmetry_space_group_name_H-M "P -1"
_symmetry_group_IT_number 2
_symmetry_cell_setting 'triclinic'
loop_
_space_group_symop_operation_xyz
x,y,z
-x,-y,-z
loop_
_atom_site_type_symbol
_atom_site_label
_atom_site_fract_x
_atom_site_fract_y
_atom_site_fract_z
Si Si1 0.828379 0.477665 0.032380
Si Si2 0.344678 0.343075 0.849263
Si Si3 0.876793 0.711275 0.951760
Si Si4 0.108754 0.732937 0.497617
Si Si5 0.199267 0.127243 0.820441
Si Si6 0.710224 0.121354 0.803762
Si Si7 0.768044 0.888575 0.448754
O O1 0.788770 0.339709 0.234188
O O2 0.566636 0.462089 0.827275
O O3 0.912286 0.585650 0.071542
O O4 0.000000 0.500000 0.000000
O O5 0.367870 0.221500 0.932603
O O6 0.122776 0.369770 0.598784
O O7 0.298876 0.316282 0.011476
O O8 0.768494 0.771797 0.682803
O O9 0.129480 0.799815 0.059344
O O10 0.281892 0.788968 0.428603
O O11 0.047359 0.850732 0.375554
O O12 0.277988 0.156379 0.684573
O O13 0.185197 0.988503 0.023957
O O14 0.446282 0.064496 0.726338
O O15 0.000000 0.000000 0.500000
#
# Coordination Sequence:
#
# PCOD8021735 Si02
#       7
#     2   2   2   2   2   2   2
#     4  12  25  42  68  98 132 171 223 269 328 384
#     4   9  24  44  65  93 134 174 217 268 319 389
#     4  11  25  43  68  96 134 174 221 264 323 398
#     4   9  23  43  66  96 126 178 214 267 324 384
#     4  10  22  44  67  96 137 163 223 270 327 383
#     4  11  23  42  70  97 130 175 215 271 330 385
#     4  12  25  40  66 102 134 170 215 270 334 383
#
# _framework density 21.513463999999999
#
# number of rings (size 3 to 8) (size 9 to 14) (size 15 to 20)
#    0.857    0.571    1.429    3.000    2.000    5.143 
#    0.000    2.143    0.000    0.000    0.000    0.000 
#    0.000    0.000    0.000    0.000    0.000    0.000 
#
# Total GULP energy -173482.281700 kJ/mol
# GULP energy per Si atom -12391.591550 kJ/mol
# Density = 2.146450 g / cm^3
# Si number density = 21.513464 Si / 1000 Ang^3
#
#
#
# Elastic Constant Matrix: (Units=GPa)
#
#
# Indices 1 2 3 4 5 6 
#
# 1 137.1109 61.5927 38.4102 12.8602 -9.3520 -3.0485
# 2 61.5927 120.4340 16.3787 5.1716 5.4282 -10.4004
# 3 38.4102 16.3787 79.9876 -10.6966 -14.0567 -10.5622
# 4 12.8602 5.1716 -10.6966 22.2951 -2.0698 7.3937
# 5 -9.3520 5.4282 -14.0567 -2.0698 39.8185 6.5228
# 6 -3.0485 -10.4004 -10.5622 7.3937 6.5228 41.0994
#
#
#
# Elastic Compliance Matrix: (Units=1/GPa)
#
#
# Indices 1 2 3 4 5 6 
#
# 1 0.012025 -0.005130 -0.005685 -0.008169 0.001188 -0.000586
# 2 -0.005130 0.011439 -0.000215 -0.001182 -0.003428 0.003216
# 3 -0.005685 -0.000215 0.018008 0.012115 0.005501 0.001099
# 4 -0.008169 -0.001182 0.012115 0.059516 0.007192 -0.009640
# 5 0.001188 -0.003428 0.005501 0.007192 0.029039 -0.005268
# 6 -0.000586 0.003216 0.001099 -0.009640 -0.005268 0.027954
#
#
# Mechanical properties :
#
#
# Convention : Reuss Voigt Hill
#
# Bulk Modulus (GPa) = 51.51406 63.36620 57.44013
# Shear Modulus (GPa) = 26.80813 35.38599 31.09706
#
# Velocity S-wave (km/s) = 3.53386 4.06005 3.80606
# Velocity P-wave (km/s) = 6.37557 7.17613 6.78766
#
# Compressibility (1/GPa) = 0.01941218
#
# Stress axis : x y z
#
# Youngs Moduli (GPa) = 83.16334 87.41969 55.53166
#
# Poissons Ratio (x) = 0.44845 0.31569
# Poissons Ratio (y) = 0.42662 0.01193
# Poissons Ratio (z) = 0.47277 0.01879
#
# Static dielectric constant tensor:
#      x y z
#    x 3.847990 -0.064320 -0.064710 
#    y -0.064320 3.676870 0.060360 
#    z -0.064710 0.060360 3.767060 
# 
# 
# High freq. dielectric constant tensor:
#      x y z
#    x 1.853080 -0.002160 -0.004420 
#    y -0.002160 1.833070 0.004560 
#    z -0.004420 0.004560 1.840340 
# 
# From -- ./inp_files/195445.got.cif
#   From: 2010.06.25/outbox.cif.g09.slc.cpg/sg2_98_cif.got.tgz:195445.got - 2010.06.27 13:26:56.
