data_PCOD8021186
_publ_section_title
;
Structure prediction by ZEFSAII (Michael W. Deem and Ramdas Pophale) SiO2 
 PCOD8021186
Probable space group: P -1
;
_chemical_formula_sum "Si O2"
_cell_formula_units_Z 16
_cell_length_a 12.598330
_cell_length_b 16.179779
_cell_length_c 9.223172
_cell_angle_alpha 104.875223
_cell_angle_beta 144.625933
_cell_angle_gamma 56.041574
_cell_volume 821.780148
_symmetry_space_group_name_H-M "P -1"
_symmetry_group_IT_number 2
_symmetry_cell_setting 'triclinic'
loop_
_space_group_symop_operation_xyz
x,y,z
-x,-y,-z
loop_
_atom_site_type_symbol
_atom_site_label
_atom_site_fract_x
_atom_site_fract_y
_atom_site_fract_z
Si Si1 0.781445 0.602116 0.386223
Si Si2 0.531319 0.725267 0.888705
Si Si3 0.885663 0.259220 0.626888
Si Si4 0.752364 0.546064 0.818815
Si Si5 0.959514 0.722088 0.634718
Si Si6 0.721432 0.444959 0.323847
Si Si7 0.740502 0.357033 0.804473
Si Si8 0.318872 0.128665 0.845922
O O1 0.825855 0.681590 0.547835
O O2 0.724677 0.545068 0.417095
O O3 0.000000 0.500000 0.500000
O O4 0.571909 0.672960 0.068987
O O5 0.263236 0.783471 0.576527
O O6 0.709121 0.633526 0.926978
O O7 0.549910 0.821268 0.955803
O O8 0.725969 0.386165 0.447005
O O9 0.912587 0.270473 0.832389
O O10 0.130560 0.172136 0.783796
O O11 0.760582 0.453934 0.872093
O O12 0.524975 0.602571 0.483923
O O13 0.000000 0.500000 0.000000
O O14 0.789266 0.842673 0.426711
O O15 0.053952 0.649794 0.560489
O O16 0.152077 0.706328 0.949701
O O17 0.500000 0.500000 0.000000
O O18 0.500000 0.000000 0.000000
#
# Coordination Sequence:
#
# PCOD8021186 Si02
#       8
#     2   2   2   2   2   2   2   2
#     4   9  16  28  47  72 108 141 178 216 260 313
#     4  10  19  35  52  79 108 139 185 228 267 323
#     4  10  21  35  56  80 109 148 180 221 271 328
#     4  10  20  32  52  79 118 158 178 203 256 330
#     4   9  20  35  49  77 109 141 181 230 273 325
#     4  10  17  28  50  76 109 144 182 213 257 325
#     4  10  21  35  51  81 120 148 180 209 264 339
#     4  10  22  41  61  78  99 137 193 248 287 316
#
# _framework density 19.469927999999999
#
# number of rings (size 3 to 8) (size 9 to 14) (size 15 to 20)
#    0.000    2.250    1.250    3.000    3.500    1.500 
#    0.000    0.625    0.000    3.000    0.000    0.000 
#    0.000    0.000    0.000    0.000    0.000    0.000 
#
# Total GULP energy -198211.029260 kJ/mol
# GULP energy per Si atom -12388.189329 kJ/mol
# Density = 1.942561 g / cm^3
# Si number density = 19.469928 Si / 1000 Ang^3
#
#
#
# Elastic Constant Matrix: (Units=GPa)
#
#
# Indices 1 2 3 4 5 6 
#
# 1 78.2774 40.0038 39.0965 -0.0693 7.4755 -2.2630
# 2 40.0038 100.3546 55.2291 -8.5519 1.0653 3.9048
# 3 39.0965 55.2291 108.0285 -3.2617 -15.2236 6.6116
# 4 -0.0693 -8.5519 -3.2617 24.8130 -2.0182 2.2072
# 5 7.4755 1.0653 -15.2236 -2.0182 29.3384 5.0160
# 6 -2.2630 3.9048 6.6116 2.2072 5.0160 17.2412
#
#
#
# Elastic Compliance Matrix: (Units=1/GPa)
#
#
# Indices 1 2 3 4 5 6 
#
# 1 0.020022 -0.004736 -0.007062 -0.004260 -0.010604 0.010039
# 2 -0.004736 0.015891 -0.006465 0.004594 -0.002116 -0.001714
# 3 -0.007062 -0.006465 0.017657 0.002056 0.013100 -0.010308
# 4 -0.004260 0.004594 0.002056 0.043567 0.006676 -0.009908
# 5 -0.010604 -0.002116 0.013100 0.006676 0.047652 -0.020654
# 6 0.010039 -0.001714 -0.010308 -0.009908 -0.020654 0.070937
#
#
# Mechanical properties :
#
#
# Convention : Reuss Voigt Hill
#
# Bulk Modulus (GPa) = 58.67166 61.70215 60.18690
# Shear Modulus (GPa) = 19.38493 24.43393 21.90943
#
# Velocity S-wave (km/s) = 3.15879 3.54638 3.35818
# Velocity P-wave (km/s) = 6.59575 6.96627 6.78354
#
# Compressibility (1/GPa) = 0.01704400
#
# Stress axis : x y z
#
# Youngs Moduli (GPa) = 49.94601 62.92907 56.63498
#
# Poissons Ratio (x) = 0.29800 0.39997
# Poissons Ratio (y) = 0.23652 0.36614
# Poissons Ratio (z) = 0.35273 0.40683
#
# Static dielectric constant tensor:
#      x y z
#    x 3.746010 0.330190 0.079820 
#    y 0.330190 3.399810 0.219700 
#    z 0.079820 0.219700 3.633930 
# 
# 
# High freq. dielectric constant tensor:
#      x y z
#    x 1.754360 0.013800 0.005460 
#    y 0.013800 1.711670 0.023850 
#    z 0.005460 0.023850 1.764960 
# 
# From -- ./inp_files/273518.got.cif
#   From: 2010.06.25/outbox.cif.g09.slc.cpg/sg2_137_cif.got.tgz:273518.got - 2010.06.27 13:26:56.
