data_PCOD8021621
_publ_section_title
;
Structure prediction by ZEFSAII (Michael W. Deem and Ramdas Pophale) SiO2 
 PCOD8021621
Probable space group: P -1
;
_chemical_formula_sum "Si O2"
_cell_formula_units_Z 14
_cell_length_a 14.202119
_cell_length_b 10.816190
_cell_length_c 17.521824
_cell_angle_alpha 31.058620
_cell_angle_beta 27.933778
_cell_angle_gamma 31.203756
_cell_volume 594.026296
_symmetry_space_group_name_H-M "P -1"
_symmetry_group_IT_number 2
_symmetry_cell_setting 'triclinic'
loop_
_space_group_symop_operation_xyz
x,y,z
-x,-y,-z
loop_
_atom_site_type_symbol
_atom_site_label
_atom_site_fract_x
_atom_site_fract_y
_atom_site_fract_z
Si Si1 0.504642 0.446573 0.397515
Si Si2 0.305609 0.606706 0.864995
Si Si3 0.178181 0.111219 0.933706
Si Si4 0.080799 0.383295 0.389521
Si Si5 0.256496 0.651017 0.234219
Si Si6 0.368676 0.860677 0.388169
Si Si7 0.764788 0.880250 0.279109
O O1 0.641009 0.496334 0.205249
O O2 0.327878 0.726228 0.410901
O O3 0.667462 0.289777 0.432384
O O4 0.395981 0.265503 0.535223
O O5 0.492110 0.402946 0.894830
O O6 0.314957 0.889961 0.722560
O O7 0.056078 0.633757 0.040416
O O8 0.373045 0.194784 0.771663
O O9 0.213769 0.993040 0.884648
O O10 0.158406 0.912293 0.115642
O O11 0.249037 0.403590 0.322821
O O12 0.889353 0.317257 0.601641
O O13 0.993667 0.657422 0.262291
O O14 0.209428 0.164612 0.349746
#
# Coordination Sequence:
#
# PCOD8021621 Si02
#       7
#     2   2   2   2   2   2   2
#     4  10  22  44  65  94 126 181 217 266 314 386
#     4  12  23  41  69  97 135 163 218 270 325 391
#     4  11  25  42  65 100 134 171 207 274 328 382
#     4  11  23  41  67  99 131 167 222 266 318 395
#     4  11  24  40  67 102 130 170 212 272 331 370
#     4  10  24  42  67  92 133 176 220 258 325 385
#     4  11  23  40  68 100 127 169 216 270 329 369
#
# _framework density 23.567981
#
# number of rings (size 3 to 8) (size 9 to 14) (size 15 to 20)
#    0.000    1.143    2.857    3.429    4.000    2.286 
#    0.000    2.143    0.000    0.000    0.000    0.000 
#    0.000    0.000    0.000    0.000    0.000    0.000 
#
# Total GULP energy -173497.737394 kJ/mol
# GULP energy per Si atom -12392.695528 kJ/mol
# Density = 2.351434 g / cm^3
# Si number density = 23.567981 Si / 1000 Ang^3
#
#
#
# Elastic Constant Matrix: (Units=GPa)
#
#
# Indices 1 2 3 4 5 6 
#
# 1 68.5929 41.4915 18.5964 3.8457 18.0181 6.7607
# 2 41.4915 99.5809 10.1549 12.3233 5.6770 5.9356
# 3 18.5964 10.1549 63.0176 6.0736 16.0762 -12.7553
# 4 3.8457 12.3233 6.0736 29.3767 -2.1112 -1.0332
# 5 18.0181 5.6770 16.0762 -2.1112 26.8135 5.8141
# 6 6.7607 5.9356 -12.7553 -1.0332 5.8141 48.2198
#
#
#
# Elastic Compliance Matrix: (Units=1/GPa)
#
#
# Indices 1 2 3 4 5 6 
#
# 1 0.024174 -0.009021 -0.002904 0.000286 -0.012231 -0.001566
# 2 -0.009021 0.014274 -0.000159 -0.004594 0.002988 -0.000993
# 3 -0.002904 -0.000159 0.022222 -0.004837 -0.013414 0.007819
# 4 0.000286 -0.004594 -0.004837 0.037391 0.006792 -0.000772
# 5 -0.012231 0.002988 -0.013414 0.006792 0.055351 -0.008730
# 6 -0.001566 -0.000993 0.007819 -0.000772 -0.008730 0.024185
#
#
# Mechanical properties :
#
#
# Convention : Reuss Voigt Hill
#
# Bulk Modulus (GPa) = 27.39557 41.29741 34.34649
# Shear Modulus (GPa) = 23.37176 31.61192 27.49184
#
# Velocity S-wave (km/s) = 3.15250 3.66636 3.41910
# Velocity P-wave (km/s) = 4.99002 5.95682 5.49472
#
# Compressibility (1/GPa) = 0.03650225
#
# Stress axis : x y z
#
# Youngs Moduli (GPa) = 41.36646 70.05573 45.00033
#
# Poissons Ratio (x) = 0.63197 0.13070
# Poissons Ratio (y) = 0.37317 0.00714
# Poissons Ratio (z) = 0.12015 0.01112
#
# Static dielectric constant tensor:
#      x y z
#    x 4.515740 0.028090 0.141390 
#    y 0.028090 4.097210 0.125890 
#    z 0.141390 0.125890 4.043620 
# 
# 
# High freq. dielectric constant tensor:
#      x y z
#    x 1.939150 -0.001220 0.011070 
#    y -0.001220 1.918010 0.009870 
#    z 0.011070 0.009870 1.915670 
# 
# From -- ./inp_files/304746.got.cif
#   From: 2010.06.25/outbox.cif.g09.slc.cpg/sg2_153_cif.got.tgz:304746.got - 2010.06.27 13:26:56.
