data_PCOD8021180
_publ_section_title
;
Structure prediction by ZEFSAII (Michael W. Deem and Ramdas Pophale) SiO2 
 PCOD8021180
Probable space group: P -1
;
_chemical_formula_sum "Si O2"
_cell_formula_units_Z 14
_cell_length_a 14.929143
_cell_length_b 14.568021
_cell_length_c 6.067419
_cell_angle_alpha 105.300670
_cell_angle_beta 103.745997
_cell_angle_gamma 29.925440
_cell_volume 634.864743
_symmetry_space_group_name_H-M "P -1"
_symmetry_group_IT_number 2
_symmetry_cell_setting 'triclinic'
loop_
_space_group_symop_operation_xyz
x,y,z
-x,-y,-z
loop_
_atom_site_type_symbol
_atom_site_label
_atom_site_fract_x
_atom_site_fract_y
_atom_site_fract_z
Si Si1 0.855716 0.069601 0.324933
Si Si2 0.036392 0.205972 0.054442
Si Si3 0.577632 0.867997 0.759776
Si Si4 0.746120 0.331708 0.102816
Si Si5 0.065815 0.538542 0.168117
Si Si6 0.758967 0.855822 0.536817
Si Si7 0.407895 0.638053 0.342075
O O1 0.792410 0.194911 0.173141
O O2 0.701663 0.181386 0.486809
O O3 0.000000 0.000000 0.500000
O O4 0.903014 0.925974 0.167884
O O5 0.198482 0.096896 0.236624
O O6 0.890598 0.287195 0.182997
O O7 0.950969 0.366658 0.967857
O O8 0.720124 0.660608 0.784644
O O9 0.690767 0.827491 0.622080
O O10 0.403336 0.972022 0.613763
O O11 0.500000 0.000000 0.000000
O O12 0.556612 0.545830 0.202419
O O13 0.730296 0.312081 0.828212
O O14 0.942592 0.669079 0.393083
O O15 0.000000 0.500000 0.000000
O O16 0.500000 0.500000 0.500000
#
# Coordination Sequence:
#
# PCOD8021180 Si02
#       7
#     2   2   2   2   2   2   2
#     4  11  23  42  72  94 141 188 230 294 349 418
#     4  12  26  41  71 110 136 188 248 282 358 429
#     4  11  23  48  76 102 141 189 236 299 366 424
#     4  10  22  43  68  96 139 185 234 292 353 420
#     4  12  25  47  74 103 146 186 238 300 359 431
#     4  11  25  44  76 103 142 185 241 295 363 422
#     4   9  20  41  68  96 134 186 227 293 359 409
#
# _framework density 22.051940999999999
#
# number of rings (size 3 to 8) (size 9 to 14) (size 15 to 20)
#    0.000    1.143    4.286    0.857    2.000    0.000 
#    0.000   18.571    0.000    0.000    0.000    0.000 
#    0.000    0.000    0.000    0.000    0.000    0.000 
#
# Total GULP energy -173481.167125 kJ/mol
# GULP energy per Si atom -12391.511937 kJ/mol
# Density = 2.200175 g / cm^3
# Si number density = 22.051941 Si / 1000 Ang^3
#
#
#
# Elastic Constant Matrix: (Units=GPa)
#
#
# Indices 1 2 3 4 5 6 
#
# 1 88.3343 48.7236 39.0424 3.4941 13.2308 2.0531
# 2 48.7236 152.7003 75.5095 -1.2179 16.1342 -9.1514
# 3 39.0424 75.5095 147.1016 -2.9417 21.8915 -7.4085
# 4 3.4941 -1.2179 -2.9417 51.0484 -8.6038 -2.6275
# 5 13.2308 16.1342 21.8915 -8.6038 41.6789 -2.1383
# 6 2.0531 -9.1514 -7.4085 -2.6275 -2.1383 31.7112
#
#
#
# Elastic Compliance Matrix: (Units=1/GPa)
#
#
# Indices 1 2 3 4 5 6 
#
# 1 0.014699 -0.003704 -0.001755 -0.001815 -0.002827 -0.002772
# 2 -0.003704 0.009828 -0.003885 0.000306 -0.000414 0.002166
# 3 -0.001755 -0.003885 0.009759 0.000143 -0.002980 0.001083
# 4 -0.001815 0.000306 0.000143 0.020648 0.004761 0.002271
# 5 -0.002827 -0.000414 -0.002980 0.004761 0.027682 0.001629
# 6 -0.002772 0.002166 0.001083 0.002271 0.001629 0.032890
#
#
# Mechanical properties :
#
#
# Convention : Reuss Voigt Hill
#
# Bulk Modulus (GPa) = 64.11242 79.40968 71.76105
# Shear Modulus (GPa) = 35.86965 39.87841 37.87403
#
# Velocity S-wave (km/s) = 4.03749 4.25713 4.14876
# Velocity P-wave (km/s) = 7.13243 7.76226 7.45400
#
# Compressibility (1/GPa) = 0.01559760
#
# Stress axis : x y z
#
# Youngs Moduli (GPa) = 68.03103 101.75342 102.47164
#
# Poissons Ratio (x) = 0.37692 0.17984
# Poissons Ratio (y) = 0.25200 0.39808
# Poissons Ratio (z) = 0.11940 0.39529
#
# Static dielectric constant tensor:
#      x y z
#    x 3.737780 -0.818050 -0.237120 
#    y -0.818050 4.209880 0.366970 
#    z -0.237120 0.366970 4.596310 
# 
# 
# High freq. dielectric constant tensor:
#      x y z
#    x 1.847070 -0.021660 -0.010010 
#    y -0.021660 1.877670 -0.002160 
#    z -0.010010 -0.002160 1.892450 
# 
# From -- ./inp_files/88917.got.cif
#   From: 2010.06.25/outbox.cif.g09.slc.cpg/sg2_45_cif.got.tgz:88917.got - 2010.06.27 13:26:56.
