data_PCOD8021937
_publ_section_title
;
Structure prediction by ZEFSAII (Michael W. Deem and Ramdas Pophale) SiO2 
 PCOD8021937
Probable space group: P -1
;
_chemical_formula_sum "Si O2"
_cell_formula_units_Z 16
_cell_length_a 25.326637
_cell_length_b 11.546836
_cell_length_c 6.078253
_cell_angle_alpha 67.027206
_cell_angle_beta 122.298320
_cell_angle_gamma 152.707100
_cell_volume 672.370307
_symmetry_space_group_name_H-M "P -1"
_symmetry_group_IT_number 2
_symmetry_cell_setting 'triclinic'
loop_
_space_group_symop_operation_xyz
x,y,z
-x,-y,-z
loop_
_atom_site_type_symbol
_atom_site_label
_atom_site_fract_x
_atom_site_fract_y
_atom_site_fract_z
Si Si1 0.101252 0.430068 0.682765
Si Si2 0.125740 0.950218 0.278771
Si Si3 0.340791 0.461178 0.661223
Si Si4 0.769280 0.096073 0.247915
Si Si5 0.909961 0.235252 0.090431
Si Si6 0.699807 0.385954 0.243132
Si Si7 0.501154 0.152252 0.654455
Si Si8 0.509699 0.626041 0.247333
O O1 0.208400 0.718185 0.786753
O O2 0.167991 0.434717 0.696096
O O3 0.014639 0.233812 0.846511
O O4 0.989560 0.291550 0.391456
O O5 0.125649 0.803759 0.465349
O O6 0.242344 0.233812 0.431824
O O7 0.145832 0.968515 0.049677
O O8 0.269126 0.439503 0.665181
O O9 0.460006 0.733088 0.589376
O O10 0.389866 0.437085 0.953025
O O11 0.789462 0.097577 0.034080
O O12 0.628680 0.804849 0.222138
O O13 0.000000 0.500000 0.000000
O O14 0.627111 0.158503 0.409289
O O15 0.615431 0.272486 0.926717
O O16 0.463820 0.200853 0.691005
O O17 0.500000 0.500000 0.500000
#
# Coordination Sequence:
#
# PCOD8021937 Si02
#       8
#     2   2   2   2   2   2   2   2
#     4  11  22  41  69 101 134 181 240 287 348 417
#     4  11  24  42  64 100 143 182 230 285 354 418
#     4  11  26  46  68 101 146 187 230 294 353 421
#     4  11  22  40  68 100 138 176 234 289 352 423
#     4  11  21  40  66  99 138 183 230 288 347 412
#     4  10  23  44  70 101 136 190 244 287 342 415
#     4  10  22  44  70  98 142 184 240 290 344 417
#     4  11  25  44  71 107 143 183 229 291 365 426
#
# _framework density 23.796412
#
# number of rings (size 3 to 8) (size 9 to 14) (size 15 to 20)
#    0.000    1.250    3.750    1.875    0.000   11.500 
#    0.000    1.875    0.000    0.000    0.000    0.000 
#    0.000    0.000    0.000    0.000    0.000    0.000 
#
# Total GULP energy -198315.869122 kJ/mol
# GULP energy per Si atom -12394.741820 kJ/mol
# Density = 2.374225 g / cm^3
# Si number density = 23.796412 Si / 1000 Ang^3
#
#
#
# Elastic Constant Matrix: (Units=GPa)
#
#
# Indices 1 2 3 4 5 6 
#
# 1 186.3797 62.0765 47.8850 8.7463 -18.8663 27.0206
# 2 62.0765 109.7552 36.5308 -6.7619 -7.9230 13.0881
# 3 47.8850 36.5308 67.7291 -5.5882 -12.9481 -3.5246
# 4 8.7463 -6.7619 -5.5882 34.7572 -4.4776 -8.1443
# 5 -18.8663 -7.9230 -12.9481 -4.4776 39.8368 0.8267
# 6 27.0206 13.0881 -3.5246 -8.1443 0.8267 44.9180
#
#
#
# Elastic Compliance Matrix: (Units=1/GPa)
#
#
# Indices 1 2 3 4 5 6 
#
# 1 0.008830 -0.002771 -0.005147 -0.004748 0.001545 -0.005798
# 2 -0.002771 0.012639 -0.004831 0.001884 -0.000115 -0.002051
# 3 -0.005147 -0.004831 0.022787 0.006331 0.004567 0.007356
# 4 -0.004748 0.001884 0.006331 0.033923 0.003812 0.008885
# 5 0.001545 -0.000115 0.004567 0.003812 0.027732 -0.000357
# 6 -0.005798 -0.002051 0.007356 0.008885 -0.000357 0.028543
#
#
# Mechanical properties :
#
#
# Convention : Reuss Voigt Hill
#
# Bulk Modulus (GPa) = 53.30736 72.98316 63.14526
# Shear Modulus (GPa) = 30.08345 38.39386 34.23865
#
# Velocity S-wave (km/s) = 3.55942 4.02111 3.79729
# Velocity P-wave (km/s) = 6.27237 7.23156 6.76898
#
# Compressibility (1/GPa) = 0.01875914
#
# Stress axis : x y z
#
# Youngs Moduli (GPa) = 113.24650 79.12162 43.88381
#
# Poissons Ratio (x) = 0.21924 0.22586
# Poissons Ratio (y) = 0.31380 0.21200
# Poissons Ratio (z) = 0.58285 0.38224
#
# Static dielectric constant tensor:
#      x y z
#    x 4.562700 -0.330200 0.170520 
#    y -0.330200 2.814990 0.542610 
#    z 0.170520 0.542610 3.828850 
# 
# 
# High freq. dielectric constant tensor:
#      x y z
#    x 1.963440 0.010090 -0.016810 
#    y 0.010090 1.938020 -0.007860 
#    z -0.016810 -0.007860 1.922400 
# 
# From -- ./inp_files/123641.got.cif
#   From: 2010.06.25/outbox.cif.g09.slc.cpg/sg2_62_cif.got.tgz:123641.got - 2010.06.27 13:26:56.
