data_PCOD8021927
_publ_section_title
;
Structure prediction by ZEFSAII (Michael W. Deem and Ramdas Pophale) SiO2 
 PCOD8021927
Probable space group: P -1
;
_chemical_formula_sum "Si O2"
_cell_formula_units_Z 14
_cell_length_a 11.861967
_cell_length_b 13.946792
_cell_length_c 7.005448
_cell_angle_alpha 80.294485
_cell_angle_beta 124.532327
_cell_angle_gamma 54.040429
_cell_volume 509.388514
_symmetry_space_group_name_H-M "P -1"
_symmetry_group_IT_number 2
_symmetry_cell_setting 'triclinic'
loop_
_space_group_symop_operation_xyz
x,y,z
-x,-y,-z
loop_
_atom_site_type_symbol
_atom_site_label
_atom_site_fract_x
_atom_site_fract_y
_atom_site_fract_z
Si Si1 0.399394 0.839360 0.652815
Si Si2 0.283607 0.546579 0.452175
Si Si3 0.649236 0.162133 0.833050
Si Si4 0.751837 0.739836 0.504094
Si Si5 0.794059 0.237657 0.420815
Si Si6 0.117792 0.359996 0.898074
Si Si7 0.990079 0.225548 0.256926
O O1 0.428569 0.792476 0.476550
O O2 0.400235 0.736978 0.807541
O O3 0.134792 0.050227 0.357760
O O4 0.634920 0.770959 0.955979
O O5 0.541151 0.328200 0.761272
O O6 0.322273 0.625543 0.569850
O O7 0.058965 0.626037 0.328421
O O8 0.201718 0.613602 0.133017
O O9 0.524188 0.144573 0.834142
O O10 0.946848 0.972185 0.205283
O O11 0.796856 0.823565 0.450755
O O12 0.962480 0.551729 0.660795
O O13 0.791088 0.712555 0.776694
O O14 0.818924 0.289576 0.243128
#
# Coordination Sequence:
#
# PCOD8021927 Si02
#       7
#     2   2   2   2   2   2   2
#     4  11  22  41  67  96 135 179 214 273 330 395
#     4  10  23  47  71  95 130 177 221 276 329 391
#     4  10  22  44  70  96 135 171 220 276 334 386
#     4   8  17  37  64  96 124 171 219 271 323 392
#     4  12  26  44  64 102 137 172 222 272 331 396
#     4   8  17  38  67  93 126 171 223 265 329 389
#     4  11  23  41  69  96 135 175 223 269 329 396
#
# _framework density 27.483933
#
# number of rings (size 3 to 8) (size 9 to 14) (size 15 to 20)
#    0.000    2.000    1.429    3.429    2.000    2.857 
#    7.714    4.286    0.000    0.000    0.000    0.000 
#    0.000    0.000    0.000    0.000    0.000    0.000 
#
# Total GULP energy -173534.249902 kJ/mol
# GULP energy per Si atom -12395.303564 kJ/mol
# Density = 2.742138 g / cm^3
# Si number density = 27.483933 Si / 1000 Ang^3
#
#
#
# Elastic Constant Matrix: (Units=GPa)
#
#
# Indices 1 2 3 4 5 6 
#
# 1 157.7556 28.4298 17.8277 -1.4556 -13.9467 18.8924
# 2 28.4298 107.6966 77.6811 -31.1263 -8.8125 13.7507
# 3 17.8277 77.6811 91.2379 -7.1171 2.7241 -3.6084
# 4 -1.4556 -31.1263 -7.1171 22.8661 4.0917 1.9650
# 5 -13.9467 -8.8125 2.7241 4.0917 20.5266 -3.8372
# 6 18.8924 13.7507 -3.6084 1.9650 -3.8372 47.8916
#
#
#
# Elastic Compliance Matrix: (Units=1/GPa)
#
#
# Indices 1 2 3 4 5 6 
#
# 1 0.007322 -0.003519 0.001035 -0.004607 0.004004 -0.001290
# 2 -0.003519 0.206060 -0.161390 0.227944 0.047952 -0.075447
# 3 0.001035 -0.161390 0.138159 -0.174482 -0.040881 0.060223
# 4 -0.004607 0.227944 -0.174482 0.299224 0.042225 -0.085671
# 5 0.004004 0.047952 -0.040881 0.042225 0.066257 -0.014852
# 6 -0.001290 -0.075447 0.060223 -0.085671 -0.014852 0.049915
#
#
# Mechanical properties :
#
#
# Convention : Reuss Voigt Hill
#
# Bulk Modulus (GPa) = 42.02511 67.17416 54.59964
# Shear Modulus (GPa) = 4.53468 33.77363 19.15415
#
# Velocity S-wave (km/s) = 1.28589 3.50930 2.64279
# Velocity P-wave (km/s) = 4.18673 6.39645 5.40570
#
# Compressibility (1/GPa) = 0.02379530
#
# Stress axis : x y z
#
# Youngs Moduli (GPa) = 136.57372 4.85294 7.23804
#
# Poissons Ratio (x) = 0.01708 -0.00749
# Poissons Ratio (y) = 0.48058 1.16814
# Poissons Ratio (z) = -0.14139 0.78321
#
# Static dielectric constant tensor:
#      x y z
#    x 5.656950 0.269520 0.426520 
#    y 0.269520 4.815370 0.098220 
#    z 0.426520 0.098220 4.806800 
# 
# 
# High freq. dielectric constant tensor:
#      x y z
#    x 2.132470 0.004840 0.010920 
#    y 0.004840 2.101120 0.002190 
#    z 0.010920 0.002190 2.096150 
# 
# From -- ./inp_files/272663.got.cif
#   From: 2010.06.25/outbox.cif.g09.slc.cpg/sg2_137_cif.got.tgz:272663.got - 2010.06.27 13:26:56.
