data_PCOD8021144
_publ_section_title
;
Structure prediction by ZEFSAII (Michael W. Deem and Ramdas Pophale) SiO2 
 PCOD8021144
Probable space group: P -1
;
_chemical_formula_sum "Si O2"
_cell_formula_units_Z 14
_cell_length_a 10.778510
_cell_length_b 17.407728
_cell_length_c 13.712249
_cell_angle_alpha 24.384999
_cell_angle_beta 46.198032
_cell_angle_gamma 41.015187
_cell_volume 696.982116
_symmetry_space_group_name_H-M "P -1"
_symmetry_group_IT_number 2
_symmetry_cell_setting 'triclinic'
loop_
_space_group_symop_operation_xyz
x,y,z
-x,-y,-z
loop_
_atom_site_type_symbol
_atom_site_label
_atom_site_fract_x
_atom_site_fract_y
_atom_site_fract_z
Si Si1 0.514149 0.986436 0.732624
Si Si2 0.671561 0.934587 0.054519
Si Si3 0.807628 0.163672 0.373744
Si Si4 0.934009 0.122438 0.137521
Si Si5 0.805057 0.587429 0.943934
Si Si6 0.201963 0.177598 0.525383
Si Si7 0.022310 0.465826 0.638985
O O1 0.382579 0.989636 0.892194
O O2 0.637157 0.106019 0.564351
O O3 0.397695 0.105506 0.562314
O O4 0.642966 0.748645 0.913752
O O5 0.759869 0.687330 0.284175
O O6 0.500000 0.000000 0.000000
O O7 0.835096 0.004839 0.846216
O O8 0.758556 0.395186 0.165514
O O9 0.000000 0.000000 0.500000
O O10 0.836754 0.126486 0.287177
O O11 0.837111 0.023016 0.231544
O O12 0.881072 0.358607 0.867228
O O13 0.806515 0.709315 0.703361
O O14 0.000000 0.500000 0.000000
O O15 0.029906 0.330083 0.507823
O O16 0.000000 0.500000 0.500000
#
# Coordination Sequence:
#
# PCOD8021144 Si02
#       7
#     2   2   2   2   2   2   2
#     4  12  26  41  69 103 135 170 230 279 322 404
#     4  10  23  44  68  94 135 173 223 275 327 395
#     4  12  23  44  69  96 136 176 222 274 344 392
#     4  10  23  42  71  90 136 179 212 275 343 383
#     4  12  25  42  70  98 134 179 219 276 342 395
#     4  12  23  45  68 100 136 174 230 272 331 406
#     4  10  22  43  68  92 131 181 214 270 337 385
#
# _framework density 20.086597999999999
#
# number of rings (size 3 to 8) (size 9 to 14) (size 15 to 20)
#    0.857    0.000    5.714    1.286    2.000    4.000 
#    2.571    0.714    0.000    0.000    0.000    0.000 
#    0.000    0.000    0.000    0.000    0.000    0.000 
#
# Total GULP energy -173462.194649 kJ/mol
# GULP energy per Si atom -12390.156761 kJ/mol
# Density = 2.004088 g / cm^3
# Si number density = 20.086598 Si / 1000 Ang^3
#
#
#
# Elastic Constant Matrix: (Units=GPa)
#
#
# Indices 1 2 3 4 5 6 
#
# 1 106.7226 18.0486 27.6458 -20.2777 1.0692 -0.6905
# 2 18.0486 121.9867 17.5086 -23.4035 -3.6695 11.1842
# 3 27.6458 17.5086 57.9613 -16.2996 3.6635 6.3744
# 4 -20.2777 -23.4035 -16.2996 35.8943 -0.8964 1.0851
# 5 1.0692 -3.6695 3.6635 -0.8964 44.0596 -6.5261
# 6 -0.6905 11.1842 6.3744 1.0851 -6.5261 36.1395
#
#
#
# Elastic Compliance Matrix: (Units=1/GPa)
#
#
# Indices 1 2 3 4 5 6 
#
# 1 0.011334 -0.000339 -0.004240 0.004234 0.000283 0.000993
# 2 -0.000339 0.009792 -0.000844 0.005914 0.000576 -0.002962
# 3 -0.004240 -0.000844 0.022182 0.007201 -0.002312 -0.004366
# 4 0.004234 0.005914 0.007201 0.037501 -0.000062 -0.004157
# 5 0.000283 0.000576 -0.002312 -0.000062 0.023595 0.004498
# 6 0.000993 -0.002962 -0.004366 -0.004157 0.004498 0.030313
#
#
# Mechanical properties :
#
#
# Convention : Reuss Voigt Hill
#
# Bulk Modulus (GPa) = 30.80510 45.89738 38.35124
# Shear Modulus (GPa) = 31.97273 38.11653 35.04463
#
# Velocity S-wave (km/s) = 3.99400 4.36088 4.18146
# Velocity P-wave (km/s) = 6.05300 6.94664 6.51516
#
# Compressibility (1/GPa) = 0.03246215
#
# Stress axis : x y z
#
# Youngs Moduli (GPa) = 88.23245 102.12058 45.08238
#
# Poissons Ratio (x) = 0.03458 0.19115
# Poissons Ratio (y) = 0.02988 0.03805
# Poissons Ratio (z) = 0.37411 0.08619
#
# Static dielectric constant tensor:
#      x y z
#    x 3.520790 -0.011430 0.000240 
#    y -0.011430 3.626820 -0.093470 
#    z 0.000240 -0.093470 3.671300 
# 
# 
# High freq. dielectric constant tensor:
#      x y z
#    x 1.782890 0.009830 0.008920 
#    y 0.009830 1.798760 -0.004310 
#    z 0.008920 -0.004310 1.780810 
# 
# From -- ./inp_files/398048.got.cif
#   From: 2010.06.25/outbox.cif.g09.slc.cpg/sg2_200_cif.got.tgz:398048.got - 2010.06.27 13:26:56.
