data_PCOD8021769
_publ_section_title
;
Structure prediction by ZEFSAII (Michael W. Deem and Ramdas Pophale) SiO2 
 PCOD8021769
Probable space group: P -1
;
_chemical_formula_sum "Si O2"
_cell_formula_units_Z 14
_cell_length_a 11.421354
_cell_length_b 11.362529
_cell_length_c 14.098011
_cell_angle_alpha 135.461368
_cell_angle_beta 29.442693
_cell_angle_gamma 128.406321
_cell_volume 630.782600
_symmetry_space_group_name_H-M "P -1"
_symmetry_group_IT_number 2
_symmetry_cell_setting 'triclinic'
loop_
_space_group_symop_operation_xyz
x,y,z
-x,-y,-z
loop_
_atom_site_type_symbol
_atom_site_label
_atom_site_fract_x
_atom_site_fract_y
_atom_site_fract_z
Si Si1 0.126539 0.491694 0.805586
Si Si2 0.527902 0.952961 0.060277
Si Si3 0.290522 0.613989 0.097215
Si Si4 0.316156 0.053893 0.784210
Si Si5 0.012002 0.136651 0.215374
Si Si6 0.324013 0.660413 0.318521
Si Si7 0.540497 0.235004 0.349313
O O1 0.338234 0.361096 0.596831
O O2 0.235233 0.670278 0.801727
O O3 0.948697 0.437023 0.816503
O O4 0.000000 0.500000 0.000000
O O5 0.808138 0.929474 0.869559
O O6 0.373910 0.792203 0.102963
O O7 0.500000 0.000000 0.000000
O O8 0.425780 0.107373 0.281422
O O9 0.235715 0.619259 0.251180
O O10 0.501768 0.483357 0.848967
O O11 0.553118 0.156974 0.656978
O O12 0.175559 0.013534 0.762844
O O13 0.368474 0.870868 0.685952
O O14 0.160959 0.171156 0.033137
O O15 0.897322 0.310922 0.436079
#
# Coordination Sequence:
#
# PCOD8021769 Si02
#       7
#     2   2   2   2   2   2   2
#     4  11  26  45  67  98 134 178 220 277 331 396
#     4  11  24  46  67 101 134 175 225 269 334 403
#     4  11  26  44  65 103 138 169 227 277 327 400
#     4  10  22  44  68 102 130 168 235 271 323 406
#     4  10  23  40  72  95 130 182 215 272 333 388
#     4  11  24  44  66 101 138 172 220 280 336 383
#     4  10  24  45  69  96 131 176 223 271 331 394
#
# _framework density 22.194652000000001
#
# number of rings (size 3 to 8) (size 9 to 14) (size 15 to 20)
#    0.000    1.429    2.857    1.286   10.000    4.571 
#    0.000    0.000    0.000    0.000    0.000    0.000 
#    0.000    0.000    0.000    0.000    0.000    0.000 
#
# Total GULP energy -173595.590716 kJ/mol
# GULP energy per Si atom -12399.685051 kJ/mol
# Density = 2.214414 g / cm^3
# Si number density = 22.194652 Si / 1000 Ang^3
#
#
#
# Elastic Constant Matrix: (Units=GPa)
#
#
# Indices 1 2 3 4 5 6 
#
# 1 113.5525 34.2913 28.4271 -9.4562 2.0372 15.6888
# 2 34.2913 122.1120 31.5766 12.8259 -1.2372 -4.8652
# 3 28.4271 31.5766 129.9634 6.0670 15.3006 -1.1347
# 4 -9.4562 12.8259 6.0670 22.4813 1.6781 -0.3090
# 5 2.0372 -1.2372 15.3006 1.6781 23.8974 -0.8502
# 6 15.6888 -4.8652 -1.1347 -0.3090 -0.8502 24.1916
#
#
#
# Elastic Compliance Matrix: (Units=1/GPa)
#
#
# Indices 1 2 3 4 5 6 
#
# 1 0.012538 -0.004209 -0.002080 0.008176 -0.000849 -0.009001
# 2 -0.004209 0.010811 -0.001621 -0.007633 0.002664 0.004824
# 3 -0.002080 -0.001621 0.009318 -0.002023 -0.005687 0.001234
# 4 0.008176 -0.007633 -0.002023 0.053013 -0.003747 -0.006387
# 5 -0.000849 0.002664 -0.005687 -0.003747 0.046045 0.002390
# 6 -0.009001 0.004824 0.001234 -0.006387 0.002390 0.048204
#
#
# Mechanical properties :
#
#
# Convention : Reuss Voigt Hill
#
# Bulk Modulus (GPa) = 59.35915 61.57976 60.46946
# Shear Modulus (GPa) = 24.83037 32.20292 28.51664
#
# Velocity S-wave (km/s) = 3.34841 3.81324 3.58836
# Velocity P-wave (km/s) = 6.46158 6.86974 6.66878
#
# Compressibility (1/GPa) = 0.01684660
#
# Stress axis : x y z
#
# Youngs Moduli (GPa) = 79.75791 92.49507 107.31800
#
# Poissons Ratio (x) = 0.38931 0.22323
# Poissons Ratio (y) = 0.33570 0.17400
# Poissons Ratio (z) = 0.16590 0.14997
#
# Static dielectric constant tensor:
#      x y z
#    x 4.077740 0.204570 0.012170 
#    y 0.204570 3.988770 0.075610 
#    z 0.012170 0.075610 4.074310 
# 
# 
# High freq. dielectric constant tensor:
#      x y z
#    x 1.880380 0.013470 0.002700 
#    y 0.013470 1.872470 0.007140 
#    z 0.002700 0.007140 1.881400 
# 
# From -- ./inp_files/519199.got.cif
#   From: 2010.06.25/outbox.cif.g09.slc.cpg/sg2_260_cif.got.tgz:519199.got - 2010.06.27 13:26:56.
