data_PCOD8021778
_publ_section_title
;
Structure prediction by ZEFSAII (Michael W. Deem and Ramdas Pophale) SiO2 
 PCOD8021778
Probable space group: P -1
;
_chemical_formula_sum "Si O2"
_cell_formula_units_Z 14
_cell_length_a 13.520927
_cell_length_b 22.682985
_cell_length_c 5.251097
_cell_angle_alpha 69.856608
_cell_angle_beta 101.340049
_cell_angle_gamma 157.143712
_cell_volume 554.181146
_symmetry_space_group_name_H-M "P -1"
_symmetry_group_IT_number 2
_symmetry_cell_setting 'triclinic'
loop_
_space_group_symop_operation_xyz
x,y,z
-x,-y,-z
loop_
_atom_site_type_symbol
_atom_site_label
_atom_site_fract_x
_atom_site_fract_y
_atom_site_fract_z
Si Si1 0.024035 0.386880 0.081231
Si Si2 0.217981 0.069438 0.977586
Si Si3 0.480541 0.029321 0.196744
Si Si4 0.000174 0.074234 0.417073
Si Si5 0.536766 0.577007 0.712653
Si Si6 0.892729 0.688464 0.476565
Si Si7 0.819792 0.455038 0.560031
O O1 0.097833 0.355576 0.214522
O O2 0.035522 0.429065 0.295466
O O3 0.719604 0.218644 0.059605
O O4 0.213422 0.522056 0.748626
O O5 0.521218 0.267328 0.788065
O O6 0.129519 0.973795 0.838046
O O7 0.193105 0.016775 0.309077
O O8 0.000000 0.000000 0.000000
O O9 0.500000 0.000000 0.500000
O O10 0.180148 0.883037 0.253689
O O11 0.500000 0.000000 0.000000
O O12 0.309991 0.275613 0.303639
O O13 0.000000 0.000000 0.500000
O O14 0.734397 0.661525 0.476263
O O15 0.256050 0.435481 0.646078
O O16 0.500000 0.500000 0.000000
O O17 0.000000 0.500000 0.500000
#
# Coordination Sequence:
#
# PCOD8021778 Si02
#       7
#     2   2   2   2   2   2   2
#     4  11  25  46  79 103 148 204 252 317 388 462
#     4  10  24  45  69 105 145 195 246 305 374 458
#     4  10  22  44  68 105 134 189 248 302 372 451
#     4  10  24  46  71 103 149 197 251 304 383 454
#     4  11  27  44  73 114 154 197 253 324 374 451
#     4  10  26  44  71 107 153 196 252 312 388 456
#     4  12  27  47  74 112 149 198 263 322 379 458
#
# _framework density 25.262497
#
# number of rings (size 3 to 8) (size 9 to 14) (size 15 to 20)
#    0.000    1.429    0.000    3.000   14.000    3.429 
#    0.000    0.000    0.000    0.000    0.000    0.000 
#    0.000    0.000    0.000    0.000    0.000    0.000 
#
# Total GULP energy -173434.875080 kJ/mol
# GULP energy per Si atom -12388.205363 kJ/mol
# Density = 2.520500 g / cm^3
# Si number density = 25.262497 Si / 1000 Ang^3
#
#
#
# Elastic Constant Matrix: (Units=GPa)
#
#
# Indices 1 2 3 4 5 6 
#
# 1 64.4085 35.0419 11.4426 -0.7982 -8.4822 1.0233
# 2 35.0419 222.9472 67.4043 1.0578 -9.8159 -7.3838
# 3 11.4426 67.4043 160.4668 25.1272 -5.9168 3.6206
# 4 -0.7982 1.0578 25.1272 58.9178 -4.8740 -12.5698
# 5 -8.4822 -9.8159 -5.9168 -4.8740 31.1298 -3.9504
# 6 1.0233 -7.3838 3.6206 -12.5698 -3.9504 39.8011
#
#
#
# Elastic Compliance Matrix: (Units=1/GPa)
#
#
# Indices 1 2 3 4 5 6 
#
# 1 0.017471 -0.002550 -0.000113 0.000590 0.003985 -0.000330
# 2 -0.002550 0.005731 -0.002448 0.001405 0.001109 0.001905
# 3 -0.000113 -0.002448 0.007920 -0.003868 -0.000209 -0.002414
# 4 0.000590 0.001405 -0.003868 0.020535 0.004033 0.007483
# 5 0.003985 0.001109 -0.000209 0.004033 0.034766 0.004847
# 6 -0.000330 0.001905 -0.002414 0.007483 0.004847 0.028551
#
#
# Mechanical properties :
#
#
# Convention : Reuss Voigt Hill
#
# Bulk Modulus (GPa) = 47.84295 75.06668 61.45481
# Shear Modulus (GPa) = 37.83219 48.23199 43.03209
#
# Velocity S-wave (km/s) = 3.87403 4.37422 4.13170
# Velocity P-wave (km/s) = 6.24422 7.43578 6.86590
#
# Compressibility (1/GPa) = 0.02090172
#
# Stress axis : x y z
#
# Youngs Moduli (GPa) = 57.23852 174.47506 126.25604
#
# Poissons Ratio (x) = 0.44495 0.01421
# Poissons Ratio (y) = 0.14597 0.30904
# Poissons Ratio (z) = 0.00644 0.42706
#
# Static dielectric constant tensor:
#      x y z
#    x 5.216540 1.105230 -0.140670 
#    y 1.105230 6.155310 -0.144070 
#    z -0.140670 -0.144070 5.862170 
# 
# 
# High freq. dielectric constant tensor:
#      x y z
#    x 1.977980 -0.003420 -0.011300 
#    y -0.003420 2.029940 0.006470 
#    z -0.011300 0.006470 2.031030 
# 
# From -- ./inp_files/101077.got.cif
#   From: 2010.06.25/outbox.cif.g09.slc.cpg/sg2_51_cif.got.tgz:101077.got - 2010.06.27 13:26:56.
