data_PCOD8021863
_publ_section_title
;
Structure prediction by ZEFSAII (Michael W. Deem and Ramdas Pophale) SiO2 
 PCOD8021863
Probable space group: P -1
;
_chemical_formula_sum "Si O2"
_cell_formula_units_Z 12
_cell_length_a 13.915449
_cell_length_b 16.480836
_cell_length_c 11.976256
_cell_angle_alpha 146.345348
_cell_angle_beta 33.095307
_cell_angle_gamma 159.444368
_cell_volume 509.836281
_symmetry_space_group_name_H-M "P -1"
_symmetry_group_IT_number 2
_symmetry_cell_setting 'triclinic'
loop_
_space_group_symop_operation_xyz
x,y,z
-x,-y,-z
loop_
_atom_site_type_symbol
_atom_site_label
_atom_site_fract_x
_atom_site_fract_y
_atom_site_fract_z
Si Si1 0.724570 0.353942 0.280587
Si Si2 0.142515 0.746790 0.671055
Si Si3 0.871467 0.982061 0.438654
Si Si4 0.191001 0.856104 0.507401
Si Si5 0.254799 0.447163 0.714665
Si Si6 0.016955 0.756347 0.037847
O O1 0.461871 0.266521 0.494724
O O2 0.727893 0.390749 0.186679
O O3 0.014696 0.600828 0.341008
O O4 0.716402 0.172105 0.099982
O O5 0.128396 0.839144 0.680446
O O6 0.000000 0.500000 0.500000
O O7 0.472053 0.947675 0.618542
O O8 0.957999 0.694858 0.893026
O O9 0.063410 0.961426 0.244367
O O10 0.909950 0.064523 0.368808
O O11 0.963231 0.168197 0.649048
O O12 0.500000 0.500000 0.500000
O O13 0.246913 0.469225 0.881578
#
# Coordination Sequence:
#
# PCOD8021863 Si02
#       6
#     2   2   2   2   2   2
#     4  11  23  46  67  99 137 172 223 273 326 397
#     4  11  22  44  71  97 136 170 227 275 321 396
#     4  11  24  45  67  98 140 167 221 281 321 397
#     4  10  22  44  69  95 136 174 212 286 320 381
#     4  11  25  45  67  99 139 171 222 276 324 399
#     4  12  24  42  72  98 129 186 215 267 345 382
#
# _framework density 23.536968000000002
#
# number of rings (size 3 to 8) (size 9 to 14) (size 15 to 20)
#    0.000    1.000    5.000    1.000    0.000    2.667 
#    0.000    3.333    0.000    0.000    0.000    0.000 
#    0.000    0.000    0.000    0.000    0.000    0.000 
#
# Total GULP energy -148696.689909 kJ/mol
# GULP energy per Si atom -12391.390826 kJ/mol
# Density = 2.348340 g / cm^3
# Si number density = 23.536968 Si / 1000 Ang^3
#
#
#
# Elastic Constant Matrix: (Units=GPa)
#
#
# Indices 1 2 3 4 5 6 
#
# 1 178.3381 34.5177 66.2581 -17.1980 2.0121 -44.2123
# 2 34.5177 95.8389 30.3741 -3.9238 4.6064 1.7078
# 3 66.2581 30.3741 118.3993 -18.7940 3.2843 -24.2433
# 4 -17.1980 -3.9238 -18.7940 27.3993 -21.0704 2.7575
# 5 2.0121 4.6064 3.2843 -21.0704 52.5616 -8.2835
# 6 -44.2123 1.7078 -24.2433 2.7575 -8.2835 44.3056
#
#
#
# Elastic Compliance Matrix: (Units=1/GPa)
#
#
# Indices 1 2 3 4 5 6 
#
# 1 0.009757 -0.003013 -0.001862 0.006664 0.004127 0.009190
# 2 -0.003013 0.012664 -0.003342 -0.004469 -0.003475 -0.005695
# 3 -0.001862 -0.003342 0.012975 0.010154 0.004503 0.005580
# 4 0.006664 -0.004469 0.010154 0.067803 0.028817 0.013546
# 5 0.004127 -0.003475 0.004503 0.028817 0.032166 0.010936
# 6 0.009190 -0.005695 0.005580 0.013546 0.010936 0.036216
#
#
# Mechanical properties :
#
#
# Convention : Reuss Voigt Hill
#
# Bulk Modulus (GPa) = 52.73700 72.76401 62.75050
# Shear Modulus (GPa) = 25.72886 42.28172 34.00529
#
# Velocity S-wave (km/s) = 3.30983 4.24299 3.80512
# Velocity P-wave (km/s) = 6.08780 7.41524 6.78407
#
# Compressibility (1/GPa) = 0.01896202
#
# Stress axis : x y z
#
# Youngs Moduli (GPa) = 102.49266 78.96390 77.07307
#
# Poissons Ratio (x) = 0.23794 0.14350
# Poissons Ratio (y) = 0.30883 0.25755
# Poissons Ratio (z) = 0.19083 0.26387
#
# Static dielectric constant tensor:
#      x y z
#    x 4.792020 -0.242190 0.220860 
#    y -0.242190 4.490400 0.073900 
#    z 0.220860 0.073900 4.049570 
# 
# 
# High freq. dielectric constant tensor:
#      x y z
#    x 1.955970 -0.026910 0.005500 
#    y -0.026910 1.922400 -0.011670 
#    z 0.005500 -0.011670 1.906040 
# 
# From -- ./inp_files/26364.got.cif
#   From: 2010.06.25/outbox.cif.g09.slc.cpg/sg2_14_cif.got.tgz:26364.got - 2010.06.27 13:26:56.
