data_PCOD8021417
_publ_section_title
;
Structure prediction by ZEFSAII (Michael W. Deem and Ramdas Pophale) SiO2 
 PCOD8021417
Probable space group: P -1
;
_chemical_formula_sum "Si O2"
_cell_formula_units_Z 16
_cell_length_a 12.981360
_cell_length_b 9.269065
_cell_length_c 14.061824
_cell_angle_alpha 53.808651
_cell_angle_beta 31.463169
_cell_angle_gamma 43.792731
_cell_volume 609.681545
_symmetry_space_group_name_H-M "P -1"
_symmetry_group_IT_number 2
_symmetry_cell_setting 'triclinic'
loop_
_space_group_symop_operation_xyz
x,y,z
-x,-y,-z
loop_
_atom_site_type_symbol
_atom_site_label
_atom_site_fract_x
_atom_site_fract_y
_atom_site_fract_z
Si Si1 0.367246 0.917558 0.778743
Si Si2 0.836035 0.529650 0.527615
Si Si3 0.434068 0.915772 0.297047
Si Si4 0.071439 0.167257 0.347941
Si Si5 0.194686 0.521449 0.887297
Si Si6 0.750116 0.341727 0.827586
Si Si7 0.940471 0.283327 0.885321
Si Si8 0.056831 0.891348 0.722420
O O1 0.617459 0.765249 0.593810
O O2 0.392741 0.029343 0.808821
O O3 0.238859 0.795445 0.955854
O O4 0.203336 0.099702 0.763454
O O5 0.738795 0.393052 0.706116
O O6 0.000000 0.500000 0.500000
O O7 0.923497 0.408098 0.405784
O O8 0.559230 0.680408 0.250442
O O9 0.237267 0.946631 0.514010
O O10 0.325061 0.072687 0.231642
O O11 0.053559 0.189266 0.238961
O O12 0.000000 0.000000 0.500000
O O13 0.185987 0.724087 0.770253
O O14 0.151719 0.546971 0.024570
O O15 0.000000 0.500000 0.000000
O O16 0.925426 0.376812 0.751761
O O17 0.500000 0.500000 0.000000
O O18 0.844003 0.096050 0.857948
#
# Coordination Sequence:
#
# PCOD8021417 Si02
#       8
#     2   2   2   2   2   2   2   2
#     4  11  22  44  69 102 142 187 226 293 345 421
#     4  12  23  44  71 104 139 179 230 297 349 414
#     4  11  23  46  71 104 141 185 235 296 349 414
#     4  10  22  43  71  99 140 182 231 283 360 408
#     4  12  27  47  70 100 144 185 236 289 351 423
#     4  12  25  43  71 102 137 181 237 285 350 422
#     4  11  26  45  69 101 144 190 235 282 363 412
#     4  11  25  47  70 105 140 187 237 291 354 422
#
# _framework density 26.243210000000001
#
# number of rings (size 3 to 8) (size 9 to 14) (size 15 to 20)
#    0.000    0.750    6.250    1.875    5.250    1.000 
#    2.250    3.750    0.000    0.000    0.000    0.000 
#    0.000    0.000    0.000    0.000    0.000    0.000 
#
# Total GULP energy -198272.160977 kJ/mol
# GULP energy per Si atom -12392.010061 kJ/mol
# Density = 2.618348 g / cm^3
# Si number density = 26.243210 Si / 1000 Ang^3
#
#
#
# Elastic Constant Matrix: (Units=GPa)
#
#
# Indices 1 2 3 4 5 6 
#
# 1 169.8059 40.8484 42.8717 23.4947 14.7486 8.5274
# 2 40.8484 134.1888 43.1955 64.1686 8.3568 13.8550
# 3 42.8717 43.1955 76.5841 37.9946 2.3639 1.6026
# 4 23.4947 64.1686 37.9946 60.9062 -0.0566 -3.3339
# 5 14.7486 8.3568 2.3639 -0.0566 53.7664 4.9690
# 6 8.5274 13.8550 1.6026 -3.3339 4.9690 51.2649
#
#
#
# Elastic Compliance Matrix: (Units=1/GPa)
#
#
# Indices 1 2 3 4 5 6 
#
# 1 0.007159 -0.001217 -0.003638 0.000759 -0.001563 -0.000547
# 2 -0.001217 0.016936 0.000091 -0.017725 -0.001826 -0.005353
# 3 -0.003638 0.000091 0.020899 -0.011776 0.000131 -0.000851
# 4 0.000759 -0.017725 -0.011776 0.042563 0.002410 0.007567
# 5 -0.001563 -0.001826 0.000131 0.002410 0.019398 -0.000974
# 6 -0.000547 -0.005353 -0.000851 0.007567 -0.000974 0.021657
#
#
# Mechanical properties :
#
#
# Convention : Reuss Voigt Hill
#
# Bulk Modulus (GPa) = 28.19600 70.49001 49.34300
# Shear Modulus (GPa) = 33.34190 50.09837 41.72013
#
# Velocity S-wave (km/s) = 3.56827 4.37395 3.99149
# Velocity P-wave (km/s) = 5.26727 7.24066 6.33133
#
# Compressibility (1/GPa) = 0.03546603
#
# Stress axis : x y z
#
# Youngs Moduli (GPa) = 139.69331 59.04602 47.85006
#
# Poissons Ratio (x) = 0.07187 0.17406
# Poissons Ratio (y) = 0.17003 -0.00436
# Poissons Ratio (z) = 0.50814 -0.00538
#
# Static dielectric constant tensor:
#      x y z
#    x 5.349610 -0.512050 0.027710 
#    y -0.512050 5.425440 -0.400180 
#    z 0.027710 -0.400180 4.958890 
# 
# 
# High freq. dielectric constant tensor:
#      x y z
#    x 2.072540 0.002460 0.004010 
#    y 0.002460 2.064840 0.005010 
#    z 0.004010 0.005010 2.048070 
# 
# From -- ./inp_files/515305.got.cif
#   From: 2010.06.25/outbox.cif.g09.slc.cpg/sg2_258_cif.got.tgz:515305.got - 2010.06.27 13:26:56.
