data_PCOD8021657
_publ_section_title
;
Structure prediction by ZEFSAII (Michael W. Deem and Ramdas Pophale) SiO2 
 PCOD8021657
Probable space group: P -1
;
_chemical_formula_sum "Si O2"
_cell_formula_units_Z 16
_cell_length_a 15.752884
_cell_length_b 11.400920
_cell_length_c 5.851267
_cell_angle_alpha 59.678178
_cell_angle_beta 122.563105
_cell_angle_gamma 124.441378
_cell_volume 699.384927
_symmetry_space_group_name_H-M "P -1"
_symmetry_group_IT_number 2
_symmetry_cell_setting 'triclinic'
loop_
_space_group_symop_operation_xyz
x,y,z
-x,-y,-z
loop_
_atom_site_type_symbol
_atom_site_label
_atom_site_fract_x
_atom_site_fract_y
_atom_site_fract_z
Si Si1 0.346237 0.884818 0.609788
Si Si2 0.022506 0.086120 0.198908
Si Si3 0.515722 0.170839 0.496628
Si Si4 0.439448 0.355501 0.906211
Si Si5 0.381368 0.628073 0.170907
Si Si6 0.779287 0.657051 0.602264
Si Si7 0.898985 0.261383 0.654123
Si Si8 0.941270 0.553842 0.668597
O O1 0.396497 0.887163 0.426890
O O2 0.220826 0.867898 0.443416
O O3 0.429412 0.047294 0.666044
O O4 0.349602 0.749684 0.887394
O O5 0.151177 0.196029 0.294416
O O6 0.000000 0.000000 0.500000
O O7 0.954649 0.191135 0.990566
O O8 0.000000 0.000000 0.000000
O O9 0.590343 0.324761 0.573032
O O10 0.441178 0.207805 0.166960
O O11 0.510681 0.387012 0.749017
O O12 0.313091 0.319296 0.705398
O O13 0.500000 0.500000 0.000000
O O14 0.276134 0.472173 0.163919
O O15 0.853351 0.610959 0.581527
O O16 0.882102 0.406809 0.573049
O O17 0.972338 0.307848 0.485544
O O18 0.000000 0.500000 0.000000
#
# Coordination Sequence:
#
# PCOD8021657 Si02
#       8
#     2   2   2   2   2   2   2   2
#     4  10  23  41  70 100 143 184 229 301 367 437
#     4  12  30  53  72 108 153 202 258 309 381 462
#     4  10  22  44  66 104 145 182 234 292 364 447
#     4  11  25  42  68 106 143 183 244 296 360 448
#     4  11  23  43  68 107 133 185 241 292 371 439
#     4  12  25  46  77 100 145 195 241 318 369 440
#     4  11  25  44  72 105 142 193 252 309 376 445
#     4  11  23  45  71 106 140 185 256 316 367 437
#
# _framework density 22.877243
#
# number of rings (size 3 to 8) (size 9 to 14) (size 15 to 20)
#    0.000    1.000    2.500    3.000    5.250    2.000 
#    0.000    0.000    0.000    0.000    0.000    0.000 
#    0.000    0.000    0.000    0.000    0.000    0.000 
#
# Total GULP energy -198258.784275 kJ/mol
# GULP energy per Si atom -12391.174017 kJ/mol
# Density = 2.282517 g / cm^3
# Si number density = 22.877243 Si / 1000 Ang^3
#
#
#
# Elastic Constant Matrix: (Units=GPa)
#
#
# Indices 1 2 3 4 5 6 
#
# 1 132.3143 43.4787 47.3708 6.3714 12.3596 18.5452
# 2 43.4787 131.7046 43.8169 5.9127 0.0256 26.4787
# 3 47.3708 43.8169 125.8279 -8.6971 6.5577 23.4739
# 4 6.3714 5.9127 -8.6971 40.0312 5.5392 -6.6032
# 5 12.3596 0.0256 6.5577 5.5392 39.6672 0.6396
# 6 18.5452 26.4787 23.4739 -6.6032 0.6396 43.8377
#
#
#
# Elastic Compliance Matrix: (Units=1/GPa)
#
#
# Indices 1 2 3 4 5 6 
#
# 1 0.009677 -0.001868 -0.002668 -0.001820 -0.002290 -0.001778
# 2 -0.001868 0.009945 -0.002177 -0.002569 0.001366 -0.004458
# 3 -0.002668 -0.002177 0.010474 0.002742 -0.001238 -0.002734
# 4 -0.001820 -0.002569 0.002742 0.027610 -0.003822 0.005068
# 5 -0.002290 0.001366 -0.001238 -0.003822 0.026663 -0.000158
# 6 -0.001778 -0.004458 -0.002734 0.005068 -0.000158 0.028486
#
#
# Mechanical properties :
#
#
# Convention : Reuss Voigt Hill
#
# Bulk Modulus (GPa) = 59.98281 73.24216 66.61248
# Shear Modulus (GPa) = 37.92552 41.71925 39.82238
#
# Velocity S-wave (km/s) = 4.07601 4.27501 4.17669
# Velocity P-wave (km/s) = 6.95903 7.51348 7.24157
#
# Compressibility (1/GPa) = 0.01667144
#
# Stress axis : x y z
#
# Youngs Moduli (GPa) = 103.33437 100.55408 95.47596
#
# Poissons Ratio (x) = 0.18779 0.25470
# Poissons Ratio (y) = 0.19298 0.20786
# Poissons Ratio (z) = 0.27566 0.21892
#
# Static dielectric constant tensor:
#      x y z
#    x 4.077520 0.137390 -0.273000 
#    y 0.137390 4.295790 0.094280 
#    z -0.273000 0.094280 4.039050 
# 
# 
# High freq. dielectric constant tensor:
#      x y z
#    x 1.899840 0.004770 0.004360 
#    y 0.004770 1.914580 -0.011820 
#    z 0.004360 -0.011820 1.909350 
# 
# From -- ./inp_files/94507.got.cif
#   From: 2010.06.25/outbox.cif.g09.slc.cpg/sg2_48_cif.got.tgz:94507.got - 2010.06.27 13:26:56.
