data_PCOD8021881
_publ_section_title
;
Structure prediction by ZEFSAII (Michael W. Deem and Ramdas Pophale) SiO2 
 PCOD8021881
Probable space group: P -1
;
_chemical_formula_sum "Si O2"
_cell_formula_units_Z 16
_cell_length_a 8.744837
_cell_length_b 13.630166
_cell_length_c 12.403686
_cell_angle_alpha 103.623142
_cell_angle_beta 134.801478
_cell_angle_gamma 109.258553
_cell_volume 708.595404
_symmetry_space_group_name_H-M "P -1"
_symmetry_group_IT_number 2
_symmetry_cell_setting 'triclinic'
loop_
_space_group_symop_operation_xyz
x,y,z
-x,-y,-z
loop_
_atom_site_type_symbol
_atom_site_label
_atom_site_fract_x
_atom_site_fract_y
_atom_site_fract_z
Si Si1 0.373608 0.230401 0.526812
Si Si2 0.373088 0.631903 0.533674
Si Si3 0.520644 0.595235 0.189850
Si Si4 0.324440 0.668498 0.918469
Si Si5 0.645068 0.667867 0.892868
Si Si6 0.189664 0.790597 0.529146
Si Si7 0.761728 0.165322 0.677406
Si Si8 0.343922 0.006960 0.827637
O O1 0.396486 0.286423 0.433105
O O2 0.548567 0.362117 0.729652
O O3 0.604559 0.215117 0.649681
O O4 0.015295 0.086704 0.345218
O O5 0.530479 0.616748 0.700452
O O6 0.360664 0.740288 0.606892
O O7 0.048210 0.469434 0.298089
O O8 0.315560 0.426235 0.048534
O O9 0.866377 0.669047 0.397823
O O10 0.468969 0.638944 0.066477
O O11 0.432580 0.675782 0.853658
O O12 0.453509 0.823764 0.050217
O O13 0.008777 0.814594 0.118387
O O14 0.097515 0.782556 0.358933
O O15 0.369302 0.943569 0.717748
O O16 0.500000 0.000000 0.500000
O O17 0.500000 0.000000 0.000000
#
# Coordination Sequence:
#
# PCOD8021881 Si02
#       8
#     2   2   2   2   2   2   2   2
#     4  10  26  46  66 104 142 178 229 290 349 408
#     4  11  25  45  74 103 139 182 236 288 343 415
#     4  11  23  42  71  98 138 176 237 284 335 410
#     4  12  24  42  75 107 134 184 241 280 342 417
#     4  12  24  42  73 101 137 184 233 285 346 408
#     4  10  22  44  69  98 136 185 226 280 343 416
#     4  11  24  42  67  99 137 180 230 283 346 411
#     4  11  26  45  73 103 145 180 229 285 356 416
#
# _framework density 22.579881
#
# number of rings (size 3 to 8) (size 9 to 14) (size 15 to 20)
#    0.000    1.000    2.500    3.750    5.250    4.500 
#    0.000    3.125    0.000    0.000    0.000    0.000 
#    0.000    0.000    0.000    0.000    0.000    0.000 
#
# Total GULP energy -198271.256489 kJ/mol
# GULP energy per Si atom -12391.953531 kJ/mol
# Density = 2.252849 g / cm^3
# Si number density = 22.579881 Si / 1000 Ang^3
#
#
#
# Elastic Constant Matrix: (Units=GPa)
#
#
# Indices 1 2 3 4 5 6 
#
# 1 101.1572 12.9882 37.4262 7.1639 -14.1672 3.3902
# 2 12.9882 87.5015 35.3954 5.5765 -2.9848 2.3083
# 3 37.4262 35.3954 114.9932 4.6825 -6.8263 -6.1779
# 4 7.1639 5.5765 4.6825 46.8328 -1.7207 -2.8205
# 5 -14.1672 -2.9848 -6.8263 -1.7207 33.5393 4.6818
# 6 3.3902 2.3083 -6.1779 -2.8205 4.6818 14.1660
#
#
#
# Elastic Compliance Matrix: (Units=1/GPa)
#
#
# Indices 1 2 3 4 5 6 
#
# 1 0.012484 0.000299 -0.004141 -0.001754 0.005338 -0.006956
# 2 0.000299 0.013401 -0.004359 -0.001456 0.001025 -0.004785
# 3 -0.004141 -0.004359 0.011710 0.000384 -0.000729 0.007125
# 4 -0.001754 -0.001456 0.000384 0.022063 -0.000408 0.005352
# 5 0.005338 0.001025 -0.000729 -0.000408 0.033810 -0.013017
# 6 -0.006956 -0.004785 0.007125 0.005352 -0.013017 0.081511
#
#
# Mechanical properties :
#
#
# Convention : Reuss Voigt Hill
#
# Bulk Modulus (GPa) = 47.18409 52.80793 49.99601
# Shear Modulus (GPa) = 25.19588 33.43042 29.31315
#
# Velocity S-wave (km/s) = 3.34407 3.85195 3.60696
# Velocity P-wave (km/s) = 5.98768 6.57429 6.28783
#
# Compressibility (1/GPa) = 0.02119358
#
# Stress axis : x y z
#
# Youngs Moduli (GPa) = 80.10193 74.61928 85.40074
#
# Poissons Ratio (x) = -0.02233 0.35361
# Poissons Ratio (y) = -0.02397 0.37229
# Poissons Ratio (z) = 0.33167 0.32529
#
# Static dielectric constant tensor:
#      x y z
#    x 4.138050 -0.019160 -0.126110 
#    y -0.019160 3.808670 0.312610 
#    z -0.126110 0.312610 4.144060 
# 
# 
# High freq. dielectric constant tensor:
#      x y z
#    x 1.894040 -0.002520 -0.006620 
#    y -0.002520 1.888960 0.004130 
#    z -0.006620 0.004130 1.903870 
# 
# From -- ./inp_files/399338.got.cif
#   From: 2010.06.25/outbox.cif.g09.slc.cpg/sg2_200_cif.got.tgz:399338.got - 2010.06.27 13:26:56.
