data_PCOD8021617
_publ_section_title
;
Structure prediction by ZEFSAII (Michael W. Deem and Ramdas Pophale) SiO2 
 PCOD8021617
Probable space group: P -1
;
_chemical_formula_sum "Si O2"
_cell_formula_units_Z 14
_cell_length_a 10.176483
_cell_length_b 12.394092
_cell_length_c 10.382419
_cell_angle_alpha 45.927015
_cell_angle_beta 124.643253
_cell_angle_gamma 143.193543
_cell_volume 563.460216
_symmetry_space_group_name_H-M "P -1"
_symmetry_group_IT_number 2
_symmetry_cell_setting 'triclinic'
loop_
_space_group_symop_operation_xyz
x,y,z
-x,-y,-z
loop_
_atom_site_type_symbol
_atom_site_label
_atom_site_fract_x
_atom_site_fract_y
_atom_site_fract_z
Si Si1 0.477454 0.171461 0.771465
Si Si2 0.770943 0.766341 0.558073
Si Si3 0.432105 0.256350 0.282640
Si Si4 0.286738 0.054170 0.034604
Si Si5 0.068509 0.457077 0.202141
Si Si6 0.389367 0.933109 0.663607
Si Si7 0.199849 0.282242 0.926196
O O1 0.368302 0.267016 0.616185
O O2 0.743728 0.335353 0.784113
O O3 0.387298 0.014977 0.732895
O O4 0.388291 0.056068 0.956307
O O5 0.612926 0.702743 0.639285
O O6 0.809443 0.615538 0.709659
O O7 0.000000 0.000000 0.500000
O O8 0.660990 0.476652 0.179030
O O9 0.455125 0.089573 0.453265
O O10 0.234727 0.182932 0.142534
O O11 0.444553 0.101572 0.202409
O O12 0.262723 0.221172 0.886116
O O13 0.050899 0.826454 0.117645
O O14 0.856784 0.288061 0.313662
O O15 0.000000 0.500000 0.000000
#
# Coordination Sequence:
#
# PCOD8021617 Si02
#       7
#     2   2   2   2   2   2   2
#     4  11  23  42  70  99 132 167 211 272 337 385
#     4  11  21  41  69  97 132 168 210 275 328 387
#     4  10  22  44  65  93 128 169 225 259 323 383
#     4  11  23  43  65  94 132 166 223 263 319 391
#     4  12  24  38  63 105 132 169 206 259 354 381
#     4  11  25  44  66 101 132 165 210 286 327 381
#     4  10  24  42  67  89 124 187 214 261 310 387
#
# _framework density 24.846474000000001
#
# number of rings (size 3 to 8) (size 9 to 14) (size 15 to 20)
#    0.000    1.143    4.286    2.571    0.000    2.286 
#    7.714    0.000    0.000    0.000    0.000    0.000 
#    0.000    0.000    0.000    0.000    0.000    0.000 
#
# Total GULP energy -173565.425856 kJ/mol
# GULP energy per Si atom -12397.530418 kJ/mol
# Density = 2.478992 g / cm^3
# Si number density = 24.846474 Si / 1000 Ang^3
#
#
#
# Elastic Constant Matrix: (Units=GPa)
#
#
# Indices 1 2 3 4 5 6 
#
# 1 42.4915 23.2109 15.7489 -6.0689 18.6867 22.3269
# 2 23.2109 143.2589 36.1816 -0.6527 -1.1208 45.3064
# 3 15.7489 36.1816 129.9692 0.8825 13.9326 23.0813
# 4 -6.0689 -0.6527 0.8825 39.7420 1.9904 2.4428
# 5 18.6867 -1.1208 13.9326 1.9904 35.8080 8.3573
# 6 22.3269 45.3064 23.0813 2.4428 8.3573 41.0709
#
#
#
# Elastic Compliance Matrix: (Units=1/GPa)
#
#
# Indices 1 2 3 4 5 6 
#
# 1 0.043871 -0.001180 0.000449 0.008820 -0.019058 -0.019446
# 2 -0.001180 0.011350 -0.001342 0.000561 0.004269 -0.012027
# 3 0.000449 -0.001342 0.008896 0.000194 -0.003011 -0.003162
# 4 0.008820 0.000561 0.000194 0.027130 -0.004728 -0.006175
# 5 -0.019058 0.004269 -0.003011 -0.004728 0.039539 -0.000421
# 6 -0.019446 -0.012027 -0.003162 -0.006175 -0.000421 0.050416
#
#
# Mechanical properties :
#
#
# Convention : Reuss Voigt Hill
#
# Bulk Modulus (GPa) = 16.67488 51.77801 34.22645
# Shear Modulus (GPa) = 24.34980 39.36272 31.85626
#
# Velocity S-wave (km/s) = 3.13391 3.98457 3.58456
# Velocity P-wave (km/s) = 4.45207 6.48486 5.56212
#
# Compressibility (1/GPa) = 0.05997045
#
# Stress axis : x y z
#
# Youngs Moduli (GPa) = 22.79391 88.10513 112.40564
#
# Poissons Ratio (x) = 0.10401 -0.05048
# Poissons Ratio (y) = 0.02691 0.15088
# Poissons Ratio (z) = -0.01024 0.11827
#
# Static dielectric constant tensor:
#      x y z
#    x 4.398650 0.071610 0.242890 
#    y 0.071610 4.642920 0.239630 
#    z 0.242890 0.239630 5.168280 
# 
# 
# High freq. dielectric constant tensor:
#      x y z
#    x 1.993210 0.004460 0.013580 
#    y 0.004460 1.991990 0.006860 
#    z 0.013580 0.006860 1.997070 
# 
# From -- ./inp_files/432484.got.cif
#   From: 2010.06.25/outbox.cif.g09.slc.cpg/sg2_217_cif.got.tgz:432484.got - 2010.06.27 13:26:56.
