data_PCOD8021520
_publ_section_title
;
Structure prediction by ZEFSAII (Michael W. Deem and Ramdas Pophale) SiO2 
 PCOD8021520
Probable space group: P -1
;
_chemical_formula_sum "Si O2"
_cell_formula_units_Z 16
_cell_length_a 9.369730
_cell_length_b 6.789836
_cell_length_c 16.377025
_cell_angle_alpha 83.893467
_cell_angle_beta 92.639735
_cell_angle_gamma 45.523357
_cell_volume 728.451987
_symmetry_space_group_name_H-M "P -1"
_symmetry_group_IT_number 2
_symmetry_cell_setting 'triclinic'
loop_
_space_group_symop_operation_xyz
x,y,z
-x,-y,-z
loop_
_atom_site_type_symbol
_atom_site_label
_atom_site_fract_x
_atom_site_fract_y
_atom_site_fract_z
Si Si1 0.851935 0.577664 0.800332
Si Si2 0.530644 0.586012 0.849740
Si Si3 0.011822 0.136585 0.417215
Si Si4 0.063864 0.524497 0.380804
Si Si5 0.718440 0.875498 0.084887
Si Si6 0.631504 0.452903 0.579752
Si Si7 0.286010 0.816111 0.678212
Si Si8 0.366528 0.951393 0.100900
O O1 0.708450 0.532572 0.813585
O O2 0.866351 0.601027 0.703199
O O3 0.754512 0.865150 0.828997
O O4 0.071991 0.313741 0.854129
O O5 0.434898 0.791378 0.915519
O O6 0.340908 0.739767 0.777213
O O7 0.633570 0.283537 0.894438
O O8 0.022977 0.356194 0.434122
O O9 0.815776 0.289941 0.348992
O O10 0.210526 0.879379 0.381261
O O11 0.000000 0.000000 0.500000
O O12 0.237363 0.475213 0.437278
O O13 0.858794 0.854490 0.357142
O O14 0.600366 0.794740 0.115100
O O15 0.752343 0.841553 0.989720
O O16 0.500000 0.500000 0.500000
O O17 0.494798 0.641398 0.644003
#
# Coordination Sequence:
#
# PCOD8021520 Si02
#       8
#     2   2   2   2   2   2   2   2
#     4  11  23  40  63  99 129 170 224 264 325 388
#     4  11  23  40  66  95 131 169 223 269 321 384
#     4  11  26  46  66  99 129 168 220 265 328 397
#     4  11  26  43  70  95 135 173 213 276 327 383
#     4  10  22  44  61  96 134 174 219 266 327 385
#     4  11  24  47  67  99 129 164 217 267 325 401
#     4  11  24  43  64  95 130 167 218 270 325 391
#     4  10  24  39  67  94 133 174 218 269 323 385
#
# _framework density 21.964386000000001
#
# number of rings (size 3 to 8) (size 9 to 14) (size 15 to 20)
#    0.000    1.250    3.750    0.750    3.500    5.000 
#    0.000    0.000    0.000    0.000    0.000    0.000 
#    0.000    0.000    0.000    0.000    0.000    0.000 
#
# Total GULP energy -198382.004585 kJ/mol
# GULP energy per Si atom -12398.875287 kJ/mol
# Density = 2.191439 g / cm^3
# Si number density = 21.964386 Si / 1000 Ang^3
#
#
#
# Elastic Constant Matrix: (Units=GPa)
#
#
# Indices 1 2 3 4 5 6 
#
# 1 104.4837 43.6860 26.5150 -7.9435 19.5445 9.4202
# 2 43.6860 86.5610 7.7923 6.1173 -12.3090 10.8435
# 3 26.5150 7.7923 75.6096 3.7575 14.1424 -1.0587
# 4 -7.9435 6.1173 3.7575 30.8300 -5.4246 2.4648
# 5 19.5445 -12.3090 14.1424 -5.4246 36.6827 0.8961
# 6 9.4202 10.8435 -1.0587 2.4648 0.8961 43.1955
#
#
#
# Elastic Compliance Matrix: (Units=1/GPa)
#
#
# Indices 1 2 3 4 5 6 
#
# 1 0.017002 -0.009944 -0.003270 0.005039 -0.010356 -0.001364
# 2 -0.009944 0.018810 -0.000383 -0.004069 0.011218 -0.002563
# 3 -0.003270 -0.000383 0.015541 -0.003652 -0.004955 0.001501
# 4 0.005039 -0.004069 -0.003652 0.035639 0.002684 -0.002256
# 5 -0.010356 0.011218 -0.004955 0.002684 0.038890 -0.001639
# 6 -0.001364 -0.002563 0.001501 -0.002256 -0.001639 0.024291
#
#
# Mechanical properties :
#
#
# Convention : Reuss Voigt Hill
#
# Bulk Modulus (GPa) = 41.39384 46.96010 44.17697
# Shear Modulus (GPa) = 26.96579 34.71905 30.84242
#
# Velocity S-wave (km/s) = 3.50766 3.98011 3.75133
# Velocity P-wave (km/s) = 5.94068 6.52290 6.23859
#
# Compressibility (1/GPa) = 0.02415819
#
# Stress axis : x y z
#
# Youngs Moduli (GPa) = 58.81778 53.16457 64.34437
#
# Poissons Ratio (x) = 0.52867 0.21040
# Poissons Ratio (y) = 0.58488 0.02467
# Poissons Ratio (z) = 0.19232 0.02038
#
# Static dielectric constant tensor:
#      x y z
#    x 4.148840 -0.116870 0.151480 
#    y -0.116870 4.045080 0.336520 
#    z 0.151480 0.336520 3.908040 
# 
# 
# High freq. dielectric constant tensor:
#      x y z
#    x 1.869530 -0.007150 0.014990 
#    y -0.007150 1.866500 0.023640 
#    z 0.014990 0.023640 1.862520 
# 
# From -- ./inp_files/53616.got.cif
#   From: 2010.06.25/outbox.cif.g09.slc.cpg/sg2_27_cif.got.tgz:53616.got - 2010.06.27 13:26:56.
