data_PCOD8021438
_publ_section_title
;
Structure prediction by ZEFSAII (Michael W. Deem and Ramdas Pophale) SiO2 
 PCOD8021438
Probable space group: P -1
;
_chemical_formula_sum "Si O2"
_cell_formula_units_Z 16
_cell_length_a 11.937170
_cell_length_b 8.638194
_cell_length_c 14.170615
_cell_angle_alpha 74.664227
_cell_angle_beta 148.749613
_cell_angle_gamma 96.104638
_cell_volume 709.801099
_symmetry_space_group_name_H-M "P -1"
_symmetry_group_IT_number 2
_symmetry_cell_setting 'triclinic'
loop_
_space_group_symop_operation_xyz
x,y,z
-x,-y,-z
loop_
_atom_site_type_symbol
_atom_site_label
_atom_site_fract_x
_atom_site_fract_y
_atom_site_fract_z
Si Si1 0.146241 0.504985 0.261600
Si Si2 0.259428 0.493572 0.794385
Si Si3 0.678490 0.333311 0.365757
Si Si4 0.422481 0.569430 0.285029
Si Si5 0.049266 0.746137 0.751593
Si Si6 0.366739 0.881066 0.074047
Si Si7 0.226708 0.996831 0.608235
Si Si8 0.923721 0.764436 0.198701
O O1 0.214658 0.538664 0.199499
O O2 0.358015 0.460459 0.489438
O O3 0.026331 0.351543 0.198790
O O4 0.972261 0.664969 0.151644
O O5 0.229411 0.535980 0.654162
O O6 0.078611 0.629828 0.699565
O O7 0.226170 0.312812 0.824070
O O8 0.500000 0.500000 0.000000
O O9 0.459903 0.441189 0.243844
O O10 0.632505 0.189069 0.286991
O O11 0.850123 0.240739 0.581803
O O12 0.371238 0.758965 0.184759
O O13 0.279410 0.799450 0.932293
O O14 0.848377 0.903473 0.558508
O O15 0.609789 0.917517 0.226559
O O16 0.189622 0.050203 0.942413
O O17 0.000000 0.000000 0.500000
#
# Coordination Sequence:
#
# PCOD8021438 Si02
#       8
#     2   2   2   2   2   2   2   2
#     4   9  21  46  70  95 133 173 222 274 328 387
#     4  11  22  39  61  93 131 173 216 267 321 395
#     4  11  22  42  64  93 134 175 220 264 332 386
#     4  10  22  43  72  97 129 178 222 270 328 396
#     4  11  23  43  66  98 133 171 221 269 328 387
#     4  12  25  42  67 101 132 172 223 269 331 390
#     4  12  25  43  65  97 138 174 215 274 325 391
#     4  10  23  39  65  98 131 170 219 273 326 392
#
# _framework density 22.541526000000001
#
# number of rings (size 3 to 8) (size 9 to 14) (size 15 to 20)
#    0.000    1.250    3.750    1.875    0.000    4.500 
#    0.000    1.875    0.000    0.000    0.000    0.000 
#    0.000    0.000    0.000    0.000    0.000    0.000 
#
# Total GULP energy -198377.141474 kJ/mol
# GULP energy per Si atom -12398.571342 kJ/mol
# Density = 2.249022 g / cm^3
# Si number density = 22.541526 Si / 1000 Ang^3
#
#
#
# Elastic Constant Matrix: (Units=GPa)
#
#
# Indices 1 2 3 4 5 6 
#
# 1 143.1685 63.2287 19.6680 -15.1027 5.3802 6.5994
# 2 63.2287 133.7254 38.1430 -11.0813 1.3713 9.1729
# 3 19.6680 38.1430 71.8801 -6.9941 2.7747 8.0102
# 4 -15.1027 -11.0813 -6.9941 52.9551 6.5920 -1.2254
# 5 5.3802 1.3713 2.7747 6.5920 19.7211 2.5765
# 6 6.5994 9.1729 8.0102 -1.2254 2.5765 24.7177
#
#
#
# Elastic Compliance Matrix: (Units=1/GPa)
#
#
# Indices 1 2 3 4 5 6 
#
# 1 0.009140 -0.004095 0.000046 0.002098 -0.002847 -0.000535
# 2 -0.004095 0.010808 -0.004449 0.000335 0.001085 -0.001572
# 3 0.000046 -0.004449 0.016881 0.001493 -0.002115 -0.003537
# 4 0.002098 0.000335 0.001493 0.020739 -0.007826 0.000676
# 5 -0.002847 0.001085 -0.002115 -0.007826 0.054985 -0.005077
# 6 -0.000535 -0.001572 -0.003537 0.000676 -0.005077 0.042892
#
#
# Mechanical properties :
#
#
# Convention : Reuss Voigt Hill
#
# Bulk Modulus (GPa) = 50.42095 65.65039 58.03567
# Shear Modulus (GPa) = 27.92485 34.66109 31.29297
#
# Velocity S-wave (km/s) = 3.52350 3.92555 3.72995
# Velocity P-wave (km/s) = 6.24260 7.05223 6.65973
#
# Compressibility (1/GPa) = 0.01983303
#
# Stress axis : x y z
#
# Youngs Moduli (GPa) = 109.41067 92.52797 59.23691
#
# Poissons Ratio (x) = 0.37889 -0.00270
# Poissons Ratio (y) = 0.44802 0.26352
# Poissons Ratio (z) = -0.00500 0.41163
#
# Static dielectric constant tensor:
#      x y z
#    x 4.052910 0.103020 -0.038190 
#    y 0.103020 4.289590 -0.101050 
#    z -0.038190 -0.101050 4.078810 
# 
# 
# High freq. dielectric constant tensor:
#      x y z
#    x 1.860600 0.007410 -0.003510 
#    y 0.007410 1.894950 -0.007310 
#    z -0.003510 -0.007310 1.899310 
# 
# From -- ./inp_files/272554.got.cif
#   From: 2010.06.25/outbox.cif.g09.slc.cpg/sg2_137_cif.got.tgz:272554.got - 2010.06.27 13:26:56.
