data_PCOD8021077
_publ_section_title
;
Structure prediction by ZEFSAII (Michael W. Deem and Ramdas Pophale) SiO2 
 PCOD8021077
Probable space group: P -1
;
_chemical_formula_sum "Si O2"
_cell_formula_units_Z 16
_cell_length_a 14.606856
_cell_length_b 11.536333
_cell_length_c 8.739148
_cell_angle_alpha 70.634754
_cell_angle_beta 119.717181
_cell_angle_gamma 60.516933
_cell_volume 721.865104
_symmetry_space_group_name_H-M "P -1"
_symmetry_group_IT_number 2
_symmetry_cell_setting 'triclinic'
loop_
_space_group_symop_operation_xyz
x,y,z
-x,-y,-z
loop_
_atom_site_type_symbol
_atom_site_label
_atom_site_fract_x
_atom_site_fract_y
_atom_site_fract_z
Si Si1 0.903174 0.833582 0.826236
Si Si2 0.749179 0.844756 0.150457
Si Si3 0.565668 0.057685 0.609618
Si Si4 0.671469 0.095041 0.239231
Si Si5 0.770280 0.483223 0.944800
Si Si6 0.846757 0.133196 0.193138
Si Si7 0.997375 0.197265 0.760002
Si Si8 0.273044 0.416885 0.799473
O O1 0.756738 0.888598 0.762738
O O2 0.807324 0.992800 0.536703
O O3 0.978836 0.848776 0.018977
O O4 0.075672 0.603609 0.999075
O O5 0.915589 0.757285 0.251504
O O6 0.769753 0.679033 0.256874
O O7 0.715811 0.929915 0.254053
O O8 0.583613 0.025078 0.821222
O O9 0.426485 0.296386 0.364906
O O10 0.500000 0.000000 0.500000
O O11 0.686857 0.199753 0.097519
O O12 0.476621 0.257725 0.070060
O O13 0.772793 0.333880 0.997716
O O14 0.819802 0.481658 0.156777
O O15 0.923290 0.997776 0.164845
O O16 0.000000 0.000000 0.500000
O O17 0.795214 0.414334 0.449330
#
# Coordination Sequence:
#
# PCOD8021077 Si02
#       8
#     2   2   2   2   2   2   2   2
#     4  11  24  44  66 102 134 176 224 275 338 391
#     4  10  22  43  67  94 143 174 221 278 336 403
#     4  11  23  45  65 102 139 169 220 284 331 401
#     4  11  23  43  68  97 136 182 223 278 338 391
#     4  12  24  42  71  95 134 177 225 264 348 384
#     4  11  22  46  67  93 134 179 226 278 326 410
#     4  10  24  42  66  99 136 174 226 275 335 397
#     4  12  22  42  69 103 132 180 227 273 337 408
#
# _framework density 22.164805999999999
#
# number of rings (size 3 to 8) (size 9 to 14) (size 15 to 20)
#    0.000    1.000    5.000    1.500    1.750    1.500 
#    2.250    5.625    0.000    0.000    0.000    0.000 
#    0.000    0.000    0.000    0.000    0.000    0.000 
#
# Total GULP energy -198283.875935 kJ/mol
# GULP energy per Si atom -12392.742246 kJ/mol
# Density = 2.211436 g / cm^3
# Si number density = 22.164806 Si / 1000 Ang^3
#
#
#
# Elastic Constant Matrix: (Units=GPa)
#
#
# Indices 1 2 3 4 5 6 
#
# 1 68.8936 54.8239 14.3501 -11.6144 6.6509 -6.5103
# 2 54.8239 148.5515 71.8895 2.3267 -9.7907 -10.0439
# 3 14.3501 71.8895 108.3701 9.1376 -14.2798 -9.5045
# 4 -11.6144 2.3267 9.1376 40.3408 -4.4237 -9.4648
# 5 6.6509 -9.7907 -14.2798 -4.4237 34.9619 -6.5321
# 6 -6.5103 -10.0439 -9.5045 -9.4648 -6.5321 40.1041
#
#
#
# Elastic Compliance Matrix: (Units=1/GPa)
#
#
# Indices 1 2 3 4 5 6 
#
# 1 0.024281 -0.010556 0.002775 0.007079 -0.005021 0.002809
# 2 -0.010556 0.014603 -0.007769 -0.001795 0.002720 0.000122
# 3 0.002775 -0.007769 0.014794 -0.001160 0.003627 0.002328
# 4 0.007079 -0.001795 -0.001160 0.029339 0.002849 0.007813
# 5 -0.005021 0.002720 0.003627 0.002849 0.033440 0.006845
# 6 0.002809 0.000122 0.002328 0.007813 0.006845 0.028932
#
#
# Mechanical properties :
#
#
# Convention : Reuss Voigt Hill
#
# Bulk Modulus (GPa) = 44.29109 67.54911 55.92010
# Shear Modulus (GPa) = 27.17202 35.39815 31.28509
#
# Velocity S-wave (km/s) = 3.50510 4.00064 3.76104
# Velocity P-wave (km/s) = 6.03382 7.20293 6.64414
#
# Compressibility (1/GPa) = 0.02257790
#
# Stress axis : x y z
#
# Youngs Moduli (GPa) = 41.18476 68.48119 67.59688
#
# Poissons Ratio (x) = 0.72288 -0.18758
# Poissons Ratio (y) = 0.43474 0.52514
# Poissons Ratio (z) = -0.11429 0.53201
#
# Static dielectric constant tensor:
#      x y z
#    x 4.015390 -0.177590 0.104220 
#    y -0.177590 4.136520 0.134770 
#    z 0.104220 0.134770 4.398660 
# 
# 
# High freq. dielectric constant tensor:
#      x y z
#    x 1.861750 -0.011380 0.006950 
#    y -0.011380 1.875700 0.013360 
#    z 0.006950 0.013360 1.879180 
# 
# From -- ./inp_files/307146.got.cif
#   From: 2010.06.25/outbox.cif.g09.slc.cpg/sg2_154_cif.got.tgz:307146.got - 2010.06.27 13:26:56.
