data_PCOD8021539
_publ_section_title
;
Structure prediction by ZEFSAII (Michael W. Deem and Ramdas Pophale) SiO2 
 PCOD8021539
Probable space group: P -1
;
_chemical_formula_sum "Si O2"
_cell_formula_units_Z 16
_cell_length_a 18.680741
_cell_length_b 8.940157
_cell_length_c 11.494910
_cell_angle_alpha 152.760247
_cell_angle_beta 133.834371
_cell_angle_gamma 49.670710
_cell_volume 630.969761
_symmetry_space_group_name_H-M "P -1"
_symmetry_group_IT_number 2
_symmetry_cell_setting 'triclinic'
loop_
_space_group_symop_operation_xyz
x,y,z
-x,-y,-z
loop_
_atom_site_type_symbol
_atom_site_label
_atom_site_fract_x
_atom_site_fract_y
_atom_site_fract_z
Si Si1 0.299730 0.758987 0.792868
Si Si2 0.545123 0.985153 0.713592
Si Si3 0.411855 0.779637 0.716565
Si Si4 0.740550 0.116683 0.571104
Si Si5 0.049032 0.213602 0.437370
Si Si6 0.342918 0.070659 0.430399
Si Si7 0.842474 0.654133 0.930875
Si Si8 0.993232 0.487551 0.813924
O O1 0.310353 0.809811 0.701677
O O2 0.273315 0.405090 0.559442
O O3 0.413790 0.813073 0.995249
O O4 0.218811 0.006674 0.936659
O O5 0.545550 0.603884 0.491512
O O6 0.619406 0.062840 0.743899
O O7 0.436928 0.141536 0.664785
O O8 0.366426 0.916034 0.635679
O O9 0.500000 0.000000 0.000000
O O10 0.772663 0.456177 0.794921
O O11 0.829256 0.821689 0.444785
O O12 0.722136 0.151754 0.714926
O O13 0.004891 0.316960 0.585234
O O14 0.000000 0.500000 0.500000
O O15 0.017958 0.868160 0.113449
O O16 0.879791 0.477678 0.729098
O O17 0.937546 0.730772 0.168025
#
# Coordination Sequence:
#
# PCOD8021539 Si02
#       8
#     2   2   2   2   2   2   2   2
#     4  11  22  41  65  94 131 177 231 275 351 418
#     4  10  22  44  63  90 138 178 228 282 353 414
#     4  11  24  39  68 100 133 185 233 292 345 416
#     4  11  24  44  66 105 136 177 241 293 345 420
#     4  11  25  46  73 106 148 188 235 297 365 431
#     4  10  24  40  64  94 132 178 223 284 347 414
#     4  10  23  42  72  99 135 187 230 298 352 427
#     4  10  24  46  73 104 143 189 235 293 367 433
#
# _framework density 25.357792
#
# number of rings (size 3 to 8) (size 9 to 14) (size 15 to 20)
#    0.000    1.500    1.250    2.250    3.500    9.500 
#    4.500    0.000    0.000    0.000    0.000    0.000 
#    0.000    0.000    0.000    0.000    0.000    0.000 
#
# Total GULP energy -198220.997222 kJ/mol
# GULP energy per Si atom -12388.812326 kJ/mol
# Density = 2.530008 g / cm^3
# Si number density = 25.357792 Si / 1000 Ang^3
#
#
#
# Elastic Constant Matrix: (Units=GPa)
#
#
# Indices 1 2 3 4 5 6 
#
# 1 122.1293 33.1684 9.1253 19.0093 1.3308 19.2899
# 2 33.1684 122.5638 -0.0141 12.4288 -4.9918 -1.5800
# 3 9.1253 -0.0141 43.2151 11.7154 1.4663 9.5398
# 4 19.0093 12.4288 11.7154 20.9273 -4.7516 -3.1219
# 5 1.3308 -4.9918 1.4663 -4.7516 34.1317 0.3427
# 6 19.2899 -1.5800 9.5398 -3.1219 0.3427 44.2817
#
#
#
# Elastic Compliance Matrix: (Units=1/GPa)
#
#
# Indices 1 2 3 4 5 6 
#
# 1 0.011487 -0.002072 0.002332 -0.012024 -0.002461 -0.006409
# 2 -0.002072 0.009172 0.001372 -0.004058 0.000792 0.000642
# 3 0.002332 0.001372 0.030950 -0.022601 -0.004274 -0.009195
# 4 -0.012024 -0.004058 -0.022601 0.078714 0.011650 0.015421
# 5 -0.002461 0.000792 -0.004274 0.011650 0.031289 0.002600
# 6 -0.006409 0.000642 -0.009195 0.015421 0.002600 0.028445
#
#
# Mechanical properties :
#
#
# Convention : Reuss Voigt Hill
#
# Bulk Modulus (GPa) = 18.22419 41.38526 29.80473
# Shear Modulus (GPa) = 24.38005 36.24336 30.31171
#
# Velocity S-wave (km/s) = 3.10408 3.78468 3.46115
# Velocity P-wave (km/s) = 4.47766 5.95436 5.26801
#
# Compressibility (1/GPa) = 0.05487212
#
# Stress axis : x y z
#
# Youngs Moduli (GPa) = 87.05415 109.02889 32.31014
#
# Poissons Ratio (x) = 0.22590 -0.07533
# Poissons Ratio (y) = 0.18037 -0.04433
# Poissons Ratio (z) = -0.20297 -0.14958
#
# Static dielectric constant tensor:
#      x y z
#    x 4.822960 0.048310 -0.045660 
#    y 0.048310 5.015200 -0.074610 
#    z -0.045660 -0.074610 4.184450 
# 
# 
# High freq. dielectric constant tensor:
#      x y z
#    x 2.026830 0.002180 -0.002210 
#    y 0.002180 2.031380 0.000520 
#    z -0.002210 0.000520 1.980780 
# 
# From -- ./inp_files/138886.got.cif
#   From: 2010.06.25/outbox.cif.g09.slc.cpg/sg2_70_cif.got.tgz:138886.got - 2010.06.27 13:26:56.
