data_PCOD8021100
_publ_section_title
;
Structure prediction by ZEFSAII (Michael W. Deem and Ramdas Pophale) SiO2 
 PCOD8021100
Probable space group: P -1
;
_chemical_formula_sum "Si O2"
_cell_formula_units_Z 16
_cell_length_a 16.683502
_cell_length_b 18.467580
_cell_length_c 7.913875
_cell_angle_alpha 142.416908
_cell_angle_beta 43.220496
_cell_angle_gamma 148.921082
_cell_volume 757.945767
_symmetry_space_group_name_H-M "P -1"
_symmetry_group_IT_number 2
_symmetry_cell_setting 'triclinic'
loop_
_space_group_symop_operation_xyz
x,y,z
-x,-y,-z
loop_
_atom_site_type_symbol
_atom_site_label
_atom_site_fract_x
_atom_site_fract_y
_atom_site_fract_z
Si Si1 0.108045 0.458089 0.263604
Si Si2 0.859819 0.132245 0.894439
Si Si3 0.537738 0.465093 0.631552
Si Si4 0.221306 0.148281 0.663984
Si Si5 0.565376 0.366326 0.053979
Si Si6 0.170364 0.900642 0.486299
Si Si7 0.854373 0.671518 0.730523
Si Si8 0.636175 0.998397 0.300195
O O1 0.126495 0.435793 0.390547
O O2 0.000000 0.500000 0.500000
O O3 0.278857 0.597746 0.179461
O O4 0.031799 0.298626 0.979590
O O5 0.801996 0.145981 0.824950
O O6 0.863066 0.990353 0.607497
O O7 0.745885 0.096174 0.152026
O O8 0.400131 0.293128 0.603825
O O9 0.597818 0.447305 0.334297
O O10 0.478064 0.559328 0.873242
O O11 0.680894 0.563972 0.723722
O O12 0.219921 0.072617 0.702840
O O13 0.122799 0.201966 0.941432
O O14 0.424573 0.177204 0.932304
O O15 0.984908 0.765361 0.559033
O O16 0.269557 0.910437 0.503282
O O17 0.500000 0.000000 0.500000
#
# Coordination Sequence:
#
# PCOD8021100 Si02
#       8
#     2   2   2   2   2   2   2   2
#     4  12  26  45  66  97 140 185 224 276 338 407
#     4  10  24  47  65  99 134 172 235 272 343 394
#     4  11  23  43  67 104 133 175 225 286 350 398
#     4  10  22  43  67  98 134 170 222 282 339 400
#     4  11  24  43  68  97 139 176 227 284 341 405
#     4  10  24  43  68 100 134 175 220 284 337 400
#     4  12  23  42  68 102 134 178 226 276 346 405
#     4  12  24  45  70  97 135 180 232 276 333 404
#
# _framework density 21.109688999999999
#
# number of rings (size 3 to 8) (size 9 to 14) (size 15 to 20)
#    0.750    0.250    3.750    3.000    1.750    1.000 
#    4.500    1.250    0.000    0.000    0.000    0.000 
#    0.000    0.000    0.000    0.000    0.000    0.000 
#
# Total GULP energy -198363.293392 kJ/mol
# GULP energy per Si atom -12397.705837 kJ/mol
# Density = 2.106164 g / cm^3
# Si number density = 21.109689 Si / 1000 Ang^3
#
#
#
# Elastic Constant Matrix: (Units=GPa)
#
#
# Indices 1 2 3 4 5 6 
#
# 1 117.8746 32.0232 41.8560 -14.1743 7.3977 -3.1178
# 2 32.0232 104.0535 14.4699 -8.8647 4.0165 -6.8402
# 3 41.8560 14.4699 47.7173 -6.5783 1.0181 -5.4719
# 4 -14.1743 -8.8647 -6.5783 36.5568 1.8279 11.6955
# 5 7.3977 4.0165 1.0181 1.8279 34.9933 -2.7345
# 6 -3.1178 -6.8402 -5.4719 11.6955 -2.7345 31.4146
#
#
#
# Elastic Compliance Matrix: (Units=1/GPa)
#
#
# Indices 1 2 3 4 5 6 
#
# 1 0.013550 -0.002413 -0.010894 0.003702 -0.002674 -0.002689
# 2 -0.002413 0.010676 -0.000789 0.001064 -0.000631 0.001497
# 3 -0.010894 -0.000789 0.031179 -0.000324 0.001852 0.004460
# 4 0.003702 0.001064 -0.000324 0.033027 -0.003563 -0.012064
# 5 -0.002674 -0.000631 0.001852 -0.003563 0.029646 0.003827
# 6 -0.002689 0.001497 0.004460 -0.012064 0.003827 0.037492
#
#
# Mechanical properties :
#
#
# Convention : Reuss Voigt Hill
#
# Bulk Modulus (GPa) = 36.74835 49.59374 43.17104
# Shear Modulus (GPa) = 25.92896 32.67935 29.30416
#
# Velocity S-wave (km/s) = 3.50851 3.93883 3.72988
# Velocity P-wave (km/s) = 5.81884 6.65057 6.24856
#
# Compressibility (1/GPa) = 0.02721211
#
# Stress axis : x y z
#
# Youngs Moduli (GPa) = 73.80343 93.66624 32.07250
#
# Poissons Ratio (x) = 0.22603 0.34941
# Poissons Ratio (y) = 0.17810 0.02530
# Poissons Ratio (z) = 0.80404 0.07390
#
# Static dielectric constant tensor:
#      x y z
#    x 3.711700 -0.137060 0.164010 
#    y -0.137060 3.967190 0.056360 
#    z 0.164010 0.056360 3.602410 
# 
# 
# High freq. dielectric constant tensor:
#      x y z
#    x 1.824240 -0.008690 0.013400 
#    y -0.008690 1.844800 -0.003110 
#    z 0.013400 -0.003110 1.812610 
# 
# From -- ./inp_files/318139.got.cif
#   From: 2010.06.25/outbox.cif.g09.slc.cpg/sg2_160_cif.got.tgz:318139.got - 2010.06.27 13:26:56.
