data_PCOD8021715
_publ_section_title
;
Structure prediction by ZEFSAII (Michael W. Deem and Ramdas Pophale) SiO2 
 PCOD8021715
Probable space group: P -1
;
_chemical_formula_sum "Si O2"
_cell_formula_units_Z 14
_cell_length_a 13.879307
_cell_length_b 14.567772
_cell_length_c 6.669375
_cell_angle_alpha 113.721569
_cell_angle_beta 99.118725
_cell_angle_gamma 33.135376
_cell_volume 630.497889
_symmetry_space_group_name_H-M "P -1"
_symmetry_group_IT_number 2
_symmetry_cell_setting 'triclinic'
loop_
_space_group_symop_operation_xyz
x,y,z
-x,-y,-z
loop_
_atom_site_type_symbol
_atom_site_label
_atom_site_fract_x
_atom_site_fract_y
_atom_site_fract_z
Si Si1 0.100308 0.009196 0.618346
Si Si2 0.414340 0.970257 0.503844
Si Si3 0.666238 0.304314 0.257694
Si Si4 0.763178 0.604272 0.495866
Si Si5 0.083082 0.738625 0.872924
Si Si6 0.951848 0.600631 0.269222
Si Si7 0.713338 0.089057 0.810270
O O1 0.240342 0.856025 0.705171
O O2 0.213304 0.960679 0.435743
O O3 0.000000 0.000000 0.500000
O O4 0.948606 0.215798 0.858826
O O5 0.534816 0.823252 0.607513
O O6 0.433601 0.873823 0.238653
O O7 0.500000 0.000000 0.500000
O O8 0.190263 0.184555 0.655651
O O9 0.500000 0.500000 0.500000
O O10 0.809335 0.262063 0.190439
O O11 0.609827 0.280972 0.030001
O O12 0.795287 0.467918 0.288042
O O13 0.855402 0.610254 0.400551
O O14 0.855006 0.525443 0.678924
O O15 0.884884 0.900121 0.836648
O O16 0.000000 0.500000 0.000000
#
# Coordination Sequence:
#
# PCOD8021715 Si02
#       7
#     2   2   2   2   2   2   2
#     4  11  21  40  66  89 124 179 215 258 329 390
#     4  10  23  44  65  95 134 172 219 278 328 388
#     4  11  25  41  61  97 135 167 216 276 327 391
#     4  10  23  41  65  94 130 167 218 273 328 390
#     4  11  22  41  65  94 131 169 220 271 324 402
#     4  10  22  44  67  93 127 173 217 272 332 389
#     4  11  22  44  66  90 134 176 222 268 328 397
#
# _framework density 22.204673
#
# number of rings (size 3 to 8) (size 9 to 14) (size 15 to 20)
#    0.000    1.429    4.286    0.857    4.000    2.286 
#    5.143    0.000    0.000    0.000    0.000    0.000 
#    0.000    0.000    0.000    0.000    0.000    0.000 
#
# Total GULP energy -173457.951763 kJ/mol
# GULP energy per Si atom -12389.853697 kJ/mol
# Density = 2.215413 g / cm^3
# Si number density = 22.204673 Si / 1000 Ang^3
#
#
#
# Elastic Constant Matrix: (Units=GPa)
#
#
# Indices 1 2 3 4 5 6 
#
# 1 85.8191 26.4059 39.0280 0.4160 34.6366 -4.8435
# 2 26.4059 158.5526 64.1339 8.9527 26.1106 -9.4524
# 3 39.0280 64.1339 161.1388 3.0080 26.3262 -3.0928
# 4 0.4160 8.9527 3.0080 26.7868 3.3813 10.8357
# 5 34.6366 26.1106 26.3262 3.3813 44.4644 -3.3240
# 6 -4.8435 -9.4524 -3.0928 10.8357 -3.3240 30.1650
#
#
#
# Elastic Compliance Matrix: (Units=1/GPa)
#
#
# Indices 1 2 3 4 5 6 
#
# 1 0.017786 -0.000002 -0.002265 0.001242 -0.012548 0.000794
# 2 -0.000002 0.008237 -0.002706 -0.003409 -0.002732 0.003227
# 3 -0.002265 -0.002706 0.008054 0.000526 -0.001511 -0.000741
# 4 0.001242 -0.003409 0.000526 0.046129 -0.004118 -0.017839
# 5 -0.012548 -0.002732 -0.001511 -0.004118 0.035251 0.002338
# 6 0.000794 0.003227 -0.000741 -0.017839 0.002338 0.040879
#
#
# Mechanical properties :
#
#
# Convention : Reuss Voigt Hill
#
# Bulk Modulus (GPa) = 41.44026 73.84955 57.64491
# Shear Modulus (GPa) = 28.68185 38.67943 33.68064
#
# Velocity S-wave (km/s) = 3.59793 4.17820 3.89887
# Velocity P-wave (km/s) = 5.99696 7.52377 6.80333
#
# Compressibility (1/GPa) = 0.02413112
#
# Stress axis : x y z
#
# Youngs Moduli (GPa) = 56.22344 121.40678 124.16123
#
# Poissons Ratio (x) = 0.00030 0.28120
# Poissons Ratio (y) = 0.00014 0.33594
# Poissons Ratio (z) = 0.12734 0.32849
#
# Static dielectric constant tensor:
#      x y z
#    x 2.683370 -0.826180 1.528230 
#    y -0.826180 4.240760 0.520730 
#    z 1.528230 0.520730 4.181000 
# 
# 
# High freq. dielectric constant tensor:
#      x y z
#    x 1.876440 0.005330 0.032020 
#    y 0.005330 1.877050 -0.000780 
#    z 0.032020 -0.000780 1.870570 
# 
# From -- ./inp_files/40337.got.cif
#   From: 2010.06.25/outbox.cif.g09.slc.cpg/sg2_21_cif.got.tgz:40337.got - 2010.06.27 13:26:56.
