data_PCOD8021591
_publ_section_title
;
Structure prediction by ZEFSAII (Michael W. Deem and Ramdas Pophale) SiO2 
 PCOD8021591
Probable space group: P -1
;
_chemical_formula_sum "Si O2"
_cell_formula_units_Z 16
_cell_length_a 14.661502
_cell_length_b 8.162019
_cell_length_c 15.249452
_cell_angle_alpha 95.222296
_cell_angle_beta 38.670253
_cell_angle_gamma 124.894332
_cell_volume 673.436092
_symmetry_space_group_name_H-M "P -1"
_symmetry_group_IT_number 2
_symmetry_cell_setting 'triclinic'
loop_
_space_group_symop_operation_xyz
x,y,z
-x,-y,-z
loop_
_atom_site_type_symbol
_atom_site_label
_atom_site_fract_x
_atom_site_fract_y
_atom_site_fract_z
Si Si1 0.173732 0.501821 0.876256
Si Si2 0.163844 0.945766 0.021787
Si Si3 0.565038 0.079775 0.661796
Si Si4 0.675288 0.539289 0.075077
Si Si5 0.686804 0.518606 0.874084
Si Si6 0.877745 0.899264 0.492291
Si Si7 0.731833 0.238493 0.728407
Si Si8 0.023765 0.693903 0.298688
O O1 0.147109 0.387127 0.984632
O O2 0.097721 0.306426 0.846806
O O3 0.451903 0.828049 0.676420
O O4 0.000000 0.500000 0.000000
O O5 0.137735 0.813796 0.123059
O O6 0.380543 0.069155 0.803848
O O7 0.218524 0.183842 0.013732
O O8 0.577807 0.027050 0.751673
O O9 0.825830 0.365626 0.437235
O O10 0.401737 0.298513 0.306688
O O11 0.669358 0.434546 0.982393
O O12 0.623577 0.318729 0.841854
O O13 0.500000 0.500000 0.000000
O O14 0.968867 0.829282 0.664797
O O15 0.882633 0.728843 0.433567
O O16 0.000000 0.000000 0.500000
O O17 0.000000 0.500000 0.500000
O O18 0.748543 0.135129 0.796374
#
# Coordination Sequence:
#
# PCOD8021591 Si02
#       8
#     2   2   2   2   2   2   2   2
#     4  10  26  46  73  96 134 192 244 304 349 411
#     4  11  23  47  67  97 135 182 245 293 345 415
#     4  10  22  44  64  99 140 182 231 287 359 413
#     4  12  25  45  73 101 144 187 237 295 360 421
#     4  12  25  43  69 112 147 190 234 280 359 444
#     4  12  24  41  69 106 150 186 228 286 357 440
#     4  10  24  41  68 105 148 184 227 291 360 433
#     4  11  24  41  69 103 141 183 229 294 355 434
#
# _framework density 23.758749999999999
#
# number of rings (size 3 to 8) (size 9 to 14) (size 15 to 20)
#    0.000    1.000    3.750    2.625    8.750    1.000 
#    0.000    3.125    0.000    0.000    0.000    0.000 
#    0.000    0.000    0.000    0.000    0.000    0.000 
#
# Total GULP energy -198371.502359 kJ/mol
# GULP energy per Si atom -12398.218897 kJ/mol
# Density = 2.370467 g / cm^3
# Si number density = 23.758750 Si / 1000 Ang^3
#
#
#
# Elastic Constant Matrix: (Units=GPa)
#
#
# Indices 1 2 3 4 5 6 
#
# 1 137.2531 4.1092 29.3842 -6.0830 3.6613 8.4487
# 2 4.1092 60.7920 26.4801 -11.1800 -7.4988 18.5426
# 3 29.3842 26.4801 92.7884 -8.4434 7.4733 2.5741
# 4 -6.0830 -11.1800 -8.4434 40.5632 -3.5363 -6.0377
# 5 3.6613 -7.4988 7.4733 -3.5363 29.7940 -5.2231
# 6 8.4487 18.5426 2.5741 -6.0377 -5.2231 36.3888
#
#
#
# Elastic Compliance Matrix: (Units=1/GPa)
#
#
# Indices 1 2 3 4 5 6 
#
# 1 0.008026 0.001497 -0.002825 0.000658 -0.000235 -0.002351
# 2 0.001497 0.024333 -0.007241 0.004409 0.006425 -0.010581
# 3 -0.002825 -0.007241 0.014068 0.000538 -0.004449 0.002801
# 4 0.000658 0.004409 0.000538 0.026874 0.004553 0.002675
# 5 -0.000235 0.006425 -0.004449 0.004553 0.037431 0.003223
# 6 -0.002351 -0.010581 0.002801 0.002675 0.003223 0.034127
#
#
# Mechanical properties :
#
#
# Convention : Reuss Voigt Hill
#
# Bulk Modulus (GPa) = 34.14228 45.64226 39.89227
# Shear Modulus (GPa) = 29.11042 36.73988 32.92515
#
# Velocity S-wave (km/s) = 3.50416 3.93666 3.72669
# Velocity P-wave (km/s) = 5.54741 6.31787 5.94513
#
# Compressibility (1/GPa) = 0.02928920
#
# Stress axis : x y z
#
# Youngs Moduli (GPa) = 124.59658 41.09598 71.08408
#
# Poissons Ratio (x) = -0.06152 0.20080
# Poissons Ratio (y) = -0.18653 0.51473
# Poissons Ratio (z) = 0.35197 0.29758
#
# Static dielectric constant tensor:
#      x y z
#    x 4.589140 0.270910 -0.064820 
#    y 0.270910 4.567900 -0.168240 
#    z -0.064820 -0.168240 4.329440 
# 
# 
# High freq. dielectric constant tensor:
#      x y z
#    x 1.938600 -0.004280 -0.000380 
#    y -0.004280 1.948090 -0.014970 
#    z -0.000380 -0.014970 1.934050 
# 
# From -- ./inp_files/315187.got.cif
#   From: 2010.06.25/outbox.cif.g09.slc.cpg/sg2_158_cif.got.tgz:315187.got - 2010.06.27 13:26:56.
