data_PCOD8021446
_publ_section_title
;
Structure prediction by ZEFSAII (Michael W. Deem and Ramdas Pophale) SiO2 
 PCOD8021446
Probable space group: P -1
;
_chemical_formula_sum "Si O2"
_cell_formula_units_Z 16
_cell_length_a 14.109866
_cell_length_b 9.081268
_cell_length_c 9.258658
_cell_angle_alpha 66.678115
_cell_angle_beta 84.307785
_cell_angle_gamma 129.724826
_cell_volume 726.289739
_symmetry_space_group_name_H-M "P -1"
_symmetry_group_IT_number 2
_symmetry_cell_setting 'triclinic'
loop_
_space_group_symop_operation_xyz
x,y,z
-x,-y,-z
loop_
_atom_site_type_symbol
_atom_site_label
_atom_site_fract_x
_atom_site_fract_y
_atom_site_fract_z
Si Si1 0.569902 0.329368 0.574270
Si Si2 0.377284 0.289737 0.438855
Si Si3 0.899782 0.054924 0.210497
Si Si4 0.444196 0.876130 0.903453
Si Si5 0.885755 0.676439 0.424981
Si Si6 0.124051 0.842048 0.138129
Si Si7 0.615153 0.778671 0.850200
Si Si8 0.862518 0.508809 0.806177
O O1 0.516053 0.357385 0.430284
O O2 0.580352 0.468312 0.653766
O O3 0.726706 0.454284 0.472535
O O4 0.459246 0.049045 0.730359
O O5 0.317920 0.168333 0.338603
O O6 0.257462 0.102417 0.648265
O O7 0.009700 0.310999 0.171365
O O8 0.943122 0.927074 0.290272
O O9 0.903483 0.086336 0.026790
O O10 0.541445 0.858580 0.831784
O O11 0.281281 0.616071 0.041970
O O12 0.500000 0.000000 0.000000
O O13 0.888026 0.647217 0.606864
O O14 0.986885 0.678547 0.326072
O O15 0.153176 0.695392 0.153484
O O16 0.261110 0.083676 0.105004
O O17 0.500000 0.500000 0.000000
#
# Coordination Sequence:
#
# PCOD8021446 Si02
#       8
#     2   2   2   2   2   2   2   2
#     4  10  22  43  72  99 136 185 220 285 339 406
#     4  10  24  44  71 100 139 177 231 275 343 408
#     4  11  26  44  71 100 137 183 225 279 342 405
#     4  12  23  44  69 101 138 176 230 280 346 397
#     4  11  24  42  71  99 139 175 229 277 340 404
#     4  12  26  46  68 101 139 177 230 285 339 401
#     4  12  28  41  70 101 134 179 230 281 336 408
#     4  12  25  44  72  98 138 183 222 280 342 410
#
# _framework density 22.029776999999999
#
# number of rings (size 3 to 8) (size 9 to 14) (size 15 to 20)
#    0.000    0.750    2.500    3.750    8.750    2.500 
#    0.000    0.000    0.000    0.000    0.000    0.000 
#    0.000    0.000    0.000    0.000    0.000    0.000 
#
# Total GULP energy -198495.157564 kJ/mol
# GULP energy per Si atom -12405.947348 kJ/mol
# Density = 2.197964 g / cm^3
# Si number density = 22.029777 Si / 1000 Ang^3
#
#
#
# Elastic Constant Matrix: (Units=GPa)
#
#
# Indices 1 2 3 4 5 6 
#
# 1 96.5165 30.8621 42.2206 -1.1857 1.0428 9.6699
# 2 30.8621 119.3782 43.5748 3.9063 10.6140 19.7417
# 3 42.2206 43.5748 113.7955 -0.7877 1.8030 6.4685
# 4 -1.1857 3.9063 -0.7877 28.1144 -1.6215 2.5973
# 5 1.0428 10.6140 1.8030 -1.6215 41.3295 -5.1224
# 6 9.6699 19.7417 6.4685 2.5973 -5.1224 38.4937
#
#
#
# Elastic Compliance Matrix: (Units=1/GPa)
#
#
# Indices 1 2 3 4 5 6 
#
# 1 0.012823 -0.001576 -0.004049 0.000815 0.000069 -0.001778
# 2 -0.001576 0.011214 -0.003373 -0.001439 -0.003387 -0.005142
# 3 -0.004049 -0.003373 0.011528 0.000577 0.000594 0.000850
# 4 0.000815 -0.001439 0.000577 0.036073 0.001517 -0.001795
# 5 0.000069 -0.003387 0.000594 0.001517 0.025709 0.004939
# 6 -0.001778 -0.005142 0.000850 -0.001795 0.004939 0.029698
#
#
# Mechanical properties :
#
#
# Convention : Reuss Voigt Hill
#
# Bulk Modulus (GPa) = 56.91789 62.55611 59.73700
# Shear Modulus (GPa) = 33.13506 35.78972 34.46239
#
# Velocity S-wave (km/s) = 3.88248 4.03501 3.95948
# Velocity P-wave (km/s) = 6.78168 7.08281 6.93388
#
# Compressibility (1/GPa) = 0.01756917
#
# Stress axis : x y z
#
# Youngs Moduli (GPa) = 77.98273 89.17365 86.74668
#
# Poissons Ratio (x) = 0.14054 0.35120
# Poissons Ratio (y) = 0.12291 0.29263
# Poissons Ratio (z) = 0.31572 0.30082
#
# Static dielectric constant tensor:
#      x y z
#    x 4.222240 -0.118520 -0.114250 
#    y -0.118520 4.301150 -0.157340 
#    z -0.114250 -0.157340 4.253830 
# 
# 
# High freq. dielectric constant tensor:
#      x y z
#    x 1.879670 0.002440 0.001400 
#    y 0.002440 1.864040 -0.007270 
#    z 0.001400 -0.007270 1.868220 
# 
# From -- ./inp_files/297885.got.cif
#   From: 2010.06.25/outbox.cif.g09.slc.cpg/sg2_149_cif.got.tgz:297885.got - 2010.06.27 13:26:56.
