data_PCOD8021566
_publ_section_title
;
Structure prediction by ZEFSAII (Michael W. Deem and Ramdas Pophale) SiO2 
 PCOD8021566
Probable space group: P -1
;
_chemical_formula_sum "Si O2"
_cell_formula_units_Z 14
_cell_length_a 5.206751
_cell_length_b 28.779099
_cell_length_c 8.964277
_cell_angle_alpha 33.210952
_cell_angle_beta 123.102804
_cell_angle_gamma 122.235679
_cell_volume 607.698312
_symmetry_space_group_name_H-M "P -1"
_symmetry_group_IT_number 2
_symmetry_cell_setting 'triclinic'
loop_
_space_group_symop_operation_xyz
x,y,z
-x,-y,-z
loop_
_atom_site_type_symbol
_atom_site_label
_atom_site_fract_x
_atom_site_fract_y
_atom_site_fract_z
Si Si1 0.071547 0.937989 0.059906
Si Si2 0.500602 0.403967 0.307767
Si Si3 0.337377 0.266789 0.173387
Si Si4 0.269408 0.167627 0.006587
Si Si5 0.134784 0.698051 0.521601
Si Si6 0.337582 0.092355 0.534790
Si Si7 0.708309 0.318186 0.857964
O O1 0.304897 0.882188 0.361400
O O2 0.779750 0.875376 0.059815
O O3 0.214644 0.996298 0.808921
O O4 0.000000 0.000000 0.000000
O O5 0.750324 0.364100 0.395778
O O6 0.635408 0.403280 0.521883
O O7 0.146933 0.352520 0.330558
O O8 0.500000 0.500000 0.000000
O O9 0.570131 0.265643 0.384563
O O10 0.176258 0.168048 0.352312
O O11 0.518713 0.310286 0.971258
O O12 0.073409 0.321331 0.991921
O O13 0.583950 0.237645 0.923034
O O14 0.983460 0.219247 0.812852
O O15 0.297379 0.094905 0.336146
#
# Coordination Sequence:
#
# PCOD8021566 Si02
#       7
#     2   2   2   2   2   2   2
#     4  11  24  41  60  94 128 170 222 275 334 381
#     4  11  23  43  66 100 136 171 214 266 332 395
#     4  11  22  43  67  96 130 169 228 272 314 393
#     4  10  22  44  64  92 128 175 225 264 333 389
#     4  11  23  42  70  98 126 180 219 266 325 394
#     4  10  23  40  61  90 130 169 214 281 325 381
#     4  10  23  41  68  95 128 172 218 269 328 391
#
# _framework density 23.037745999999999
#
# number of rings (size 3 to 8) (size 9 to 14) (size 15 to 20)
#    0.000    1.429    1.429    4.286    4.000    2.857 
#   10.286    4.286    0.000    0.000    0.000    0.000 
#    0.000    0.000    0.000    0.000    0.000    0.000 
#
# Total GULP energy -173496.160991 kJ/mol
# GULP energy per Si atom -12392.582928 kJ/mol
# Density = 2.298531 g / cm^3
# Si number density = 23.037746 Si / 1000 Ang^3
#
#
#
# Elastic Constant Matrix: (Units=GPa)
#
#
# Indices 1 2 3 4 5 6 
#
# 1 101.0212 13.8974 36.6268 4.1950 12.1976 0.6546
# 2 13.8974 60.7250 34.2410 23.0425 -1.6577 -5.0291
# 3 36.6268 34.2410 158.0273 15.3075 1.3466 -3.6099
# 4 4.1950 23.0425 15.3075 34.1574 3.4522 9.2382
# 5 12.1976 -1.6577 1.3466 3.4522 30.1927 3.4752
# 6 0.6546 -5.0291 -3.6099 9.2382 3.4752 30.7244
#
#
#
# Elastic Compliance Matrix: (Units=1/GPa)
#
#
# Indices 1 2 3 4 5 6 
#
# 1 0.011569 -0.002236 -0.002359 0.001876 -0.004801 -0.000911
# 2 -0.002236 0.027123 -0.003282 -0.019506 0.003670 0.009551
# 3 -0.002359 -0.003282 0.007714 -0.001198 0.000482 0.000725
# 4 0.001876 -0.019506 -0.001198 0.047923 -0.005277 -0.017186
# 5 -0.004801 0.003670 0.000482 -0.005277 0.036043 -0.001730
# 6 -0.000911 0.009551 0.000725 -0.017186 -0.001730 0.039579
#
#
# Mechanical properties :
#
#
# Convention : Reuss Voigt Hill
#
# Bulk Modulus (GPa) = 32.62376 54.36712 43.49544
# Shear Modulus (GPa) = 25.52031 34.68213 30.10122
#
# Velocity S-wave (km/s) = 3.33191 3.88422 3.61862
# Velocity P-wave (km/s) = 5.38460 6.61563 6.03161
#
# Compressibility (1/GPa) = 0.03065251
#
# Stress axis : x y z
#
# Youngs Moduli (GPa) = 86.43492 36.86910 129.62772
#
# Poissons Ratio (x) = 0.08245 0.30574
# Poissons Ratio (y) = 0.19329 0.42548
# Poissons Ratio (z) = 0.20386 0.12102
#
# Static dielectric constant tensor:
#      x y z
#    x 4.143040 0.068700 0.006150 
#    y 0.068700 3.998470 0.300860 
#    z 0.006150 0.300860 4.588190 
# 
# 
# High freq. dielectric constant tensor:
#      x y z
#    x 1.898140 0.000540 0.005270 
#    y 0.000540 1.887060 0.025360 
#    z 0.005270 0.025360 1.930170 
# 
# From -- ./inp_files/46913.got.cif
#   From: 2010.06.25/outbox.cif.g09.slc.cpg/sg2_24_cif.got.tgz:46913.got - 2010.06.27 13:26:56.
