data_PCOD8021998
_publ_section_title
;
Structure prediction by ZEFSAII (Michael W. Deem and Ramdas Pophale) SiO2 
 PCOD8021998
Probable space group: P -1
;
_chemical_formula_sum "Si O2"
_cell_formula_units_Z 16
_cell_length_a 14.050312
_cell_length_b 9.058646
_cell_length_c 8.438713
_cell_angle_alpha 123.853309
_cell_angle_beta 113.315992
_cell_angle_gamma 104.714626
_cell_volume 641.279143
_symmetry_space_group_name_H-M "P -1"
_symmetry_group_IT_number 2
_symmetry_cell_setting 'triclinic'
loop_
_space_group_symop_operation_xyz
x,y,z
-x,-y,-z
loop_
_atom_site_type_symbol
_atom_site_label
_atom_site_fract_x
_atom_site_fract_y
_atom_site_fract_z
Si Si1 0.281797 0.046117 0.722796
Si Si2 0.325716 0.220875 0.357097
Si Si3 0.588289 0.103346 0.467493
Si Si4 0.366214 0.458787 0.204702
Si Si5 0.651102 0.080233 0.000314
Si Si6 0.099314 0.464855 0.624021
Si Si7 0.000456 0.324633 0.796715
Si Si8 0.934399 0.951762 0.760689
O O1 0.333659 0.000543 0.568611
O O2 0.355996 0.032988 0.909189
O O3 0.126925 0.844032 0.499698
O O4 0.307571 0.286835 0.909763
O O5 0.309753 0.324927 0.252556
O O6 0.475530 0.393305 0.621499
O O7 0.220787 0.160732 0.389594
O O8 0.292351 0.984196 0.142182
O O9 0.676639 0.377117 0.717313
O O10 0.500000 0.000000 0.500000
O O11 0.498597 0.026005 0.203634
O O12 0.753065 0.353038 0.241542
O O13 0.046586 0.214947 0.405926
O O14 0.000000 0.500000 0.500000
O O15 0.113707 0.481989 0.835110
O O16 0.016073 0.176164 0.838355
O O17 0.000000 0.500000 0.000000
O O18 0.000000 0.000000 0.000000
#
# Coordination Sequence:
#
# PCOD8021998 Si02
#       8
#     2   2   2   2   2   2   2   2
#     4  11  25  45  73 100 139 188 239 287 362 432
#     4   9  20  43  69 100 131 181 228 284 350 414
#     4  11  26  41  68 109 143 183 230 289 359 424
#     4   9  22  42  70  97 143 177 228 288 343 427
#     4  10  22  44  71  99 142 183 236 289 344 438
#     4  12  25  47  73 104 139 187 243 301 363 427
#     4  12  28  49  71 101 145 187 243 307 360 426
#     4  12  28  44  74 104 140 190 240 298 368 436
#
# _framework density 24.950135
#
# number of rings (size 3 to 8) (size 9 to 14) (size 15 to 20)
#    0.000    1.250    1.250    3.750   10.500    1.500 
#    0.000    0.000    0.000    0.000    0.000    0.000 
#    0.000    0.000    0.000    0.000    0.000    0.000 
#
# Total GULP energy -198285.789259 kJ/mol
# GULP energy per Si atom -12392.861829 kJ/mol
# Density = 2.489335 g / cm^3
# Si number density = 24.950135 Si / 1000 Ang^3
#
#
#
# Elastic Constant Matrix: (Units=GPa)
#
#
# Indices 1 2 3 4 5 6 
#
# 1 67.6242 7.3178 10.2951 8.4998 -26.7973 -4.1482
# 2 7.3178 103.4780 21.6479 19.0071 -17.4126 -6.7022
# 3 10.2951 21.6479 125.8335 23.5628 -28.3147 -15.8233
# 4 8.4998 19.0071 23.5628 47.2873 -8.7213 -5.2680
# 5 -26.7973 -17.4126 -28.3147 -8.7213 46.8724 3.9719
# 6 -4.1482 -6.7022 -15.8233 -5.2680 3.9719 38.4442
#
#
#
# Elastic Compliance Matrix: (Units=1/GPa)
#
#
# Indices 1 2 3 4 5 6 
#
# 1 0.019530 0.000795 0.001522 -0.002254 0.011847 0.001339
# 2 0.000795 0.011013 -0.000352 -0.003624 0.003575 0.000995
# 3 0.001522 -0.000352 0.010357 -0.003826 0.006011 0.003220
# 4 -0.002254 -0.003624 -0.003826 0.024956 -0.000388 0.001010
# 5 0.011847 0.003575 0.006011 -0.000388 0.032916 0.000922
# 6 0.001339 0.000995 0.003220 0.001010 0.000922 0.027698
#
#
# Mechanical properties :
#
#
# Convention : Reuss Voigt Hill
#
# Bulk Modulus (GPa) = 22.30658 41.71749 32.01204
# Shear Modulus (GPa) = 36.36779 43.69910 40.03344
#
# Velocity S-wave (km/s) = 3.82202 4.18958 4.01001
# Velocity P-wave (km/s) = 5.33263 6.33720 5.85650
#
# Compressibility (1/GPa) = 0.04482982
#
# Stress axis : x y z
#
# Youngs Moduli (GPa) = 51.20324 90.80280 96.55391
#
# Poissons Ratio (x) = -0.07217 -0.14693
# Poissons Ratio (y) = -0.04070 0.03394
# Poissons Ratio (z) = -0.07792 0.03192
#
# Static dielectric constant tensor:
#      x y z
#    x 4.551910 -0.064580 0.035450 
#    y -0.064580 4.738960 0.412170 
#    z 0.035450 0.412170 5.092160 
# 
# 
# High freq. dielectric constant tensor:
#      x y z
#    x 1.985940 0.001110 -0.008700 
#    y 0.001110 1.996670 0.003890 
#    z -0.008700 0.003890 2.004390 
# 
# From -- ./inp_files/299785.got.cif
#   From: 2010.06.25/outbox.cif.g09.slc.cpg/sg2_150_cif.got.tgz:299785.got - 2010.06.27 13:26:56.
