data_PCOD8021303
_publ_section_title
;
Structure prediction by ZEFSAII (Michael W. Deem and Ramdas Pophale) SiO2 
 PCOD8021303
Probable space group: P -1
;
_chemical_formula_sum "Si O2"
_cell_formula_units_Z 14
_cell_length_a 23.220628
_cell_length_b 5.550878
_cell_length_c 14.392507
_cell_angle_alpha 101.384867
_cell_angle_beta 160.329640
_cell_angle_gamma 87.528021
_cell_volume 551.919025
_symmetry_space_group_name_H-M "P -1"
_symmetry_group_IT_number 2
_symmetry_cell_setting 'triclinic'
loop_
_space_group_symop_operation_xyz
x,y,z
-x,-y,-z
loop_
_atom_site_type_symbol
_atom_site_label
_atom_site_fract_x
_atom_site_fract_y
_atom_site_fract_z
Si Si1 0.082331 0.691710 0.768398
Si Si2 0.264592 0.528043 0.349514
Si Si3 0.216635 0.134468 0.644360
Si Si4 0.460219 0.339105 0.767054
Si Si5 0.851530 0.139015 0.657787
Si Si6 0.760142 0.151521 0.166990
Si Si7 0.395686 0.700261 0.364806
O O1 0.224321 0.905170 0.923464
O O2 0.976467 0.840656 0.676647
O O3 0.911358 0.457131 0.437528
O O4 0.193400 0.569515 0.993833
O O5 0.429203 0.446427 0.627640
O O6 0.218844 0.668286 0.379282
O O7 0.349520 0.724626 0.404770
O O8 0.078165 0.257565 0.017251
O O9 0.218623 0.899562 0.560185
O O10 0.200448 0.054421 0.722519
O O11 0.407779 0.414949 0.945886
O O12 0.251426 0.169575 0.481727
O O13 0.552200 0.128685 0.872834
O O14 0.500000 0.500000 0.500000
O O15 0.500000 0.000000 0.500000
#
# Coordination Sequence:
#
# PCOD8021303 Si02
#       7
#     2   2   2   2   2   2   2
#     4  10  24  43  70 104 142 198 241 311 380 445
#     4  11  27  48  72 107 148 202 248 316 380 452
#     4  11  24  43  73 105 147 192 250 312 380 453
#     4  11  24  42  72 106 146 193 251 313 383 446
#     4  11  26  46  72 103 151 199 256 306 378 457
#     4  10  22  43  70 100 148 184 249 307 378 456
#     4  12  30  49  81 113 152 198 256 318 385 460
#
# _framework density 25.366042
#
# number of rings (size 3 to 8) (size 9 to 14) (size 15 to 20)
#    0.000    1.143    0.000    3.857   10.000    6.857 
#    0.000    0.000    0.000    0.000    0.000    0.000 
#    0.000    0.000    0.000    0.000    0.000    0.000 
#
# Total GULP energy -173526.663550 kJ/mol
# GULP energy per Si atom -12394.761682 kJ/mol
# Density = 2.530831 g / cm^3
# Si number density = 25.366042 Si / 1000 Ang^3
#
#
#
# Elastic Constant Matrix: (Units=GPa)
#
#
# Indices 1 2 3 4 5 6 
#
# 1 113.8488 44.1139 52.2188 2.2902 -2.0479 12.8154
# 2 44.1139 110.7494 51.5000 -16.8099 -1.4102 6.4564
# 3 52.2188 51.5000 132.2185 -8.5702 4.6202 2.2864
# 4 2.2902 -16.8099 -8.5702 49.6924 7.5025 -7.6986
# 5 -2.0479 -1.4102 4.6202 7.5025 32.9642 1.1112
# 6 12.8154 6.4564 2.2864 -7.6986 1.1112 34.0980
#
#
#
# Elastic Compliance Matrix: (Units=1/GPa)
#
#
# Indices 1 2 3 4 5 6 
#
# 1 0.012487 -0.003424 -0.003814 -0.003426 0.002100 -0.004631
# 2 -0.003424 0.012490 -0.003261 0.003836 -0.000095 0.000010
# 3 -0.003814 -0.003261 0.010484 0.001492 -0.002245 0.001758
# 4 -0.003426 0.003836 0.001492 0.023647 -0.005842 0.005990
# 5 0.002100 -0.000095 -0.002245 -0.005842 0.032207 -0.002989
# 6 -0.004631 0.000010 0.001758 0.005990 -0.002989 0.032398
#
#
# Mechanical properties :
#
#
# Convention : Reuss Voigt Hill
#
# Bulk Modulus (GPa) = 69.13217 72.49802 70.81510
# Shear Modulus (GPa) = 33.43758 37.28318 35.36038
#
# Velocity S-wave (km/s) = 3.63464 3.83797 3.73769
# Velocity P-wave (km/s) = 6.70277 6.94858 6.82678
#
# Compressibility (1/GPa) = 0.01446504
#
# Stress axis : x y z
#
# Youngs Moduli (GPa) = 80.08061 80.06333 95.38111
#
# Poissons Ratio (x) = 0.27413 0.36374
# Poissons Ratio (y) = 0.27419 0.31103
# Poissons Ratio (z) = 0.30539 0.26108
#
# Static dielectric constant tensor:
#      x y z
#    x 4.690710 0.103490 0.089030 
#    y 0.103490 4.212330 0.028130 
#    z 0.089030 0.028130 4.957370 
# 
# 
# High freq. dielectric constant tensor:
#      x y z
#    x 2.014170 0.009350 0.001580 
#    y 0.009350 1.991630 0.008700 
#    z 0.001580 0.008700 2.034510 
# 
# From -- ./inp_files/542225.got.cif
#   From: 2010.06.25/outbox.cif.g09.slc.cpg/sg2_272_cif.got.tgz:542225.got - 2010.06.27 13:26:56.
