data_PCOD8021220
_publ_section_title
;
Structure prediction by ZEFSAII (Michael W. Deem and Ramdas Pophale) SiO2 
 PCOD8021220
Probable space group: P -1
;
_chemical_formula_sum "Si O2"
_cell_formula_units_Z 14
_cell_length_a 8.385682
_cell_length_b 13.583695
_cell_length_c 6.639616
_cell_angle_alpha 108.892862
_cell_angle_beta 106.715990
_cell_angle_gamma 46.832159
_cell_volume 519.497950
_symmetry_space_group_name_H-M "P -1"
_symmetry_group_IT_number 2
_symmetry_cell_setting 'triclinic'
loop_
_space_group_symop_operation_xyz
x,y,z
-x,-y,-z
loop_
_atom_site_type_symbol
_atom_site_label
_atom_site_fract_x
_atom_site_fract_y
_atom_site_fract_z
Si Si1 0.602540 0.210909 0.978367
Si Si2 0.267830 0.452041 0.409542
Si Si3 0.301610 0.013182 0.865115
Si Si4 0.167566 0.455939 0.815508
Si Si5 0.157879 0.704811 0.049864
Si Si6 0.139829 0.016306 0.417532
Si Si7 0.255635 0.693961 0.539882
O O1 0.339311 0.321692 0.926033
O O2 0.694261 0.293795 0.062808
O O3 0.718801 0.104308 0.766744
O O4 0.672428 0.116555 0.137362
O O5 0.234015 0.403801 0.573032
O O6 0.250291 0.579862 0.545126
O O7 0.516423 0.335805 0.331962
O O8 0.079543 0.491908 0.206252
O O9 0.300991 0.015382 0.622971
O O10 0.087803 0.154858 0.971951
O O11 0.500000 0.000000 0.000000
O O12 0.174725 0.575068 0.941164
O O13 0.253837 0.695065 0.297361
O O14 0.960147 0.165094 0.346898
O O15 0.000000 0.000000 0.500000
#
# Coordination Sequence:
#
# PCOD8021220 Si02
#       7
#     2   2   2   2   2   2   2
#     4  12  25  48  75 106 146 193 235 299 362 426
#     4  10  23  43  67 103 138 185 235 291 356 425
#     4  11  28  47  72 110 145 186 244 296 365 423
#     4  11  25  44  69 104 142 180 244 290 357 423
#     4  11  24  47  67 102 141 190 237 292 353 430
#     4  11  23  45  75 100 144 187 241 292 349 436
#     4  10  22  43  69 101 137 188 240 283 356 428
#
# _framework density 26.949093000000001
#
# number of rings (size 3 to 8) (size 9 to 14) (size 15 to 20)
#    0.000    1.143    4.286    0.857    6.000    4.571 
#    5.143    0.000    0.000    0.000    0.000    0.000 
#    0.000    0.000    0.000    0.000    0.000    0.000 
#
# Total GULP energy -173643.791861 kJ/mol
# GULP energy per Si atom -12403.127990 kJ/mol
# Density = 2.688776 g / cm^3
# Si number density = 26.949093 Si / 1000 Ang^3
#
#
#
# Elastic Constant Matrix: (Units=GPa)
#
#
# Indices 1 2 3 4 5 6 
#
# 1 115.6985 49.4691 39.6112 -2.7767 14.4392 -28.8054
# 2 49.4691 203.4718 45.7184 -2.4477 6.6713 -21.8410
# 3 39.6112 45.7184 100.2530 -6.3999 29.1888 -27.4554
# 4 -2.7767 -2.4477 -6.3999 53.1616 -4.8631 7.9412
# 5 14.4392 6.6713 29.1888 -4.8631 51.6134 -9.5602
# 6 -28.8054 -21.8410 -27.4554 7.9412 -9.5602 44.9104
#
#
#
# Elastic Compliance Matrix: (Units=1/GPa)
#
#
# Indices 1 2 3 4 5 6 
#
# 1 0.011491 -0.001745 -0.002112 -0.000585 -0.000897 0.005143
# 2 -0.001745 0.005848 -0.002099 -0.000081 0.001037 0.000677
# 3 -0.002112 -0.002099 0.015235 0.000195 -0.006721 0.005473
# 4 -0.000585 -0.000081 0.000195 0.019432 0.001253 -0.003465
# 5 -0.000897 0.001037 -0.006721 0.001253 0.023523 0.000606
# 6 0.005143 0.000677 0.005473 -0.003465 0.000606 0.029981
#
#
# Mechanical properties :
#
#
# Convention : Reuss Voigt Hill
#
# Bulk Modulus (GPa) = 48.40020 76.55784 62.47902
# Shear Modulus (GPa) = 40.22208 48.91203 44.56706
#
# Velocity S-wave (km/s) = 3.86751 4.26488 4.07104
# Velocity P-wave (km/s) = 6.15973 7.26101 6.73293
#
# Compressibility (1/GPa) = 0.02066107
#
# Stress axis : x y z
#
# Youngs Moduli (GPa) = 87.02797 170.99146 65.63886
#
# Poissons Ratio (x) = 0.29832 0.13864
# Poissons Ratio (y) = 0.15183 0.13781
# Poissons Ratio (z) = 0.18382 0.35899
#
# Static dielectric constant tensor:
#      x y z
#    x 5.320870 -0.117450 -0.755170 
#    y -0.117450 5.664950 0.017040 
#    z -0.755170 0.017040 6.863180 
# 
# 
# High freq. dielectric constant tensor:
#      x y z
#    x 2.069810 -0.006730 -0.004420 
#    y -0.006730 2.105670 -0.003190 
#    z -0.004420 -0.003190 2.125340 
# 
# From -- ./inp_files/208448.got.cif
#   From: 2010.06.25/outbox.cif.g09.slc.cpg/sg2_105_cif.got.tgz:208448.got - 2010.06.27 13:26:56.
