data_PCOD8021449
_publ_section_title
;
Structure prediction by ZEFSAII (Michael W. Deem and Ramdas Pophale) SiO2 
 PCOD8021449
Probable space group: P -1
;
_chemical_formula_sum "Si O2"
_cell_formula_units_Z 12
_cell_length_a 16.717087
_cell_length_b 10.391743
_cell_length_c 10.182222
_cell_angle_alpha 55.711340
_cell_angle_beta 28.000906
_cell_angle_gamma 41.733674
_cell_volume 526.346368
_symmetry_space_group_name_H-M "P -1"
_symmetry_group_IT_number 2
_symmetry_cell_setting 'triclinic'
loop_
_space_group_symop_operation_xyz
x,y,z
-x,-y,-z
loop_
_atom_site_type_symbol
_atom_site_label
_atom_site_fract_x
_atom_site_fract_y
_atom_site_fract_z
Si Si1 0.935565 0.866273 0.626910
Si Si2 0.904742 0.384366 0.213576
Si Si3 0.174441 0.518739 0.294337
Si Si4 0.517721 0.866582 0.754693
Si Si5 0.569734 0.419383 0.299431
Si Si6 0.736619 0.016473 0.212890
O O1 0.049449 0.682029 0.666184
O O2 0.038230 0.752852 0.404111
O O3 0.000000 0.000000 0.500000
O O4 0.669483 0.002137 0.936790
O O5 0.643631 0.531900 0.487655
O O6 0.000000 0.500000 0.000000
O O7 0.023227 0.194705 0.050388
O O8 0.307199 0.361082 0.312759
O O9 0.000000 0.500000 0.500000
O O10 0.344364 0.476174 0.959295
O O11 0.406828 0.875420 0.774407
O O12 0.627986 0.967848 0.506974
O O13 0.500000 0.500000 0.500000
O O14 0.757247 0.173601 0.161599
#
# Coordination Sequence:
#
# PCOD8021449 Si02
#       6
#     2   2   2   2   2   2
#     4  11  23  42  70  98 132 176 239 290 342 405
#     4  11  23  42  76 101 132 179 234 291 342 413
#     4  12  28  45  68 103 147 188 227 288 357 418
#     4  10  22  43  73 100 134 176 237 287 345 411
#     4  12  28  45  66 103 147 187 231 282 354 421
#     4  10  22  43  73 104 132 179 233 293 342 412
#
# _framework density 22.798674999999999
#
# number of rings (size 3 to 8) (size 9 to 14) (size 15 to 20)
#    0.000    1.000    0.000    8.000    7.000    3.333 
#    3.000    0.000    0.000    0.000    0.000    0.000 
#    0.000    0.000    0.000    0.000    0.000    0.000 
#
# Total GULP energy -148767.985792 kJ/mol
# GULP energy per Si atom -12397.332149 kJ/mol
# Density = 2.274678 g / cm^3
# Si number density = 22.798675 Si / 1000 Ang^3
#
#
#
# Elastic Constant Matrix: (Units=GPa)
#
#
# Indices 1 2 3 4 5 6 
#
# 1 40.6106 47.5860 39.7377 2.0935 4.5169 12.4905
# 2 47.5860 142.3936 48.8687 2.1115 14.5257 13.7619
# 3 39.7377 48.8687 151.9959 -6.7786 5.6599 2.1584
# 4 2.0935 2.1115 -6.7786 50.2727 1.4025 3.9224
# 5 4.5169 14.5257 5.6599 1.4025 33.4266 1.9761
# 6 12.4905 13.7619 2.1584 3.9224 1.9761 35.9637
#
#
#
# Elastic Compliance Matrix: (Units=1/GPa)
#
#
# Indices 1 2 3 4 5 6 
#
# 1 0.053857 -0.013520 -0.009682 -0.002013 0.001077 -0.012790
# 2 -0.013520 0.011907 -0.000169 0.000108 -0.003342 0.000321
# 3 -0.009682 -0.000169 0.009205 0.001449 -0.000400 0.002739
# 4 -0.002013 0.000108 0.001449 0.020313 -0.000778 -0.001602
# 5 0.001077 -0.003342 -0.000400 -0.000778 0.031365 -0.000710
# 6 -0.012790 0.000321 0.002739 -0.001602 -0.000710 0.032175
#
#
# Mechanical properties :
#
#
# Convention : Reuss Voigt Hill
#
# Bulk Modulus (GPa) = 35.42473 67.48722 51.45598
# Shear Modulus (GPa) = 23.25868 37.18646 30.22257
#
# Velocity S-wave (km/s) = 3.19749 4.04304 3.64487
# Velocity P-wave (km/s) = 5.40404 7.17360 6.35076
#
# Compressibility (1/GPa) = 0.02822886
#
# Stress axis : x y z
#
# Youngs Moduli (GPa) = 18.56752 83.98305 108.63269
#
# Poissons Ratio (x) = 1.13541 1.05178
# Poissons Ratio (y) = 0.25102 0.01836
# Poissons Ratio (z) = 0.17977 0.01420
#
# Static dielectric constant tensor:
#      x y z
#    x 3.676090 -0.210440 0.028060 
#    y -0.210440 4.184600 0.087910 
#    z 0.028060 0.087910 4.358370 
# 
# 
# High freq. dielectric constant tensor:
#      x y z
#    x 1.869600 0.000910 0.010640 
#    y 0.000910 1.917590 0.004660 
#    z 0.010640 0.004660 1.919980 
# 
# From -- ./inp_files/153092.got.cif
#   From: 2010.06.25/outbox.cif.g09.slc.cpg/sg2_77_cif.got.tgz:153092.got - 2010.06.27 13:26:56.
