data_PCOD8021365
_publ_section_title
;
Structure prediction by ZEFSAII (Michael W. Deem and Ramdas Pophale) SiO2 
 PCOD8021365
Probable space group: P -1
;
_chemical_formula_sum "Si O2"
_cell_formula_units_Z 16
_cell_length_a 11.528915
_cell_length_b 20.578645
_cell_length_c 9.097410
_cell_angle_alpha 38.521110
_cell_angle_beta 108.969605
_cell_angle_gamma 137.876735
_cell_volume 713.756157
_symmetry_space_group_name_H-M "P -1"
_symmetry_group_IT_number 2
_symmetry_cell_setting 'triclinic'
loop_
_space_group_symop_operation_xyz
x,y,z
-x,-y,-z
loop_
_atom_site_type_symbol
_atom_site_label
_atom_site_fract_x
_atom_site_fract_y
_atom_site_fract_z
Si Si1 0.775753 0.553450 0.298834
Si Si2 0.123557 0.051156 0.260971
Si Si3 0.465636 0.764131 0.038015
Si Si4 0.745986 0.319188 0.197998
Si Si5 0.613498 0.033082 0.841816
Si Si6 0.120323 0.913907 0.960528
Si Si7 0.700627 0.696694 0.856300
Si Si8 0.426543 0.661164 0.676079
O O1 0.751507 0.457036 0.320831
O O2 0.673060 0.434259 0.615659
O O3 0.635899 0.555316 0.184627
O O4 0.020873 0.767832 0.050814
O O5 0.289934 0.102814 0.136741
O O6 0.244156 0.164643 0.261903
O O7 0.037766 0.097136 0.060685
O O8 0.916690 0.831277 0.604952
O O9 0.340714 0.734739 0.907893
O O10 0.464613 0.843043 0.034420
O O11 0.676001 0.374062 0.153969
O O12 0.652735 0.150778 0.533032
O O13 0.000000 0.500000 0.000000
O O14 0.500000 0.000000 0.000000
O O15 0.843095 0.135864 0.795439
O O16 0.363048 0.120762 0.655765
O O17 0.495703 0.588525 0.861750
#
# Coordination Sequence:
#
# PCOD8021365 Si02
#       8
#     2   2   2   2   2   2   2   2
#     4  11  23  39  71 103 133 183 232 270 355 409
#     4   9  20  39  70 102 141 180 224 286 359 403
#     4  12  25  45  68 107 142 177 232 299 349 404
#     4  12  27  46  67 100 141 179 236 295 345 400
#     4  12  25  48  72  95 138 194 233 283 344 411
#     4  10  22  43  71 100 138 181 235 277 335 425
#     4   9  19  38  67 102 136 186 222 273 345 434
#     4  11  21  46  68  97 141 183 231 284 338 419
#
# _framework density 22.416618
#
# number of rings (size 3 to 8) (size 9 to 14) (size 15 to 20)
#    0.000    1.250    3.750    2.250    0.000    4.500 
#    2.250    2.500    0.000    0.000    0.000    0.000 
#    0.000    0.000    0.000    0.000    0.000    0.000 
#
# Total GULP energy -198255.285427 kJ/mol
# GULP energy per Si atom -12390.955339 kJ/mol
# Density = 2.236560 g / cm^3
# Si number density = 22.416618 Si / 1000 Ang^3
#
#
#
# Elastic Constant Matrix: (Units=GPa)
#
#
# Indices 1 2 3 4 5 6 
#
# 1 94.6863 48.2587 36.2290 4.1564 2.9929 3.5914
# 2 48.2587 168.9079 44.1759 9.1589 12.2770 7.8600
# 3 36.2290 44.1759 109.1567 14.0887 26.3206 5.1694
# 4 4.1564 9.1589 14.0887 39.3522 7.8271 9.9907
# 5 2.9929 12.2770 26.3206 7.8271 25.1594 8.6269
# 6 3.5914 7.8600 5.1694 9.9907 8.6269 39.0289
#
#
#
# Elastic Compliance Matrix: (Units=1/GPa)
#
#
# Indices 1 2 3 4 5 6 
#
# 1 0.013708 -0.003061 -0.004453 0.000190 0.004867 -0.001180
# 2 -0.003061 0.007348 -0.001578 -0.000423 -0.001231 -0.000609
# 3 -0.004453 -0.001578 0.014947 -0.002273 -0.014499 0.002535
# 4 0.000190 -0.000423 -0.002273 0.028688 -0.004297 -0.006025
# 5 0.004867 -0.001231 -0.014499 -0.004297 0.059842 -0.010407
# 6 -0.001180 -0.000609 0.002535 -0.006025 -0.010407 0.029360
#
#
# Mechanical properties :
#
#
# Convention : Reuss Voigt Hill
#
# Bulk Modulus (GPa) = 56.11790 70.00866 63.06328
# Shear Modulus (GPa) = 28.08727 36.98058 32.53392
#
# Velocity S-wave (km/s) = 3.54357 4.06605 3.81377
# Velocity P-wave (km/s) = 6.46768 7.30357 6.89830
#
# Compressibility (1/GPa) = 0.01781963
#
# Stress axis : x y z
#
# Youngs Moduli (GPa) = 72.95213 136.08599 66.90229
#
# Poissons Ratio (x) = 0.41655 0.29792
# Poissons Ratio (y) = 0.22330 0.10556
# Poissons Ratio (z) = 0.32486 0.21471
#
# Static dielectric constant tensor:
#      x y z
#    x 3.959480 0.143950 0.218580 
#    y 0.143950 4.512350 0.288230 
#    z 0.218580 0.288230 4.427990 
# 
# 
# High freq. dielectric constant tensor:
#      x y z
#    x 1.861470 0.007510 0.029950 
#    y 0.007510 1.907400 0.002030 
#    z 0.029950 0.002030 1.880500 
# 
# From -- ./inp_files/282776.got.cif
#   From: 2010.06.25/outbox.cif.g09.slc.cpg/sg2_142_cif.got.tgz:282776.got - 2010.06.27 13:26:56.
