data_PCOD8021703
_publ_section_title
;
Structure prediction by ZEFSAII (Michael W. Deem and Ramdas Pophale) SiO2 
 PCOD8021703
Probable space group: P -1
;
_chemical_formula_sum "Si O2"
_cell_formula_units_Z 16
_cell_length_a 12.292327
_cell_length_b 5.465957
_cell_length_c 11.742228
_cell_angle_alpha 62.107821
_cell_angle_beta 70.400943
_cell_angle_gamma 64.547950
_cell_volume 620.631288
_symmetry_space_group_name_H-M "P -1"
_symmetry_group_IT_number 2
_symmetry_cell_setting 'triclinic'
loop_
_space_group_symop_operation_xyz
x,y,z
-x,-y,-z
loop_
_atom_site_type_symbol
_atom_site_label
_atom_site_fract_x
_atom_site_fract_y
_atom_site_fract_z
Si Si1 0.327455 0.066386 0.441538
Si Si2 0.552955 0.731088 0.311203
Si Si3 0.328798 0.906174 0.943962
Si Si4 0.777573 0.612176 0.389334
Si Si5 0.824839 0.464020 0.033235
Si Si6 0.389496 0.612769 0.215458
Si Si7 0.833540 0.087748 0.632216
Si Si8 0.018627 0.607168 0.796153
O O1 0.306578 0.093723 0.580153
O O2 0.357831 0.322124 0.308294
O O3 0.447385 0.786817 0.432951
O O4 0.200549 0.057672 0.436611
O O5 0.680119 0.511962 0.368093
O O6 0.513836 0.590448 0.243973
O O7 0.579211 0.028641 0.194474
O O8 0.248367 0.746750 0.937061
O O9 0.405211 0.681950 0.062471
O O10 0.252895 0.215581 0.961977
O O11 0.838008 0.400392 0.519596
O O12 0.882469 0.640277 0.261635
O O13 0.907941 0.489905 0.891013
O O14 0.918090 0.304150 0.135858
O O15 0.274029 0.880589 0.245084
O O16 0.965218 0.902035 0.675638
#
# Coordination Sequence:
#
# PCOD8021703 Si02
#       8
#     2   2   2   2   2   2   2   2
#     4  10  24  42  68 101 138 193 233 302 347 431
#     4  11  25  43  69 103 144 188 238 295 357 428
#     4  12  25  49  75 108 148 186 243 294 368 431
#     4  11  24  44  66 104 137 193 240 292 357 426
#     4  11  27  47  76 109 146 188 237 303 360 435
#     4  10  23  43  71 100 144 183 236 293 363 426
#     4  10  22  44  67 101 142 184 237 297 355 423
#     4  11  23  47  72 103 144 186 238 299 363 425
#
# _framework density 25.780201000000002
#
# number of rings (size 3 to 8) (size 9 to 14) (size 15 to 20)
#    0.000    1.250    2.500    1.875    3.500    9.500 
#    6.750    0.000    0.000    0.000    0.000    0.000 
#    0.000    0.000    0.000    0.000    0.000    0.000 
#
# Total GULP energy -198311.432693 kJ/mol
# GULP energy per Si atom -12394.464543 kJ/mol
# Density = 2.572152 g / cm^3
# Si number density = 25.780201 Si / 1000 Ang^3
#
#
#
# Elastic Constant Matrix: (Units=GPa)
#
#
# Indices 1 2 3 4 5 6 
#
# 1 63.6783 29.4802 8.6303 24.4342 7.2997 -5.5128
# 2 29.4802 77.2003 13.6610 16.7684 -3.1643 2.4710
# 3 8.6303 13.6610 98.5041 25.4092 -2.2063 -21.4496
# 4 24.4342 16.7684 25.4092 32.3020 -16.8837 -1.0879
# 5 7.2997 -3.1643 -2.2063 -16.8837 52.0703 -4.2944
# 6 -5.5128 2.4710 -21.4496 -1.0879 -4.2944 39.3058
#
#
#
# Elastic Compliance Matrix: (Units=1/GPa)
#
#
# Indices 1 2 3 4 5 6 
#
# 1 0.035469 -0.007708 0.009206 -0.038686 -0.016971 0.007558
# 2 -0.007708 0.016509 -0.002196 -0.000257 0.001648 -0.003144
# 3 0.009206 -0.002196 0.017541 -0.023171 -0.007406 0.009551
# 4 -0.038686 -0.000257 -0.023171 0.096330 0.034704 -0.011597
# 5 -0.016971 0.001648 -0.007406 0.034704 0.032457 -0.002019
# 6 0.007558 -0.003144 0.009551 -0.011597 -0.002019 0.031370
#
#
# Mechanical properties :
#
#
# Convention : Reuss Voigt Hill
#
# Bulk Modulus (GPa) = 14.67920 38.10285 26.39103
# Shear Modulus (GPa) = 19.70221 37.24303 28.47262
#
# Velocity S-wave (km/s) = 2.76748 3.80496 3.32691
# Velocity P-wave (km/s) = 3.98977 5.84086 5.00170
#
# Compressibility (1/GPa) = 0.06812359
#
# Stress axis : x y z
#
# Youngs Moduli (GPa) = 28.19371 60.57183 57.01028
#
# Poissons Ratio (x) = 0.46690 -0.52485
# Poissons Ratio (y) = 0.21732 0.12518
# Poissons Ratio (z) = -0.25956 0.13300
#
# Static dielectric constant tensor:
#      x y z
#    x 4.566860 -0.156890 0.009490 
#    y -0.156890 4.500690 0.204810 
#    z 0.009490 0.204810 4.943480 
# 
# 
# High freq. dielectric constant tensor:
#      x y z
#    x 2.027880 -0.008340 0.001650 
#    y -0.008340 2.015980 0.006790 
#    z 0.001650 0.006790 2.048780 
# 
# From -- ./inp_files/410052.got.cif
#   From: 2010.06.25/outbox.cif.g09.slc.cpg/sg2_206_cif.got.tgz:410052.got - 2010.06.27 13:26:56.
