data_PCOD8021332
_publ_section_title
;
Structure prediction by ZEFSAII (Michael W. Deem and Ramdas Pophale) SiO2 
 PCOD8021332
Probable space group: P -1
;
_chemical_formula_sum "Si O2"
_cell_formula_units_Z 16
_cell_length_a 11.518302
_cell_length_b 18.160344
_cell_length_c 21.083513
_cell_angle_alpha 160.837542
_cell_angle_beta 149.307649
_cell_angle_gamma 28.913735
_cell_volume 684.550578
_symmetry_space_group_name_H-M "P -1"
_symmetry_group_IT_number 2
_symmetry_cell_setting 'triclinic'
loop_
_space_group_symop_operation_xyz
x,y,z
-x,-y,-z
loop_
_atom_site_type_symbol
_atom_site_label
_atom_site_fract_x
_atom_site_fract_y
_atom_site_fract_z
Si Si1 0.169965 0.060192 0.952500
Si Si2 0.087917 0.710261 0.313529
Si Si3 0.553456 0.769542 0.118075
Si Si4 0.382908 0.255103 0.013855
Si Si5 0.671597 0.989539 0.673221
Si Si6 0.760532 0.454930 0.615446
Si Si7 0.036092 0.052269 0.744756
Si Si8 0.485795 0.313255 0.733996
O O1 0.192851 0.049803 0.879127
O O2 0.933067 0.008332 0.820584
O O3 0.407942 0.851786 0.922625
O O4 0.153130 0.325744 0.182142
O O5 0.246730 0.548347 0.197655
O O6 0.259645 0.601763 0.366229
O O7 0.847971 0.646093 0.160150
O O8 0.000000 0.000000 0.500000
O O9 0.451472 0.998011 0.304597
O O10 0.484977 0.825891 0.058044
O O11 0.414557 0.599156 0.940211
O O12 0.173731 0.139136 0.824546
O O13 0.489590 0.201213 0.714237
O O14 0.697077 0.742242 0.447000
O O15 0.500000 0.500000 0.500000
O O16 0.961080 0.215216 0.483804
O O17 0.754722 0.220703 0.753768
#
# Coordination Sequence:
#
# PCOD8021332 Si02
#       8
#     2   2   2   2   2   2   2   2
#     4  11  24  46  68  97 142 179 228 280 330 412
#     4  12  26  42  69 105 139 177 225 288 352 403
#     4  12  25  41  67  97 140 178 222 284 337 407
#     4  12  24  43  68 101 139 180 219 285 350 403
#     4  10  24  43  67  97 131 182 229 275 329 404
#     4  12  23  39  71 102 133 180 226 278 344 409
#     4  11  21  41  68 101 131 171 229 285 338 393
#     4  10  22  43  70  95 131 177 233 276 335 402
#
# _framework density 23.372999
#
# number of rings (size 3 to 8) (size 9 to 14) (size 15 to 20)
#    0.000    0.750    3.750    4.125    3.500    3.500 
#    0.000    0.625    0.000    0.000    0.000    0.000 
#    0.000    0.000    0.000    0.000    0.000    0.000 
#
# Total GULP energy -198355.227877 kJ/mol
# GULP energy per Si atom -12397.201742 kJ/mol
# Density = 2.331980 g / cm^3
# Si number density = 23.372999 Si / 1000 Ang^3
#
#
#
# Elastic Constant Matrix: (Units=GPa)
#
#
# Indices 1 2 3 4 5 6 
#
# 1 86.9902 11.9755 25.1053 -5.6102 -7.9953 -0.7741
# 2 11.9755 71.9963 35.3228 -4.4713 2.5557 2.0685
# 3 25.1053 35.3228 140.8002 -0.3824 -1.6129 0.3555
# 4 -5.6102 -4.4713 -0.3824 38.6070 -3.3956 -0.8034
# 5 -7.9953 2.5557 -1.6129 -3.3956 33.1880 1.9956
# 6 -0.7741 2.0685 0.3555 -0.8034 1.9956 21.0494
#
#
#
# Elastic Compliance Matrix: (Units=1/GPa)
#
#
# Indices 1 2 3 4 5 6 
#
# 1 0.012636 -0.001162 -0.001920 0.001974 0.003219 0.000382
# 2 -0.001162 0.016160 -0.003856 0.001506 -0.001476 -0.001368
# 3 -0.001920 -0.003856 0.008412 -0.000625 0.000172 0.000126
# 4 0.001974 0.001506 -0.000625 0.026636 0.003014 0.000666
# 5 0.003219 -0.001476 0.000172 0.003014 0.031494 -0.002610
# 6 0.000382 -0.001368 0.000126 0.000666 -0.002610 0.047926
#
#
# Mechanical properties :
#
#
# Convention : Reuss Voigt Hill
#
# Bulk Modulus (GPa) = 42.86186 49.39929 46.13057
# Shear Modulus (GPa) = 30.31776 33.72778 32.02277
#
# Velocity S-wave (km/s) = 3.60547 3.80284 3.70547
# Velocity P-wave (km/s) = 5.97583 6.36107 6.17146
#
# Compressibility (1/GPa) = 0.02333077
#
# Stress axis : x y z
#
# Youngs Moduli (GPa) = 79.13688 61.88070 118.87764
#
# Poissons Ratio (x) = 0.07193 0.22827
# Poissons Ratio (y) = 0.09199 0.45842
# Poissons Ratio (z) = 0.15196 0.23862
#
# Static dielectric constant tensor:
#      x y z
#    x 4.066650 0.088450 -0.161840 
#    y 0.088450 3.896620 -0.066390 
#    z -0.161840 -0.066390 4.674590 
# 
# 
# High freq. dielectric constant tensor:
#      x y z
#    x 1.917740 0.005060 -0.009970 
#    y 0.005060 1.898620 -0.012710 
#    z -0.009970 -0.012710 1.946000 
# 
# From -- ./inp_files/428437.got.cif
#   From: 2010.06.25/outbox.cif.g09.slc.cpg/sg2_215_cif.got.tgz:428437.got - 2010.06.27 13:26:56.
