data_PCOD8021594
_publ_section_title
;
Structure prediction by ZEFSAII (Michael W. Deem and Ramdas Pophale) SiO2 
 PCOD8021594
Probable space group: P -1
;
_chemical_formula_sum "Si O2"
_cell_formula_units_Z 14
_cell_length_a 11.206874
_cell_length_b 13.795132
_cell_length_c 11.706834
_cell_angle_alpha 49.830833
_cell_angle_beta 129.402671
_cell_angle_gamma 145.030702
_cell_volume 769.006499
_symmetry_space_group_name_H-M "P -1"
_symmetry_group_IT_number 2
_symmetry_cell_setting 'triclinic'
loop_
_space_group_symop_operation_xyz
x,y,z
-x,-y,-z
loop_
_atom_site_type_symbol
_atom_site_label
_atom_site_fract_x
_atom_site_fract_y
_atom_site_fract_z
Si Si1 0.374475 0.995662 0.026726
Si Si2 0.650826 0.785292 0.291618
Si Si3 0.005479 0.612757 0.078404
Si Si4 0.908778 0.474977 0.586767
Si Si5 0.205351 0.481477 0.203146
Si Si6 0.006076 0.784732 0.531292
Si Si7 0.447807 0.099626 0.641858
O O1 0.125849 0.813508 0.014762
O O2 0.484030 0.005558 0.201784
O O3 0.500000 0.000000 0.000000
O O4 0.371985 0.145215 0.892581
O O5 0.441549 0.574417 0.319161
O O6 0.866708 0.828905 0.387388
O O7 0.651199 0.875546 0.333544
O O8 0.946488 0.522134 0.235776
O O9 0.170917 0.607153 0.125650
O O10 0.810251 0.529709 0.936101
O O11 0.940172 0.641251 0.507699
O O12 0.656533 0.292640 0.573841
O O13 0.000000 0.500000 0.500000
O O14 0.036216 0.291720 0.307026
O O15 0.255808 0.970008 0.532022
#
# Coordination Sequence:
#
# PCOD8021594 Si02
#       7
#     2   2   2   2   2   2   2
#     4   9  15  29  46  76 111 138 172 208 258 336
#     4  11  19  31  52  88 121 140 163 222 287 333
#     4   9  17  30  51  79 102 142 182 222 263 314
#     4  10  22  40  58  77 105 145 196 230 254 311
#     4  10  17  28  52  81 113 138 174 216 278 330
#     4  11  22  34  55  85 116 142 172 223 284 325
#     4  10  20  35  55  83 110 144 180 219 272 326
#
# _framework density 18.205307999999999
#
# number of rings (size 3 to 8) (size 9 to 14) (size 15 to 20)
#    0.000    2.000    5.714    2.571    4.000    0.571 
#    0.000    0.000    0.000    4.286    0.000    0.000 
#    0.000    0.000    0.000    0.000    0.000    0.000 
#
# Total GULP energy -173444.765214 kJ/mol
# GULP energy per Si atom -12388.911801 kJ/mol
# Density = 1.816387 g / cm^3
# Si number density = 18.205308 Si / 1000 Ang^3
#
#
#
# Elastic Constant Matrix: (Units=GPa)
#
#
# Indices 1 2 3 4 5 6 
#
# 1 65.7743 36.4109 53.9598 -0.2403 -4.2320 -0.9711
# 2 36.4109 113.6836 38.5750 13.8835 6.1842 7.1048
# 3 53.9598 38.5750 91.0904 11.3020 1.3579 0.7276
# 4 -0.2403 13.8835 11.3020 25.7622 0.0401 4.5633
# 5 -4.2320 6.1842 1.3579 0.0401 25.9907 2.3209
# 6 -0.9711 7.1048 0.7276 4.5633 2.3209 12.8293
#
#
#
# Elastic Compliance Matrix: (Units=1/GPa)
#
#
# Indices 1 2 3 4 5 6 
#
# 1 0.036221 -0.006824 -0.020268 0.012599 0.008412 0.001667
# 2 -0.006824 0.012285 -0.000363 -0.005701 -0.003594 -0.004622
# 3 -0.020268 -0.000363 0.024573 -0.011135 -0.004666 0.002078
# 4 0.012599 -0.005701 -0.011135 0.049315 0.005139 -0.013728
# 5 0.008412 -0.003594 -0.004666 0.005139 0.041512 -0.006446
# 6 0.001667 -0.004622 0.002078 -0.013728 -0.006446 0.086564
#
#
# Mechanical properties :
#
#
# Convention : Reuss Voigt Hill
#
# Bulk Modulus (GPa) = 55.03799 58.71551 56.87675
# Shear Modulus (GPa) = 16.05471 22.35661 19.20566
#
# Velocity S-wave (km/s) = 2.97285 3.50812 3.25152
# Velocity P-wave (km/s) = 6.48701 6.98077 6.73841
#
# Compressibility (1/GPa) = 0.01816927
#
# Stress axis : x y z
#
# Youngs Moduli (GPa) = 27.60855 81.39692 40.69558
#
# Poissons Ratio (x) = 0.55543 0.82484
# Poissons Ratio (y) = 0.18839 0.01475
# Poissons Ratio (z) = 0.55958 0.02951
#
# Static dielectric constant tensor:
#      x y z
#    x 2.766110 -0.033610 0.092380 
#    y -0.033610 3.440050 -0.009410 
#    z 0.092380 -0.009410 3.588610 
# 
# 
# High freq. dielectric constant tensor:
#      x y z
#    x 1.629770 -0.002280 0.014030 
#    y -0.002280 1.721300 -0.000050 
#    z 0.014030 -0.000050 1.703800 
# 
# From -- ./inp_files/153944.got.cif
#   From: 2010.06.25/outbox.cif.g09.slc.cpg/sg2_77_cif.got.tgz:153944.got - 2010.06.27 13:26:56.
