data_PCOD8021183
_publ_section_title
;
Structure prediction by ZEFSAII (Michael W. Deem and Ramdas Pophale) SiO2 
 PCOD8021183
Probable space group: P -1
;
_chemical_formula_sum "Si O2"
_cell_formula_units_Z 16
_cell_length_a 8.555567
_cell_length_b 7.812872
_cell_length_c 14.567685
_cell_angle_alpha 88.289006
_cell_angle_beta 73.992150
_cell_angle_gamma 129.485291
_cell_volume 694.203080
_symmetry_space_group_name_H-M "P -1"
_symmetry_group_IT_number 2
_symmetry_cell_setting 'triclinic'
loop_
_space_group_symop_operation_xyz
x,y,z
-x,-y,-z
loop_
_atom_site_type_symbol
_atom_site_label
_atom_site_fract_x
_atom_site_fract_y
_atom_site_fract_z
Si Si1 0.948681 0.605678 0.579690
Si Si2 0.050528 0.081145 0.712788
Si Si3 0.976969 0.324528 0.238886
Si Si4 0.621716 0.798096 0.885954
Si Si5 0.550211 0.362378 0.885291
Si Si6 0.466186 0.986785 0.782987
Si Si7 0.525726 0.517226 0.604738
Si Si8 0.231855 0.980020 0.397684
O O1 0.991226 0.546905 0.673376
O O2 0.703043 0.505375 0.611998
O O3 0.000000 0.500000 0.500000
O O4 0.133938 0.877114 0.516364
O O5 0.294438 0.313298 0.694012
O O6 0.047526 0.876466 0.706302
O O7 0.881040 0.009209 0.823093
O O8 0.973293 0.106660 0.629142
O O9 0.193383 0.497234 0.138379
O O10 0.771196 0.229389 0.213942
O O11 0.533847 0.554585 0.861046
O O12 0.498621 0.870652 0.859463
O O13 0.589699 0.779378 0.000186
O O14 0.465832 0.180901 0.819255
O O15 0.646861 0.096268 0.670566
O O16 0.500000 0.500000 0.500000
O O17 0.586104 0.745997 0.628657
#
# Coordination Sequence:
#
# PCOD8021183 Si02
#       8
#     2   2   2   2   2   2   2   2
#     4  12  26  43  64  96 137 179 222 284 335 394
#     4  10  22  43  68  97 129 175 224 275 339 396
#     4  11  25  41  65  99 137 176 225 280 331 408
#     4   9  22  46  75 100 139 174 223 284 336 408
#     4  10  22  48  71  99 140 175 223 285 340 394
#     4  11  25  41  70 102 136 181 221 278 341 406
#     4  12  24  41  71  92 126 183 227 277 339 396
#     4  11  24  45  62  99 136 174 232 274 329 407
#
# _framework density 23.048012
#
# number of rings (size 3 to 8) (size 9 to 14) (size 15 to 20)
#    0.000    1.250    2.500    2.250    5.250    3.000 
#    0.000    9.375    0.000    0.000    0.000    0.000 
#    0.000    0.000    0.000    0.000    0.000    0.000 
#
# Total GULP energy -198349.084275 kJ/mol
# GULP energy per Si atom -12396.817767 kJ/mol
# Density = 2.299555 g / cm^3
# Si number density = 23.048012 Si / 1000 Ang^3
#
#
#
# Elastic Constant Matrix: (Units=GPa)
#
#
# Indices 1 2 3 4 5 6 
#
# 1 65.2343 40.6454 31.3221 7.1043 -12.6009 3.2942
# 2 40.6454 117.0287 43.2942 3.4709 -18.1804 16.5084
# 3 31.3221 43.2942 120.3823 -13.3637 -16.1712 9.5585
# 4 7.1043 3.4709 -13.3637 39.1072 -3.0520 -9.7408
# 5 -12.6009 -18.1804 -16.1712 -3.0520 25.7756 1.7749
# 6 3.2942 16.5084 9.5585 -9.7408 1.7749 38.1430
#
#
#
# Elastic Compliance Matrix: (Units=1/GPa)
#
#
# Indices 1 2 3 4 5 6 
#
# 1 0.021721 -0.005465 -0.003649 -0.004374 0.003949 0.000103
# 2 -0.005465 0.012886 -0.002316 -0.001848 0.005106 -0.005234
# 3 -0.003649 -0.002316 0.011243 0.004933 0.004250 -0.000438
# 4 -0.004374 -0.001848 0.004933 0.030309 0.002722 0.007555
# 5 0.003949 0.005106 0.004250 0.002722 0.047671 -0.005139
# 6 0.000103 -0.005234 -0.000438 0.007555 -0.005139 0.030752
#
#
# Mechanical properties :
#
#
# Convention : Reuss Voigt Hill
#
# Bulk Modulus (GPa) = 43.49961 59.24097 51.37029
# Shear Modulus (GPa) = 27.01170 33.09740 30.05455
#
# Velocity S-wave (km/s) = 3.42713 3.79360 3.61501
# Velocity P-wave (km/s) = 5.88003 6.70430 6.30564
#
# Compressibility (1/GPa) = 0.02298871
#
# Stress axis : x y z
#
# Youngs Moduli (GPa) = 46.03912 77.60266 88.94754
#
# Poissons Ratio (x) = 0.42411 0.32459
# Poissons Ratio (y) = 0.25161 0.20600
# Poissons Ratio (z) = 0.16801 0.17973
#
# Static dielectric constant tensor:
#      x y z
#    x 6.777940 -1.787790 6.160800 
#    y -1.787790 5.413080 -4.138470 
#    z 6.160800 -4.138470 19.314760 
# 
# 
# High freq. dielectric constant tensor:
#      x y z
#    x 1.904620 -0.010950 -0.012180 
#    y -0.010950 1.914860 -0.012040 
#    z -0.012180 -0.012040 1.916180 
# 
# From -- ./inp_files/110795.got.cif
#   From: 2010.06.25/outbox.cif.g09.slc.cpg/sg2_56_cif.got.tgz:110795.got - 2010.06.27 13:26:56.
