data_PCOD8021918
_publ_section_title
;
Structure prediction by ZEFSAII (Michael W. Deem and Ramdas Pophale) SiO2 
 PCOD8021918
Probable space group: P -1
;
_chemical_formula_sum "Si O2"
_cell_formula_units_Z 12
_cell_length_a 5.164690
_cell_length_b 12.106201
_cell_length_c 16.768390
_cell_angle_alpha 33.024208
_cell_angle_beta 74.048093
_cell_angle_gamma 70.270256
_cell_volume 537.780397
_symmetry_space_group_name_H-M "P -1"
_symmetry_group_IT_number 2
_symmetry_cell_setting 'triclinic'
loop_
_space_group_symop_operation_xyz
x,y,z
-x,-y,-z
loop_
_atom_site_type_symbol
_atom_site_label
_atom_site_fract_x
_atom_site_fract_y
_atom_site_fract_z
Si Si1 0.551210 0.255813 0.548416
Si Si2 0.607322 0.153639 0.187175
Si Si3 0.720841 0.540119 0.231575
Si Si4 0.743773 0.478303 0.088349
Si Si5 0.014687 0.772943 0.340105
Si Si6 0.125533 0.766692 0.151784
O O1 0.640611 0.354311 0.401217
O O2 0.723017 0.304897 0.579772
O O3 0.228202 0.348040 0.540871
O O4 0.594387 0.007002 0.681564
O O5 0.638098 0.273593 0.194003
O O6 0.492787 0.316977 0.028601
O O7 0.900570 0.021263 0.211224
O O8 0.827861 0.453139 0.188743
O O9 0.450281 0.720113 0.133386
O O10 0.968806 0.618862 0.204873
O O11 0.000000 0.500000 0.000000
O O12 0.098032 0.724504 0.272325
O O13 0.000000 0.000000 0.000000
#
# Coordination Sequence:
#
# PCOD8021918 Si02
#       6
#     2   2   2   2   2   2
#     4  10  23  43  68 103 134 177 217 276 328 405
#     4   9  23  42  71  97 128 184 219 270 338 392
#     4  12  28  43  69 105 134 171 233 269 337 390
#     4  11  24  44  71  96 135 179 224 281 328 401
#     4  10  22  44  70  94 141 175 219 265 342 392
#     4  12  27  44  70 103 137 176 218 283 323 405
#
# _framework density 22.313939000000001
#
# number of rings (size 3 to 8) (size 9 to 14) (size 15 to 20)
#    1.000    0.333    0.000    4.500    9.333    4.667 
#    0.000    1.667    0.000    0.000    0.000    0.000 
#    0.000    0.000    0.000    0.000    0.000    0.000 
#
# Total GULP energy -148804.730306 kJ/mol
# GULP energy per Si atom -12400.394192 kJ/mol
# Density = 2.226315 g / cm^3
# Si number density = 22.313939 Si / 1000 Ang^3
#
#
#
# Elastic Constant Matrix: (Units=GPa)
#
#
# Indices 1 2 3 4 5 6 
#
# 1 129.8751 37.4175 28.0883 17.2321 9.4622 19.3746
# 2 37.4175 100.9208 45.8972 34.6008 4.2027 31.2835
# 3 28.0883 45.8972 91.2719 27.6343 -2.8915 29.6946
# 4 17.2321 34.6008 27.6343 45.3040 3.9025 2.4142
# 5 9.4622 4.2027 -2.8915 3.9025 31.0946 2.1105
# 6 19.3746 31.2835 29.6946 2.4142 2.1105 41.4654
#
#
#
# Elastic Compliance Matrix: (Units=1/GPa)
#
#
# Indices 1 2 3 4 5 6 
#
# 1 0.009047 -0.001802 -0.000939 -0.001187 -0.002312 -0.002009
# 2 -0.001802 0.019183 -0.001447 -0.012467 0.000192 -0.011879
# 3 -0.000939 -0.001447 0.018847 -0.009782 0.004250 -0.011614
# 4 -0.001187 -0.012467 -0.009782 0.037609 -0.004602 0.015010
# 5 -0.002312 0.000192 0.004250 -0.004602 0.034053 -0.003573
# 6 -0.002009 -0.011879 -0.011614 0.015010 -0.003573 0.041642
#
#
# Mechanical properties :
#
#
# Convention : Reuss Voigt Hill
#
# Bulk Modulus (GPa) = 25.83711 60.54154 43.18932
# Shear Modulus (GPa) = 27.52435 37.61710 32.57072
#
# Velocity S-wave (km/s) = 3.51594 4.11032 3.82469
# Velocity P-wave (km/s) = 5.29967 7.05102 6.23712
#
# Compressibility (1/GPa) = 0.03870402
#
# Stress axis : x y z
#
# Youngs Moduli (GPa) = 110.52969 52.12898 53.05795
#
# Poissons Ratio (x) = 0.09392 0.04980
# Poissons Ratio (y) = 0.19914 0.07676
# Poissons Ratio (z) = 0.10374 0.07542
#
# Static dielectric constant tensor:
#      x y z
#    x 4.683970 0.366240 0.553500 
#    y 0.366240 4.171070 0.144460 
#    z 0.553500 0.144460 4.412240 
# 
# 
# High freq. dielectric constant tensor:
#      x y z
#    x 1.889200 0.008970 0.006420 
#    y 0.008970 1.880360 -0.009970 
#    z 0.006420 -0.009970 1.877960 
# 
# From -- ./inp_files/86670.got.cif
#   From: 2010.06.25/outbox.cif.g09.slc.cpg/sg2_44_cif.got.tgz:86670.got - 2010.06.27 13:26:56.
