data_PCOD8021834
_publ_section_title
;
Structure prediction by ZEFSAII (Michael W. Deem and Ramdas Pophale) SiO2 
 PCOD8021834
Probable space group: P -1
;
_chemical_formula_sum "Si O2"
_cell_formula_units_Z 16
_cell_length_a 11.812769
_cell_length_b 5.361861
_cell_length_c 14.088937
_cell_angle_alpha 122.039359
_cell_angle_beta 61.072924
_cell_angle_gamma 118.720379
_cell_volume 631.193485
_symmetry_space_group_name_H-M "P -1"
_symmetry_group_IT_number 2
_symmetry_cell_setting 'triclinic'
loop_
_space_group_symop_operation_xyz
x,y,z
-x,-y,-z
loop_
_atom_site_type_symbol
_atom_site_label
_atom_site_fract_x
_atom_site_fract_y
_atom_site_fract_z
Si Si1 0.948066 0.704629 0.634100
Si Si2 0.344469 0.704927 0.312395
Si Si3 0.655827 0.697088 0.464898
Si Si4 0.309037 0.452785 0.983575
Si Si5 0.602063 0.602473 0.258761
Si Si6 0.918731 0.577873 0.319900
Si Si7 0.491482 0.098346 0.899241
Si Si8 0.016188 0.356148 0.064274
O O1 0.784566 0.597976 0.684250
O O2 0.000000 0.500000 0.500000
O O3 0.006256 0.630816 0.695843
O O4 0.998208 0.057906 0.649131
O O5 0.464820 0.696381 0.332812
O O6 0.396185 0.712543 0.185226
O O7 0.304675 0.002912 0.424844
O O8 0.500000 0.500000 0.500000
O O9 0.680972 0.752080 0.352242
O O10 0.767386 0.525811 0.413854
O O11 0.301130 0.289601 0.849973
O O12 0.362069 0.229196 0.986085
O O13 0.420854 0.800233 0.015960
O O14 0.166864 0.505418 0.076438
O O15 0.555749 0.235397 0.193541
O O16 0.905450 0.437892 0.191303
O O17 0.000000 0.500000 0.000000
O O18 0.000000 0.000000 0.000000
#
# Coordination Sequence:
#
# PCOD8021834 Si02
#       8
#     2   2   2   2   2   2   2   2
#     4  12  27  48  76 105 153 195 253 307 362 447
#     4  11  25  42  71 107 141 192 240 301 372 437
#     4  12  26  44  73 103 148 189 240 301 370 447
#     4  10  24  43  70 101 139 182 245 298 362 425
#     4  11  24  42  71 101 141 183 241 295 367 435
#     4  12  29  50  75 112 147 203 249 306 376 445
#     4  10  22  44  69 103 137 184 237 305 359 427
#     4  12  28  49  77 108 150 196 247 308 373 448
#
# _framework density 25.348806
#
# number of rings (size 3 to 8) (size 9 to 14) (size 15 to 20)
#    0.000    0.750    2.500    3.375    8.750    1.000 
#    0.000    0.000    0.000    0.000    0.000    0.000 
#    0.000    0.000    0.000    0.000    0.000    0.000 
#
# Total GULP energy -198255.967095 kJ/mol
# GULP energy per Si atom -12390.997943 kJ/mol
# Density = 2.529111 g / cm^3
# Si number density = 25.348806 Si / 1000 Ang^3
#
#
#
# Elastic Constant Matrix: (Units=GPa)
#
#
# Indices 1 2 3 4 5 6 
#
# 1 72.0891 -1.8441 2.7665 -9.1702 -13.5370 0.0287
# 2 -1.8441 76.9353 -6.5764 8.6111 -13.6106 5.5750
# 3 2.7665 -6.5764 106.3167 15.8808 -8.5108 -0.2713
# 4 -9.1702 8.6111 15.8808 28.0403 1.7233 -7.5044
# 5 -13.5370 -13.6106 -8.5108 1.7233 47.0426 -5.1498
# 6 0.0287 5.5750 -0.2713 -7.5044 -5.1498 35.3843
#
#
#
# Elastic Compliance Matrix: (Units=1/GPa)
#
#
# Indices 1 2 3 4 5 6 
#
# 1 0.015452 0.000306 -0.000875 0.005660 0.004363 0.001768
# 2 0.000306 0.015061 0.002342 -0.006986 0.004781 -0.003141
# 3 -0.000875 0.002342 0.010932 -0.007770 0.002517 -0.001566
# 4 0.005660 -0.006986 -0.007770 0.047062 -0.002354 0.010675
# 5 0.004363 0.004781 0.002517 -0.002354 0.024696 0.002357
# 6 0.001768 -0.003141 -0.001566 0.010675 0.002357 0.031350
#
#
# Mechanical properties :
#
#
# Convention : Reuss Voigt Hill
#
# Bulk Modulus (GPa) = 22.22723 27.11479 24.67101
# Shear Modulus (GPa) = 32.05088 39.49311 35.77200
#
# Velocity S-wave (km/s) = 3.55969 3.95142 3.76066
# Velocity P-wave (km/s) = 5.06782 5.61588 5.34887
#
# Compressibility (1/GPa) = 0.04498986
#
# Stress axis : x y z
#
# Youngs Moduli (GPa) = 64.71812 66.39751 91.47760
#
# Poissons Ratio (x) = -0.02031 0.08003
# Poissons Ratio (y) = -0.01979 -0.21423
# Poissons Ratio (z) = 0.05662 -0.15550
#
# Static dielectric constant tensor:
#      x y z
#    x 2.687260 0.484000 -0.210380 
#    y 0.484000 4.493680 -0.068430 
#    z -0.210380 -0.068430 5.173470 
# 
# 
# High freq. dielectric constant tensor:
#      x y z
#    x 2.017830 0.002070 -0.002650 
#    y 0.002070 2.002680 0.002940 
#    z -0.002650 0.002940 2.035570 
# 
# From -- ./inp_files/511231.got.cif
#   From: 2010.06.25/outbox.cif.g09.slc.cpg/sg2_256_cif.got.tgz:511231.got - 2010.06.27 13:26:56.
