data_PCOD8021936
_publ_section_title
;
Structure prediction by ZEFSAII (Michael W. Deem and Ramdas Pophale) SiO2 
 PCOD8021936
Probable space group: P -1
;
_chemical_formula_sum "Si O2"
_cell_formula_units_Z 16
_cell_length_a 15.824978
_cell_length_b 8.434069
_cell_length_c 18.670077
_cell_angle_alpha 39.528978
_cell_angle_beta 23.388872
_cell_angle_gamma 43.025909
_cell_volume 626.952615
_symmetry_space_group_name_H-M "P -1"
_symmetry_group_IT_number 2
_symmetry_cell_setting 'triclinic'
loop_
_space_group_symop_operation_xyz
x,y,z
-x,-y,-z
loop_
_atom_site_type_symbol
_atom_site_label
_atom_site_fract_x
_atom_site_fract_y
_atom_site_fract_z
Si Si1 0.300492 0.483942 0.713475
Si Si2 0.184846 0.123027 0.397284
Si Si3 0.492021 0.951238 0.939535
Si Si4 0.984380 0.935597 0.753403
Si Si5 0.861883 0.584470 0.454761
Si Si6 0.516308 0.599350 0.833753
Si Si7 0.203355 0.023323 0.882594
Si Si8 0.416234 0.255916 0.510543
O O1 0.500000 0.500000 0.500000
O O2 0.191231 0.216310 0.893020
O O3 0.398837 0.551126 0.691846
O O4 0.104029 0.684456 0.777511
O O5 0.304631 0.960779 0.295142
O O6 0.371185 0.208333 0.272452
O O7 0.041761 0.356913 0.394878
O O8 0.042725 0.959249 0.615006
O O9 0.516417 0.651772 0.010392
O O10 0.500000 0.000000 0.000000
O O11 0.269697 0.078914 0.037454
O O12 0.044619 0.173301 0.669045
O O13 0.656213 0.518945 0.682794
O O14 0.789400 0.627335 0.414140
O O15 0.290538 0.743808 0.935247
O O16 0.363632 0.171768 0.660128
O O17 0.000000 0.000000 0.000000
O O18 0.500000 0.000000 0.500000
#
# Coordination Sequence:
#
# PCOD8021936 Si02
#       8
#     2   2   2   2   2   2   2   2
#     4  10  22  44  70  98 139 184 237 283 341 426
#     4  11  23  44  72  99 131 188 226 278 357 418
#     4  12  28  43  65 106 143 174 228 299 348 411
#     4  11  22  44  73 101 138 179 234 286 346 417
#     4  11  20  40  74 100 131 181 235 278 346 427
#     4  11  22  47  68  97 139 180 232 283 347 419
#     4  11  26  43  67 100 140 185 234 286 344 415
#     4  11  20  40  68  98 131 182 228 283 346 410
#
# _framework density 25.520268999999999
#
# number of rings (size 3 to 8) (size 9 to 14) (size 15 to 20)
#    0.000    1.000    5.000    3.375    3.500    1.500 
#    6.750    0.625    0.000    0.000    0.000    0.000 
#    0.000    0.000    0.000    0.000    0.000    0.000 
#
# Total GULP energy -198303.416927 kJ/mol
# GULP energy per Si atom -12393.963558 kJ/mol
# Density = 2.546218 g / cm^3
# Si number density = 25.520269 Si / 1000 Ang^3
#
#
#
# Elastic Constant Matrix: (Units=GPa)
#
#
# Indices 1 2 3 4 5 6 
#
# 1 118.7201 40.5888 11.1435 23.1720 -25.6561 -2.5988
# 2 40.5888 83.9749 56.7286 41.8986 -21.7776 -13.6601
# 3 11.1435 56.7286 57.4467 20.3832 -16.9178 -1.0603
# 4 23.1720 41.8986 20.3832 38.8784 -3.9553 -14.2128
# 5 -25.6561 -21.7776 -16.9178 -3.9553 45.6607 5.0775
# 6 -2.5988 -13.6601 -1.0603 -14.2128 5.0775 55.0110
#
#
#
# Elastic Compliance Matrix: (Units=1/GPa)
#
#
# Indices 1 2 3 4 5 6 
#
# 1 0.013327 -0.014642 0.013480 0.000182 0.005876 -0.003242
# 2 -0.014642 0.100518 -0.073988 -0.057441 0.006502 0.007401
# 3 0.013480 -0.073988 0.079664 0.026909 0.005215 -0.009729
# 4 0.000182 -0.057441 0.026909 0.074649 -0.011594 0.006620
# 5 0.005876 0.006502 0.005215 -0.011594 0.029647 -0.003739
# 6 -0.003242 0.007401 -0.009729 0.006620 -0.003739 0.021731
#
#
# Mechanical properties :
#
#
# Convention : Reuss Voigt Hill
#
# Bulk Modulus (GPa) = 23.14376 53.00706 38.07541
# Shear Modulus (GPa) = 10.32547 38.02207 24.17377
#
# Velocity S-wave (km/s) = 2.01365 3.86408 3.08106
# Velocity P-wave (km/s) = 3.80721 6.38152 5.25446
#
# Compressibility (1/GPa) = 0.04320820
#
# Stress axis : x y z
#
# Youngs Moduli (GPa) = 75.03481 9.94851 12.55266
#
# Poissons Ratio (x) = 0.14567 -0.16921
# Poissons Ratio (y) = 1.09868 0.92875
# Poissons Ratio (z) = -1.01147 0.73607
#
# Static dielectric constant tensor:
#      x y z
#    x 3.809550 -0.950180 -0.426970 
#    y -0.950180 3.938600 -0.374830 
#    z -0.426970 -0.374830 4.580240 
# 
# 
# High freq. dielectric constant tensor:
#      x y z
#    x 2.032150 0.002170 -0.009740 
#    y 0.002170 2.023150 0.008920 
#    z -0.009740 0.008920 2.007360 
# 
# From -- ./inp_files/599704.got.cif
#   From: 2010.06.25/outbox.cif.g09.slc.cpg/sg2_300_cif.got.tgz:599704.got - 2010.06.27 13:26:56.
