data_PCOD8021526
_publ_section_title
;
Structure prediction by ZEFSAII (Michael W. Deem and Ramdas Pophale) SiO2 
 PCOD8021526
Probable space group: P -1
;
_chemical_formula_sum "Si O2"
_cell_formula_units_Z 16
_cell_length_a 6.699423
_cell_length_b 16.277869
_cell_length_c 9.210254
_cell_angle_alpha 94.534721
_cell_angle_beta 47.001920
_cell_angle_gamma 86.350845
_cell_volume 722.711605
_symmetry_space_group_name_H-M "P -1"
_symmetry_group_IT_number 2
_symmetry_cell_setting 'triclinic'
loop_
_space_group_symop_operation_xyz
x,y,z
-x,-y,-z
loop_
_atom_site_type_symbol
_atom_site_label
_atom_site_fract_x
_atom_site_fract_y
_atom_site_fract_z
Si Si1 0.953213 0.580752 0.634819
Si Si2 0.027216 0.379318 0.052845
Si Si3 0.441238 0.075628 0.834363
Si Si4 0.504683 0.893749 0.860368
Si Si5 0.335626 0.678378 0.292817
Si Si6 0.849090 0.149114 0.471290
Si Si7 0.374252 0.583798 0.988173
Si Si8 0.885516 0.195693 0.131507
O O1 0.016102 0.563452 0.772632
O O2 0.628017 0.618809 0.787605
O O3 0.000000 0.500000 0.500000
O O4 0.141894 0.647016 0.505014
O O5 0.919639 0.291945 0.119143
O O6 0.851970 0.432202 0.020203
O O7 0.347027 0.362658 0.845329
O O8 0.679401 0.076058 0.593643
O O9 0.374158 0.981782 0.864742
O O10 0.547815 0.103200 0.941144
O O11 0.164935 0.137058 0.933886
O O12 0.828847 0.876117 0.660070
O O13 0.358803 0.820148 0.857306
O O14 0.289997 0.777128 0.342508
O O15 0.233993 0.653154 0.181291
O O16 0.796566 0.173444 0.333833
O O17 0.500000 0.500000 0.000000
#
# Coordination Sequence:
#
# PCOD8021526 Si02
#       8
#     2   2   2   2   2   2   2   2
#     4  11  24  47  67  97 131 166 215 269 327 393
#     4  11  26  42  69  95 134 171 218 270 330 387
#     4  10  22  44  62  93 137 175 214 271 322 385
#     4  10  24  39  67  95 132 177 218 264 329 380
#     4  11  24  44  65  96 130 170 213 274 325 386
#     4  11  23  40  66  94 135 165 225 270 317 385
#     4  11  26  46  67  98 130 169 217 268 327 397
#     4  11  23  40  63 100 127 171 222 269 321 386
#
# _framework density 22.138846000000001
#
# number of rings (size 3 to 8) (size 9 to 14) (size 15 to 20)
#    0.000    1.250    3.750    0.750    3.500    6.000 
#    0.000    0.000    0.000    0.000    0.000    0.000 
#    0.000    0.000    0.000    0.000    0.000    0.000 
#
# Total GULP energy -198412.266389 kJ/mol
# GULP energy per Si atom -12400.766649 kJ/mol
# Density = 2.208846 g / cm^3
# Si number density = 22.138846 Si / 1000 Ang^3
#
#
#
# Elastic Constant Matrix: (Units=GPa)
#
#
# Indices 1 2 3 4 5 6 
#
# 1 115.3917 21.4196 33.3744 3.1629 6.1523 7.2100
# 2 21.4196 58.3979 16.9490 -0.4347 0.5353 0.2929
# 3 33.3744 16.9490 117.9758 -11.3235 -5.2782 0.8341
# 4 3.1629 -0.4347 -11.3235 42.8228 10.6450 -1.5698
# 5 6.1523 0.5353 -5.2782 10.6450 23.2143 1.5473
# 6 7.2100 0.2929 0.8341 -1.5698 1.5473 33.4832
#
#
#
# Elastic Compliance Matrix: (Units=1/GPa)
#
#
# Indices 1 2 3 4 5 6 
#
# 1 0.010288 -0.002968 -0.002677 -0.000897 -0.002720 -0.002039
# 2 -0.002968 0.018752 -0.001866 -0.000044 -0.000085 0.000523
# 3 -0.002677 -0.001866 0.009806 0.002314 0.001897 0.000369
# 4 -0.000897 -0.000044 0.002314 0.027024 -0.011757 0.001946
# 5 -0.002720 -0.000085 0.001897 -0.011757 0.049776 -0.002312
# 6 -0.002039 0.000523 0.000369 0.001946 -0.002312 0.030489
#
#
# Mechanical properties :
#
#
# Convention : Reuss Voigt Hill
#
# Bulk Modulus (GPa) = 41.97546 48.36125 45.16836
# Shear Modulus (GPa) = 29.56836 34.57223 32.07029
#
# Velocity S-wave (km/s) = 3.65853 3.95601 3.81017
# Velocity P-wave (km/s) = 6.07023 6.53901 6.30898
#
# Compressibility (1/GPa) = 0.02382344
#
# Stress axis : x y z
#
# Youngs Moduli (GPa) = 97.19606 53.32770 101.97673
#
# Poissons Ratio (x) = 0.15828 0.27304
# Poissons Ratio (y) = 0.28849 0.19029
# Poissons Ratio (z) = 0.26024 0.09951
#
# Static dielectric constant tensor:
#      x y z
#    x 3.964110 0.171660 -0.001210 
#    y 0.171660 4.019810 -0.123020 
#    z -0.001210 -0.123020 4.236030 
# 
# 
# High freq. dielectric constant tensor:
#      x y z
#    x 1.863050 0.014280 -0.001770 
#    y 0.014280 1.874590 -0.007090 
#    z -0.001770 -0.007090 1.883540 
# 
# From -- ./inp_files/53599.got.cif
#   From: 2010.06.25/outbox.cif.g09.slc.cpg/sg2_27_cif.got.tgz:53599.got - 2010.06.27 13:26:56.
