data_PCOD8021923
_publ_section_title
;
Structure prediction by ZEFSAII (Michael W. Deem and Ramdas Pophale) SiO2 
 PCOD8021923
Probable space group: P -1
;
_chemical_formula_sum "Si O2"
_cell_formula_units_Z 16
_cell_length_a 7.076174
_cell_length_b 18.495814
_cell_length_c 7.905103
_cell_angle_alpha 55.586221
_cell_angle_beta 61.022556
_cell_angle_gamma 59.046756
_cell_volume 703.989781
_symmetry_space_group_name_H-M "P -1"
_symmetry_group_IT_number 2
_symmetry_cell_setting 'triclinic'
loop_
_space_group_symop_operation_xyz
x,y,z
-x,-y,-z
loop_
_atom_site_type_symbol
_atom_site_label
_atom_site_fract_x
_atom_site_fract_y
_atom_site_fract_z
Si Si1 0.774264 0.918274 0.681603
Si Si2 0.285035 0.958086 0.771762
Si Si3 0.605072 0.613890 0.630481
Si Si4 0.815524 0.600045 0.915094
Si Si5 0.950578 0.694245 0.247155
Si Si6 0.407141 0.562395 0.298610
Si Si7 0.913128 0.282512 0.211702
Si Si8 0.863064 0.902988 0.045947
O O1 0.783507 0.000047 0.443044
O O2 0.762814 0.947124 0.847730
O O3 0.997640 0.829068 0.670797
O O4 0.549132 0.892917 0.756938
O O5 0.267211 0.035903 0.820836
O O6 0.128593 0.895647 0.958921
O O7 0.745363 0.617047 0.730741
O O8 0.745742 0.650412 0.379625
O O9 0.616624 0.507766 0.744307
O O10 0.344710 0.682062 0.654966
O O11 0.921768 0.679713 0.799908
O O12 0.585448 0.613828 0.103598
O O13 0.000000 0.500000 0.000000
O O14 0.159091 0.636273 0.355775
O O15 0.844548 0.801053 0.209782
O O16 0.079022 0.683643 0.026804
O O17 0.500000 0.500000 0.500000
#
# Coordination Sequence:
#
# PCOD8021923 Si02
#       8
#     2   2   2   2   2   2   2   2
#     4  10  23  42  69 100 131 175 225 270 345 408
#     4  10  22  44  70  95 136 172 219 279 342 410
#     4  12  25  45  66  96 139 175 224 276 329 395
#     4  12  23  41  69  94 133 176 223 274 330 391
#     4  11  25  45  66  99 136 174 226 276 329 400
#     4  12  24  42  68  96 135 182 222 275 331 393
#     4  11  25  45  66 102 131 178 224 277 334 396
#     4  10  23  44  66 101 134 173 220 281 338 401
#
# _framework density 22.727602999999998
#
# number of rings (size 3 to 8) (size 9 to 14) (size 15 to 20)
#    0.000    1.000    2.500    3.750    3.500    0.000 
#   15.750    0.000    0.000    0.000    0.000    0.000 
#    0.000    0.000    0.000    0.000    0.000    0.000 
#
# Total GULP energy -198404.756208 kJ/mol
# GULP energy per Si atom -12400.297263 kJ/mol
# Density = 2.267587 g / cm^3
# Si number density = 22.727603 Si / 1000 Ang^3
#
#
#
# Elastic Constant Matrix: (Units=GPa)
#
#
# Indices 1 2 3 4 5 6 
#
# 1 109.4905 25.7948 33.0691 -1.1766 -3.1027 -8.4163
# 2 25.7948 66.0428 20.5930 0.3392 4.7958 -12.9974
# 3 33.0691 20.5930 72.3582 7.2469 -6.0397 -13.0813
# 4 -1.1766 0.3392 7.2469 23.7027 -6.0607 -2.4981
# 5 -3.1027 4.7958 -6.0397 -6.0607 48.7467 13.1821
# 6 -8.4163 -12.9974 -13.0813 -2.4981 13.1821 42.3776
#
#
#
# Elastic Compliance Matrix: (Units=1/GPa)
#
#
# Indices 1 2 3 4 5 6 
#
# 1 0.011236 -0.003117 -0.004435 0.002139 0.000796 -0.000215
# 2 -0.003117 0.018707 -0.003276 0.000152 -0.003864 0.005318
# 3 -0.004435 -0.003276 0.017918 -0.005124 0.000785 0.003099
# 4 0.002139 0.000152 -0.005124 0.045163 0.005112 -0.000038
# 5 0.000796 -0.003864 0.000785 0.005112 0.023812 -0.007890
# 6 -0.000215 0.005318 0.003099 -0.000038 -0.007890 0.028595
#
#
# Mechanical properties :
#
#
# Convention : Reuss Voigt Hill
#
# Bulk Modulus (GPa) = 38.15837 45.20058 41.67948
# Shear Modulus (GPa) = 28.43816 34.19437 31.31626
#
# Velocity S-wave (km/s) = 3.54115 3.88304 3.71603
# Velocity P-wave (km/s) = 5.79185 6.32733 6.06550
#
# Compressibility (1/GPa) = 0.02620657
#
# Stress axis : x y z
#
# Youngs Moduli (GPa) = 89.00035 53.45612 55.80931
#
# Poissons Ratio (x) = 0.16662 0.24749
# Poissons Ratio (y) = 0.27740 0.18282
# Poissons Ratio (z) = 0.39468 0.17511
#
# Static dielectric constant tensor:
#      x y z
#    x 4.179280 0.158720 0.320340 
#    y 0.158720 6.888190 0.886650 
#    z 0.320340 0.886650 3.904360 
# 
# 
# High freq. dielectric constant tensor:
#      x y z
#    x 1.915850 -0.006850 -0.000350 
#    y -0.006850 1.883730 0.008450 
#    z -0.000350 0.008450 1.898670 
# 
# From -- ./inp_files/141092.got.cif
#   From: 2010.06.25/outbox.cif.g09.slc.cpg/sg2_71_cif.got.tgz:141092.got - 2010.06.27 13:26:56.
