data_PCOD8021880
_publ_section_title
;
Structure prediction by ZEFSAII (Michael W. Deem and Ramdas Pophale) SiO2 
 PCOD8021880
Probable space group: P -1
;
_chemical_formula_sum "Si O2"
_cell_formula_units_Z 14
_cell_length_a 12.862197
_cell_length_b 25.022628
_cell_length_c 5.147764
_cell_angle_alpha 79.792294
_cell_angle_beta 85.585628
_cell_angle_gamma 145.413886
_cell_volume 848.738431
_symmetry_space_group_name_H-M "P -1"
_symmetry_group_IT_number 2
_symmetry_cell_setting 'triclinic'
loop_
_space_group_symop_operation_xyz
x,y,z
-x,-y,-z
loop_
_atom_site_type_symbol
_atom_site_label
_atom_site_fract_x
_atom_site_fract_y
_atom_site_fract_z
Si Si1 0.118262 0.490630 0.716135
Si Si2 0.797141 0.157983 0.690199
Si Si3 0.241159 0.378747 0.392744
Si Si4 0.860601 0.377755 0.372265
Si Si5 0.577699 0.156339 0.547534
Si Si6 0.462198 0.055323 0.149254
Si Si7 0.353189 0.492765 0.783425
O O1 0.010715 0.422955 0.529228
O O2 0.204648 0.589609 0.576151
O O3 0.300867 0.532778 0.722676
O O4 0.956675 0.417455 0.037275
O O5 0.758755 0.192581 0.479099
O O6 0.033146 0.256364 0.599438
O O7 0.715552 0.066061 0.657850
O O8 0.672012 0.114570 0.019307
O O9 0.296855 0.438971 0.575500
O O10 0.410468 0.407924 0.289274
O O11 0.226996 0.410688 0.114311
O O12 0.661376 0.253303 0.504221
O O13 0.470111 0.102809 0.337531
O O14 0.421270 0.071591 0.879760
#
# Coordination Sequence:
#
# PCOD8021880 Si02
#       7
#     2   2   2   2   2   2   2
#     4  10  19  32  45  67  94 117 155 194 215 278
#     4   9  19  29  45  65  91 120 146 188 223 275
#     4  10  21  30  50  66  93 125 158 176 231 267
#     4  10  20  29  48  68  88 125 153 179 242 264
#     4  10  17  29  42  65  90 117 143 186 224 278
#     4   9  20  27  44  65  94 112 153 180 234 263
#     4  10  20  34  44  71  92 123 155 190 212 278
#
# _framework density 16.495072
#
# number of rings (size 3 to 8) (size 9 to 14) (size 15 to 20)
#    0.857    1.429    0.000    3.857    4.000    0.000 
#    0.000    0.000    0.000    0.000    0.000    2.000 
#    0.000    0.000    0.000    0.000    0.000    0.000 
#
# Total GULP energy -173494.696580 kJ/mol
# GULP energy per Si atom -12392.478327 kJ/mol
# Density = 1.645753 g / cm^3
# Si number density = 16.495072 Si / 1000 Ang^3
#
#
#
# Elastic Constant Matrix: (Units=GPa)
#
#
# Indices 1 2 3 4 5 6 
#
# 1 74.4235 19.5277 13.9488 -10.5375 8.3689 -4.1179
# 2 19.5277 120.6763 53.9203 -4.5393 7.6748 0.7706
# 3 13.9488 53.9203 83.9500 7.3269 12.8327 8.8309
# 4 -10.5375 -4.5393 7.3269 35.1582 5.9680 -0.9192
# 5 8.3689 7.6748 12.8327 5.9680 19.9428 -1.3601
# 6 -4.1179 0.7706 8.8309 -0.9192 -1.3601 23.7272
#
#
#
# Elastic Compliance Matrix: (Units=1/GPa)
#
#
# Indices 1 2 3 4 5 6 
#
# 1 0.015886 -0.001140 -0.001770 0.006210 -0.006722 0.003308
# 2 -0.001140 0.012232 -0.008258 0.002963 0.000377 0.002615
# 3 -0.001770 -0.008258 0.020010 -0.004599 -0.008133 -0.008131
# 4 0.006210 0.002963 -0.004599 0.033531 -0.010591 0.003385
# 5 -0.006722 0.000377 -0.008133 -0.010591 0.061561 0.004967
# 6 0.003308 0.002615 -0.008131 0.003385 0.004967 0.046077
#
#
# Mechanical properties :
#
#
# Convention : Reuss Voigt Hill
#
# Bulk Modulus (GPa) = 38.77238 50.42705 44.59971
# Shear Modulus (GPa) = 22.70356 28.54251 25.62304
#
# Velocity S-wave (km/s) = 3.71399 4.16428 3.94556
# Velocity P-wave (km/s) = 6.47673 7.33205 6.91763
#
# Compressibility (1/GPa) = 0.02579156
#
# Stress axis : x y z
#
# Youngs Moduli (GPa) = 62.94997 81.75421 49.97494
#
# Poissons Ratio (x) = 0.09318 0.08845
# Poissons Ratio (y) = 0.07175 0.41270
# Poissons Ratio (z) = 0.11142 0.67514
#
# Static dielectric constant tensor:
#      x y z
#    x 2.966390 -0.082120 0.129200 
#    y -0.082120 2.939930 0.154060 
#    z 0.129200 0.154060 3.077290 
# 
# 
# High freq. dielectric constant tensor:
#      x y z
#    x 1.591040 -0.011880 0.017470 
#    y -0.011880 1.628880 0.014080 
#    z 0.017470 0.014080 1.642880 
# 
# From -- ./inp_files/82138.got.cif
#   From: 2010.06.25/outbox.cif.g09.slc.cpg/sg2_42_cif.got.tgz:82138.got - 2010.06.27 13:26:56.
