data_PCOD8021938
_publ_section_title
;
Structure prediction by ZEFSAII (Michael W. Deem and Ramdas Pophale) SiO2 
 PCOD8021938
Probable space group: P -1
;
_chemical_formula_sum "Si O2"
_cell_formula_units_Z 16
_cell_length_a 9.760725
_cell_length_b 14.000863
_cell_length_c 11.186951
_cell_angle_alpha 148.209290
_cell_angle_beta 78.815533
_cell_angle_gamma 85.373473
_cell_volume 695.240360
_symmetry_space_group_name_H-M "P -1"
_symmetry_group_IT_number 2
_symmetry_cell_setting 'triclinic'
loop_
_space_group_symop_operation_xyz
x,y,z
-x,-y,-z
loop_
_atom_site_type_symbol
_atom_site_label
_atom_site_fract_x
_atom_site_fract_y
_atom_site_fract_z
Si Si1 0.095036 0.986416 0.088491
Si Si2 0.341877 0.496900 0.238239
Si Si3 0.669300 0.851187 0.755784
Si Si4 0.790613 0.652034 0.295022
Si Si5 0.674587 0.467891 0.451040
Si Si6 0.176937 0.903864 0.577742
Si Si7 0.365807 0.614790 0.045516
Si Si8 0.134843 0.329697 0.960498
O O1 0.197310 0.100458 0.161127
O O2 0.986898 0.078177 0.322824
O O3 0.209499 0.753190 0.855027
O O4 0.000000 0.000000 0.000000
O O5 0.288212 0.499743 0.384877
O O6 0.310135 0.729725 0.455986
O O7 0.532105 0.340672 0.026065
O O8 0.241734 0.427601 0.095373
O O9 0.680826 0.851253 0.608700
O O10 0.712181 0.619122 0.528641
O O11 0.500000 0.000000 0.000000
O O12 0.821408 0.737517 0.256578
O O13 0.697402 0.526530 0.152890
O O14 0.952647 0.504839 0.182404
O O15 0.500000 0.500000 0.500000
O O16 0.215894 0.816368 0.341644
O O17 0.170544 0.127043 0.817754
O O18 0.500000 0.500000 0.000000
#
# Coordination Sequence:
#
# PCOD8021938 Si02
#       8
#     2   2   2   2   2   2   2   2
#     4  12  27  47  75 108 147 194 251 303 361 451
#     4  11  24  47  72 105 147 184 250 299 365 438
#     4  12  28  48  74 108 148 196 244 304 372 437
#     4  11  24  47  71 105 151 179 247 304 363 437
#     4  12  26  49  77 109 151 197 244 311 373 431
#     4  11  24  45  70 107 141 187 245 292 373 427
#     4  10  22  44  70  98 146 187 225 308 360 420
#     4  11  25  45  75 107 138 193 237 310 364 429
#
# _framework density 23.013624
#
# number of rings (size 3 to 8) (size 9 to 14) (size 15 to 20)
#    0.000    0.750    5.000    2.250    3.500    2.500 
#    2.250    0.000    0.000    0.000    0.000    0.000 
#    0.000    0.000    0.000    0.000    0.000    0.000 
#
# Total GULP energy -198304.664746 kJ/mol
# GULP energy per Si atom -12394.041547 kJ/mol
# Density = 2.296124 g / cm^3
# Si number density = 23.013624 Si / 1000 Ang^3
#
#
#
# Elastic Constant Matrix: (Units=GPa)
#
#
# Indices 1 2 3 4 5 6 
#
# 1 158.7318 30.1190 58.5257 -2.2702 -0.4290 22.1399
# 2 30.1190 81.1980 33.9405 2.6067 -3.6503 13.0020
# 3 58.5257 33.9405 124.8863 -15.7750 -19.1636 11.3192
# 4 -2.2702 2.6067 -15.7750 51.0818 12.8865 -0.0638
# 5 -0.4290 -3.6503 -19.1636 12.8865 43.4741 -7.1875
# 6 22.1399 13.0020 11.3192 -0.0638 -7.1875 35.5898
#
#
#
# Elastic Compliance Matrix: (Units=1/GPa)
#
#
# Indices 1 2 3 4 5 6 
#
# 1 0.008412 -0.001026 -0.003651 -0.000137 -0.002259 -0.004153
# 2 -0.001026 0.014792 -0.003486 -0.001782 -0.000395 -0.003740
# 3 -0.003651 -0.003486 0.011556 0.002544 0.004128 0.000707
# 4 -0.000137 -0.001782 0.002544 0.021887 -0.005714 -0.001188
# 5 -0.002259 -0.000395 0.004128 -0.005714 0.027413 0.005762
# 6 -0.004153 -0.003740 0.000707 -0.001188 0.005762 0.032984
#
#
# Mechanical properties :
#
#
# Convention : Reuss Voigt Hill
#
# Bulk Modulus (GPa) = 54.24664 67.77629 61.01147
# Shear Modulus (GPa) = 35.83891 42.17788 39.00840
#
# Velocity S-wave (km/s) = 3.95053 4.28569 4.12152
# Velocity P-wave (km/s) = 6.66571 7.34874 7.01554
#
# Compressibility (1/GPa) = 0.01843432
#
# Stress axis : x y z
#
# Youngs Moduli (GPa) = 118.87897 67.60617 86.53523
#
# Poissons Ratio (x) = 0.06939 0.31590
# Poissons Ratio (y) = 0.12202 0.30163
# Poissons Ratio (z) = 0.43397 0.23565
#
# Static dielectric constant tensor:
#      x y z
#    x 4.259780 0.321350 -0.303960 
#    y 0.321350 4.303820 -0.391590 
#    z -0.303960 -0.391590 4.548780 
# 
# 
# High freq. dielectric constant tensor:
#      x y z
#    x 1.912370 0.019760 -0.009300 
#    y 0.019760 1.903960 -0.019330 
#    z -0.009300 -0.019330 1.920480 
# 
# From -- ./inp_files/399991.got.cif
#   From: 2010.06.25/outbox.cif.g09.slc.cpg/sg2_200_cif.got.tgz:399991.got - 2010.06.27 13:26:56.
