data_PCOD8021580
_publ_section_title
;
Structure prediction by ZEFSAII (Michael W. Deem and Ramdas Pophale) SiO2 
 PCOD8021580
Probable space group: P -1
;
_chemical_formula_sum "Si O2"
_cell_formula_units_Z 14
_cell_length_a 16.097183
_cell_length_b 8.982046
_cell_length_c 15.857852
_cell_angle_alpha 68.308979
_cell_angle_beta 27.951499
_cell_angle_gamma 48.414338
_cell_volume 631.876547
_symmetry_space_group_name_H-M "P -1"
_symmetry_group_IT_number 2
_symmetry_cell_setting 'triclinic'
loop_
_space_group_symop_operation_xyz
x,y,z
-x,-y,-z
loop_
_atom_site_type_symbol
_atom_site_label
_atom_site_fract_x
_atom_site_fract_y
_atom_site_fract_z
Si Si1 0.356191 0.099074 0.937986
Si Si2 0.356195 0.781777 0.404357
Si Si3 0.575865 0.057303 0.276355
Si Si4 0.058411 0.206748 0.706997
Si Si5 0.084857 0.760389 0.986793
Si Si6 0.858759 0.381374 0.434160
Si Si7 0.837597 0.636871 0.702488
O O1 0.511701 0.161106 0.776659
O O2 0.357733 0.000733 0.870329
O O3 0.515018 0.893903 0.914228
O O4 0.036141 0.335181 0.206845
O O5 0.618828 0.497447 0.266697
O O6 0.177758 0.784977 0.505036
O O7 0.141788 0.988659 0.626045
O O8 0.346820 0.087263 0.500412
O O9 0.450728 0.321820 0.351754
O O10 0.846268 0.826015 0.138429
O O11 0.863344 0.459748 0.773194
O O12 0.891194 0.284947 0.925076
O O13 0.000000 0.000000 0.000000
O O14 0.020968 0.309967 0.389650
O O15 0.000000 0.500000 0.500000
#
# Coordination Sequence:
#
# PCOD8021580 Si02
#       7
#     2   2   2   2   2   2   2
#     4  11  24  44  71  98 136 176 222 274 336 397
#     4  11  24  42  66 103 131 172 231 270 323 412
#     4  10  22  44  64  95 135 178 219 272 334 392
#     4  10  24  43  68  95 136 173 225 271 336 398
#     4  12  25  41  67  97 138 175 219 280 330 390
#     4  11  23  39  69  99 133 177 221 268 337 397
#     4  11  20  47  71  94 139 174 213 286 333 390
#
# _framework density 22.156227999999999
#
# number of rings (size 3 to 8) (size 9 to 14) (size 15 to 20)
#    0.000    1.143    5.714    2.571    2.000    4.571 
#    0.000    0.714    0.000    0.000    0.000    0.000 
#    0.000    0.000    0.000    0.000    0.000    0.000 
#
# Total GULP energy -173564.764566 kJ/mol
# GULP energy per Si atom -12397.483183 kJ/mol
# Density = 2.210580 g / cm^3
# Si number density = 22.156228 Si / 1000 Ang^3
#
#
#
# Elastic Constant Matrix: (Units=GPa)
#
#
# Indices 1 2 3 4 5 6 
#
# 1 131.5485 65.3709 43.9310 5.8002 9.4854 10.6313
# 2 65.3709 110.0169 21.0617 9.5096 0.7287 3.7103
# 3 43.9310 21.0617 69.5469 4.0568 5.5982 1.0105
# 4 5.8002 9.5096 4.0568 37.6323 -5.7452 -2.4898
# 5 9.4854 0.7287 5.5982 -5.7452 18.4928 0.4893
# 6 10.6313 3.7103 1.0105 -2.4898 0.4893 47.2435
#
#
#
# Elastic Compliance Matrix: (Units=1/GPa)
#
#
# Indices 1 2 3 4 5 6 
#
# 1 0.013539 -0.006718 -0.006043 -0.000657 -0.004992 -0.002373
# 2 -0.006718 0.013189 0.000176 -0.001949 0.002258 0.000346
# 3 -0.006043 0.000176 0.018457 -0.001499 -0.002984 0.000903
# 4 -0.000657 -0.001949 -0.001499 0.028942 0.009812 0.001757
# 5 -0.004992 0.002258 -0.002984 0.009812 0.060474 0.000901
# 6 -0.002373 0.000346 0.000903 0.001757 0.000901 0.021738
#
#
# Mechanical properties :
#
#
# Convention : Reuss Voigt Hill
#
# Bulk Modulus (GPa) = 49.96092 63.53771 56.74932
# Shear Modulus (GPa) = 26.57011 32.72365 29.64688
#
# Velocity S-wave (km/s) = 3.46673 3.84728 3.66195
# Velocity P-wave (km/s) = 6.21471 6.96239 6.59914
#
# Compressibility (1/GPa) = 0.02001564
#
# Stress axis : x y z
#
# Youngs Moduli (GPa) = 73.86152 75.81891 54.17933
#
# Poissons Ratio (x) = 0.50934 0.32741
# Poissons Ratio (y) = 0.49619 -0.00954
# Poissons Ratio (z) = 0.44635 -0.01335
#
# Static dielectric constant tensor:
#      x y z
#    x 3.851740 0.758840 0.188420 
#    y 0.758840 2.958740 0.048930 
#    z 0.188420 0.048930 3.962270 
# 
# 
# High freq. dielectric constant tensor:
#      x y z
#    x 1.879080 0.015340 0.004430 
#    y 0.015340 1.863180 0.018990 
#    z 0.004430 0.018990 1.872210 
# 
# From -- ./inp_files/242010.got.cif
#   From: 2010.06.25/outbox.cif.g09.slc.cpg/sg2_122_cif.got.tgz:242010.got - 2010.06.27 13:26:56.
