data_PCOD8021848
_publ_section_title
;
Structure prediction by ZEFSAII (Michael W. Deem and Ramdas Pophale) SiO2 
 PCOD8021848
Probable space group: P -1
;
_chemical_formula_sum "Si O2"
_cell_formula_units_Z 16
_cell_length_a 20.620243
_cell_length_b 7.361774
_cell_length_c 8.697562
_cell_angle_alpha 58.969131
_cell_angle_beta 39.481559
_cell_angle_gamma 53.221805
_cell_volume 668.690677
_symmetry_space_group_name_H-M "P -1"
_symmetry_group_IT_number 2
_symmetry_cell_setting 'triclinic'
loop_
_space_group_symop_operation_xyz
x,y,z
-x,-y,-z
loop_
_atom_site_type_symbol
_atom_site_label
_atom_site_fract_x
_atom_site_fract_y
_atom_site_fract_z
Si Si1 0.221165 0.819396 0.773248
Si Si2 0.825259 0.187164 0.798684
Si Si3 0.995224 0.706938 0.718422
Si Si4 0.286038 0.223396 0.596280
Si Si5 0.377253 0.909589 0.845365
Si Si6 0.546095 0.505331 0.581955
Si Si7 0.496482 0.182205 0.050670
Si Si8 0.089538 0.645890 0.882327
O O1 0.323324 0.600414 0.620680
O O2 0.125400 0.836319 0.818210
O O3 0.253079 0.042255 0.632297
O O4 0.181968 0.758013 0.032584
O O5 0.883784 0.348622 0.549861
O O6 0.702864 0.236094 0.938681
O O7 0.900910 0.928084 0.724657
O O8 0.997026 0.768301 0.870899
O O9 0.961706 0.487584 0.847712
O O10 0.383121 0.272153 0.312363
O O11 0.186422 0.460644 0.688334
O O12 0.317543 0.132448 0.753457
O O13 0.493773 0.771574 0.606734
O O14 0.403347 0.947046 0.958030
O O15 0.500000 0.500000 0.500000
O O16 0.507596 0.390458 0.845933
O O17 0.500000 0.000000 0.000000
#
# Coordination Sequence:
#
# PCOD8021848 Si02
#       8
#     2   2   2   2   2   2   2   2
#     4  11  23  42  68  96 131 173 216 270 336 390
#     4  10  22  44  69  92 134 172 217 277 338 382
#     4  10  23  44  65  98 129 169 225 279 329 392
#     4  11  23  46  64 100 139 174 220 274 334 390
#     4  11  23  43  66  95 138 180 210 279 331 391
#     4  12  23  43  66  99 135 173 219 269 329 404
#     4  12  25  39  66 100 135 176 225 263 329 407
#     4  11  24  42  71  95 129 172 224 275 335 391
#
# _framework density 23.927357000000001
#
# number of rings (size 3 to 8) (size 9 to 14) (size 15 to 20)
#    0.000    1.000    6.250    1.500    3.500    2.000 
#    0.000    0.000    0.000    0.000    0.000    0.000 
#    0.000    0.000    0.000    0.000    0.000    0.000 
#
# Total GULP energy -198299.239230 kJ/mol
# GULP energy per Si atom -12393.702452 kJ/mol
# Density = 2.387290 g / cm^3
# Si number density = 23.927357 Si / 1000 Ang^3
#
#
#
# Elastic Constant Matrix: (Units=GPa)
#
#
# Indices 1 2 3 4 5 6 
#
# 1 134.2391 8.6772 0.6371 -3.2715 1.8909 7.7529
# 2 8.6772 33.3124 -5.7507 -4.0785 6.3194 0.2171
# 3 0.6371 -5.7507 136.4532 -7.3513 -2.5538 -0.8058
# 4 -3.2715 -4.0785 -7.3513 29.6330 -3.2064 2.3142
# 5 1.8909 6.3194 -2.5538 -3.2064 34.5917 -4.3724
# 6 7.7529 0.2171 -0.8058 2.3142 -4.3724 23.0344
#
#
#
# Elastic Compliance Matrix: (Units=1/GPa)
#
#
# Indices 1 2 3 4 5 6 
#
# 1 0.007752 -0.001856 -0.000097 0.000750 -0.000369 -0.002740
# 2 -0.001856 0.032301 0.001483 0.004103 -0.005445 -0.001074
# 3 -0.000097 0.001483 0.007515 0.002099 0.000505 0.000167
# 4 0.000750 0.004103 0.002099 0.035417 0.002223 -0.003354
# 5 -0.000369 -0.005445 0.000505 0.002223 0.030905 0.005836
# 6 -0.002740 -0.001074 0.000167 -0.003354 0.005836 0.045796
#
#
# Mechanical properties :
#
#
# Convention : Reuss Voigt Hill
#
# Bulk Modulus (GPa) = 21.44721 34.57022 28.00871
# Shear Modulus (GPa) = 28.38193 37.48123 32.93158
#
# Velocity S-wave (km/s) = 3.44782 3.96215 3.71390
# Velocity P-wave (km/s) = 4.98326 5.95070 5.48834
#
# Compressibility (1/GPa) = 0.04662611
#
# Stress axis : x y z
#
# Youngs Moduli (GPa) = 129.00591 30.95911 133.06734
#
# Poissons Ratio (x) = 0.05747 0.01292
# Poissons Ratio (y) = 0.23947 -0.19731
# Poissons Ratio (z) = 0.01252 -0.04591
#
# Static dielectric constant tensor:
#      x y z
#    x 4.391620 -0.064500 -0.234000 
#    y -0.064500 3.851630 0.162060 
#    z -0.234000 0.162060 4.563100 
# 
# 
# High freq. dielectric constant tensor:
#      x y z
#    x 1.952470 -0.010080 -0.013200 
#    y -0.010080 1.928780 0.001430 
#    z -0.013200 0.001430 1.961680 
# 
# From -- ./inp_files/342524.got.cif
#   From: 2010.06.25/outbox.cif.g09.slc.cpg/sg2_172_cif.got.tgz:342524.got - 2010.06.27 13:26:56.
