data_PCOD8021322
_publ_section_title
;
Structure prediction by ZEFSAII (Michael W. Deem and Ramdas Pophale) SiO2 
 PCOD8021322
Probable space group: P -1
;
_chemical_formula_sum "Si O2"
_cell_formula_units_Z 14
_cell_length_a 11.603146
_cell_length_b 10.150350
_cell_length_c 9.894522
_cell_angle_alpha 41.542006
_cell_angle_beta 52.283070
_cell_angle_gamma 51.644945
_cell_volume 581.204766
_symmetry_space_group_name_H-M "P -1"
_symmetry_group_IT_number 2
_symmetry_cell_setting 'triclinic'
loop_
_space_group_symop_operation_xyz
x,y,z
-x,-y,-z
loop_
_atom_site_type_symbol
_atom_site_label
_atom_site_fract_x
_atom_site_fract_y
_atom_site_fract_z
Si Si1 0.414014 0.545283 0.802642
Si Si2 0.334267 0.937665 0.250616
Si Si3 0.283086 0.556102 0.496059
Si Si4 0.219558 0.899175 0.847322
Si Si5 0.449077 0.894263 0.900188
Si Si6 0.045227 0.708586 0.316797
Si Si7 0.824895 0.614954 0.057473
O O1 0.549228 0.562407 0.592219
O O2 0.351044 0.764492 0.757375
O O3 0.272650 0.502443 0.863261
O O4 0.478843 0.348908 0.011380
O O5 0.279693 0.736053 0.473893
O O6 0.433832 0.968141 0.286650
O O7 0.427019 0.870173 0.095609
O O8 0.198948 0.150634 0.156082
O O9 0.223671 0.384775 0.748925
O O10 0.167307 0.682119 0.368074
O O11 0.301070 0.993996 0.836134
O O12 0.107125 0.095840 0.696105
O O13 0.122681 0.755145 0.087363
O O14 0.000000 0.500000 0.500000
O O15 0.000000 0.500000 0.000000
#
# Coordination Sequence:
#
# PCOD8021322 Si02
#       7
#     2   2   2   2   2   2   2
#     4  10  22  43  70 106 133 184 230 286 347 407
#     4   9  20  41  66 101 131 179 224 278 353 391
#     4  11  24  47  71  99 141 180 236 284 340 419
#     4  11  23  45  71  98 146 181 227 287 353 399
#     4   9  18  38  70  98 135 178 223 282 339 408
#     4  11  27  43  67 104 139 192 226 282 343 424
#     4  11  26  41  71 101 139 183 228 291 344 410
#
# _framework density 24.087895
#
# number of rings (size 3 to 8) (size 9 to 14) (size 15 to 20)
#    0.000    1.714    2.857    1.714    6.000    0.571 
#    0.000    3.571    0.000    0.000    0.000    0.000 
#    0.000    0.000    0.000    0.000    0.000    0.000 
#
# Total GULP energy -173513.776933 kJ/mol
# GULP energy per Si atom -12393.841210 kJ/mol
# Density = 2.403307 g / cm^3
# Si number density = 24.087895 Si / 1000 Ang^3
#
#
#
# Elastic Constant Matrix: (Units=GPa)
#
#
# Indices 1 2 3 4 5 6 
#
# 1 123.7707 48.1385 34.2994 -6.6264 -11.5610 -33.3132
# 2 48.1385 116.8907 35.9088 -11.3246 -17.7089 -17.5383
# 3 34.2994 35.9088 87.8000 -9.0019 -8.0323 -9.1765
# 4 -6.6264 -11.3246 -9.0019 33.4202 -1.8650 -3.4656
# 5 -11.5610 -17.7089 -8.0323 -1.8650 27.1386 0.6291
# 6 -33.3132 -17.5383 -9.1765 -3.4656 0.6291 30.8246
#
#
#
# Elastic Compliance Matrix: (Units=1/GPa)
#
#
# Indices 1 2 3 4 5 6 
#
# 1 0.013547 -0.002046 -0.002474 0.002874 0.003600 0.012990
# 2 -0.002046 0.012228 -0.002784 0.003784 0.006446 0.004211
# 3 -0.002474 -0.002784 0.013880 0.002395 0.001400 0.000115
# 4 0.002874 0.003784 0.002395 0.033782 0.006501 0.009638
# 5 0.003600 0.006446 0.001400 0.006501 0.043267 0.007823
# 6 0.012990 0.004211 0.000115 0.009638 0.007823 0.049835
#
#
# Mechanical properties :
#
#
# Convention : Reuss Voigt Hill
#
# Bulk Modulus (GPa) = 39.92388 62.79497 51.35942
# Shear Modulus (GPa) = 26.38584 32.28433 29.33509
#
# Velocity S-wave (km/s) = 3.31327 3.66494 3.49354
# Velocity P-wave (km/s) = 5.58992 6.63587 6.13523
#
# Compressibility (1/GPa) = 0.02504767
#
# Stress axis : x y z
#
# Youngs Moduli (GPa) = 73.81559 81.78018 72.04566
#
# Poissons Ratio (x) = 0.16735 0.17822
# Poissons Ratio (y) = 0.15105 0.20056
# Poissons Ratio (z) = 0.18260 0.22766
#
# Static dielectric constant tensor:
#      x y z
#    x 4.607000 -0.057320 -0.154560 
#    y -0.057320 4.139010 -0.354480 
#    z -0.154560 -0.354480 4.713170 
# 
# 
# High freq. dielectric constant tensor:
#      x y z
#    x 1.969000 -0.009370 0.004150 
#    y -0.009370 1.933160 -0.026420 
#    z 0.004150 -0.026420 1.955810 
# 
# From -- ./inp_files/258217.got.cif
#   From: 2010.06.25/outbox.cif.g09.slc.cpg/sg2_130_cif.got.tgz:258217.got - 2010.06.27 13:26:56.
