data_PCOD8021698
_publ_section_title
;
Structure prediction by ZEFSAII (Michael W. Deem and Ramdas Pophale) SiO2 
 PCOD8021698
Probable space group: P -1
;
_chemical_formula_sum "Si O2"
_cell_formula_units_Z 16
_cell_length_a 14.008511
_cell_length_b 8.206815
_cell_length_c 6.608312
_cell_angle_alpha 101.256353
_cell_angle_beta 87.555536
_cell_angle_gamma 109.897941
_cell_volume 700.395966
_symmetry_space_group_name_H-M "P -1"
_symmetry_group_IT_number 2
_symmetry_cell_setting 'triclinic'
loop_
_space_group_symop_operation_xyz
x,y,z
-x,-y,-z
loop_
_atom_site_type_symbol
_atom_site_label
_atom_site_fract_x
_atom_site_fract_y
_atom_site_fract_z
Si Si1 0.470995 0.279628 0.654367
Si Si2 0.410285 0.833663 0.052383
Si Si3 0.627249 0.447232 0.337294
Si Si4 0.971597 0.801270 0.890522
Si Si5 0.703644 0.023946 0.582278
Si Si6 0.812256 0.744023 0.565726
Si Si7 0.047355 0.360255 0.723911
Si Si8 0.877982 0.293793 0.416071
O O1 0.540543 0.274475 0.833797
O O2 0.537184 0.338539 0.463329
O O3 0.409675 0.410844 0.747698
O O4 0.393827 0.085058 0.564597
O O5 0.327732 0.896912 0.192481
O O6 0.351556 0.693430 0.851101
O O7 0.500000 0.000000 0.000000
O O8 0.724484 0.557363 0.487707
O O9 0.966250 0.665255 0.041231
O O10 0.861900 0.730563 0.775040
O O11 0.064006 0.812455 0.738808
O O12 0.000000 0.000000 0.000000
O O13 0.764460 0.177339 0.459149
O O14 0.771642 0.907429 0.614214
O O15 0.902416 0.782057 0.398414
O O16 0.127955 0.546094 0.684591
O O17 0.939959 0.353104 0.635747
#
# Coordination Sequence:
#
# PCOD8021698 Si02
#       8
#     2   2   2   2   2   2   2   2
#     4  10  23  45  69  93 138 176 224 284 341 401
#     4  12  25  43  68 101 133 177 229 284 339 399
#     4  10  23  46  68  96 133 182 222 277 343 406
#     4  11  22  43  72 100 138 176 227 278 338 402
#     4  11  23  45  68  97 138 176 228 283 338 400
#     4  10  24  44  66 100 137 178 224 274 341 404
#     4  10  22  44  67 100 138 175 222 276 340 404
#     4  10  23  43  68 100 138 176 219 283 337 401
#
# _framework density 22.844221000000001
#
# number of rings (size 3 to 8) (size 9 to 14) (size 15 to 20)
#    0.000    1.500    1.250    2.625    1.750    3.000 
#   18.000    0.000    0.000    0.000    0.000    0.000 
#    0.000    0.000    0.000    0.000    0.000    0.000 
#
# Total GULP energy -198392.448110 kJ/mol
# GULP energy per Si atom -12399.528007 kJ/mol
# Density = 2.279223 g / cm^3
# Si number density = 22.844221 Si / 1000 Ang^3
#
#
#
# Elastic Constant Matrix: (Units=GPa)
#
#
# Indices 1 2 3 4 5 6 
#
# 1 90.1275 40.6809 33.6886 3.8250 -9.5771 6.5818
# 2 40.6809 134.7251 61.2195 3.9701 -6.7119 14.8555
# 3 33.6886 61.2195 113.3482 4.7357 0.5091 6.0883
# 4 3.8250 3.9701 4.7357 41.8494 -3.2434 -4.4374
# 5 -9.5771 -6.7119 0.5091 -3.2434 39.8336 -1.0844
# 6 6.5818 14.8555 6.0883 -4.4374 -1.0844 38.5873
#
#
#
# Elastic Compliance Matrix: (Units=1/GPa)
#
#
# Indices 1 2 3 4 5 6 
#
# 1 0.013653 -0.002721 -0.002530 -0.000580 0.002786 -0.000870
# 2 -0.002721 0.010860 -0.004883 -0.000457 0.001120 -0.002967
# 3 -0.002530 -0.004883 0.012239 -0.000792 -0.001645 0.000243
# 4 -0.000580 -0.000457 -0.000792 0.024575 0.001884 0.003279
# 5 0.002786 0.001120 -0.001645 0.001884 0.026146 0.000305
# 6 -0.000870 -0.002967 0.000243 0.003279 0.000305 0.027553
#
#
# Mechanical properties :
#
#
# Convention : Reuss Voigt Hill
#
# Bulk Modulus (GPa) = 60.66544 67.70875 64.18710
# Shear Modulus (GPa) = 35.51425 37.56151 36.53788
#
# Velocity S-wave (km/s) = 3.94715 4.05933 4.00363
# Velocity P-wave (km/s) = 6.88383 7.18850 7.03782
#
# Compressibility (1/GPa) = 0.01648385
#
# Stress axis : x y z
#
# Youngs Moduli (GPa) = 73.24133 92.08490 81.70615
#
# Poissons Ratio (x) = 0.25060 0.20669
# Poissons Ratio (y) = 0.19932 0.39897
# Poissons Ratio (z) = 0.18528 0.44965
#
# Static dielectric constant tensor:
#      x y z
#    x 4.355100 -0.264340 0.036790 
#    y -0.264340 4.352720 -0.056100 
#    z 0.036790 -0.056100 4.172630 
# 
# 
# High freq. dielectric constant tensor:
#      x y z
#    x 1.911280 -0.009680 -0.002370 
#    y -0.009680 1.912100 0.003880 
#    z -0.002370 0.003880 1.894480 
# 
# From -- ./inp_files/90459.got.cif
#   From: 2010.06.25/outbox.cif.g09.slc.cpg/sg2_46_cif.got.tgz:90459.got - 2010.06.27 13:26:56.
