data_PCOD8021093
_publ_section_title
;
Structure prediction by ZEFSAII (Michael W. Deem and Ramdas Pophale) SiO2 
 PCOD8021093
Probable space group: P -1
;
_chemical_formula_sum "Si O2"
_cell_formula_units_Z 16
_cell_length_a 12.783783
_cell_length_b 12.563504
_cell_length_c 5.603543
_cell_angle_alpha 83.468809
_cell_angle_beta 55.466657
_cell_angle_gamma 95.266947
_cell_volume 723.036542
_symmetry_space_group_name_H-M "P -1"
_symmetry_group_IT_number 2
_symmetry_cell_setting 'triclinic'
loop_
_space_group_symop_operation_xyz
x,y,z
-x,-y,-z
loop_
_atom_site_type_symbol
_atom_site_label
_atom_site_fract_x
_atom_site_fract_y
_atom_site_fract_z
Si Si1 0.172191 0.244848 0.656546
Si Si2 0.405836 0.619785 0.898407
Si Si3 0.381512 0.003127 0.980478
Si Si4 0.358681 0.379247 0.068223
Si Si5 0.112171 0.029602 0.538464
Si Si6 0.773950 0.221170 0.866222
Si Si7 0.086912 0.805057 0.811878
Si Si8 0.601914 0.781079 0.323457
O O1 0.237129 0.358171 0.415066
O O2 0.096030 0.148904 0.612519
O O3 0.290867 0.195068 0.617762
O O4 0.061341 0.264158 0.981543
O O5 0.502503 0.618707 0.993062
O O6 0.474101 0.693239 0.575834
O O7 0.357979 0.494247 0.906876
O O8 0.284440 0.670375 0.125524
O O9 0.340664 0.885523 0.938005
O O10 0.256336 0.036835 0.250535
O O11 0.500000 0.000000 0.000000
O O12 0.437014 0.102419 0.704336
O O13 0.330843 0.274671 0.960557
O O14 0.089949 0.935586 0.795721
O O15 0.000000 0.000000 0.500000
O O16 0.854704 0.215252 0.518757
O O17 0.847196 0.232083 0.023931
#
# Coordination Sequence:
#
# PCOD8021093 Si02
#       8
#     2   2   2   2   2   2   2   2
#     4  11  22  40  68  97 126 174 232 282 327 405
#     4  10  24  42  66  94 131 179 225 282 342 410
#     4  11  23  37  65 101 140 174 219 282 344 418
#     4  10  22  43  67  97 127 169 236 287 336 390
#     4  11  22  41  67  99 138 187 225 276 342 417
#     4  11  26  44  65  98 140 184 215 275 349 419
#     4  11  25  43  67  96 137 181 224 271 341 415
#     4  11  22  38  69  96 132 173 221 286 341 400
#
# _framework density 22.128895
#
# number of rings (size 3 to 8) (size 9 to 14) (size 15 to 20)
#    0.000    1.250    1.250    4.500    8.750    0.500 
#    0.000    1.250    0.000    0.000    0.000    0.000 
#    0.000    0.000    0.000    0.000    0.000    0.000 
#
# Total GULP energy -198278.731513 kJ/mol
# GULP energy per Si atom -12392.420720 kJ/mol
# Density = 2.207853 g / cm^3
# Si number density = 22.128895 Si / 1000 Ang^3
#
#
#
# Elastic Constant Matrix: (Units=GPa)
#
#
# Indices 1 2 3 4 5 6 
#
# 1 98.6231 33.3516 53.4175 -11.5502 -6.6386 -6.1900
# 2 33.3516 94.9711 20.5620 -15.0230 2.6749 -19.3796
# 3 53.4175 20.5620 100.9055 -17.4783 -0.9022 -13.4379
# 4 -11.5502 -15.0230 -17.4783 33.3433 1.5430 5.7548
# 5 -6.6386 2.6749 -0.9022 1.5430 32.9315 3.1672
# 6 -6.1900 -19.3796 -13.4379 5.7548 3.1672 27.4120
#
#
#
# Elastic Compliance Matrix: (Units=1/GPa)
#
#
# Indices 1 2 3 4 5 6 
#
# 1 0.016175 -0.004938 -0.008141 -0.000342 0.003859 -0.004204
# 2 -0.004938 0.014613 0.001603 0.004226 -0.003249 0.009490
# 3 -0.008141 0.001603 0.015573 0.005112 -0.002172 0.006107
# 4 -0.000342 0.004226 0.005112 0.034829 -0.001741 -0.001694
# 5 0.003859 -0.003249 -0.002172 -0.001741 0.031990 -0.005821
# 6 -0.004204 0.009490 0.006107 -0.001694 -0.005821 0.046262
#
#
# Mechanical properties :
#
#
# Convention : Reuss Voigt Hill
#
# Bulk Modulus (GPa) = 42.71939 56.57355 49.64647
# Shear Modulus (GPa) = 26.28855 31.21526 28.75190
#
# Velocity S-wave (km/s) = 3.45044 3.75988 3.60848
# Velocity P-wave (km/s) = 5.93471 6.66858 6.31232
#
# Compressibility (1/GPa) = 0.02340857
#
# Stress axis : x y z
#
# Youngs Moduli (GPa) = 61.82433 68.43126 64.21559
#
# Poissons Ratio (x) = 0.33793 0.52278
# Poissons Ratio (y) = 0.30531 -0.10296
# Poissons Ratio (z) = 0.50331 -0.10971
#
# Static dielectric constant tensor:
#      x y z
#    x 3.872050 -0.024160 -0.120860 
#    y -0.024160 4.022700 -0.208840 
#    z -0.120860 -0.208840 4.222260 
# 
# 
# High freq. dielectric constant tensor:
#      x y z
#    x 1.868510 -0.003050 -0.008190 
#    y -0.003050 1.856630 -0.012340 
#    z -0.008190 -0.012340 1.880010 
# 
# From -- ./inp_files/68662.got.cif
#   From: 2010.06.25/outbox.cif.g09.slc.cpg/sg2_35_cif.got.tgz:68662.got - 2010.06.27 13:26:56.
