data_PCOD8021308
_publ_section_title
;
Structure prediction by ZEFSAII (Michael W. Deem and Ramdas Pophale) SiO2 
 PCOD8021308
Probable space group: P -1
;
_chemical_formula_sum "Si O2"
_cell_formula_units_Z 14
_cell_length_a 9.475568
_cell_length_b 8.610964
_cell_length_c 21.565410
_cell_angle_alpha 131.424804
_cell_angle_beta 30.156110
_cell_angle_gamma 116.279366
_cell_volume 622.508203
_symmetry_space_group_name_H-M "P -1"
_symmetry_group_IT_number 2
_symmetry_cell_setting 'triclinic'
loop_
_space_group_symop_operation_xyz
x,y,z
-x,-y,-z
loop_
_atom_site_type_symbol
_atom_site_label
_atom_site_fract_x
_atom_site_fract_y
_atom_site_fract_z
Si Si1 0.757008 0.884537 0.046626
Si Si2 0.307485 0.411493 0.892866
Si Si3 0.141685 0.828953 0.452380
Si Si4 0.879528 0.274401 0.246797
Si Si5 0.107321 0.076954 0.303208
Si Si6 0.802534 0.515942 0.463937
Si Si7 0.744198 0.118476 0.928974
O O1 0.695748 0.740819 0.087636
O O2 0.438740 0.069436 0.197555
O O3 0.890258 0.722793 0.894763
O O4 0.000000 0.000000 0.000000
O O5 0.512953 0.278879 0.723937
O O6 0.397475 0.624015 0.932871
O O7 0.000000 0.500000 0.000000
O O8 0.083538 0.955633 0.573992
O O9 0.982732 0.649707 0.463775
O O10 0.000000 0.000000 0.500000
O O11 0.895498 0.448840 0.339380
O O12 0.548208 0.341138 0.361920
O O13 0.974034 0.023844 0.172684
O O14 0.891088 0.301377 0.415398
O O15 0.153114 0.889967 0.184151
O O16 0.500000 0.000000 0.000000
#
# Coordination Sequence:
#
# PCOD8021308 Si02
#       7
#     2   2   2   2   2   2   2
#     4  12  25  42  70 100 139 183 231 289 339 415
#     4  12  29  45  71 103 141 183 234 285 349 408
#     4  12  26  44  63  99 140 180 225 288 340 408
#     4  10  22  43  70 101 135 175 238 278 343 410
#     4  11  24  45  70  99 136 183 233 277 351 409
#     4  10  24  42  71  99 134 185 223 285 347 409
#     4  11  23  46  75 105 138 184 230 287 340 417
#
# _framework density 22.489661999999999
#
# number of rings (size 3 to 8) (size 9 to 14) (size 15 to 20)
#    0.000    0.857    2.857    3.857    6.000    1.714 
#    0.000    0.714    0.000    0.000    0.000    0.000 
#    0.000    0.000    0.000    0.000    0.000    0.000 
#
# Total GULP energy -173513.259458 kJ/mol
# GULP energy per Si atom -12393.804247 kJ/mol
# Density = 2.243847 g / cm^3
# Si number density = 22.489662 Si / 1000 Ang^3
#
#
#
# Elastic Constant Matrix: (Units=GPa)
#
#
# Indices 1 2 3 4 5 6 
#
# 1 108.4910 15.8357 65.8258 -11.4910 -0.3152 -27.4928
# 2 15.8357 67.8213 26.6558 -3.7230 0.8033 -7.9621
# 3 65.8258 26.6558 190.2475 -12.3504 10.1507 -21.6268
# 4 -11.4910 -3.7230 -12.3504 27.1126 -10.3403 0.3173
# 5 -0.3152 0.8033 10.1507 -10.3403 64.1695 0.2948
# 6 -27.4928 -7.9621 -21.6268 0.3173 0.2948 26.4867
#
#
#
# Elastic Compliance Matrix: (Units=1/GPa)
#
#
# Indices 1 2 3 4 5 6 
#
# 1 0.015158 -0.000413 -0.003484 0.005168 0.001405 0.012687
# 2 -0.000413 0.015918 -0.001679 0.001311 0.000262 0.002966
# 3 -0.003484 -0.001679 0.007000 0.001107 -0.000932 0.001591
# 4 0.005168 0.001311 0.001107 0.042206 0.006607 0.006083
# 5 0.001405 0.000262 -0.000932 0.006607 0.016797 0.000510
# 6 0.012687 0.002966 0.001591 0.006083 0.000510 0.053037
#
#
# Mechanical properties :
#
#
# Convention : Reuss Voigt Hill
#
# Bulk Modulus (GPa) = 37.14287 64.79936 50.97112
# Shear Modulus (GPa) = 29.36976 40.76994 35.06985
#
# Velocity S-wave (km/s) = 3.61768 4.26235 3.95318
# Velocity P-wave (km/s) = 5.83108 7.28691 6.59926
#
# Compressibility (1/GPa) = 0.02692307
#
# Stress axis : x y z
#
# Youngs Moduli (GPa) = 65.97099 62.82140 142.86689
#
# Poissons Ratio (x) = 0.02597 0.49775
# Poissons Ratio (y) = 0.02728 0.23986
# Poissons Ratio (z) = 0.22985 0.10547
#
# Static dielectric constant tensor:
#      x y z
#    x 4.279470 -1.635860 -1.159360 
#    y -1.635860 -14.166280 -14.830340 
#    z -1.159360 -14.830340 -8.004170 
# 
# 
# High freq. dielectric constant tensor:
#      x y z
#    x 1.905020 -0.015680 0.002630 
#    y -0.015680 1.850200 0.012100 
#    z 0.002630 0.012100 1.915400 
# 
# From -- ./inp_files/588098.got.cif
#   From: 2010.06.25/outbox.cif.g09.slc.cpg/sg2_295_cif.got.tgz:588098.got - 2010.06.27 13:26:56.
