data_PCOD8021229
_publ_section_title
;
Structure prediction by ZEFSAII (Michael W. Deem and Ramdas Pophale) SiO2 
 PCOD8021229
Probable space group: P -1
;
_chemical_formula_sum "Si O2"
_cell_formula_units_Z 16
_cell_length_a 18.058306
_cell_length_b 12.766518
_cell_length_c 20.681617
_cell_angle_alpha 29.521750
_cell_angle_beta 28.777588
_cell_angle_gamma 18.881635
_cell_volume 716.833885
_symmetry_space_group_name_H-M "P -1"
_symmetry_group_IT_number 2
_symmetry_cell_setting 'triclinic'
loop_
_space_group_symop_operation_xyz
x,y,z
-x,-y,-z
loop_
_atom_site_type_symbol
_atom_site_label
_atom_site_fract_x
_atom_site_fract_y
_atom_site_fract_z
Si Si1 0.837366 0.279998 0.631104
Si Si2 0.724670 0.285461 0.575552
Si Si3 0.645678 0.912488 0.795648
Si Si4 0.777820 0.897381 0.951876
Si Si5 0.371999 0.305381 0.310869
Si Si6 0.256887 0.811953 0.056193
Si Si7 0.645026 0.061880 0.573544
Si Si8 0.923944 0.856856 0.106801
O O1 0.697068 0.429542 0.589228
O O2 0.699103 0.601746 0.608848
O O3 0.831943 0.041626 0.788120
O O4 0.115475 0.056028 0.532336
O O5 0.568777 0.558802 0.491331
O O6 0.657386 0.110992 0.722896
O O7 0.000000 0.000000 0.500000
O O8 0.903467 0.519175 0.802861
O O9 0.561898 0.043590 0.714665
O O10 0.465595 0.971852 0.948227
O O11 0.699183 0.050866 0.000796
O O12 0.000000 0.500000 0.000000
O O13 0.185082 0.671200 0.223100
O O14 0.316267 0.144343 0.404597
O O15 0.652036 0.077182 0.214782
O O16 0.500000 0.500000 0.000000
O O17 0.051086 0.122708 0.999601
O O18 0.000000 0.000000 0.000000
#
# Coordination Sequence:
#
# PCOD8021229 Si02
#       8
#     2   2   2   2   2   2   2   2
#     4  11  26  48  68 103 147 178 232 295 355 412
#     4  12  27  46  70 101 141 188 240 282 342 431
#     4  12  25  44  74 103 137 188 237 281 350 425
#     4  11  25  44  69 102 139 180 230 296 357 410
#     4  10  22  43  69 103 137 181 234 293 350 408
#     4   9  19  40  65  96 138 178 222 279 345 417
#     4  12  25  48  74  98 139 191 237 284 348 421
#     4  11  21  40  69 106 139 181 230 287 345 425
#
# _framework density 22.320371999999999
#
# number of rings (size 3 to 8) (size 9 to 14) (size 15 to 20)
#    0.000    1.000    1.250    6.750    3.500    1.000 
#   13.500    0.000    0.000    0.000    0.000    0.000 
#    0.000    0.000    0.000    0.000    0.000    0.000 
#
# Total GULP energy -198253.735092 kJ/mol
# GULP energy per Si atom -12390.858443 kJ/mol
# Density = 2.226957 g / cm^3
# Si number density = 22.320372 Si / 1000 Ang^3
#
#
#
# Elastic Constant Matrix: (Units=GPa)
#
#
# Indices 1 2 3 4 5 6 
#
# 1 116.4778 25.5745 30.6907 -5.4357 -2.4367 -1.0616
# 2 25.5745 91.6105 24.3923 -10.8809 2.8340 -7.0070
# 3 30.6907 24.3923 101.4975 -0.2002 -14.3377 -12.6208
# 4 -5.4357 -10.8809 -0.2002 36.9042 1.4982 -0.3006
# 5 -2.4367 2.8340 -14.3377 1.4982 37.0672 -5.7508
# 6 -1.0616 -7.0070 -12.6208 -0.3006 -5.7508 45.0020
#
#
#
# Elastic Compliance Matrix: (Units=1/GPa)
#
#
# Indices 1 2 3 4 5 6 
#
# 1 0.009735 -0.001970 -0.002631 0.000848 -0.000395 -0.000860
# 2 -0.001970 0.012727 -0.002637 0.003542 -0.002119 0.000948
# 3 -0.002631 -0.002637 0.012521 -0.001290 0.005503 0.003733
# 4 0.000848 0.003542 -0.001290 0.028335 -0.001834 0.000165
# 5 -0.000395 -0.002119 0.005503 -0.001834 0.030098 0.005038
# 6 -0.000860 0.000948 0.003733 0.000165 0.005038 0.024041
#
#
# Mechanical properties :
#
#
# Convention : Reuss Voigt Hill
#
# Bulk Modulus (GPa) = 48.76696 52.32231 50.54464
# Shear Modulus (GPa) = 36.03140 39.05658 37.54399
#
# Velocity S-wave (km/s) = 4.02217 4.18762 4.10573
# Velocity P-wave (km/s) = 6.59292 6.84646 6.72088
#
# Compressibility (1/GPa) = 0.02050569
#
# Stress axis : x y z
#
# Youngs Moduli (GPa) = 102.72655 78.57548 79.86632
#
# Poissons Ratio (x) = 0.15478 0.21014
# Poissons Ratio (y) = 0.20236 0.21063
# Poissons Ratio (z) = 0.27029 0.20722
#
# Static dielectric constant tensor:
#      x y z
#    x 5.373640 0.537010 1.539930 
#    y 0.537010 4.236350 0.616820 
#    z 1.539930 0.616820 6.587870 
# 
# 
# High freq. dielectric constant tensor:
#      x y z
#    x 1.892750 0.007590 -0.005910 
#    y 0.007590 1.874140 -0.011290 
#    z -0.005910 -0.011290 1.886770 
# 
# From -- ./inp_files/600022.got.cif
#   From: 2010.06.25/outbox.cif.g09.slc.cpg/sg2_301_cif.got.tgz:600022.got - 2010.06.27 13:26:56.
