data_PCOD8021018
_publ_section_title
;
Structure prediction by ZEFSAII (Michael W. Deem and Ramdas Pophale) SiO2 
 PCOD8021018
Probable space group: P -1
;
_chemical_formula_sum "Si O2"
_cell_formula_units_Z 16
_cell_length_a 7.787913
_cell_length_b 11.668229
_cell_length_c 13.063100
_cell_angle_alpha 47.489798
_cell_angle_beta 43.927641
_cell_angle_gamma 66.961215
_cell_volume 596.428228
_symmetry_space_group_name_H-M "P -1"
_symmetry_group_IT_number 2
_symmetry_cell_setting 'triclinic'
loop_
_space_group_symop_operation_xyz
x,y,z
-x,-y,-z
loop_
_atom_site_type_symbol
_atom_site_label
_atom_site_fract_x
_atom_site_fract_y
_atom_site_fract_z
Si Si1 0.521647 0.777456 0.724015
Si Si2 0.312173 0.786541 0.146738
Si Si3 0.024616 0.592959 0.066265
Si Si4 0.807897 0.687352 0.304537
Si Si5 0.426239 0.885600 0.256668
Si Si6 0.697647 0.686908 0.914064
Si Si7 0.218476 0.881510 0.562389
Si Si8 0.529126 0.411339 0.319224
O O1 0.547747 0.746232 0.850402
O O2 0.613316 0.640775 0.696269
O O3 0.665057 0.953944 0.530689
O O4 0.210051 0.757709 0.855635
O O5 0.295537 0.781044 0.280361
O O6 0.037673 0.768318 0.227854
O O7 0.480215 0.652627 0.120900
O O8 0.478745 0.942163 0.933896
O O9 0.210573 0.469228 0.067824
O O10 0.896902 0.589235 0.233850
O O11 0.794372 0.541776 0.114248
O O12 0.662976 0.818229 0.241294
O O13 0.638496 0.557115 0.530782
O O14 0.220321 0.895046 0.428123
O O15 0.933299 0.824968 0.757945
O O16 0.393065 0.757738 0.588232
#
# Coordination Sequence:
#
# PCOD8021018 Si02
#       8
#     2   2   2   2   2   2   2   2
#     4  12  22  39  68  98 129 173 221 270 337 397
#     4  11  23  40  68  99 135 176 225 271 341 400
#     4  11  24  46  65  92 138 179 220 279 330 398
#     4  11  23  44  66  94 137 175 227 273 336 392
#     4  10  23  41  66  99 134 178 217 281 334 399
#     4  11  24  42  66  98 136 171 224 277 332 395
#     4  10  22  43  66  97 135 170 218 283 332 393
#     4  10  25  41  66  97 132 174 223 275 336 398
#
# _framework density 26.826360999999999
#
# number of rings (size 3 to 8) (size 9 to 14) (size 15 to 20)
#    0.000    1.250    2.500    2.250    1.750    5.000 
#    0.000    1.875    0.000    0.000    0.000    0.000 
#    0.000    0.000    0.000    0.000    0.000    0.000 
#
# Total GULP energy -198311.427577 kJ/mol
# GULP energy per Si atom -12394.464224 kJ/mol
# Density = 2.676530 g / cm^3
# Si number density = 26.826361 Si / 1000 Ang^3
#
#
#
# Elastic Constant Matrix: (Units=GPa)
#
#
# Indices 1 2 3 4 5 6 
#
# 1 102.2198 10.3355 -9.8695 -1.7074 -19.5079 17.8875
# 2 10.3355 90.3839 24.0048 10.8258 -11.3394 27.3868
# 3 -9.8695 24.0048 128.2940 2.9880 -15.3301 21.0954
# 4 -1.7074 10.8258 2.9880 46.2608 16.2682 1.4343
# 5 -19.5079 -11.3394 -15.3301 16.2682 33.6448 -1.4047
# 6 17.8875 27.3868 21.0954 1.4343 -1.4047 41.7542
#
#
#
# Elastic Compliance Matrix: (Units=1/GPa)
#
#
# Indices 1 2 3 4 5 6 
#
# 1 0.013574 0.002018 0.003552 -0.004088 0.011795 -0.008396
# 2 0.002018 0.016092 0.000241 -0.006702 0.009485 -0.010992
# 3 0.003552 0.000241 0.010110 -0.003203 0.008029 -0.006408
# 4 -0.004088 -0.006702 -0.003203 0.030250 -0.020463 0.006038
# 5 0.011795 0.009485 0.008029 -0.020463 0.052774 -0.012852
# 6 -0.008396 -0.010992 -0.006408 0.006038 -0.012852 0.037354
#
#
# Mechanical properties :
#
#
# Convention : Reuss Voigt Hill
#
# Bulk Modulus (GPa) = 19.45600 41.09325 30.27463
# Shear Modulus (GPa) = 30.18139 44.09376 37.13757
#
# Velocity S-wave (km/s) = 3.35784 4.05862 3.72475
# Velocity P-wave (km/s) = 4.72247 6.10858 5.45969
#
# Compressibility (1/GPa) = 0.05139801
#
# Stress axis : x y z
#
# Youngs Moduli (GPa) = 73.67242 62.14076 98.90930
#
# Poissons Ratio (x) = -0.12540 -0.35130
# Poissons Ratio (y) = -0.14867 -0.02385
# Poissons Ratio (z) = -0.26167 -0.01498
#
# Static dielectric constant tensor:
#      x y z
#    x 5.293770 0.361510 0.309870 
#    y 0.361510 5.328870 0.158430 
#    z 0.309870 0.158430 5.477080 
# 
# 
# High freq. dielectric constant tensor:
#      x y z
#    x 2.099840 0.010300 0.015650 
#    y 0.010300 2.077830 0.002650 
#    z 0.015650 0.002650 2.090380 
# 
# From -- ./inp_files/499976.got.cif
#   From: 2010.06.25/outbox.cif.g09.slc.cpg/sg2_250_cif.got.tgz:499976.got - 2010.06.27 13:26:56.
