data_PCOD8021111
_publ_section_title
;
Structure prediction by ZEFSAII (Michael W. Deem and Ramdas Pophale) SiO2 
 PCOD8021111
Probable space group: P -1
;
_chemical_formula_sum "Si O2"
_cell_formula_units_Z 16
_cell_length_a 8.869614
_cell_length_b 13.038020
_cell_length_c 9.053777
_cell_angle_alpha 80.802188
_cell_angle_beta 130.558585
_cell_angle_gamma 73.593278
_cell_volume 672.987828
_symmetry_space_group_name_H-M "P -1"
_symmetry_group_IT_number 2
_symmetry_cell_setting 'triclinic'
loop_
_space_group_symop_operation_xyz
x,y,z
-x,-y,-z
loop_
_atom_site_type_symbol
_atom_site_label
_atom_site_fract_x
_atom_site_fract_y
_atom_site_fract_z
Si Si1 0.948892 0.625768 0.872240
Si Si2 0.463426 0.045283 0.632466
Si Si3 0.302028 0.378209 0.565983
Si Si4 0.004182 0.364682 0.603965
Si Si5 0.732642 0.374864 0.150987
Si Si6 0.044053 0.891588 0.661754
Si Si7 0.755216 0.161422 0.890397
Si Si8 0.135321 0.186595 0.975864
O O1 0.180565 0.617696 0.959163
O O2 0.763747 0.671234 0.610215
O O3 0.000000 0.500000 0.000000
O O4 0.852087 0.725329 0.916145
O O5 0.190613 0.115021 0.479732
O O6 0.579309 0.125303 0.718028
O O7 0.500000 0.000000 0.500000
O O8 0.604439 0.925842 0.851068
O O9 0.172861 0.523711 0.429304
O O10 0.582633 0.307482 0.772354
O O11 0.236623 0.360247 0.697910
O O12 0.902806 0.375478 0.377412
O O13 0.062966 0.244471 0.755188
O O14 0.747113 0.245112 0.217365
O O15 0.500000 0.500000 0.000000
O O16 0.000000 0.000000 0.500000
O O17 0.117396 0.915323 0.863484
O O18 0.960732 0.139870 0.916820
#
# Coordination Sequence:
#
# PCOD8021111 Si02
#       8
#     2   2   2   2   2   2   2   2
#     4  11  22  44  69 105 147 193 239 301 365 434
#     4  12  26  49  73 103 147 190 238 307 363 434
#     4  10  22  43  67  99 145 187 233 302 362 425
#     4  10  23  39  69 104 138 187 240 294 367 427
#     4  11  24  46  70 103 147 185 242 304 358 437
#     4  12  29  48  74 111 147 192 250 300 375 443
#     4  12  26  46  75 101 146 196 245 300 367 438
#     4  12  25  43  72 107 144 192 248 294 372 435
#
# _framework density 23.774573
#
# number of rings (size 3 to 8) (size 9 to 14) (size 15 to 20)
#    0.000    0.750    3.750    3.375    3.500    3.000 
#    0.000    0.000    0.000    0.000    0.000    0.000 
#    0.000    0.000    0.000    0.000    0.000    0.000 
#
# Total GULP energy -198219.108607 kJ/mol
# GULP energy per Si atom -12388.694288 kJ/mol
# Density = 2.372046 g / cm^3
# Si number density = 23.774573 Si / 1000 Ang^3
#
#
#
# Elastic Constant Matrix: (Units=GPa)
#
#
# Indices 1 2 3 4 5 6 
#
# 1 57.2959 25.6832 51.7152 -11.2766 -17.0570 7.6835
# 2 25.6832 95.8946 37.5449 -16.1314 6.6105 12.8631
# 3 51.7152 37.5449 137.5675 -20.2907 -2.1310 6.9817
# 4 -11.2766 -16.1314 -20.2907 50.5221 5.3943 4.5306
# 5 -17.0570 6.6105 -2.1310 5.3943 33.3301 -11.0403
# 6 7.6835 12.8631 6.9817 4.5306 -11.0403 37.8993
#
#
#
# Elastic Compliance Matrix: (Units=1/GPa)
#
#
# Indices 1 2 3 4 5 6 
#
# 1 0.037142 -0.007425 -0.012006 -0.001474 0.021120 0.003530
# 2 -0.007425 0.014961 -0.000411 0.004624 -0.009831 -0.006913
# 3 -0.012006 -0.000411 0.012335 0.002998 -0.006395 -0.001920
# 4 -0.001474 0.004624 0.002998 0.023566 -0.007560 -0.006842
# 5 0.021120 -0.009831 -0.006395 -0.007560 0.048647 0.015308
# 6 0.003530 -0.006913 -0.001920 -0.006842 0.015308 0.033647
#
#
# Mechanical properties :
#
#
# Convention : Reuss Voigt Hill
#
# Bulk Modulus (GPa) = 40.39668 57.84941 49.12304
# Shear Modulus (GPa) = 22.91142 36.07128 29.49135
#
# Velocity S-wave (km/s) = 3.10771 3.89938 3.52583
# Velocity P-wave (km/s) = 5.46860 6.68273 6.10592
#
# Compressibility (1/GPa) = 0.02475451
#
# Stress axis : x y z
#
# Youngs Moduli (GPa) = 26.92395 66.84216 81.06849
#
# Poissons Ratio (x) = 0.49627 0.97328
# Poissons Ratio (y) = 0.19990 0.03335
# Poissons Ratio (z) = 0.32324 0.02750
#
# Static dielectric constant tensor:
#      x y z
#    x 3.872220 0.061470 -0.142320 
#    y 0.061470 4.446380 -0.068790 
#    z -0.142320 -0.068790 4.491290 
# 
# 
# High freq. dielectric constant tensor:
#      x y z
#    x 1.911650 -0.005600 0.000490 
#    y -0.005600 1.959230 -0.007160 
#    z 0.000490 -0.007160 1.964390 
# 
# From -- ./inp_files/207183.got.cif
#   From: 2010.06.25/outbox.cif.g09.slc.cpg/sg2_104_cif.got.tgz:207183.got - 2010.06.27 13:26:56.
