data_PCOD8021331
_publ_section_title
;
Structure prediction by ZEFSAII (Michael W. Deem and Ramdas Pophale) SiO2 
 PCOD8021331
Probable space group: P -1
;
_chemical_formula_sum "Si O2"
_cell_formula_units_Z 14
_cell_length_a 25.830667
_cell_length_b 23.513188
_cell_length_c 5.262697
_cell_angle_alpha 59.691905
_cell_angle_beta 61.441302
_cell_angle_gamma 10.590358
_cell_volume 503.884034
_symmetry_space_group_name_H-M "P -1"
_symmetry_group_IT_number 2
_symmetry_cell_setting 'triclinic'
loop_
_space_group_symop_operation_xyz
x,y,z
-x,-y,-z
loop_
_atom_site_type_symbol
_atom_site_label
_atom_site_fract_x
_atom_site_fract_y
_atom_site_fract_z
Si Si1 0.819408 0.131396 0.119597
Si Si2 0.925245 0.776395 0.209328
Si Si3 0.878026 0.346218 0.598515
Si Si4 0.946220 0.136352 0.333084
Si Si5 0.511302 0.910230 0.650678
Si Si6 0.592425 0.045786 0.715442
Si Si7 0.555294 0.250566 0.629420
O O1 0.858639 0.049829 0.475511
O O2 0.500000 0.500000 0.000000
O O3 0.944229 0.950756 0.995304
O O4 0.000000 0.000000 0.000000
O O5 0.058870 0.703518 0.137231
O O6 0.162826 0.468498 0.237951
O O7 0.786999 0.896741 0.521913
O O8 0.674159 0.058930 0.949926
O O9 0.731678 0.575080 0.334261
O O10 0.646716 0.544778 0.601193
O O11 0.175183 0.004594 0.533615
O O12 0.619727 0.510889 0.304785
O O13 0.000000 0.000000 0.500000
O O14 0.380206 0.033403 0.409726
O O15 0.500000 0.000000 0.500000
O O16 0.323135 0.084043 0.929969
#
# Coordination Sequence:
#
# PCOD8021331 Si02
#       7
#     2   2   2   2   2   2   2
#     4  10  22  43  70  94 139 184 233 291 368 445
#     4  11  26  46  76 106 158 200 263 321 386 459
#     4  11  25  45  72 108 147 198 257 317 380 452
#     4  10  25  47  71 109 145 196 246 314 384 462
#     4  11  25  44  73 115 155 203 256 315 384 460
#     4  11  23  45  73 106 155 200 257 313 382 455
#     4  12  26  46  75 108 151 196 261 319 391 460
#
# _framework density 27.784172999999999
#
# number of rings (size 3 to 8) (size 9 to 14) (size 15 to 20)
#    0.000    1.143    2.857    1.714    4.000    5.714 
#    2.571    0.000    0.000    2.571    0.000    0.000 
#    0.000    0.000    0.000    0.000    0.000    0.000 
#
# Total GULP energy -173445.811906 kJ/mol
# GULP energy per Si atom -12388.986565 kJ/mol
# Density = 2.772094 g / cm^3
# Si number density = 27.784173 Si / 1000 Ang^3
#
#
#
# Elastic Constant Matrix: (Units=GPa)
#
#
# Indices 1 2 3 4 5 6 
#
# 1 138.3439 60.6265 29.4374 -3.0573 15.4882 8.3456
# 2 60.6265 157.9911 52.2103 4.0559 15.5639 1.7514
# 3 29.4374 52.2103 182.0529 12.9882 22.3108 -0.1381
# 4 -3.0573 4.0559 12.9882 36.2400 1.4220 1.8538
# 5 15.4882 15.5639 22.3108 1.4220 37.0077 4.1004
# 6 8.3456 1.7514 -0.1381 1.8538 4.1004 54.8172
#
#
#
# Elastic Compliance Matrix: (Units=1/GPa)
#
#
# Indices 1 2 3 4 5 6 
#
# 1 0.009033 -0.003147 -0.000396 0.001400 -0.002143 -0.001163
# 2 -0.003147 0.008211 -0.001665 -0.000559 -0.001146 0.000317
# 3 -0.000396 -0.001665 0.006559 -0.002100 -0.003055 0.000430
# 4 0.001400 -0.000559 -0.002100 0.028589 -0.000054 -0.001163
# 5 -0.002143 -0.001146 -0.003055 -0.000054 0.030457 -0.001921
# 6 -0.001163 0.000317 0.000430 -0.001163 -0.001921 0.018593
#
#
# Mechanical properties :
#
#
# Convention : Reuss Voigt Hill
#
# Bulk Modulus (GPa) = 74.70730 84.77069 79.73900
# Shear Modulus (GPa) = 42.98427 48.02058 45.50242
#
# Velocity S-wave (km/s) = 3.93756 4.16184 4.05125
# Velocity P-wave (km/s) = 6.90067 7.32607 7.11655
#
# Compressibility (1/GPa) = 0.01338557
#
# Stress axis : x y z
#
# Youngs Moduli (GPa) = 110.70701 121.78419 152.45951
#
# Poissons Ratio (x) = 0.38328 0.06039
# Poissons Ratio (y) = 0.34842 0.25391
# Poissons Ratio (z) = 0.04385 0.20282
#
# Static dielectric constant tensor:
#      x y z
#    x 6.796620 0.664220 4.402510 
#    y 0.664220 5.261830 1.206400 
#    z 4.402510 1.206400 15.571860 
# 
# 
# High freq. dielectric constant tensor:
#      x y z
#    x 2.139910 0.014410 0.016570 
#    y 0.014410 2.124140 0.001410 
#    z 0.016570 0.001410 2.129480 
# 
# From -- ./inp_files/127656.got.cif
#   From: 2010.06.25/outbox.cif.g09.slc.cpg/sg2_64_cif.got.tgz:127656.got - 2010.06.27 13:26:56.
