data_PCOD8021454
_publ_section_title
;
Structure prediction by ZEFSAII (Michael W. Deem and Ramdas Pophale) SiO2 
 PCOD8021454
Probable space group: P -1
;
_chemical_formula_sum "Si O2"
_cell_formula_units_Z 12
_cell_length_a 8.571150
_cell_length_b 8.772648
_cell_length_c 12.783416
_cell_angle_alpha 144.261531
_cell_angle_beta 95.350151
_cell_angle_gamma 66.194634
_cell_volume 461.620832
_symmetry_space_group_name_H-M "P -1"
_symmetry_group_IT_number 2
_symmetry_cell_setting 'triclinic'
loop_
_space_group_symop_operation_xyz
x,y,z
-x,-y,-z
loop_
_atom_site_type_symbol
_atom_site_label
_atom_site_fract_x
_atom_site_fract_y
_atom_site_fract_z
Si Si1 0.986804 0.630449 0.900482
Si Si2 0.351881 0.864443 0.226096
Si Si3 0.344658 0.037716 0.101480
Si Si4 0.024729 0.075155 0.722151
Si Si5 0.598066 0.604578 0.274466
Si Si6 0.573316 0.478056 0.605090
O O1 0.989978 0.342229 0.788610
O O2 0.186830 0.522190 0.802182
O O3 0.842765 0.791742 0.885967
O O4 0.932988 0.875644 0.128478
O O5 0.455980 0.905190 0.356630
O O6 0.158641 0.931301 0.296416
O O7 0.300992 0.109492 0.264769
O O8 0.500000 0.500000 0.000000
O O9 0.476425 0.175085 0.162854
O O10 0.445560 0.663439 0.897638
O O11 0.198688 0.746589 0.504298
O O12 0.524423 0.676078 0.428444
O O13 0.500000 0.500000 0.500000
#
# Coordination Sequence:
#
# PCOD8021454 Si02
#       6
#     2   2   2   2   2   2
#     4  11  24  45  78 100 139 187 238 284 342 429
#     4  10  22  43  73 102 135 182 236 282 339 417
#     4  11  24  45  73 102 140 189 236 284 346 414
#     4  11  25  46  70 105 144 183 233 288 355 403
#     4  11  24  47  73 104 139 190 234 280 351 421
#     4  12  29  45  70 105 148 179 236 295 348 411
#
# _framework density 25.995360000000002
#
# number of rings (size 3 to 8) (size 9 to 14) (size 15 to 20)
#    0.000    1.000    3.333    3.000    4.667    6.667 
#    0.000    0.000    0.000    0.000    0.000    0.000 
#    0.000    0.000    0.000    0.000    0.000    0.000 
#
# Total GULP energy -148696.943830 kJ/mol
# GULP energy per Si atom -12391.411986 kJ/mol
# Density = 2.593619 g / cm^3
# Si number density = 25.995360 Si / 1000 Ang^3
#
#
#
# Elastic Constant Matrix: (Units=GPa)
#
#
# Indices 1 2 3 4 5 6 
#
# 1 119.9121 55.0337 1.0279 -6.9768 -13.4477 35.1224
# 2 55.0337 215.5662 19.3380 -38.9863 -1.4624 2.0586
# 3 1.0279 19.3380 40.0229 9.5726 -6.8839 4.5463
# 4 -6.9768 -38.9863 9.5726 39.9391 3.5598 3.4086
# 5 -13.4477 -1.4624 -6.8839 3.5598 43.8231 -7.6302
# 6 35.1224 2.0586 4.5463 3.4086 -7.6302 40.4597
#
#
#
# Elastic Compliance Matrix: (Units=1/GPa)
#
#
# Indices 1 2 3 4 5 6 
#
# 1 0.013728 -0.004026 0.003789 -0.001713 0.002817 -0.011463
# 2 -0.004026 0.007682 -0.006262 0.008258 -0.002163 0.002704
# 3 0.003789 -0.006262 0.032741 -0.013506 0.006446 -0.004296
# 4 -0.001713 0.008258 -0.013506 0.036672 -0.005623 -0.001566
# 5 0.002817 -0.002163 0.006446 -0.005623 0.025467 0.002217
# 6 -0.011463 0.002704 -0.004296 -0.001566 0.002217 0.035562
#
#
# Mechanical properties :
#
#
# Convention : Reuss Voigt Hill
#
# Bulk Modulus (GPa) = 24.29999 58.47782 41.38890
# Shear Modulus (GPa) = 28.00055 44.85115 36.42585
#
# Velocity S-wave (km/s) = 3.28554 4.15824 3.74738
# Velocity P-wave (km/s) = 4.87454 6.75270 5.88898
#
# Compressibility (1/GPa) = 0.04115229
#
# Stress axis : x y z
#
# Youngs Moduli (GPa) = 72.84195 130.18236 30.54240
#
# Poissons Ratio (x) = 0.52410 -0.11572
# Poissons Ratio (y) = 0.29325 0.19127
# Poissons Ratio (z) = -0.27598 0.81525
#
# Static dielectric constant tensor:
#      x y z
#    x 11.063000 -14.233620 -7.565370 
#    y -14.233620 35.717150 17.895950 
#    z -7.565370 17.895950 14.571370 
# 
# 
# High freq. dielectric constant tensor:
#      x y z
#    x 2.052710 0.021430 0.002860 
#    y 0.021430 2.073050 -0.019700 
#    z 0.002860 -0.019700 2.047110 
# 
# From -- ./inp_files/206513.got.cif
#   From: 2010.06.25/outbox.cif.g09.slc.cpg/sg2_104_cif.got.tgz:206513.got - 2010.06.27 13:26:56.
