data_PCOD8021842
_publ_section_title
;
Structure prediction by ZEFSAII (Michael W. Deem and Ramdas Pophale) SiO2 
 PCOD8021842
Probable space group: P -1
;
_chemical_formula_sum "Si O2"
_cell_formula_units_Z 12
_cell_length_a 7.549894
_cell_length_b 11.190371
_cell_length_c 9.479393
_cell_angle_alpha 42.752221
_cell_angle_beta 83.316308
_cell_angle_gamma 75.986579
_cell_volume 525.180260
_symmetry_space_group_name_H-M "P -1"
_symmetry_group_IT_number 2
_symmetry_cell_setting 'triclinic'
loop_
_space_group_symop_operation_xyz
x,y,z
-x,-y,-z
loop_
_atom_site_type_symbol
_atom_site_label
_atom_site_fract_x
_atom_site_fract_y
_atom_site_fract_z
Si Si1 0.520254 0.972894 0.187312
Si Si2 0.369296 0.710693 0.965254
Si Si3 0.122553 0.556316 0.620830
Si Si4 0.919810 0.209737 0.323333
Si Si5 0.754867 0.733166 0.917136
Si Si6 0.279071 0.429651 0.437579
O O1 0.578972 0.764405 0.406576
O O2 0.324631 0.056609 0.211298
O O3 0.500000 0.000000 0.000000
O O4 0.662055 0.093639 0.122343
O O5 0.333172 0.557117 0.205065
O O6 0.240505 0.731130 0.825096
O O7 0.584530 0.650878 0.949179
O O8 0.156064 0.714352 0.583762
O O9 0.271665 0.530196 0.503191
O O10 0.918247 0.612025 0.532056
O O11 0.152703 0.367819 0.864456
O O12 0.093268 0.294386 0.194806
O O13 0.000000 0.000000 0.500000
#
# Coordination Sequence:
#
# PCOD8021842 Si02
#       6
#     2   2   2   2   2   2
#     4  10  22  44  69 108 144 175 240 295 343 424
#     4  10  25  44  77 103 138 191 235 290 360 413
#     4  11  24  44  72 105 145 182 242 292 346 435
#     4  12  26  48  69 105 146 191 234 294 359 419
#     4  10  24  45  69 106 140 180 243 293 337 434
#     4  11  22  46  75 106 141 191 230 297 361 411
#
# _framework density 22.849298999999998
#
# number of rings (size 3 to 8) (size 9 to 14) (size 15 to 20)
#    1.000    0.333    3.333    1.500    0.000    6.667 
#    0.000    3.333    0.000    0.000    0.000    0.000 
#    0.000    0.000    0.000    0.000    0.000    0.000 
#
# Total GULP energy -148742.912867 kJ/mol
# GULP energy per Si atom -12395.242739 kJ/mol
# Density = 2.279729 g / cm^3
# Si number density = 22.849299 Si / 1000 Ang^3
#
#
#
# Elastic Constant Matrix: (Units=GPa)
#
#
# Indices 1 2 3 4 5 6 
#
# 1 64.3794 15.2772 9.4443 5.0017 10.0985 9.0974
# 2 15.2772 140.2002 47.1004 -9.0670 23.7157 20.0954
# 3 9.4443 47.1004 114.6730 -8.2384 22.6906 17.1091
# 4 5.0017 -9.0670 -8.2384 28.7420 -6.6450 2.0392
# 5 10.0985 23.7157 22.6906 -6.6450 23.5800 -12.6763
# 6 9.0974 20.0954 17.1091 2.0392 -12.6763 19.1423
#
#
#
# Elastic Compliance Matrix: (Units=1/GPa)
#
#
# Indices 1 2 3 4 5 6 
#
# 1 0.007950 -0.009561 -0.010137 -0.001583 0.037027 0.040007
# 2 -0.009561 0.001234 -0.011825 0.004179 0.035092 0.036611
# 3 -0.010137 -0.011825 0.000128 0.004414 0.040846 0.043696
# 4 -0.001583 0.004179 0.004414 0.037492 -0.005324 -0.015099
# 5 0.037027 0.035092 0.040846 -0.005324 -0.152380 -0.191285
# 6 0.040007 0.036611 0.043696 -0.015099 -0.191285 -0.169325
#
#
# Mechanical properties :
#
#
# Convention : Reuss Voigt Hill
#
# Bulk Modulus (GPa) = -18.61003 51.43294 16.41145
# Shear Modulus (GPa) = -21.76126 30.78823 4.51349
#
# Velocity S-wave (km/s) = -3.08942 3.67474 1.40699
# Velocity P-wave (km/s) = 4.57038 6.36895 3.13649
#
# Compressibility (1/GPa) = -0.05373445
#
# Stress axis : x y z
#
# Youngs Moduli (GPa) = 125.78005 810.54347 7818.70654
#
# Poissons Ratio (x) = 7.74944 79.25957
# Poissons Ratio (y) = 1.20256 92.45835
# Poissons Ratio (z) = 1.27505 9.58490
#
# Static dielectric constant tensor:
#      x y z
#    x 4.134190 -0.033370 -0.047430 
#    y -0.033370 4.084820 0.138660 
#    z -0.047430 0.138660 4.074120 
# 
# 
# High freq. dielectric constant tensor:
#      x y z
#    x 1.895130 -0.005700 0.013740 
#    y -0.005700 1.912690 -0.003450 
#    z 0.013740 -0.003450 1.907160 
# 
# From -- ./inp_files/167114.got.cif
#   From: 2010.06.25/outbox.cif.g09.slc.cpg/sg2_84_cif.got.tgz:167114.got - 2010.06.27 13:26:56.
