data_PCOD8021744
_publ_section_title
;
Structure prediction by ZEFSAII (Michael W. Deem and Ramdas Pophale) SiO2 
 PCOD8021744
Probable space group: P -1
;
_chemical_formula_sum "Si O2"
_cell_formula_units_Z 16
_cell_length_a 11.818161
_cell_length_b 11.620843
_cell_length_c 9.402138
_cell_angle_alpha 115.450897
_cell_angle_beta 134.205459
_cell_angle_gamma 50.232577
_cell_volume 711.175496
_symmetry_space_group_name_H-M "P -1"
_symmetry_group_IT_number 2
_symmetry_cell_setting 'triclinic'
loop_
_space_group_symop_operation_xyz
x,y,z
-x,-y,-z
loop_
_atom_site_type_symbol
_atom_site_label
_atom_site_fract_x
_atom_site_fract_y
_atom_site_fract_z
Si Si1 0.354424 0.648481 0.375469
Si Si2 0.696520 0.972665 0.123618
Si Si3 0.319221 0.600355 0.993201
Si Si4 0.199350 0.962784 0.460177
Si Si5 0.279021 0.091309 0.354797
Si Si6 0.017963 0.657199 0.183223
Si Si7 0.820450 0.072243 0.047278
Si Si8 0.003981 0.418118 0.192136
O O1 0.500000 0.500000 0.500000
O O2 0.373149 0.606725 0.204663
O O3 0.373597 0.793624 0.487641
O O4 0.170257 0.702911 0.338328
O O5 0.814004 0.802000 0.084491
O O6 0.802344 0.001570 0.357339
O O7 0.665091 0.084784 0.026059
O O8 0.500000 0.000000 0.000000
O O9 0.500000 0.500000 0.000000
O O10 0.210337 0.767650 0.926817
O O11 0.169806 0.546219 0.837426
O O12 0.225245 0.086060 0.467371
O O13 0.013929 0.971418 0.246136
O O14 0.189596 0.262715 0.317138
O O15 0.500000 0.000000 0.500000
O O16 0.186860 0.012560 0.144692
O O17 0.046026 0.552332 0.291468
O O18 0.055144 0.577853 0.020383
#
# Coordination Sequence:
#
# PCOD8021744 Si02
#       8
#     2   2   2   2   2   2   2   2
#     4  11  25  43  68 100 136 182 233 282 342 413
#     4  12  27  43  68 106 142 179 229 288 344 408
#     4  11  25  43  70 102 134 182 232 288 342 404
#     4  12  25  44  72 101 135 182 233 285 341 404
#     4  12  24  43  72 101 134 180 229 280 345 411
#     4  10  23  42  68  96 139 180 225 275 348 407
#     4  12  23  47  71  96 138 180 236 286 335 412
#     4  10  22  44  67  97 136 181 222 281 343 411
#
# _framework density 22.497962000000001
#
# number of rings (size 3 to 8) (size 9 to 14) (size 15 to 20)
#    0.000    0.750    5.000    2.250    5.250    1.000 
#    0.000    0.625    0.000    0.000    0.000    0.000 
#    0.000    0.000    0.000    0.000    0.000    0.000 
#
# Total GULP energy -198256.732984 kJ/mol
# GULP energy per Si atom -12391.045811 kJ/mol
# Density = 2.244676 g / cm^3
# Si number density = 22.497962 Si / 1000 Ang^3
#
#
#
# Elastic Constant Matrix: (Units=GPa)
#
#
# Indices 1 2 3 4 5 6 
#
# 1 146.5560 57.0495 14.3396 -14.8145 -9.1801 2.7889
# 2 57.0495 105.8981 27.6009 -25.3701 -11.7794 10.7243
# 3 14.3396 27.6009 57.2360 -8.8218 -3.0125 -1.2806
# 4 -14.8145 -25.3701 -8.8218 37.5516 -1.5966 -6.3541
# 5 -9.1801 -11.7794 -3.0125 -1.5966 36.2026 -10.6052
# 6 2.7889 10.7243 -1.2806 -6.3541 -10.6052 44.2816
#
#
#
# Elastic Compliance Matrix: (Units=1/GPa)
#
#
# Indices 1 2 3 4 5 6 
#
# 1 0.008688 -0.004568 0.000189 0.000580 0.001020 0.000892
# 2 -0.004568 0.015530 -0.005082 0.007333 0.003273 -0.001784
# 3 0.000189 -0.005082 0.020249 0.001816 0.000822 0.002262
# 4 0.000580 0.007333 0.001816 0.033197 0.005408 0.004299
# 5 0.001020 0.003273 0.000822 0.005408 0.031442 0.007473
# 6 0.000892 -0.001784 0.002262 0.004299 0.007473 0.025431
#
#
# Mechanical properties :
#
#
# Convention : Reuss Voigt Hill
#
# Bulk Modulus (GPa) = 39.14583 56.40777 47.77680
# Shear Modulus (GPa) = 30.86923 37.65384 34.26153
#
# Velocity S-wave (km/s) = 3.70819 4.09547 3.90663
# Velocity P-wave (km/s) = 5.98095 6.89135 6.45223
#
# Compressibility (1/GPa) = 0.02554551
#
# Stress axis : x y z
#
# Youngs Moduli (GPa) = 115.09476 64.39156 49.38618
#
# Poissons Ratio (x) = 0.29413 -0.00934
# Poissons Ratio (y) = 0.52573 0.25098
# Poissons Ratio (z) = -0.02176 0.32724
#
# Static dielectric constant tensor:
#      x y z
#    x 4.965550 0.335870 -0.221920 
#    y 0.335870 3.940030 -0.067350 
#    z -0.221920 -0.067350 3.899680 
# 
# 
# High freq. dielectric constant tensor:
#      x y z
#    x 1.910220 0.018220 -0.007150 
#    y 0.018220 1.885960 -0.017900 
#    z -0.007150 -0.017900 1.865040 
# 
# From -- ./inp_files/262839.got.cif
#   From: 2010.06.25/outbox.cif.g09.slc.cpg/sg2_132_cif.got.tgz:262839.got - 2010.06.27 13:26:56.
