data_PCOD8021046
_publ_section_title
;
Structure prediction by ZEFSAII (Michael W. Deem and Ramdas Pophale) SiO2 
 PCOD8021046
Probable space group: P -1
;
_chemical_formula_sum "Si O2"
_cell_formula_units_Z 16
_cell_length_a 9.376519
_cell_length_b 15.154192
_cell_length_c 9.214707
_cell_angle_alpha 99.912011
_cell_angle_beta 126.826991
_cell_angle_gamma 114.162299
_cell_volume 784.602148
_symmetry_space_group_name_H-M "P -1"
_symmetry_group_IT_number 2
_symmetry_cell_setting 'triclinic'
loop_
_space_group_symop_operation_xyz
x,y,z
-x,-y,-z
loop_
_atom_site_type_symbol
_atom_site_label
_atom_site_fract_x
_atom_site_fract_y
_atom_site_fract_z
Si Si1 0.534225 0.465109 0.309103
Si Si2 0.521131 0.312506 0.040807
Si Si3 0.168157 0.869293 0.872266
Si Si4 0.009294 0.469202 0.253178
Si Si5 0.762275 0.701122 0.374004
Si Si6 0.024626 0.308762 0.038370
Si Si7 0.489695 0.864055 0.854054
Si Si8 0.080924 0.699236 0.347222
O O1 0.750256 0.484044 0.516050
O O2 0.594041 0.586672 0.339990
O O3 0.306947 0.391993 0.253776
O O4 0.465154 0.389737 0.100053
O O5 0.391692 0.273979 0.795019
O O6 0.415834 0.199533 0.044969
O O7 0.800063 0.387409 0.218324
O O8 0.346174 0.862456 0.896090
O O9 0.943173 0.813371 0.618027
O O10 0.098357 0.802017 0.962337
O O11 0.287931 0.003463 0.017226
O O12 0.953683 0.387405 0.058944
O O13 0.024194 0.576995 0.248174
O O14 0.893661 0.677871 0.337611
O O15 0.937917 0.258832 0.808568
O O16 0.338847 0.798474 0.598170
#
# Coordination Sequence:
#
# PCOD8021046 Si02
#       8
#     2   2   2   2   2   2   2   2
#     4  12  22  39  63  93 129 162 195 252 315 366
#     4  12  21  39  67  91 120 164 212 244 297 376
#     4  10  23  43  64  88 122 160 213 255 302 352
#     4  12  22  38  63  95 126 161 202 245 307 377
#     4  11  22  39  64  92 125 167 197 249 306 371
#     4  12  24  40  60  97 130 156 195 260 316 354
#     4  10  22  43  67  87 114 169 215 250 291 369
#     4  11  22  39  64  92 126 161 202 248 310 365
#
# _framework density 20.392499999999998
#
# number of rings (size 3 to 8) (size 9 to 14) (size 15 to 20)
#    0.000    0.750    6.250    3.000    0.000    1.000 
#    0.000    0.625    0.000    0.000    0.000    0.000 
#    0.000    0.000    0.000    0.000    0.000    0.000 
#
# Total GULP energy -198447.442718 kJ/mol
# GULP energy per Si atom -12402.965170 kJ/mol
# Density = 2.034609 g / cm^3
# Si number density = 20.392500 Si / 1000 Ang^3
#
#
#
# Elastic Constant Matrix: (Units=GPa)
#
#
# Indices 1 2 3 4 5 6 
#
# 1 62.5864 34.1200 15.5418 10.3219 3.7046 11.1060
# 2 34.1200 132.6115 73.6217 10.1991 12.1100 18.3866
# 3 15.5418 73.6217 95.3900 1.9825 9.7444 5.1213
# 4 10.3219 10.1991 1.9825 39.6960 -2.7575 -0.3956
# 5 3.7046 12.1100 9.7444 -2.7575 24.4380 -5.2814
# 6 11.1060 18.3866 5.1213 -0.3956 -5.2814 27.1005
#
#
#
# Elastic Compliance Matrix: (Units=1/GPa)
#
#
# Indices 1 2 3 4 5 6 
#
# 1 0.020048 -0.003939 0.000532 -0.004511 -0.003176 -0.006329
# 2 -0.003939 0.016700 -0.011154 -0.003177 -0.005474 -0.008721
# 3 0.000532 -0.011154 0.018890 0.001743 -0.001114 0.003588
# 4 -0.004511 -0.003177 0.001743 0.027548 0.005797 0.005207
# 5 -0.003176 -0.005474 -0.001114 0.005797 0.048398 0.014743
# 6 -0.006329 -0.008721 0.003588 0.005207 0.014743 0.047682
#
#
# Mechanical properties :
#
#
# Convention : Reuss Voigt Hill
#
# Bulk Modulus (GPa) = 37.71297 59.68387 48.69842
# Shear Modulus (GPa) = 23.01738 29.40050 26.20894
#
# Velocity S-wave (km/s) = 3.36328 3.80113 3.58889
# Velocity P-wave (km/s) = 5.79793 6.97108 6.41139
#
# Compressibility (1/GPa) = 0.02651607
#
# Stress axis : x y z
#
# Youngs Moduli (GPa) = 49.87952 59.88055 52.93814
#
# Poissons Ratio (x) = 0.23586 -0.02814
# Poissons Ratio (y) = 0.19647 0.59046
# Poissons Ratio (z) = -0.02651 0.66789
#
# Static dielectric constant tensor:
#      x y z
#    x 3.727380 0.004740 -0.048750 
#    y 0.004740 3.594860 0.051370 
#    z -0.048750 0.051370 3.829330 
# 
# 
# High freq. dielectric constant tensor:
#      x y z
#    x 1.787390 0.002960 -0.000300 
#    y 0.002960 1.787650 -0.007960 
#    z -0.000300 -0.007960 1.802850 
# 
# From -- ./inp_files/179420.got.cif
#   From: 2010.06.25/outbox.cif.g09.slc.cpg/sg2_90_cif.got.tgz:179420.got - 2010.06.27 13:26:56.
