data_PCOD8021450
_publ_section_title
;
Structure prediction by ZEFSAII (Michael W. Deem and Ramdas Pophale) SiO2 
 PCOD8021450
Probable space group: P -1
;
_chemical_formula_sum "Si O2"
_cell_formula_units_Z 16
_cell_length_a 21.601761
_cell_length_b 9.672880
_cell_length_c 18.633025
_cell_angle_alpha 141.683536
_cell_angle_beta 161.538884
_cell_angle_gamma 37.049148
_cell_volume 735.027563
_symmetry_space_group_name_H-M "P -1"
_symmetry_group_IT_number 2
_symmetry_cell_setting 'triclinic'
loop_
_space_group_symop_operation_xyz
x,y,z
-x,-y,-z
loop_
_atom_site_type_symbol
_atom_site_label
_atom_site_fract_x
_atom_site_fract_y
_atom_site_fract_z
Si Si1 0.405760 0.495354 0.316433
Si Si2 0.009956 0.566662 0.120124
Si Si3 0.998537 0.436057 0.389798
Si Si4 0.606980 0.814655 0.600666
Si Si5 0.438724 0.269601 0.823207
Si Si6 0.460277 0.903483 0.808476
Si Si7 0.801417 0.032941 0.028508
Si Si8 0.172540 0.095926 0.692609
O O1 0.500000 0.500000 0.500000
O O2 0.417893 0.736332 0.392931
O O3 0.542429 0.284747 0.332691
O O4 0.174499 0.487602 0.061219
O O5 0.220070 0.422134 0.330870
O O6 0.000000 0.500000 0.000000
O O7 0.976938 0.847451 0.192142
O O8 0.228638 0.323070 0.569947
O O9 0.000000 0.500000 0.500000
O O10 0.916811 0.657640 0.341585
O O11 0.869135 0.252027 0.164474
O O12 0.500000 0.000000 0.500000
O O13 0.729632 0.927307 0.836446
O O14 0.610027 0.093810 0.895105
O O15 0.404959 0.158531 0.816744
O O16 0.500000 0.500000 0.000000
O O17 0.296327 0.908981 0.693906
O O18 0.684049 0.854494 0.067452
O O19 0.000000 0.000000 0.500000
#
# Coordination Sequence:
#
# PCOD8021450 Si02
#       8
#     2   2   2   2   2   2   2   2
#     4  12  23  46  75 105 137 188 243 289 356 425
#     4  10  22  43  73 100 134 181 238 285 348 428
#     4  12  25  42  70 103 138 180 238 288 345 423
#     4  11  27  46  69 104 142 181 234 297 358 422
#     4  12  22  42  70 103 136 180 234 287 344 415
#     4  11  25  42  73 100 141 184 235 292 347 429
#     4  11  24  43  69 101 142 182 232 290 350 418
#     4  11  26  48  66 103 145 189 232 289 363 416
#
# _framework density 21.767892
#
# number of rings (size 3 to 8) (size 9 to 14) (size 15 to 20)
#    0.000    0.750    6.250    0.750    3.500    4.500 
#    2.250    0.000    0.000    0.000    0.000    0.000 
#    0.000    0.000    0.000    0.000    0.000    0.000 
#
# Total GULP energy -198322.593698 kJ/mol
# GULP energy per Si atom -12395.162106 kJ/mol
# Density = 2.171835 g / cm^3
# Si number density = 21.767892 Si / 1000 Ang^3
#
#
#
# Elastic Constant Matrix: (Units=GPa)
#
#
# Indices 1 2 3 4 5 6 
#
# 1 104.0558 57.9860 52.6981 7.2843 12.8755 1.9481
# 2 57.9860 152.8270 63.1106 -8.2870 2.6243 25.3660
# 3 52.6981 63.1106 94.9240 -1.4176 16.0988 15.0021
# 4 7.2843 -8.2870 -1.4176 50.1883 4.3875 5.3155
# 5 12.8755 2.6243 16.0988 4.3875 44.3544 4.1122
# 6 1.9481 25.3660 15.0021 5.3155 4.1122 48.4188
#
#
#
# Elastic Compliance Matrix: (Units=1/GPa)
#
#
# Indices 1 2 3 4 5 6 
#
# 1 0.015441 -0.004120 -0.006167 -0.003340 -0.002039 0.003988
# 2 -0.004120 0.010851 -0.004570 0.002537 0.002386 -0.004584
# 3 -0.006167 -0.004570 0.018204 0.001335 -0.004422 -0.002769
# 4 -0.003340 0.002537 0.001335 0.021397 -0.001426 -0.003836
# 5 -0.002039 0.002386 -0.004422 -0.001426 0.024905 -0.001757
# 6 0.003988 -0.004584 -0.002769 -0.003836 -0.001757 0.024323
#
#
# Mechanical properties :
#
#
# Convention : Reuss Voigt Hill
#
# Bulk Modulus (GPa) = 67.64595 77.71068 72.67832
# Shear Modulus (GPa) = 33.38617 40.45978 36.92298
#
# Velocity S-wave (km/s) = 3.92054 4.31593 4.12298
# Velocity P-wave (km/s) = 7.18594 7.78547 7.49170
#
# Compressibility (1/GPa) = 0.01478285
#
# Stress axis : x y z
#
# Youngs Moduli (GPa) = 64.76315 92.15746 54.93218
#
# Poissons Ratio (x) = 0.37966 0.33879
# Poissons Ratio (y) = 0.26681 0.25101
# Poissons Ratio (z) = 0.39942 0.42112
#
# Static dielectric constant tensor:
#      x y z
#    x 3.350340 0.712640 -1.590010 
#    y 0.712640 3.478400 2.044140 
#    z -1.590010 2.044140 -0.411850 
# 
# 
# High freq. dielectric constant tensor:
#      x y z
#    x 1.851580 -0.001350 0.019090 
#    y -0.001350 1.869920 0.001830 
#    z 0.019090 0.001830 1.859600 
# 
# From -- ./inp_files/400013.got.cif
#   From: 2010.06.25/outbox.cif.g09.slc.cpg/sg2_201_cif.got.tgz:400013.got - 2010.06.27 13:26:56.
