data_PCOD8021061
_publ_section_title
;
Structure prediction by ZEFSAII (Michael W. Deem and Ramdas Pophale) SiO2 
 PCOD8021061
Probable space group: P -1
;
_chemical_formula_sum "Si O2"
_cell_formula_units_Z 16
_cell_length_a 8.823407
_cell_length_b 23.376346
_cell_length_c 11.511530
_cell_angle_alpha 29.491596
_cell_angle_beta 39.383120
_cell_angle_gamma 50.240162
_cell_volume 737.460286
_symmetry_space_group_name_H-M "P -1"
_symmetry_group_IT_number 2
_symmetry_cell_setting 'triclinic'
loop_
_space_group_symop_operation_xyz
x,y,z
-x,-y,-z
loop_
_atom_site_type_symbol
_atom_site_label
_atom_site_fract_x
_atom_site_fract_y
_atom_site_fract_z
Si Si1 0.759265 0.134475 0.565549
Si Si2 0.433231 0.976733 0.898874
Si Si3 0.624582 0.491415 0.318951
Si Si4 0.538928 0.677949 0.662135
Si Si5 0.802125 0.739043 0.809520
Si Si6 0.859072 0.836208 0.356089
Si Si7 0.355137 0.761942 0.180714
Si Si8 0.268777 0.496163 0.304388
O O1 0.575224 0.230981 0.512697
O O2 0.025412 0.205570 0.286342
O O3 0.687471 0.058552 0.624658
O O4 0.711725 0.045303 0.856916
O O5 0.239475 0.038862 0.827087
O O6 0.495598 0.856221 0.017931
O O7 0.500000 0.500000 0.500000
O O8 0.717775 0.362153 0.489415
O O9 0.447795 0.506846 0.288914
O O10 0.833378 0.602256 0.000995
O O11 0.682282 0.734774 0.584827
O O12 0.713693 0.622543 0.566637
O O13 0.330718 0.593197 0.997231
O O14 0.872269 0.819092 0.516254
O O15 0.525721 0.745735 0.998309
O O16 0.119802 0.819866 0.175916
O O17 0.000000 0.500000 0.500000
#
# Coordination Sequence:
#
# PCOD8021061 Si02
#       8
#     2   2   2   2   2   2   2   2
#     4  10  22  43  67  93 133 170 221 278 316 402
#     4  10  22  44  67  94 130 173 222 271 335 375
#     4  10  24  42  64 101 135 169 217 267 331 392
#     4  10  24  41  64  96 129 181 218 260 342 383
#     4  11  24  41  67  98 130 171 222 270 328 391
#     4  11  23  43  66  94 133 172 217 278 321 396
#     4  11  24  40  69  95 132 172 218 268 334 384
#     4  11  24  40  65  95 137 173 222 271 321 399
#
# _framework density 21.696083999999999
#
# number of rings (size 3 to 8) (size 9 to 14) (size 15 to 20)
#    0.000    1.500    2.500    1.125    7.000    2.500 
#    0.000    0.000    0.000    0.000    0.000    0.000 
#    0.000    0.000    0.000    0.000    0.000    0.000 
#
# Total GULP energy -198244.909904 kJ/mol
# GULP energy per Si atom -12390.306869 kJ/mol
# Density = 2.164670 g / cm^3
# Si number density = 21.696084 Si / 1000 Ang^3
#
#
#
# Elastic Constant Matrix: (Units=GPa)
#
#
# Indices 1 2 3 4 5 6 
#
# 1 93.7566 25.7977 32.6685 -13.5458 -4.4796 -8.7256
# 2 25.7977 105.6745 49.6759 -15.4903 -3.5802 -1.3147
# 3 32.6685 49.6759 80.4964 -19.5058 -4.9906 -15.4847
# 4 -13.5458 -15.4903 -19.5058 45.3410 -1.2942 -1.2311
# 5 -4.4796 -3.5802 -4.9906 -1.2942 32.5792 4.4575
# 6 -8.7256 -1.3147 -15.4847 -1.2311 4.4575 19.1216
#
#
#
# Elastic Compliance Matrix: (Units=1/GPa)
#
#
# Indices 1 2 3 4 5 6 
#
# 1 0.012767 -0.001189 -0.003314 0.002087 0.000788 0.003011
# 2 -0.001189 0.014271 -0.009689 0.000173 0.000970 -0.007622
# 3 -0.003314 -0.009689 0.024994 0.006956 0.000054 0.018497
# 4 0.002087 0.000173 0.006956 0.025984 0.001314 0.007964
# 5 0.000788 0.000970 0.000054 0.001314 0.031912 -0.006885
# 6 0.003011 -0.007622 0.018497 0.007964 -0.006885 0.070244
#
#
# Mechanical properties :
#
#
# Convention : Reuss Voigt Hill
#
# Bulk Modulus (GPa) = 42.28458 55.13466 48.70962
# Shear Modulus (GPa) = 23.10132 30.86071 26.98101
#
# Velocity S-wave (km/s) = 3.26662 3.77558 3.53028
# Velocity P-wave (km/s) = 5.81030 6.66889 6.25434
#
# Compressibility (1/GPa) = 0.02364928
#
# Stress axis : x y z
#
# Youngs Moduli (GPa) = 78.32608 70.07135 40.00951
#
# Poissons Ratio (x) = 0.08331 0.13259
# Poissons Ratio (y) = 0.09312 0.38764
# Poissons Ratio (z) = 0.25957 0.67890
#
# Static dielectric constant tensor:
#      x y z
#    x 3.967030 0.060890 -0.155350 
#    y 0.060890 3.811700 -0.465290 
#    z -0.155350 -0.465290 4.144340 
# 
# 
# High freq. dielectric constant tensor:
#      x y z
#    x 1.858840 0.009360 -0.007420 
#    y 0.009360 1.840670 -0.028140 
#    z -0.007420 -0.028140 1.858250 
# 
# From -- ./inp_files/406466.got.cif
#   From: 2010.06.25/outbox.cif.g09.slc.cpg/sg2_204_cif.got.tgz:406466.got - 2010.06.27 13:26:56.
