data_PCOD8021178
_publ_section_title
;
Structure prediction by ZEFSAII (Michael W. Deem and Ramdas Pophale) SiO2 
 PCOD8021178
Probable space group: P -1
;
_chemical_formula_sum "Si O2"
_cell_formula_units_Z 16
_cell_length_a 12.930049
_cell_length_b 9.707697
_cell_length_c 14.856147
_cell_angle_alpha 113.737011
_cell_angle_beta 39.235778
_cell_angle_gamma 136.460116
_cell_volume 756.520580
_symmetry_space_group_name_H-M "P -1"
_symmetry_group_IT_number 2
_symmetry_cell_setting 'triclinic'
loop_
_space_group_symop_operation_xyz
x,y,z
-x,-y,-z
loop_
_atom_site_type_symbol
_atom_site_label
_atom_site_fract_x
_atom_site_fract_y
_atom_site_fract_z
Si Si1 0.313974 0.756790 0.038261
Si Si2 0.735238 0.793470 0.156537
Si Si3 0.432309 0.983007 0.674148
Si Si4 0.527030 0.535218 0.598149
Si Si5 0.674994 0.552624 0.967495
Si Si6 0.001099 0.321386 0.640076
Si Si7 0.127318 0.725083 0.654519
Si Si8 0.545966 0.881817 0.738949
O O1 0.367592 0.649911 0.037181
O O2 0.070554 0.676572 0.208744
O O3 0.337584 0.727440 0.911199
O O4 0.500000 0.000000 0.000000
O O5 0.590944 0.852608 0.272450
O O6 0.690891 0.679608 0.253442
O O7 0.632163 0.617629 0.103809
O O8 0.000000 0.000000 0.000000
O O9 0.670856 0.079355 0.493643
O O10 0.222589 0.765492 0.703706
O O11 0.440908 0.939212 0.759588
O O12 0.500000 0.500000 0.500000
O O13 0.762419 0.615875 0.499224
O O14 0.565117 0.736526 0.638740
O O15 0.932659 0.728792 0.794803
O O16 0.500000 0.500000 0.000000
O O17 0.041027 0.509452 0.613951
O O18 0.797082 0.095615 0.666751
#
# Coordination Sequence:
#
# PCOD8021178 Si02
#       8
#     2   2   2   2   2   2   2   2
#     4   9  21  43  63  96 135 167 220 274 339 406
#     4  12  26  47  68 103 137 180 238 285 335 421
#     4  11  24  42  69  94 138 178 228 275 344 409
#     4  12  26  47  68 100 142 184 229 287 349 407
#     4  11  24  43  70  97 134 177 224 284 342 403
#     4  10  22  43  68  96 135 175 224 286 337 414
#     4  10  22  44  65  97 133 177 226 279 334 413
#     4  11  24  42  70 101 132 178 227 286 348 409
#
# _framework density 21.149457000000002
#
# number of rings (size 3 to 8) (size 9 to 14) (size 15 to 20)
#    0.000    1.250    3.750    1.125    7.000    2.500 
#    6.750    2.500    0.000    0.000    0.000    0.000 
#    0.000    0.000    0.000    0.000    0.000    0.000 
#
# Total GULP energy -198234.325808 kJ/mol
# GULP energy per Si atom -12389.645363 kJ/mol
# Density = 2.110132 g / cm^3
# Si number density = 21.149457 Si / 1000 Ang^3
#
#
#
# Elastic Constant Matrix: (Units=GPa)
#
#
# Indices 1 2 3 4 5 6 
#
# 1 111.7386 27.8675 52.9973 -4.8561 12.4097 -1.3471
# 2 27.8675 108.4932 33.4328 13.6791 5.0559 0.0972
# 3 52.9973 33.4328 120.4650 -1.0908 3.2324 5.0939
# 4 -4.8561 13.6791 -1.0908 39.4086 2.4682 -0.5735
# 5 12.4097 5.0559 3.2324 2.4682 28.0040 1.7291
# 6 -1.3471 0.0972 5.0939 -0.5735 1.7291 27.4358
#
#
#
# Elastic Compliance Matrix: (Units=1/GPa)
#
#
# Indices 1 2 3 4 5 6 
#
# 1 0.012371 -0.001738 -0.004887 0.002328 -0.004926 0.001880
# 2 -0.001738 0.010905 -0.002293 -0.004022 -0.000595 0.000255
# 3 -0.004887 -0.002293 0.011154 0.000380 0.001406 -0.002383
# 4 0.002328 -0.004022 0.000380 0.027256 -0.002801 0.000804
# 5 -0.004926 -0.000595 0.001406 -0.002801 0.038268 -0.002971
# 6 0.001880 0.000255 -0.002383 0.000804 -0.002971 0.037187
#
#
# Mechanical properties :
#
#
# Convention : Reuss Voigt Hill
#
# Bulk Modulus (GPa) = 60.25838 63.25468 61.75653
# Shear Modulus (GPa) = 31.15132 34.06297 32.60715
#
# Velocity S-wave (km/s) = 3.84202 4.01756 3.93077
# Velocity P-wave (km/s) = 6.94514 7.17596 7.06150
#
# Compressibility (1/GPa) = 0.01659520
#
# Stress axis : x y z
#
# Youngs Moduli (GPa) = 80.83123 91.70331 89.65417
#
# Poissons Ratio (x) = 0.15934 0.43811
# Poissons Ratio (y) = 0.14045 0.20560
# Poissons Ratio (z) = 0.39500 0.21030
#
# Static dielectric constant tensor:
#      x y z
#    x 3.764790 -0.427180 1.036960 
#    y -0.427180 4.387210 -1.176090 
#    z 1.036960 -1.176090 7.597790 
# 
# 
# High freq. dielectric constant tensor:
#      x y z
#    x 1.800560 -0.004050 0.005180 
#    y -0.004050 1.844810 0.006980 
#    z 0.005180 0.006980 1.852350 
# 
# From -- ./inp_files/314477.got.cif
#   From: 2010.06.25/outbox.cif.g09.slc.cpg/sg2_158_cif.got.tgz:314477.got - 2010.06.27 13:26:56.
