data_PCOD8021892
_publ_section_title
;
Structure prediction by ZEFSAII (Michael W. Deem and Ramdas Pophale) SiO2 
 PCOD8021892
Probable space group: P -1
;
_chemical_formula_sum "Si O2"
_cell_formula_units_Z 16
_cell_length_a 18.463580
_cell_length_b 21.385465
_cell_length_c 9.739744
_cell_angle_alpha 140.024493
_cell_angle_beta 141.766135
_cell_angle_gamma 17.689571
_cell_volume 719.887940
_symmetry_space_group_name_H-M "P -1"
_symmetry_group_IT_number 2
_symmetry_cell_setting 'triclinic'
loop_
_space_group_symop_operation_xyz
x,y,z
-x,-y,-z
loop_
_atom_site_type_symbol
_atom_site_label
_atom_site_fract_x
_atom_site_fract_y
_atom_site_fract_z
Si Si1 0.685478 0.341420 0.388093
Si Si2 0.611915 0.027864 0.552704
Si Si3 0.831608 0.931793 0.218321
Si Si4 0.177784 0.977446 0.933326
Si Si5 0.071399 0.339311 0.237868
Si Si6 0.003968 0.586379 0.450647
Si Si7 0.615002 0.362841 0.812236
Si Si8 0.529217 0.206825 0.469032
O O1 0.500000 0.500000 0.500000
O O2 0.579226 0.476352 0.327376
O O3 0.955157 0.183839 0.560279
O O4 0.705980 0.211178 0.167958
O O5 0.333847 0.193160 0.427223
O O6 0.660842 0.056276 0.538708
O O7 0.780207 0.808644 0.423614
O O8 0.672530 0.046709 0.809089
O O9 0.786268 0.037615 0.202059
O O10 0.585937 0.107036 0.243508
O O11 0.907095 0.770507 0.007404
O O12 0.887623 0.203705 0.916832
O O13 0.931000 0.525347 0.252906
O O14 0.931543 0.419553 0.308952
O O15 0.235903 0.429444 0.430894
O O16 0.647841 0.225690 0.662589
O O17 0.500000 0.500000 0.000000
#
# Coordination Sequence:
#
# PCOD8021892 Si02
#       8
#     2   2   2   2   2   2   2   2
#     4  12  26  45  69  99 138 189 227 277 356 411
#     4  11  24  45  76 102 132 183 237 284 342 401
#     4  12  25  47  68 101 150 181 221 289 349 418
#     4  12  25  45  71 103 140 183 236 284 335 420
#     4  10  24  46  73 101 136 180 236 286 335 413
#     4  10  22  44  70 101 132 179 239 285 329 411
#     4  12  26  44  70 103 139 185 233 286 339 410
#     4  11  26  43  68 103 145 172 229 290 345 410
#
# _framework density 22.225681000000002
#
# number of rings (size 3 to 8) (size 9 to 14) (size 15 to 20)
#    0.000    0.750    3.750    3.000    3.500    7.000 
#    2.250    1.250    0.000    0.000    0.000    0.000 
#    0.000    0.000    0.000    0.000    0.000    0.000 
#
# Total GULP energy -198447.993099 kJ/mol
# GULP energy per Si atom -12402.999569 kJ/mol
# Density = 2.217509 g / cm^3
# Si number density = 22.225681 Si / 1000 Ang^3
#
#
#
# Elastic Constant Matrix: (Units=GPa)
#
#
# Indices 1 2 3 4 5 6 
#
# 1 116.7468 49.2464 25.7584 7.9089 -17.4531 5.3235
# 2 49.2464 102.5218 20.8366 20.6729 -2.5256 15.2141
# 3 25.7584 20.8366 72.8381 28.0467 0.8483 1.6833
# 4 7.9089 20.6729 28.0467 43.6725 -1.7549 -4.5681
# 5 -17.4531 -2.5256 0.8483 -1.7549 43.1435 14.5256
# 6 5.3235 15.2141 1.6833 -4.5681 14.5256 49.0040
#
#
#
# Elastic Compliance Matrix: (Units=1/GPa)
#
#
# Indices 1 2 3 4 5 6 
#
# 1 0.012371 -0.005511 -0.004030 0.003086 0.005132 -0.000728
# 2 -0.005511 0.014269 0.000488 -0.006538 -0.000188 -0.004402
# 3 -0.004030 0.000488 0.019847 -0.012430 -0.002193 -0.000904
# 4 0.003086 -0.006538 -0.012430 0.033977 0.000790 0.005055
# 5 0.005132 -0.000188 -0.002193 0.000790 0.028256 -0.008726
# 6 -0.000728 -0.004402 -0.000904 0.005055 -0.008726 0.024941
#
#
# Mechanical properties :
#
#
# Convention : Reuss Voigt Hill
#
# Bulk Modulus (GPa) = 35.23333 53.75437 44.49385
# Shear Modulus (GPa) = 31.01239 40.24838 35.63039
#
# Velocity S-wave (km/s) = 3.73948 4.26008 4.00824
# Velocity P-wave (km/s) = 5.87638 6.95959 6.44080
#
# Compressibility (1/GPa) = 0.02838222
#
# Stress axis : x y z
#
# Youngs Moduli (GPa) = 80.83706 70.08189 50.38541
#
# Poissons Ratio (x) = 0.38623 0.20303
# Poissons Ratio (y) = 0.44551 -0.02461
# Poissons Ratio (z) = 0.32573 -0.03423
#
# Static dielectric constant tensor:
#      x y z
#    x 4.240270 0.107800 0.052470 
#    y 0.107800 4.062660 0.180880 
#    z 0.052470 0.180880 3.735590 
# 
# 
# High freq. dielectric constant tensor:
#      x y z
#    x 1.889750 0.003610 -0.000940 
#    y 0.003610 1.889510 0.022950 
#    z -0.000940 0.022950 1.865900 
# 
# From -- ./inp_files/338203.got.cif
#   From: 2010.06.25/outbox.cif.g09.slc.cpg/sg2_170_cif.got.tgz:338203.got - 2010.06.27 13:26:56.
