data_PCOD8021209
_publ_section_title
;
Structure prediction by ZEFSAII (Michael W. Deem and Ramdas Pophale) SiO2 
 PCOD8021209
Probable space group: P -1
;
_chemical_formula_sum "Si O2"
_cell_formula_units_Z 16
_cell_length_a 11.856543
_cell_length_b 9.927056
_cell_length_c 12.276486
_cell_angle_alpha 49.541089
_cell_angle_beta 131.550320
_cell_angle_gamma 130.712287
_cell_volume 757.756409
_symmetry_space_group_name_H-M "P -1"
_symmetry_group_IT_number 2
_symmetry_cell_setting 'triclinic'
loop_
_space_group_symop_operation_xyz
x,y,z
-x,-y,-z
loop_
_atom_site_type_symbol
_atom_site_label
_atom_site_fract_x
_atom_site_fract_y
_atom_site_fract_z
Si Si1 0.661240 0.966453 0.644556
Si Si2 0.372996 0.006213 0.822967
Si Si3 0.301925 0.253387 0.800772
Si Si4 0.470267 0.425524 0.341557
Si Si5 0.965026 0.283481 0.565672
Si Si6 0.278591 0.555441 0.322252
Si Si7 0.645393 0.029440 0.844857
Si Si8 0.963708 0.192345 0.369352
O O1 0.664884 0.938964 0.790915
O O2 0.820204 0.149133 0.618998
O O3 0.500000 0.000000 0.500000
O O4 0.657437 0.781624 0.671990
O O5 0.195883 0.829206 0.794779
O O6 0.319666 0.183481 0.724783
O O7 0.463590 0.030914 0.750863
O O8 0.500000 0.000000 0.000000
O O9 0.444831 0.466917 0.774065
O O10 0.126062 0.248234 0.716580
O O11 0.326616 0.108448 0.976889
O O12 0.372085 0.533953 0.284919
O O13 0.611321 0.409315 0.517278
O O14 0.000000 0.500000 0.500000
O O15 0.917816 0.241883 0.432453
O O16 0.234129 0.744936 0.183240
O O17 0.115056 0.366945 0.325112
O O18 0.000000 0.000000 0.500000
#
# Coordination Sequence:
#
# PCOD8021209 Si02
#       8
#     2   2   2   2   2   2   2   2
#     4  12  24  41  66 100 135 181 233 283 345 411
#     4  10  22  43  68  99 137 181 219 286 345 406
#     4  11  23  45  68  97 139 183 223 287 357 405
#     4  11  22  39  66 101 139 173 231 288 341 407
#     4  12  25  43  70 102 142 176 230 295 343 409
#     4  11  22  39  68 103 132 179 231 289 339 403
#     4  11  24  44  70  94 141 189 223 280 357 420
#     4  12  22  40  72 105 131 181 243 281 340 409
#
# _framework density 21.114964000000001
#
# number of rings (size 3 to 8) (size 9 to 14) (size 15 to 20)
#    0.000    0.750    5.000    3.000    1.750    1.000 
#    0.000    6.250    0.000    0.000    0.000    0.000 
#    0.000    0.000    0.000    0.000    0.000    0.000 
#
# Total GULP energy -198286.928074 kJ/mol
# GULP energy per Si atom -12392.933005 kJ/mol
# Density = 2.106691 g / cm^3
# Si number density = 21.114964 Si / 1000 Ang^3
#
#
#
# Elastic Constant Matrix: (Units=GPa)
#
#
# Indices 1 2 3 4 5 6 
#
# 1 136.7931 58.0239 48.0575 3.2886 -3.5417 11.0052
# 2 58.0239 153.3952 59.3837 -1.8193 -2.3455 11.9798
# 3 48.0575 59.3837 92.2479 -6.9864 -3.1979 7.6543
# 4 3.2886 -1.8193 -6.9864 33.9159 3.1962 -3.2262
# 5 -3.5417 -2.3455 -3.1979 3.1962 28.3897 -0.8897
# 6 11.0052 11.9798 7.6543 -3.2262 -0.8897 51.8982
#
#
#
# Elastic Compliance Matrix: (Units=1/GPa)
#
#
# Indices 1 2 3 4 5 6 
#
# 1 0.009679 -0.002159 -0.003682 -0.001995 0.000804 -0.001121
# 2 -0.002159 0.009261 -0.004783 -0.000371 -0.000033 -0.000998
# 3 -0.003682 -0.004783 0.016134 0.003343 0.000578 -0.000277
# 4 -0.001995 -0.000371 0.003343 0.030838 -0.003316 0.001876
# 5 0.000804 -0.000033 0.000578 -0.003316 0.035765 0.000159
# 6 -0.001121 -0.000998 -0.000277 0.001876 0.000159 0.019897
#
#
# Mechanical properties :
#
#
# Convention : Reuss Voigt Hill
#
# Bulk Modulus (GPa) = 72.33835 79.26296 75.80066
# Shear Modulus (GPa) = 33.91428 37.30549 35.60988
#
# Velocity S-wave (km/s) = 4.01206 4.20787 4.11113
# Velocity P-wave (km/s) = 7.46966 7.82486 7.64932
#
# Compressibility (1/GPa) = 0.01382393
#
# Stress axis : x y z
#
# Youngs Moduli (GPa) = 103.31685 107.98488 61.98141
#
# Poissons Ratio (x) = 0.23319 0.22824
# Poissons Ratio (y) = 0.22311 0.29645
# Poissons Ratio (z) = 0.38046 0.51647
#
# Static dielectric constant tensor:
#      x y z
#    x 4.679130 -0.249410 -0.074240 
#    y -0.249410 4.242770 0.033700 
#    z -0.074240 0.033700 3.490450 
# 
# 
# High freq. dielectric constant tensor:
#      x y z
#    x 1.845430 0.000690 -0.005720 
#    y 0.000690 1.840920 -0.006480 
#    z -0.005720 -0.006480 1.800140 
# 
# From -- ./inp_files/314260.got.cif
#   From: 2010.06.25/outbox.cif.g09.slc.cpg/sg2_158_cif.got.tgz:314260.got - 2010.06.27 13:26:56.
