data_PCOD8021996
_publ_section_title
;
Structure prediction by ZEFSAII (Michael W. Deem and Ramdas Pophale) SiO2 
 PCOD8021996
Probable space group: P -1
;
_chemical_formula_sum "Si O2"
_cell_formula_units_Z 16
_cell_length_a 9.187635
_cell_length_b 11.487911
_cell_length_c 8.486809
_cell_angle_alpha 124.599432
_cell_angle_beta 99.999134
_cell_angle_gamma 83.260257
_cell_volume 725.939150
_symmetry_space_group_name_H-M "P -1"
_symmetry_group_IT_number 2
_symmetry_cell_setting 'triclinic'
loop_
_space_group_symop_operation_xyz
x,y,z
-x,-y,-z
loop_
_atom_site_type_symbol
_atom_site_label
_atom_site_fract_x
_atom_site_fract_y
_atom_site_fract_z
Si Si1 0.164184 0.431912 0.004230
Si Si2 0.251168 0.125323 0.791543
Si Si3 0.694446 0.575369 0.302910
Si Si4 0.242570 0.697894 0.706809
Si Si5 0.042212 0.934187 0.793714
Si Si6 0.259947 0.101390 0.423098
Si Si7 0.443135 0.915211 0.071618
Si Si8 0.398514 0.557028 0.377188
O O1 0.257478 0.474774 0.211809
O O2 0.142521 0.262736 0.876173
O O3 0.259837 0.469912 0.898485
O O4 0.000000 0.500000 0.000000
O O5 0.287147 0.060960 0.577516
O O6 0.412911 0.173021 0.912280
O O7 0.185152 0.008090 0.803845
O O8 0.768530 0.460656 0.348437
O O9 0.745155 0.730628 0.481886
O O10 0.514912 0.582109 0.279211
O O11 0.081261 0.767879 0.700743
O O12 0.323587 0.696012 0.549407
O O13 0.324544 0.798208 0.921907
O O14 0.903833 0.955299 0.672365
O O15 0.000000 0.000000 0.000000
O O16 0.378280 0.023636 0.273101
O O17 0.500000 0.000000 0.000000
O O18 0.500000 0.500000 0.500000
#
# Coordination Sequence:
#
# PCOD8021996 Si02
#       8
#     2   2   2   2   2   2   2   2
#     4  11  26  45  70 105 142 183 225 287 354 410
#     4  11  25  45  69  98 141 178 231 281 344 415
#     4  10  24  45  68 102 136 178 232 283 341 412
#     4  11  24  42  71 102 131 180 230 282 343 403
#     4  12  25  44  66  99 139 183 224 285 343 415
#     4  11  25  44  67 102 136 180 228 282 347 405
#     4  12  22  45  71 103 135 180 234 279 339 410
#     4  10  22  44  71  99 137 179 228 284 335 410
#
# _framework density 22.040414999999999
#
# number of rings (size 3 to 8) (size 9 to 14) (size 15 to 20)
#    0.000    1.000    2.500    3.375    5.250    4.500 
#    2.250    0.000    0.000    0.000    0.000    0.000 
#    0.000    0.000    0.000    0.000    0.000    0.000 
#
# Total GULP energy -198231.473314 kJ/mol
# GULP energy per Si atom -12389.467082 kJ/mol
# Density = 2.199025 g / cm^3
# Si number density = 22.040415 Si / 1000 Ang^3
#
#
#
# Elastic Constant Matrix: (Units=GPa)
#
#
# Indices 1 2 3 4 5 6 
#
# 1 116.9014 33.9048 49.8234 -9.1476 -9.8358 -13.3057
# 2 33.9048 86.9848 35.8220 -0.2717 -21.1766 1.1052
# 3 49.8234 35.8220 127.7644 -10.8975 -24.6957 -1.3536
# 4 -9.1476 -0.2717 -10.8975 34.4671 -4.4611 -3.6891
# 5 -9.8358 -21.1766 -24.6957 -4.4611 49.3137 -0.4628
# 6 -13.3057 1.1052 -1.3536 -3.6891 -0.4628 37.6685
#
#
#
# Elastic Compliance Matrix: (Units=1/GPa)
#
#
# Indices 1 2 3 4 5 6 
#
# 1 0.011610 -0.003284 -0.003474 0.002341 -0.000582 0.004295
# 2 -0.003284 0.014756 -0.002086 -0.001011 0.004530 -0.001711
# 3 -0.003474 -0.002086 0.010804 0.002959 0.004086 -0.000438
# 4 0.002341 -0.001011 0.002959 0.031573 0.004409 0.004109
# 5 -0.000582 0.004530 0.004086 0.004409 0.024557 0.000542
# 6 0.004295 -0.001711 -0.000438 0.004109 0.000542 0.028508
#
#
# Mechanical properties :
#
#
# Convention : Reuss Voigt Hill
#
# Bulk Modulus (GPa) = 51.32518 63.41678 57.37098
# Shear Modulus (GPa) = 34.24871 38.42987 36.33929
#
# Velocity S-wave (km/s) = 3.94624 4.18018 4.06489
# Velocity P-wave (km/s) = 6.64087 7.22039 6.93668
#
# Compressibility (1/GPa) = 0.01948361
#
# Stress axis : x y z
#
# Youngs Moduli (GPa) = 86.12979 67.76691 92.55841
#
# Poissons Ratio (x) = 0.22252 0.32157
# Poissons Ratio (y) = 0.28282 0.19305
# Poissons Ratio (z) = 0.29924 0.14134
#
# Static dielectric constant tensor:
#      x y z
#    x 3.829750 -0.084130 -0.408640 
#    y -0.084130 3.886090 -0.034440 
#    z -0.408640 -0.034440 4.154380 
# 
# 
# High freq. dielectric constant tensor:
#      x y z
#    x 1.877620 -0.011860 -0.012990 
#    y -0.011860 1.855790 -0.006340 
#    z -0.012990 -0.006340 1.881530 
# 
# From -- ./inp_files/190807.got.cif
#   From: 2010.06.25/outbox.cif.g09.slc.cpg/sg2_96_cif.got.tgz:190807.got - 2010.06.27 13:26:56.
