data_PCOD8021654
_publ_section_title
;
Structure prediction by ZEFSAII (Michael W. Deem and Ramdas Pophale) SiO2 
 PCOD8021654
Probable space group: P -1
;
_chemical_formula_sum "Si O2"
_cell_formula_units_Z 14
_cell_length_a 18.180155
_cell_length_b 13.486904
_cell_length_c 5.043508
_cell_angle_alpha 128.590975
_cell_angle_beta 61.587940
_cell_angle_gamma 143.095305
_cell_volume 579.721734
_symmetry_space_group_name_H-M "P -1"
_symmetry_group_IT_number 2
_symmetry_cell_setting 'triclinic'
loop_
_space_group_symop_operation_xyz
x,y,z
-x,-y,-z
loop_
_atom_site_type_symbol
_atom_site_label
_atom_site_fract_x
_atom_site_fract_y
_atom_site_fract_z
Si Si1 0.143770 0.415341 0.627166
Si Si2 0.132375 0.901211 0.399149
Si Si3 0.321572 0.793652 0.726571
Si Si4 0.737520 0.053946 0.262710
Si Si5 0.343474 0.486597 0.642719
Si Si6 0.475705 0.163717 0.408360
Si Si7 0.234004 0.279518 0.991866
O O1 0.190022 0.600516 0.738242
O O2 0.238213 0.480060 0.807382
O O3 0.007139 0.279374 0.748765
O O4 0.146790 0.307201 0.216112
O O5 0.158542 0.845369 0.522318
O O6 0.149073 0.067549 0.712179
O O7 0.223128 0.967628 0.114851
O O8 0.293843 0.832708 0.560183
O O9 0.411757 0.771372 0.504329
O O10 0.386413 0.959544 0.097884
O O11 0.611040 0.853975 0.267922
O O12 0.473932 0.691138 0.672596
O O13 0.342159 0.423616 0.829852
O O14 0.305274 0.335817 0.241101
#
# Coordination Sequence:
#
# PCOD8021654 Si02
#       7
#     2   2   2   2   2   2   2
#     4   9  24  42  71 102 124 180 222 274 319 392
#     4  12  26  44  67  94 148 169 219 264 335 394
#     4  10  22  45  74  94 133 167 231 268 334 377
#     4  12  26  44  65 102 133 184 205 270 342 395
#     4   9  22  39  72  96 126 161 240 260 329 363
#     4  10  22  45  70  99 131 170 221 283 314 402
#     4  10  22  44  66 103 125 179 222 273 315 390
#
# _framework density 24.149518
#
# number of rings (size 3 to 8) (size 9 to 14) (size 15 to 20)
#    0.857    0.857    1.429    1.714    4.000    5.143 
#    0.000    4.286    0.000    0.000    0.000    0.000 
#    0.000    0.000    0.000    0.000    0.000    0.000 
#
# Total GULP energy -173481.586510 kJ/mol
# GULP energy per Si atom -12391.541894 kJ/mol
# Density = 2.409455 g / cm^3
# Si number density = 24.149518 Si / 1000 Ang^3
#
#
#
# Elastic Constant Matrix: (Units=GPa)
#
#
# Indices 1 2 3 4 5 6 
#
# 1 61.1688 32.8384 10.5828 -7.2209 11.6492 1.1534
# 2 32.8384 143.5280 24.5595 -2.1363 -11.8388 9.4614
# 3 10.5828 24.5595 48.0146 -19.4427 2.9393 5.5747
# 4 -7.2209 -2.1363 -19.4427 42.2026 -8.2019 4.9294
# 5 11.6492 -11.8388 2.9393 -8.2019 15.8894 -12.2303
# 6 1.1534 9.4614 5.5747 4.9294 -12.2303 29.3737
#
#
#
# Elastic Compliance Matrix: (Units=1/GPa)
#
#
# Indices 1 2 3 4 5 6 
#
# 1 0.029029 -0.009444 0.002557 -0.000489 -0.041045 -0.015591
# 2 -0.009444 0.011505 -0.006120 -0.000437 0.021760 0.006960
# 3 0.002557 -0.006120 0.031002 0.012934 -0.015089 -0.012466
# 4 -0.000489 -0.000437 0.012934 0.032239 0.012289 -0.002588
# 5 -0.041045 0.021760 -0.015089 0.012289 0.168996 0.065769
# 6 -0.015591 0.006960 -0.012466 -0.002588 0.065769 0.062599
#
#
# Mechanical properties :
#
#
# Convention : Reuss Voigt Hill
#
# Bulk Modulus (GPa) = 21.96753 43.18587 32.57670
# Shear Modulus (GPa) = 13.27816 29.80853 21.54334
#
# Velocity S-wave (km/s) = 2.34739 3.51712 2.99001
# Velocity P-wave (km/s) = 4.05749 5.86643 5.04372
#
# Compressibility (1/GPa) = 0.04552173
#
# Stress axis : x y z
#
# Youngs Moduli (GPa) = 34.44848 86.91983 32.25558
#
# Poissons Ratio (x) = 0.82090 -0.08249
# Poissons Ratio (y) = 0.32534 0.19742
# Poissons Ratio (z) = -0.08810 0.53198
#
# Static dielectric constant tensor:
#      x y z
#    x 4.345820 -0.050270 -0.055710 
#    y -0.050270 4.271830 -0.120670 
#    z -0.055710 -0.120670 4.008960 
# 
# 
# High freq. dielectric constant tensor:
#      x y z
#    x 1.938040 -0.005660 0.002160 
#    y -0.005660 1.962760 -0.008130 
#    z 0.002160 -0.008130 1.942860 
# 
# From -- ./inp_files/101690.got.cif
#   From: 2010.06.25/outbox.cif.g09.slc.cpg/sg2_51_cif.got.tgz:101690.got - 2010.06.27 13:26:56.
