data_PCOD8021583
_publ_section_title
;
Structure prediction by ZEFSAII (Michael W. Deem and Ramdas Pophale) SiO2 
 PCOD8021583
Probable space group: P -1
;
_chemical_formula_sum "Si O2"
_cell_formula_units_Z 16
_cell_length_a 8.983313
_cell_length_b 12.005737
_cell_length_c 22.459331
_cell_angle_alpha 30.873144
_cell_angle_beta 137.001200
_cell_angle_gamma 143.729176
_cell_volume 729.126418
_symmetry_space_group_name_H-M "P -1"
_symmetry_group_IT_number 2
_symmetry_cell_setting 'triclinic'
loop_
_space_group_symop_operation_xyz
x,y,z
-x,-y,-z
loop_
_atom_site_type_symbol
_atom_site_label
_atom_site_fract_x
_atom_site_fract_y
_atom_site_fract_z
Si Si1 0.125492 0.717782 0.521448
Si Si2 0.502410 0.058607 0.135692
Si Si3 0.242084 0.769912 0.663426
Si Si4 0.245728 0.508432 0.282498
Si Si5 0.060842 0.184392 0.265011
Si Si6 0.579489 0.726883 0.875831
Si Si7 0.223830 0.447711 0.076632
Si Si8 0.613369 0.326079 0.495457
O O1 0.233792 0.690429 0.628673
O O2 0.326197 0.752054 0.514499
O O3 0.858699 0.464926 0.545595
O O4 0.097341 0.963145 0.402945
O O5 0.387019 0.051893 0.171392
O O6 0.770830 0.073338 0.212868
O O7 0.302893 0.793864 0.169160
O O8 0.534133 0.285263 0.997469
O O9 0.365513 0.652328 0.796392
O O10 0.952564 0.664405 0.645770
O O11 0.404424 0.071014 0.583110
O O12 0.125926 0.397756 0.234647
O O13 0.506037 0.511299 0.368415
O O14 0.255998 0.324209 0.202994
O O15 0.824244 0.758966 0.895228
O O16 0.500000 0.500000 0.000000
O O17 0.000000 0.500000 0.000000
#
# Coordination Sequence:
#
# PCOD8021583 Si02
#       8
#     2   2   2   2   2   2   2   2
#     4  11  25  42  67  98 136 178 222 275 328 393
#     4  10  22  44  64  96 133 172 221 273 326 392
#     4  12  25  41  68  99 131 180 218 268 336 393
#     4  12  25  39  67  99 137 177 217 272 326 394
#     4  11  21  42  66  95 135 171 222 276 328 385
#     4  10  22  44  69  92 130 169 215 276 327 386
#     4   9  21  41  74  93 123 177 218 270 339 381
#     4  11  25  43  64  99 139 176 223 271 330 391
#
# _framework density 21.944068000000001
#
# number of rings (size 3 to 8) (size 9 to 14) (size 15 to 20)
#    0.000    1.250    3.750    1.500    3.500    1.000 
#    0.000    2.500    0.000    0.000    0.000    0.000 
#    0.000    0.000    0.000    0.000    0.000    0.000 
#
# Total GULP energy -198291.041890 kJ/mol
# GULP energy per Si atom -12393.190118 kJ/mol
# Density = 2.189412 g / cm^3
# Si number density = 21.944068 Si / 1000 Ang^3
#
#
#
# Elastic Constant Matrix: (Units=GPa)
#
#
# Indices 1 2 3 4 5 6 
#
# 1 133.3946 44.9786 38.7880 -15.0154 -6.6489 -20.9526
# 2 44.9786 100.6221 42.4467 -15.6816 -16.1726 -21.5658
# 3 38.7880 42.4467 101.8609 -1.2587 -16.0716 -17.2557
# 4 -15.0154 -15.6816 -1.2587 35.6157 -0.3606 -2.3569
# 5 -6.6489 -16.1726 -16.0716 -0.3606 34.6745 3.3748
# 6 -20.9526 -21.5658 -17.2557 -2.3569 3.3748 36.1412
#
#
#
# Elastic Compliance Matrix: (Units=1/GPa)
#
#
# Indices 1 2 3 4 5 6 
#
# 1 0.009807 -0.002252 -0.002238 0.003293 -0.000517 0.003536
# 2 -0.002252 0.015561 -0.003793 0.006221 0.004534 0.006152
# 3 -0.002238 -0.003793 0.013189 -0.001960 0.003674 0.002266
# 4 0.003293 0.006221 -0.001960 0.032596 0.002322 0.006594
# 5 -0.000517 0.004534 0.003674 0.002322 0.032458 0.001281
# 6 0.003536 0.006152 0.002266 0.006594 0.001281 0.034783
#
#
# Mechanical properties :
#
#
# Convention : Reuss Voigt Hill
#
# Bulk Modulus (GPa) = 45.46904 65.36712 55.41808
# Shear Modulus (GPa) = 30.80916 35.26389 33.03652
#
# Velocity S-wave (km/s) = 3.75104 4.01308 3.88427
# Velocity P-wave (km/s) = 6.28696 7.16420 6.73987
#
# Compressibility (1/GPa) = 0.02199299
#
# Stress axis : x y z
#
# Youngs Moduli (GPa) = 101.96944 64.26123 75.81898
#
# Poissons Ratio (x) = 0.14469 0.16967
# Poissons Ratio (y) = 0.22960 0.28757
# Poissons Ratio (z) = 0.22820 0.24373
#
# Static dielectric constant tensor:
#      x y z
#    x 4.991880 -0.249080 -0.078870 
#    y -0.249080 3.785790 -0.000010 
#    z -0.078870 -0.000010 4.127320 
# 
# 
# High freq. dielectric constant tensor:
#      x y z
#    x 1.884530 -0.012170 -0.001410 
#    y -0.012170 1.837160 -0.001300 
#    z -0.001410 -0.001300 1.866830 
# 
# From -- ./inp_files/589399.got.cif
#   From: 2010.06.25/outbox.cif.g09.slc.cpg/sg2_295_cif.got.tgz:589399.got - 2010.06.27 13:26:56.
