data_PCOD8021945
_publ_section_title
;
Structure prediction by ZEFSAII (Michael W. Deem and Ramdas Pophale) SiO2 
 PCOD8021945
Probable space group: P -1
;
_chemical_formula_sum "Si O2"
_cell_formula_units_Z 12
_cell_length_a 13.151101
_cell_length_b 5.192578
_cell_length_c 8.817223
_cell_angle_alpha 79.549913
_cell_angle_beta 98.143453
_cell_angle_gamma 59.691431
_cell_volume 491.533283
_symmetry_space_group_name_H-M "P -1"
_symmetry_group_IT_number 2
_symmetry_cell_setting 'triclinic'
loop_
_space_group_symop_operation_xyz
x,y,z
-x,-y,-z
loop_
_atom_site_type_symbol
_atom_site_label
_atom_site_fract_x
_atom_site_fract_y
_atom_site_fract_z
Si Si1 0.687363 0.106025 0.630144
Si Si2 0.939793 0.996795 0.646479
Si Si3 0.691093 0.171471 0.105743
Si Si4 0.481244 0.716567 0.692676
Si Si5 0.044202 0.349024 0.691805
Si Si6 0.660612 0.770964 0.899822
O O1 0.594896 0.404666 0.679584
O O2 0.616622 0.067294 0.479323
O O3 0.795335 0.140972 0.586090
O O4 0.742802 0.801316 0.783761
O O5 0.010216 0.640116 0.762607
O O6 0.000000 0.000000 0.500000
O O7 0.966314 0.201607 0.743417
O O8 0.585876 0.371752 0.186270
O O9 0.812984 0.912338 0.245767
O O10 0.714468 0.411436 0.995717
O O11 0.646802 0.991642 0.011448
O O12 0.529624 0.907268 0.771557
O O13 0.000000 0.500000 0.500000
#
# Coordination Sequence:
#
# PCOD8021945 Si02
#       6
#     2   2   2   2   2   2
#     4  11  26  46  75 109 146 187 240 303 353 419
#     4  10  22  44  71 100 135 179 238 295 345 411
#     4  12  26  46  77 105 145 193 237 288 365 432
#     4  11  25  47  74 109 146 192 239 291 356 432
#     4  10  22  44  71 102 130 180 244 292 336 417
#     4  12  26  48  68 112 150 189 231 295 365 429
#
# _framework density 24.413399999999999
#
# number of rings (size 3 to 8) (size 9 to 14) (size 15 to 20)
#    0.000    1.000    1.667    4.500    4.667    1.333 
#    6.000    5.000    0.000    0.000    0.000    0.000 
#    0.000    0.000    0.000    0.000    0.000    0.000 
#
# Total GULP energy -148667.697362 kJ/mol
# GULP energy per Si atom -12388.974780 kJ/mol
# Density = 2.435783 g / cm^3
# Si number density = 24.413400 Si / 1000 Ang^3
#
#
#
# Elastic Constant Matrix: (Units=GPa)
#
#
# Indices 1 2 3 4 5 6 
#
# 1 179.7209 85.1624 63.5840 0.3156 3.3267 0.0379
# 2 85.1624 140.2545 51.7392 -11.0939 0.3614 25.4928
# 3 63.5840 51.7392 121.0605 4.7043 -4.9607 -2.0558
# 4 0.3156 -11.0939 4.7043 14.8807 14.3666 -0.6319
# 5 3.3267 0.3614 -4.9607 14.3666 24.7089 -5.4787
# 6 0.0379 25.4928 -2.0558 -0.6319 -5.4787 48.3373
#
#
#
# Elastic Compliance Matrix: (Units=1/GPa)
#
#
# Indices 1 2 3 4 5 6 
#
# 1 0.008970 -0.006171 -0.001535 -0.008061 0.004045 0.003535
# 2 -0.006171 0.021447 -0.009682 0.052753 -0.035435 -0.015045
# 3 -0.001535 -0.009682 0.016022 -0.039088 0.028170 0.008471
# 4 -0.008061 0.052753 -0.039088 0.306669 -0.196425 -0.047732
# 5 0.004045 -0.035435 0.028170 -0.196425 0.168379 0.036400
# 6 0.003535 -0.015045 0.008471 -0.047732 0.036400 0.032482
#
#
# Mechanical properties :
#
#
# Convention : Reuss Voigt Hill
#
# Bulk Modulus (GPa) = 85.74609 93.55636 89.65122
# Shear Modulus (GPa) = 8.43693 33.62207 21.02950
#
# Velocity S-wave (km/s) = 1.86101 3.71509 2.93813
# Velocity P-wave (km/s) = 6.31004 7.53707 6.95068
#
# Compressibility (1/GPa) = 0.01166234
#
# Stress axis : x y z
#
# Youngs Moduli (GPa) = 111.48426 46.62611 62.41537
#
# Poissons Ratio (x) = 0.28773 0.09580
# Poissons Ratio (y) = 0.68796 0.60434
# Poissons Ratio (z) = 0.17111 0.45146
#
# Static dielectric constant tensor:
#      x y z
#    x 4.250800 -0.210390 -0.025790 
#    y -0.210390 3.581390 -0.074820 
#    z -0.025790 -0.074820 4.503020 
# 
# 
# High freq. dielectric constant tensor:
#      x y z
#    x 1.982720 0.022140 0.001650 
#    y 0.022140 1.965500 -0.000090 
#    z 0.001650 -0.000090 1.960070 
# 
# From -- ./inp_files/229501.got.cif
#   From: 2010.06.25/outbox.cif.g09.slc.cpg/sg2_115_cif.got.tgz:229501.got - 2010.06.27 13:26:56.
