data_PCOD8021854
_publ_section_title
;
Structure prediction by ZEFSAII (Michael W. Deem and Ramdas Pophale) SiO2 
 PCOD8021854
Probable space group: P -1
;
_chemical_formula_sum "Si O2"
_cell_formula_units_Z 16
_cell_length_a 10.027474
_cell_length_b 8.680170
_cell_length_c 12.603488
_cell_angle_alpha 85.273571
_cell_angle_beta 82.276134
_cell_angle_gamma 41.462497
_cell_volume 719.492114
_symmetry_space_group_name_H-M "P -1"
_symmetry_group_IT_number 2
_symmetry_cell_setting 'triclinic'
loop_
_space_group_symop_operation_xyz
x,y,z
-x,-y,-z
loop_
_atom_site_type_symbol
_atom_site_label
_atom_site_fract_x
_atom_site_fract_y
_atom_site_fract_z
Si Si1 0.425442 0.635429 0.197784
Si Si2 0.348203 0.555167 0.595779
Si Si3 0.362622 0.975331 0.051928
Si Si4 0.411367 0.162972 0.599996
Si Si5 0.993061 0.611310 0.389423
Si Si6 0.980216 0.949747 0.307288
Si Si7 0.322209 0.176471 0.241224
Si Si8 0.344488 0.861437 0.844741
O O1 0.548733 0.543218 0.296773
O O2 0.481249 0.733835 0.111937
O O3 0.505661 0.413870 0.141262
O O4 0.184776 0.838480 0.238564
O O5 0.500000 0.500000 0.500000
O O6 0.315524 0.410376 0.563393
O O7 0.133093 0.827050 0.618549
O O8 0.226781 0.172293 0.148222
O O9 0.248652 0.995754 0.962338
O O10 0.500000 0.000000 0.000000
O O11 0.223504 0.220084 0.654719
O O12 0.500000 0.000000 0.500000
O O13 0.589189 0.029293 0.675639
O O14 0.000000 0.500000 0.500000
O O15 0.151143 0.424214 0.296387
O O16 0.029422 0.764062 0.392673
O O17 0.837289 0.016737 0.222621
O O18 0.515288 0.118333 0.206135
#
# Coordination Sequence:
#
# PCOD8021854 Si02
#       8
#     2   2   2   2   2   2   2   2
#     4  11  23  44  69  95 139 171 220 282 334 401
#     4  11  27  42  66  99 139 181 219 275 335 396
#     4  10  23  43  71  97 128 178 226 278 338 396
#     4  12  24  42  68  94 133 177 224 268 328 395
#     4  12  25  39  69  98 133 182 225 270 331 400
#     4  11  25  43  66 101 135 175 226 276 334 404
#     4  11  22  43  65  98 136 171 225 278 328 392
#     4  10  22  44  69  94 131 177 223 273 342 392
#
# _framework density 22.237909999999999
#
# number of rings (size 3 to 8) (size 9 to 14) (size 15 to 20)
#    0.000    1.000    5.000    1.125    5.250    1.000 
#    0.000    1.875    0.000    0.000    0.000    0.000 
#    0.000    0.000    0.000    0.000    0.000    0.000 
#
# Total GULP energy -198213.962706 kJ/mol
# GULP energy per Si atom -12388.372669 kJ/mol
# Density = 2.218730 g / cm^3
# Si number density = 22.237910 Si / 1000 Ang^3
#
#
#
# Elastic Constant Matrix: (Units=GPa)
#
#
# Indices 1 2 3 4 5 6 
#
# 1 57.6432 39.3670 17.3972 4.7812 -13.6242 11.3643
# 2 39.3670 153.6519 48.2447 15.7493 -4.7885 23.0864
# 3 17.3972 48.2447 106.9374 6.7527 -0.3873 15.3651
# 4 4.7812 15.7493 6.7527 36.0199 14.2602 -1.9333
# 5 -13.6242 -4.7885 -0.3873 14.2602 28.2525 -1.1193
# 6 11.3643 23.0864 15.3651 -1.9333 -1.1193 46.3795
#
#
#
# Elastic Compliance Matrix: (Units=1/GPa)
#
#
# Indices 1 2 3 4 5 6 
#
# 1 0.025655 -0.004429 -0.001122 -0.007488 0.015241 -0.003654
# 2 -0.004429 0.009355 -0.002879 -0.003541 0.001089 -0.002739
# 3 -0.001122 -0.002879 0.011154 -0.000516 -0.000696 -0.002025
# 4 -0.007488 -0.003541 -0.000516 0.040311 -0.024372 0.004861
# 5 0.015241 0.001089 -0.000696 -0.024372 0.055073 -0.003733
# 6 -0.003654 -0.002739 -0.002025 0.004861 -0.003733 0.024604
#
#
# Mechanical properties :
#
#
# Convention : Reuss Voigt Hill
#
# Bulk Modulus (GPa) = 34.12579 58.69448 46.41014
# Shear Modulus (GPa) = 25.93600 36.34528 31.14064
#
# Velocity S-wave (km/s) = 3.41881 4.04714 3.74617
# Velocity P-wave (km/s) = 5.56448 6.94912 6.29499
#
# Compressibility (1/GPa) = 0.02930335
#
# Stress axis : x y z
#
# Youngs Moduli (GPa) = 38.97811 106.88959 89.65524
#
# Poissons Ratio (x) = 0.47343 0.10064
# Poissons Ratio (y) = 0.17264 0.25812
# Poissons Ratio (z) = 0.04375 0.30774
#
# Static dielectric constant tensor:
#      x y z
#    x 4.256390 0.187210 0.290990 
#    y 0.187210 4.425360 -0.069330 
#    z 0.290990 -0.069330 4.408170 
# 
# 
# High freq. dielectric constant tensor:
#      x y z
#    x 1.869100 0.024790 0.001210 
#    y 0.024790 1.885580 0.001750 
#    z 0.001210 0.001750 1.882520 
# 
# From -- ./inp_files/273575.got.cif
#   From: 2010.06.25/outbox.cif.g09.slc.cpg/sg2_137_cif.got.tgz:273575.got - 2010.06.27 13:26:56.
