data_PCOD8021099
_publ_section_title
;
Structure prediction by ZEFSAII (Michael W. Deem and Ramdas Pophale) SiO2 
 PCOD8021099
Probable space group: P -1
;
_chemical_formula_sum "Si O2"
_cell_formula_units_Z 16
_cell_length_a 25.956679
_cell_length_b 8.551765
_cell_length_c 8.785705
_cell_angle_alpha 43.976273
_cell_angle_beta 40.930182
_cell_angle_gamma 34.195772
_cell_volume 693.900994
_symmetry_space_group_name_H-M "P -1"
_symmetry_group_IT_number 2
_symmetry_cell_setting 'triclinic'
loop_
_space_group_symop_operation_xyz
x,y,z
-x,-y,-z
loop_
_atom_site_type_symbol
_atom_site_label
_atom_site_fract_x
_atom_site_fract_y
_atom_site_fract_z
Si Si1 0.165759 0.783385 0.265863
Si Si2 0.006228 0.731321 0.205343
Si Si3 0.322503 0.405691 0.447130
Si Si4 0.477083 0.992098 0.886174
Si Si5 0.975832 0.347913 0.429354
Si Si6 0.775622 0.644717 0.030554
Si Si7 0.653506 0.183885 0.716016
Si Si8 0.286190 0.642175 0.803250
O O1 0.232256 0.624587 0.379007
O O2 0.122440 0.621797 0.414699
O O3 0.239516 0.765671 0.988260
O O4 0.069993 0.116830 0.272557
O O5 0.983232 0.753384 0.419416
O O6 0.941760 0.675904 0.277508
O O7 0.116376 0.449945 0.105752
O O8 0.000000 0.000000 0.000000
O O9 0.421421 0.129230 0.343549
O O10 0.288680 0.266785 0.733835
O O11 0.358937 0.559314 0.349840
O O12 0.388087 0.312033 0.805408
O O13 0.449567 0.775762 0.083636
O O14 0.500000 0.000000 0.000000
O O15 0.792271 0.365952 0.114722
O O16 0.733914 0.890461 0.828306
O O17 0.690234 0.166321 0.471746
#
# Coordination Sequence:
#
# PCOD8021099 Si02
#       8
#     2   2   2   2   2   2   2   2
#     4  11  21  46  67 105 138 177 227 290 341 403
#     4  11  22  44  68 100 134 181 226 282 343 412
#     4  11  23  42  70  95 137 172 228 279 333 409
#     4  11  23  43  65 102 136 175 220 283 339 399
#     4  10  24  41  70  96 140 175 228 282 342 410
#     4  10  22  43  67  98 128 181 223 275 333 406
#     4  10  24  43  69  94 133 185 224 271 338 409
#     4  10  22  43  68  96 138 175 224 276 336 405
#
# _framework density 23.058045
#
# number of rings (size 3 to 8) (size 9 to 14) (size 15 to 20)
#    0.000    1.500    2.500    1.875    0.000    9.000 
#    4.500    8.125    0.000    0.000    0.000    0.000 
#    0.000    0.000    0.000    0.000    0.000    0.000 
#
# Total GULP energy -198266.859308 kJ/mol
# GULP energy per Si atom -12391.678707 kJ/mol
# Density = 2.300556 g / cm^3
# Si number density = 23.058045 Si / 1000 Ang^3
#
#
#
# Elastic Constant Matrix: (Units=GPa)
#
#
# Indices 1 2 3 4 5 6 
#
# 1 107.0190 18.7444 30.6894 -0.4666 -2.2615 9.8669
# 2 18.7444 78.3351 60.1414 17.1716 -4.2342 8.3052
# 3 30.6894 60.1414 166.5039 9.3711 13.6738 3.2075
# 4 -0.4666 17.1716 9.3711 43.6340 4.8040 -5.5152
# 5 -2.2615 -4.2342 13.6738 4.8040 29.2692 0.5875
# 6 9.8669 8.3052 3.2075 -5.5152 0.5875 31.3470
#
#
#
# Elastic Compliance Matrix: (Units=1/GPa)
#
#
# Indices 1 2 3 4 5 6 
#
# 1 0.010263 -0.000871 -0.001659 0.000295 0.001450 -0.002805
# 2 -0.000871 0.022086 -0.007888 -0.008747 0.008378 -0.006466
# 3 -0.001659 -0.007888 0.009508 0.001979 -0.006078 0.002101
# 4 0.000295 -0.008747 0.001979 0.027575 -0.006834 0.007002
# 5 0.001450 0.008378 -0.006078 -0.006834 0.039531 -0.003997
# 6 -0.002805 -0.006466 0.002101 0.007002 -0.003997 0.035589
#
#
# Mechanical properties :
#
#
# Convention : Reuss Voigt Hill
#
# Bulk Modulus (GPa) = 47.57122 63.44538 55.50830
# Shear Modulus (GPa) = 29.00316 37.00222 33.00269
#
# Velocity S-wave (km/s) = 3.55044 4.01027 3.78734
# Velocity P-wave (km/s) = 6.12237 7.00130 6.57653
#
# Compressibility (1/GPa) = 0.02102111
#
# Stress axis : x y z
#
# Youngs Moduli (GPa) = 97.43838 45.27781 105.17432
#
# Poissons Ratio (x) = 0.03945 0.17443
# Poissons Ratio (y) = 0.08489 0.82962
# Poissons Ratio (z) = 0.16160 0.35715
#
# Static dielectric constant tensor:
#      x y z
#    x 4.404330 0.170970 -0.034290 
#    y 0.170970 3.821200 -0.040380 
#    z -0.034290 -0.040380 4.373210 
# 
# 
# High freq. dielectric constant tensor:
#      x y z
#    x 1.916450 0.002370 -0.008190 
#    y 0.002370 1.899830 0.011090 
#    z -0.008190 0.011090 1.922880 
# 
# From -- ./inp_files/358458.got.cif
#   From: 2010.06.25/outbox.cif.g09.slc.cpg/sg2_180_cif.got.tgz:358458.got - 2010.06.27 13:26:56.
