data_PCOD8021797
_publ_section_title
;
Structure prediction by ZEFSAII (Michael W. Deem and Ramdas Pophale) SiO2 
 PCOD8021797
Probable space group: P -1
;
_chemical_formula_sum "Si O2"
_cell_formula_units_Z 16
_cell_length_a 6.236277
_cell_length_b 5.945820
_cell_length_c 25.778034
_cell_angle_alpha 57.291459
_cell_angle_beta 117.161131
_cell_angle_gamma 92.879416
_cell_volume 690.511745
_symmetry_space_group_name_H-M "P -1"
_symmetry_group_IT_number 2
_symmetry_cell_setting 'triclinic'
loop_
_space_group_symop_operation_xyz
x,y,z
-x,-y,-z
loop_
_atom_site_type_symbol
_atom_site_label
_atom_site_fract_x
_atom_site_fract_y
_atom_site_fract_z
Si Si1 0.698826 0.607415 0.041203
Si Si2 0.230971 0.351501 0.157891
Si Si3 0.661193 0.783969 0.402289
Si Si4 0.948214 0.711656 0.540833
Si Si5 0.113726 0.710650 0.665692
Si Si6 0.332544 0.114086 0.786836
Si Si7 0.127380 0.080544 0.280533
Si Si8 0.468117 0.815087 0.094806
O O1 0.632037 0.620450 0.093249
O O2 0.971210 0.395010 0.092034
O O3 0.500000 0.500000 0.000000
O O4 0.708159 0.910443 0.984873
O O5 0.202199 0.290947 0.222668
O O6 0.304700 0.640427 0.127547
O O7 0.433342 0.098572 0.186728
O O8 0.806401 0.531442 0.414601
O O9 0.716058 0.697463 0.480076
O O10 0.750119 0.053177 0.362179
O O11 0.367891 0.834790 0.353752
O O12 0.907043 0.695010 0.600392
O O13 0.000000 0.000000 0.500000
O O14 0.326521 0.421119 0.727983
O O15 0.977799 0.752124 0.700481
O O16 0.356125 0.094521 0.854308
O O17 0.072803 0.053532 0.751073
#
# Coordination Sequence:
#
# PCOD8021797 Si02
#       8
#     2   2   2   2   2   2   2   2
#     4  11  25  47  72 100 131 167 215 269 326 389
#     4  12  25  44  67  96 133 174 215 268 325 384
#     4  10  22  44  68  95 132 172 218 273 328 387
#     4   9  20  41  69  97 130 171 217 271 331 389
#     4  11  23  43  65  95 133 173 221 271 326 390
#     4  12  26  43  65  96 133 173 220 269 320 386
#     4  12  25  41  66  96 132 174 222 271 321 384
#     4  11  25  45  69  98 132 171 217 266 323 392
#
# _framework density 23.171220000000002
#
# number of rings (size 3 to 8) (size 9 to 14) (size 15 to 20)
#    0.000    1.000    0.000    7.125    0.000    9.500 
#    0.000   11.250    0.000    0.000    0.000    0.000 
#    0.000    0.000    0.000    0.000    0.000    0.000 
#
# Total GULP energy -198403.724419 kJ/mol
# GULP energy per Si atom -12400.232776 kJ/mol
# Density = 2.311848 g / cm^3
# Si number density = 23.171220 Si / 1000 Ang^3
#
#
#
# Elastic Constant Matrix: (Units=GPa)
#
#
# Indices 1 2 3 4 5 6 
#
# 1 110.4667 62.4992 78.6756 16.0032 18.4210 -5.5873
# 2 62.4992 114.6072 62.2925 10.3214 3.7039 -13.2600
# 3 78.6756 62.2925 158.1652 23.0195 14.0157 -12.0647
# 4 16.0032 10.3214 23.0195 59.3206 -8.8171 -4.4719
# 5 18.4210 3.7039 14.0157 -8.8171 53.5431 3.6750
# 6 -5.5873 -13.2600 -12.0647 -4.4719 3.6750 21.7900
#
#
#
# Elastic Compliance Matrix: (Units=1/GPa)
#
#
# Indices 1 2 3 4 5 6 
#
# 1 0.017740 -0.006480 -0.005732 -0.002256 -0.004369 -0.002294
# 2 -0.006480 0.013914 -0.002086 0.000787 0.001562 0.005548
# 3 -0.005732 -0.002086 0.010644 -0.002184 -0.001230 0.002913
# 4 -0.002256 0.000787 -0.002184 0.018954 0.004287 0.001858
# 5 -0.004369 0.001562 -0.001230 0.004287 0.021345 -0.003571
# 6 -0.002294 0.005548 0.002913 0.001858 -0.003571 0.051277
#
#
# Mechanical properties :
#
#
# Convention : Reuss Voigt Hill
#
# Bulk Modulus (GPa) = 72.98032 87.79707 80.38869
# Shear Modulus (GPa) = 29.93315 38.91552 34.42433
#
# Velocity S-wave (km/s) = 3.59810 4.10259 3.85860
# Velocity P-wave (km/s) = 6.98757 7.77267 7.39056
#
# Compressibility (1/GPa) = 0.01370232
#
# Stress axis : x y z
#
# Youngs Moduli (GPa) = 56.36829 71.87122 93.94528
#
# Poissons Ratio (x) = 0.46573 0.53849
# Poissons Ratio (y) = 0.36527 0.19599
# Poissons Ratio (z) = 0.32310 0.14994
#
# Static dielectric constant tensor:
#      x y z
#    x 3.902870 -0.119710 -0.071180 
#    y -0.119710 4.315020 0.069940 
#    z -0.071180 0.069940 5.092520 
# 
# 
# High freq. dielectric constant tensor:
#      x y z
#    x 1.887650 -0.006360 -0.004190 
#    y -0.006360 1.924780 -0.002370 
#    z -0.004190 -0.002370 1.953550 
# 
# From -- ./inp_files/13714.got.cif
#   From: 2010.06.25/outbox.cif.g09.slc.cpg/sg2_7_cif.got.tgz:13714.got - 2010.06.27 13:26:56.
