data_PCOD8021320
_publ_section_title
;
Structure prediction by ZEFSAII (Michael W. Deem and Ramdas Pophale) SiO2 
 PCOD8021320
Probable space group: P -1
;
_chemical_formula_sum "Si O2"
_cell_formula_units_Z 16
_cell_length_a 11.530824
_cell_length_b 10.695521
_cell_length_c 11.413074
_cell_angle_alpha 61.098194
_cell_angle_beta 76.080678
_cell_angle_gamma 35.892793
_cell_volume 690.462357
_symmetry_space_group_name_H-M "P -1"
_symmetry_group_IT_number 2
_symmetry_cell_setting 'triclinic'
loop_
_space_group_symop_operation_xyz
x,y,z
-x,-y,-z
loop_
_atom_site_type_symbol
_atom_site_label
_atom_site_fract_x
_atom_site_fract_y
_atom_site_fract_z
Si Si1 0.212604 0.668581 0.721139
Si Si2 0.795288 0.443932 0.719381
Si Si3 0.785707 0.843958 0.580739
Si Si4 0.593642 0.376993 0.906329
Si Si5 0.934135 0.193178 0.553618
Si Si6 0.769687 0.906273 0.125900
Si Si7 0.445767 0.993455 0.647579
Si Si8 0.100278 0.463629 0.875764
O O1 0.412127 0.552111 0.775614
O O2 0.231522 0.644239 0.586094
O O3 0.196239 0.526318 0.847169
O O4 0.008171 0.960774 0.674233
O O5 0.758864 0.333919 0.849178
O O6 0.829658 0.376229 0.603988
O O7 0.600169 0.736549 0.655498
O O8 0.999982 0.317555 0.777177
O O9 0.563633 0.032272 0.615464
O O10 0.855385 0.936360 0.490118
O O11 0.953393 0.612309 0.730481
O O12 0.758610 0.790798 0.483436
O O13 0.500000 0.500000 0.000000
O O14 0.715728 0.110302 0.992572
O O15 0.736926 0.817047 0.074911
O O16 0.602068 0.030773 0.207757
O O17 0.000000 0.500000 0.000000
#
# Coordination Sequence:
#
# PCOD8021320 Si02
#       8
#     2   2   2   2   2   2   2   2
#     4  10  25  47  69 102 145 187 235 293 348 423
#     4  12  24  44  76 106 138 184 235 301 358 409
#     4  10  22  43  70 105 139 183 229 294 346 412
#     4  12  26  44  73 105 143 186 238 293 345 432
#     4  10  22  46  74 104 142 184 238 297 356 411
#     4  12  26  46  71 105 146 185 235 290 355 423
#     4  11  23  42  73 107 140 177 238 296 352 416
#     4  11  27  46  71 101 150 191 231 287 352 429
#
# _framework density 23.172878999999998
#
# number of rings (size 3 to 8) (size 9 to 14) (size 15 to 20)
#    0.000    1.000    3.750    1.875    5.250    6.000 
#    2.250    0.000    0.000    0.000    0.000    0.000 
#    0.000    0.000    0.000    0.000    0.000    0.000 
#
# Total GULP energy -198226.422579 kJ/mol
# GULP energy per Si atom -12389.151411 kJ/mol
# Density = 2.312014 g / cm^3
# Si number density = 23.172879 Si / 1000 Ang^3
#
#
#
# Elastic Constant Matrix: (Units=GPa)
#
#
# Indices 1 2 3 4 5 6 
#
# 1 108.7344 43.6085 31.6555 12.5195 -10.9388 4.1707
# 2 43.6085 96.4925 34.7770 18.4999 -5.2719 18.1045
# 3 31.6555 34.7770 89.0688 17.5140 -11.9461 6.3058
# 4 12.5195 18.4999 17.5140 26.5808 -6.1490 -2.9021
# 5 -10.9388 -5.2719 -11.9461 -6.1490 46.4780 -1.8489
# 6 4.1707 18.1045 6.3058 -2.9021 -1.8489 37.5216
#
#
#
# Elastic Compliance Matrix: (Units=1/GPa)
#
#
# Indices 1 2 3 4 5 6 
#
# 1 0.011867 -0.004666 -0.002193 -0.000353 0.001707 0.001358
# 2 -0.004666 0.016480 -0.002715 -0.008644 -0.001377 -0.007713
# 3 -0.002193 -0.002715 0.014700 -0.006432 0.002051 -0.001313
# 4 -0.000353 -0.008644 -0.006432 0.050054 0.004278 0.009373
# 5 0.001707 -0.001377 0.002051 0.004278 0.022918 0.001590
# 6 0.001358 -0.007713 -0.001313 0.009373 0.001590 0.031246
#
#
# Mechanical properties :
#
#
# Convention : Reuss Voigt Hill
#
# Bulk Modulus (GPa) = 41.84622 57.15308 49.49965
# Shear Modulus (GPa) = 28.67289 34.39972 31.53631
#
# Velocity S-wave (km/s) = 3.52141 3.85708 3.69306
# Velocity P-wave (km/s) = 5.88483 6.67483 6.29224
#
# Compressibility (1/GPa) = 0.02389702
#
# Stress axis : x y z
#
# Youngs Moduli (GPa) = 84.26665 60.67872 68.02884
#
# Poissons Ratio (x) = 0.28316 0.14921
# Poissons Ratio (y) = 0.39323 0.18471
# Poissons Ratio (z) = 0.18482 0.16476
#
# Static dielectric constant tensor:
#      x y z
#    x 4.633480 -0.033490 -0.132790 
#    y -0.033490 3.923710 0.008720 
#    z -0.132790 0.008720 4.271480 
# 
# 
# High freq. dielectric constant tensor:
#      x y z
#    x 1.932590 0.000230 -0.010830 
#    y 0.000230 1.888610 -0.000750 
#    z -0.010830 -0.000750 1.933540 
# 
# From -- ./inp_files/427779.got.cif
#   From: 2010.06.25/outbox.cif.g09.slc.cpg/sg2_214_cif.got.tgz:427779.got - 2010.06.27 13:26:56.
