data_PCOD8021668
_publ_section_title
;
Structure prediction by ZEFSAII (Michael W. Deem and Ramdas Pophale) SiO2 
 PCOD8021668
Probable space group: P -1
;
_chemical_formula_sum "Si O2"
_cell_formula_units_Z 14
_cell_length_a 12.164798
_cell_length_b 17.197092
_cell_length_c 10.488043
_cell_angle_alpha 35.057773
_cell_angle_beta 58.962633
_cell_angle_gamma 34.946226
_cell_volume 636.333629
_symmetry_space_group_name_H-M "P -1"
_symmetry_group_IT_number 2
_symmetry_cell_setting 'triclinic'
loop_
_space_group_symop_operation_xyz
x,y,z
-x,-y,-z
loop_
_atom_site_type_symbol
_atom_site_label
_atom_site_fract_x
_atom_site_fract_y
_atom_site_fract_z
Si Si1 0.631934 0.524170 0.880059
Si Si2 0.531114 0.145449 0.675080
Si Si3 0.201521 0.521098 0.897766
Si Si4 0.190743 0.302032 0.010555
Si Si5 0.249535 0.684964 0.427211
Si Si6 0.911265 0.897888 0.965865
Si Si7 0.898328 0.426591 0.506264
O O1 0.486903 0.744752 0.584380
O O2 0.500000 0.500000 0.000000
O O3 0.651325 0.578619 0.933074
O O4 0.869125 0.292751 0.991513
O O5 0.300275 0.328971 0.633931
O O6 0.604835 0.933385 0.871236
O O7 0.704989 0.060756 0.780566
O O8 0.210069 0.647837 0.637038
O O9 0.952360 0.698573 0.847018
O O10 0.289965 0.315509 0.041938
O O11 0.033420 0.526157 0.709186
O O12 0.500000 0.500000 0.500000
O O13 0.171637 0.657581 0.395689
O O14 0.109742 0.941578 0.164059
O O15 0.915585 0.769509 0.238460
#
# Coordination Sequence:
#
# PCOD8021668 Si02
#       7
#     2   2   2   2   2   2   2
#     4  11  25  41  66 101 130 169 223 263 333 391
#     4  11  22  41  67  96 127 174 217 268 326 381
#     4  10  23  43  66  93 133 172 214 273 321 387
#     4  10  22  44  66  93 133 174 221 261 323 388
#     4  11  22  41  68  94 130 169 218 269 329 385
#     4  11  23  41  68  94 135 169 212 279 324 380
#     4  10  23  42  64  98 128 174 221 264 323 392
#
# _framework density 22.001037
#
# number of rings (size 3 to 8) (size 9 to 14) (size 15 to 20)
#    0.000    1.429    2.857    1.714    4.000    2.286 
#    2.571    0.000    0.000    0.000    0.000    0.000 
#    0.000    0.000    0.000    0.000    0.000    0.000 
#
# Total GULP energy -173592.571312 kJ/mol
# GULP energy per Si atom -12399.469379 kJ/mol
# Density = 2.195096 g / cm^3
# Si number density = 22.001037 Si / 1000 Ang^3
#
#
#
# Elastic Constant Matrix: (Units=GPa)
#
#
# Indices 1 2 3 4 5 6 
#
# 1 94.2806 28.9869 40.8727 2.0896 3.4578 21.2032
# 2 28.9869 78.2296 51.2096 9.8879 -6.2957 16.9408
# 3 40.8727 51.2096 137.5762 9.4907 4.6863 6.7814
# 4 2.0896 9.8879 9.4907 39.6234 8.4403 -10.6635
# 5 3.4578 -6.2957 4.6863 8.4403 37.4613 -0.5772
# 6 21.2032 16.9408 6.7814 -10.6635 -0.5772 39.0190
#
#
#
# Elastic Compliance Matrix: (Units=1/GPa)
#
#
# Indices 1 2 3 4 5 6 
#
# 1 0.014032 -0.001646 -0.003110 -0.001171 -0.001022 -0.006705
# 2 -0.001646 0.021084 -0.006617 -0.007300 0.006029 -0.009016
# 3 -0.003110 -0.006617 0.010555 0.000524 -0.002220 0.002839
# 4 -0.001171 -0.007300 0.000524 0.032073 -0.008220 0.012359
# 5 -0.001022 0.006029 -0.002220 -0.008220 0.029878 -0.003481
# 6 -0.006705 -0.009016 0.002839 0.012359 -0.003481 0.036019
#
#
# Mechanical properties :
#
#
# Convention : Reuss Voigt Hill
#
# Bulk Modulus (GPa) = 43.61685 61.35831 52.48758
# Shear Modulus (GPa) = 28.73084 35.82188 32.27636
#
# Velocity S-wave (km/s) = 3.61762 4.03946 3.83435
# Velocity P-wave (km/s) = 6.10881 7.05023 6.59633
#
# Compressibility (1/GPa) = 0.02292692
#
# Stress axis : x y z
#
# Youngs Moduli (GPa) = 71.26351 47.42876 94.74063
#
# Poissons Ratio (x) = 0.07805 0.29466
# Poissons Ratio (y) = 0.11728 0.62686
# Poissons Ratio (z) = 0.22164 0.31381
#
# Static dielectric constant tensor:
#      x y z
#    x 3.974200 0.295350 0.037560 
#    y 0.295350 3.819440 0.479670 
#    z 0.037560 0.479670 3.708910 
# 
# 
# High freq. dielectric constant tensor:
#      x y z
#    x 1.867610 0.021020 -0.008790 
#    y 0.021020 1.868420 0.011820 
#    z -0.008790 0.011820 1.873060 
# 
# From -- ./inp_files/436351.got.cif
#   From: 2010.06.25/outbox.cif.g09.slc.cpg/sg2_219_cif.got.tgz:436351.got - 2010.06.27 13:26:56.
