data_PCOD8021402
_publ_section_title
;
Structure prediction by ZEFSAII (Michael W. Deem and Ramdas Pophale) SiO2 
 PCOD8021402
Probable space group: P -1
;
_chemical_formula_sum "Si O2"
_cell_formula_units_Z 14
_cell_length_a 5.923168
_cell_length_b 16.526734
_cell_length_c 11.263535
_cell_angle_alpha 133.284732
_cell_angle_beta 62.650592
_cell_angle_gamma 124.907694
_cell_volume 654.058277
_symmetry_space_group_name_H-M "P -1"
_symmetry_group_IT_number 2
_symmetry_cell_setting 'triclinic'
loop_
_space_group_symop_operation_xyz
x,y,z
-x,-y,-z
loop_
_atom_site_type_symbol
_atom_site_label
_atom_site_fract_x
_atom_site_fract_y
_atom_site_fract_z
Si Si1 0.431048 0.097566 0.544348
Si Si2 0.139999 0.960285 0.262406
Si Si3 0.297845 0.744497 0.927107
Si Si4 0.790875 0.370904 0.769551
Si Si5 0.881259 0.530426 0.679385
Si Si6 0.346959 0.551895 0.892301
Si Si7 0.253717 0.051665 0.084919
O O1 0.679146 0.227837 0.632890
O O2 0.146276 0.100681 0.660880
O O3 0.500000 0.000000 0.500000
O O4 0.387842 0.058266 0.377687
O O5 0.100391 0.032465 0.229320
O O6 0.218138 0.849095 0.102119
O O7 0.301169 0.662726 0.954507
O O8 0.591635 0.808565 0.852052
O O9 0.082136 0.664897 0.802218
O O10 0.844293 0.431175 0.688663
O O11 0.084510 0.422726 0.819871
O O12 0.588259 0.409219 0.944379
O O13 0.582254 0.533185 0.739684
O O14 0.000000 0.500000 0.500000
O O15 0.500000 0.000000 0.000000
O O16 0.000000 0.000000 0.000000
#
# Coordination Sequence:
#
# PCOD8021402 Si02
#       7
#     2   2   2   2   2   2   2
#     4  11  24  41  67  99 139 181 225 291 350 417
#     4  10  24  42  64 100 135 180 233 285 351 420
#     4  10  23  42  69  93 130 178 227 283 344 419
#     4  10  23  41  68  98 131 177 231 285 342 419
#     4  11  25  43  65  99 136 173 222 288 355 414
#     4  10  22  43  71  97 127 181 234 282 349 422
#     4  10  24  41  67 102 135 183 231 287 348 421
#
# _framework density 21.404820999999998
#
# number of rings (size 3 to 8) (size 9 to 14) (size 15 to 20)
#    0.000    1.714    0.000    2.143   12.000    6.857 
#    2.571    0.000    0.000    0.000    0.000    0.000 
#    0.000    0.000    0.000    0.000    0.000    0.000 
#
# Total GULP energy -173434.171419 kJ/mol
# GULP energy per Si atom -12388.155101 kJ/mol
# Density = 2.135610 g / cm^3
# Si number density = 21.404821 Si / 1000 Ang^3
#
#
#
# Elastic Constant Matrix: (Units=GPa)
#
#
# Indices 1 2 3 4 5 6 
#
# 1 97.1349 45.2949 56.1167 4.1858 17.6765 3.2320
# 2 45.2949 149.5296 80.8420 19.4128 17.7114 4.5604
# 3 56.1167 80.8420 169.0795 -0.1058 17.4274 2.9219
# 4 4.1858 19.4128 -0.1058 49.5213 4.1581 10.9658
# 5 17.6765 17.7114 17.4274 4.1581 36.0923 -5.0580
# 6 3.2320 4.5604 2.9219 10.9658 -5.0580 30.4698
#
#
#
# Elastic Compliance Matrix: (Units=1/GPa)
#
#
# Indices 1 2 3 4 5 6 
#
# 1 0.013925 -0.001940 -0.003187 0.000358 -0.004619 -0.001777
# 2 -0.001940 0.010127 -0.004035 -0.003710 -0.001623 0.000143
# 3 -0.003187 -0.004035 0.009042 0.002172 -0.001202 -0.000907
# 4 0.000358 -0.003710 0.002172 0.023865 -0.003393 -0.008843
# 5 -0.004619 -0.001623 -0.001202 -0.003393 0.032790 0.007512
# 6 -0.001777 0.000143 -0.000907 -0.008843 0.007512 0.037503
#
#
# Mechanical properties :
#
#
# Convention : Reuss Voigt Hill
#
# Bulk Modulus (GPa) = 67.70901 86.69459 77.20180
# Shear Modulus (GPa) = 33.22254 38.78270 36.00262
#
# Velocity S-wave (km/s) = 3.94395 4.26122 4.10565
# Velocity P-wave (km/s) = 7.24161 8.04991 7.65643
#
# Compressibility (1/GPa) = 0.01476908
#
# Stress axis : x y z
#
# Youngs Moduli (GPa) = 71.81223 98.75004 110.58921
#
# Poissons Ratio (x) = 0.19161 0.35244
# Poissons Ratio (y) = 0.13934 0.44626
# Poissons Ratio (z) = 0.22886 0.39849
#
# Static dielectric constant tensor:
#      x y z
#    x 3.877920 0.100080 0.153110 
#    y 0.100080 4.672630 -0.277080 
#    z 0.153110 -0.277080 3.814830 
# 
# 
# High freq. dielectric constant tensor:
#      x y z
#    x 1.835390 0.003840 0.013810 
#    y 0.003840 1.863970 -0.005970 
#    z 0.013810 -0.005970 1.832710 
# 
# From -- ./inp_files/65527.got.cif
#   From: 2010.06.25/outbox.cif.g09.slc.cpg/sg2_33_cif.got.tgz:65527.got - 2010.06.27 13:26:56.
