data_PCOD8021035
_publ_section_title
;
Structure prediction by ZEFSAII (Michael W. Deem and Ramdas Pophale) SiO2 
 PCOD8021035
Probable space group: P -1
;
_chemical_formula_sum "Si O2"
_cell_formula_units_Z 16
_cell_length_a 12.927658
_cell_length_b 13.855755
_cell_length_c 9.211405
_cell_angle_alpha 41.340117
_cell_angle_beta 60.755239
_cell_angle_gamma 41.429696
_cell_volume 710.633610
_symmetry_space_group_name_H-M "P -1"
_symmetry_group_IT_number 2
_symmetry_cell_setting 'triclinic'
loop_
_space_group_symop_operation_xyz
x,y,z
-x,-y,-z
loop_
_atom_site_type_symbol
_atom_site_label
_atom_site_fract_x
_atom_site_fract_y
_atom_site_fract_z
Si Si1 0.064764 0.652623 0.830924
Si Si2 0.068436 0.119978 0.063172
Si Si3 0.401326 0.446269 0.442202
Si Si4 0.282569 0.699546 0.507107
Si Si5 0.750773 0.918733 0.273668
Si Si6 0.207884 0.246836 0.266806
Si Si7 0.510414 0.946481 0.220397
Si Si8 0.167265 0.838879 0.985354
O O1 0.140412 0.748619 0.642562
O O2 0.942559 0.765048 0.921912
O O3 0.962335 0.687094 0.723734
O O4 0.201401 0.423527 0.032360
O O5 0.898010 0.174519 0.106199
O O6 0.216541 0.887019 0.242506
O O7 0.102150 0.191494 0.815923
O O8 0.346779 0.517023 0.565836
O O9 0.582566 0.355365 0.412577
O O10 0.393345 0.284200 0.583462
O O11 0.284856 0.625382 0.213389
O O12 0.767829 0.786414 0.539144
O O13 0.597983 0.000898 0.190868
O O14 0.735963 0.088318 0.174205
O O15 0.341967 0.061667 0.284802
O O16 0.500000 0.000000 0.000000
O O17 0.000000 0.000000 0.000000
#
# Coordination Sequence:
#
# PCOD8021035 Si02
#       8
#     2   2   2   2   2   2   2   2
#     4  11  25  42  70  99 136 184 231 283 341 413
#     4  11  23  44  71 102 136 181 234 282 347 408
#     4  11  24  40  72 104 130 181 232 276 345 406
#     4  11  22  42  71  99 139 176 234 286 342 403
#     4  11  24  45  71  92 144 180 219 287 344 404
#     4  11  26  45  64 102 142 179 229 283 346 403
#     4  12  26  46  70 100 141 184 233 278 343 416
#     4  10  22  43  67 101 137 174 227 286 341 400
#
# _framework density 22.515117
#
# number of rings (size 3 to 8) (size 9 to 14) (size 15 to 20)
#    0.000    1.000    2.500    4.500    7.000    2.500 
#    0.000    1.250    0.000    0.000    0.000    0.000 
#    0.000    0.000    0.000    0.000    0.000    0.000 
#
# Total GULP energy -198360.860480 kJ/mol
# GULP energy per Si atom -12397.553780 kJ/mol
# Density = 2.246387 g / cm^3
# Si number density = 22.515117 Si / 1000 Ang^3
#
#
#
# Elastic Constant Matrix: (Units=GPa)
#
#
# Indices 1 2 3 4 5 6 
#
# 1 126.2697 16.0111 45.1068 -9.5398 14.7739 -11.8928
# 2 16.0111 87.4443 40.0056 -3.4946 3.4360 3.2088
# 3 45.1068 40.0056 108.5248 -3.4062 17.6264 -9.4194
# 4 -9.5398 -3.4946 -3.4062 43.8773 0.2815 1.4526
# 5 14.7739 3.4360 17.6264 0.2815 36.4437 -2.4667
# 6 -11.8928 3.2088 -9.4194 1.4526 -2.4667 29.5167
#
#
#
# Elastic Compliance Matrix: (Units=1/GPa)
#
#
# Indices 1 2 3 4 5 6 
#
# 1 0.009777 -0.000194 -0.003359 0.001777 -0.002157 0.002621
# 2 -0.000194 0.014135 -0.005594 0.000752 0.001220 -0.003335
# 3 -0.003359 -0.005594 0.013681 -0.000193 -0.004506 0.003254
# 4 0.001777 0.000752 -0.000193 0.023249 -0.000921 -0.000649
# 5 -0.002157 0.001220 -0.004506 -0.000921 0.030395 0.000146
# 6 0.002621 -0.003335 0.003254 -0.000649 0.000146 0.036380
#
#
# Mechanical properties :
#
#
# Convention : Reuss Voigt Hill
#
# Bulk Modulus (GPa) = 51.81378 58.27621 55.04500
# Shear Modulus (GPa) = 32.82017 36.70856 34.76436
#
# Velocity S-wave (km/s) = 3.82212 4.04220 3.93370
# Velocity P-wave (km/s) = 6.52234 6.90834 6.71811
#
# Compressibility (1/GPa) = 0.01929989
#
# Stress axis : x y z
#
# Youngs Moduli (GPa) = 102.27587 70.74578 73.09501
#
# Poissons Ratio (x) = 0.01373 0.24550
# Poissons Ratio (y) = 0.01985 0.40889
# Poissons Ratio (z) = 0.34351 0.39575
#
# Static dielectric constant tensor:
#      x y z
#    x 4.567240 0.108850 0.047610 
#    y 0.108850 3.849080 -0.058940 
#    z 0.047610 -0.058940 3.875710 
# 
# 
# High freq. dielectric constant tensor:
#      x y z
#    x 1.903490 0.006310 0.005410 
#    y 0.006310 1.873590 -0.004730 
#    z 0.005410 -0.004730 1.880280 
# 
# From -- ./inp_files/312351.got.cif
#   From: 2010.06.25/outbox.cif.g09.slc.cpg/sg2_157_cif.got.tgz:312351.got - 2010.06.27 13:26:56.
