data_PCOD8021205
_publ_section_title
;
Structure prediction by ZEFSAII (Michael W. Deem and Ramdas Pophale) SiO2 
 PCOD8021205
Probable space group: P -1
;
_chemical_formula_sum "Si O2"
_cell_formula_units_Z 16
_cell_length_a 8.663352
_cell_length_b 12.079166
_cell_length_c 8.732645
_cell_angle_alpha 124.461696
_cell_angle_beta 106.453107
_cell_angle_gamma 72.662168
_cell_volume 711.562988
_symmetry_space_group_name_H-M "P -1"
_symmetry_group_IT_number 2
_symmetry_cell_setting 'triclinic'
loop_
_space_group_symop_operation_xyz
x,y,z
-x,-y,-z
loop_
_atom_site_type_symbol
_atom_site_label
_atom_site_fract_x
_atom_site_fract_y
_atom_site_fract_z
Si Si1 0.912266 0.375835 0.001450
Si Si2 0.214809 0.875649 0.310861
Si Si3 0.937499 0.647061 0.663548
Si Si4 0.351226 0.894279 0.700149
Si Si5 0.476550 0.098561 0.720547
Si Si6 0.981627 0.081240 0.215762
Si Si7 0.268777 0.366445 0.963691
Si Si8 0.581268 0.628669 0.669543
O O1 0.757540 0.502279 0.053113
O O2 0.941779 0.328860 0.146900
O O3 0.865666 0.256286 0.792648
O O4 0.087757 0.394690 0.004290
O O5 0.281693 0.902969 0.516095
O O6 0.353716 0.843946 0.191113
O O7 0.083868 0.004589 0.323561
O O8 0.752419 0.641578 0.651176
O O9 0.000000 0.500000 0.500000
O O10 0.958277 0.772033 0.655286
O O11 0.207628 0.915346 0.798136
O O12 0.462155 0.755896 0.668257
O O13 0.457371 0.017808 0.812817
O O14 0.325303 0.227724 0.773123
O O15 0.500000 0.000000 0.500000
O O16 0.000000 0.000000 0.000000
O O17 0.400108 0.370113 0.139808
O O18 0.500000 0.500000 0.500000
#
# Coordination Sequence:
#
# PCOD8021205 Si02
#       8
#     2   2   2   2   2   2   2   2
#     4  10  22  43  68  99 131 181 229 281 344 407
#     4  11  23  43  69  99 136 174 233 274 346 405
#     4  11  25  43  68 101 140 180 228 288 337 414
#     4  11  25  43  69  96 140 179 222 282 340 407
#     4  10  24  42  64 101 134 179 225 282 341 410
#     4  12  25  43  70 100 136 178 231 282 338 410
#     4  10  23  41  69  95 136 177 227 282 341 411
#     4  11  24  43  67 101 138 179 225 278 355 407
#
# _framework density 22.485710999999998
#
# number of rings (size 3 to 8) (size 9 to 14) (size 15 to 20)
#    0.000    1.250    1.250    3.375    3.500    9.000 
#    0.000    0.000    0.000    0.000    0.000    0.000 
#    0.000    0.000    0.000    0.000    0.000    0.000 
#
# Total GULP energy -198216.052407 kJ/mol
# GULP energy per Si atom -12388.503275 kJ/mol
# Density = 2.243453 g / cm^3
# Si number density = 22.485711 Si / 1000 Ang^3
#
#
#
# Elastic Constant Matrix: (Units=GPa)
#
#
# Indices 1 2 3 4 5 6 
#
# 1 95.7479 43.0394 32.8507 1.7009 -10.6935 3.0908
# 2 43.0394 191.7639 41.0573 12.9325 -4.1401 -17.0955
# 3 32.8507 41.0573 72.9168 7.3912 -6.8739 -10.0778
# 4 1.7009 12.9325 7.3912 37.5813 -2.8912 0.4950
# 5 -10.6935 -4.1401 -6.8739 -2.8912 29.8641 9.8936
# 6 3.0908 -17.0955 -10.0778 0.4950 9.8936 40.0345
#
#
#
# Elastic Compliance Matrix: (Units=1/GPa)
#
#
# Indices 1 2 3 4 5 6 
#
# 1 0.014073 -0.002453 -0.005301 0.001715 0.005229 -0.004782
# 2 -0.002453 0.006577 -0.002160 -0.001888 -0.001598 0.002872
# 3 -0.005301 -0.002160 0.018174 -0.002612 0.000410 0.003993
# 4 0.001715 -0.001888 -0.002612 0.027992 0.003381 -0.002778
# 5 0.005229 -0.001598 0.000410 0.003381 0.039098 -0.010687
# 6 -0.004782 0.002872 0.003993 -0.002778 -0.010687 0.030254
#
#
# Mechanical properties :
#
#
# Convention : Reuss Voigt Hill
#
# Bulk Modulus (GPa) = 52.64319 66.03593 59.33956
# Shear Modulus (GPa) = 30.80174 37.72808 34.26491
#
# Velocity S-wave (km/s) = 3.70514 4.10062 3.90789
# Velocity P-wave (km/s) = 6.46272 7.20082 6.84173
#
# Compressibility (1/GPa) = 0.01899581
#
# Stress axis : x y z
#
# Youngs Moduli (GPa) = 71.05669 152.05306 55.02287
#
# Poissons Ratio (x) = 0.37294 0.29168
# Poissons Ratio (y) = 0.17428 0.11887
# Poissons Ratio (z) = 0.37668 0.32850
#
# Static dielectric constant tensor:
#      x y z
#    x 4.527210 0.269110 -0.041150 
#    y 0.269110 4.440660 -0.073150 
#    z -0.041150 -0.073150 3.776870 
# 
# 
# High freq. dielectric constant tensor:
#      x y z
#    x 1.899910 0.000730 0.003670 
#    y 0.000730 1.906860 0.001940 
#    z 0.003670 0.001940 1.874410 
# 
# From -- ./inp_files/190262.got.cif
#   From: 2010.06.25/outbox.cif.g09.slc.cpg/sg2_96_cif.got.tgz:190262.got - 2010.06.27 13:26:56.
