data_PCOD8021773
_publ_section_title
;
Structure prediction by ZEFSAII (Michael W. Deem and Ramdas Pophale) SiO2 
 PCOD8021773
Probable space group: P -1
;
_chemical_formula_sum "Si O2"
_cell_formula_units_Z 16
_cell_length_a 11.302265
_cell_length_b 14.385425
_cell_length_c 9.101893
_cell_angle_alpha 124.542300
_cell_angle_beta 108.391531
_cell_angle_gamma 116.417163
_cell_volume 696.987641
_symmetry_space_group_name_H-M "P -1"
_symmetry_group_IT_number 2
_symmetry_cell_setting 'triclinic'
loop_
_space_group_symop_operation_xyz
x,y,z
-x,-y,-z
loop_
_atom_site_type_symbol
_atom_site_label
_atom_site_fract_x
_atom_site_fract_y
_atom_site_fract_z
Si Si1 0.362293 0.374969 0.692719
Si Si2 0.711997 0.156430 0.810012
Si Si3 0.354176 0.560958 0.318821
Si Si4 0.520157 0.344302 0.225167
Si Si5 0.946010 0.223023 0.734583
Si Si6 0.342964 0.812879 0.862046
Si Si7 0.930962 0.018815 0.348945
Si Si8 0.913493 0.418628 0.710597
O O1 0.441735 0.318664 0.589685
O O2 0.376696 0.498338 0.711317
O O3 0.122025 0.176276 0.455211
O O4 0.500000 0.500000 0.000000
O O5 0.828501 0.130818 0.763732
O O6 0.500000 0.000000 0.500000
O O7 0.687611 0.135090 0.956178
O O8 0.855795 0.367088 0.018803
O O9 0.393862 0.551502 0.492066
O O10 0.270330 0.628687 0.351646
O O11 0.181176 0.358896 0.988290
O O12 0.579515 0.257652 0.134220
O O13 0.269952 0.178286 0.985142
O O14 0.851747 0.079355 0.441031
O O15 0.923158 0.333260 0.764290
O O16 0.135959 0.659907 0.544568
O O17 0.500000 0.000000 0.000000
O O18 0.000000 0.000000 0.500000
#
# Coordination Sequence:
#
# PCOD8021773 Si02
#       8
#     2   2   2   2   2   2   2   2
#     4  12  24  45  76  97 134 189 230 283 355 406
#     4  11  22  38  64  99 133 178 221 277 341 407
#     4  10  22  44  68 102 137 173 229 286 342 407
#     4  11  25  45  71 100 141 178 229 296 339 413
#     4  11  23  45  69  97 138 178 229 281 343 415
#     4  11  24  45  65 101 144 180 228 284 349 413
#     4  12  25  46  70 104 135 180 238 288 340 414
#     4  10  23  43  71  97 138 183 224 285 342 416
#
# _framework density 22.955929000000001
#
# number of rings (size 3 to 8) (size 9 to 14) (size 15 to 20)
#    0.000    1.000    2.500    4.500    1.750    2.500 
#   15.750    0.000    0.000    0.000    0.000    0.000 
#    0.000    0.000    0.000    0.000    0.000    0.000 
#
# Total GULP energy -198224.300179 kJ/mol
# GULP energy per Si atom -12389.018761 kJ/mol
# Density = 2.290368 g / cm^3
# Si number density = 22.955929 Si / 1000 Ang^3
#
#
#
# Elastic Constant Matrix: (Units=GPa)
#
#
# Indices 1 2 3 4 5 6 
#
# 1 103.8774 66.1929 25.6416 -0.1969 0.0275 24.2427
# 2 66.1929 151.5008 54.6216 -5.1264 7.3086 11.6139
# 3 25.6416 54.6216 148.7692 -14.7492 13.6080 6.9198
# 4 -0.1969 -5.1264 -14.7492 45.4639 8.1255 -5.0719
# 5 0.0275 7.3086 13.6080 8.1255 31.5019 -7.2184
# 6 24.2427 11.6139 6.9198 -5.0719 -7.2184 42.9311
#
#
#
# Elastic Compliance Matrix: (Units=1/GPa)
#
#
# Indices 1 2 3 4 5 6 
#
# 1 0.015199 -0.006081 -0.000238 -0.001532 0.000284 -0.007032
# 2 -0.006081 0.010187 -0.002568 0.000608 -0.001185 0.000965
# 3 -0.000238 -0.002568 0.008417 0.003065 -0.004023 -0.000842
# 4 -0.001532 0.000608 0.003065 0.024578 -0.007375 0.001870
# 5 0.000284 -0.001185 -0.004023 -0.007375 0.037073 0.006171
# 6 -0.007032 0.000965 -0.000842 0.001870 0.006171 0.028397
#
#
# Mechanical properties :
#
#
# Convention : Reuss Voigt Hill
#
# Bulk Modulus (GPa) = 62.38972 77.45107 69.92040
# Shear Modulus (GPa) = 34.02069 41.15881 37.58975
#
# Velocity S-wave (km/s) = 3.85385 4.23892 4.05096
# Velocity P-wave (km/s) = 6.85857 7.60067 7.23913
#
# Compressibility (1/GPa) = 0.01602828
#
# Stress axis : x y z
#
# Youngs Moduli (GPa) = 65.79481 98.16015 118.80948
#
# Poissons Ratio (x) = 0.59695 0.02823
# Poissons Ratio (y) = 0.40012 0.30515
# Poissons Ratio (z) = 0.01563 0.25212
#
# Static dielectric constant tensor:
#      x y z
#    x 4.420330 0.273110 -0.037660 
#    y 0.273110 4.160950 -0.160650 
#    z -0.037660 -0.160650 4.518740 
# 
# 
# High freq. dielectric constant tensor:
#      x y z
#    x 1.906700 0.010940 -0.004690 
#    y 0.010940 1.899550 -0.011810 
#    z -0.004690 -0.011810 1.928910 
# 
# From -- ./inp_files/274122.got.cif
#   From: 2010.06.25/outbox.cif.g09.slc.cpg/sg2_138_cif.got.tgz:274122.got - 2010.06.27 13:26:56.
