data_PCOD8021794
_publ_section_title
;
Structure prediction by ZEFSAII (Michael W. Deem and Ramdas Pophale) SiO2 
 PCOD8021794
Probable space group: P -1
;
_chemical_formula_sum "Si O2"
_cell_formula_units_Z 14
_cell_length_a 6.553806
_cell_length_b 12.691772
_cell_length_c 11.534624
_cell_angle_alpha 98.889288
_cell_angle_beta 140.867771
_cell_angle_gamma 94.166597
_cell_volume 569.013395
_symmetry_space_group_name_H-M "P -1"
_symmetry_group_IT_number 2
_symmetry_cell_setting 'triclinic'
loop_
_space_group_symop_operation_xyz
x,y,z
-x,-y,-z
loop_
_atom_site_type_symbol
_atom_site_label
_atom_site_fract_x
_atom_site_fract_y
_atom_site_fract_z
Si Si1 0.226520 0.944412 0.964034
Si Si2 0.065043 0.321722 0.598050
Si Si3 0.660721 0.315656 0.726913
Si Si4 0.681906 0.292683 0.981674
Si Si5 0.124598 0.504645 0.330119
Si Si6 0.652078 0.086821 0.359420
Si Si7 0.742943 0.922493 0.548287
O O1 0.279254 0.826060 0.992122
O O2 0.863784 0.931165 0.739521
O O3 0.500000 0.000000 0.000000
O O4 0.299672 0.023581 0.125126
O O5 0.290477 0.336977 0.582580
O O6 0.983817 0.438941 0.595343
O O7 0.708277 0.220006 0.418394
O O8 0.287589 0.289340 0.795491
O O9 0.902426 0.407738 0.766554
O O10 0.579151 0.189279 0.621908
O O11 0.857456 0.328477 0.939054
O O12 0.863695 0.382329 0.174295
O O13 0.500000 0.500000 0.500000
O O14 0.967667 0.080237 0.417800
O O15 0.641942 0.031075 0.475410
#
# Coordination Sequence:
#
# PCOD8021794 Si02
#       7
#     2   2   2   2   2   2   2
#     4  10  17  28  61  94 119 156 202 246 304 365
#     4   9  21  38  63  84 122 160 206 247 304 368
#     4   9  20  38  62  84 122 162 199 247 306 358
#     4  10  20  39  61  87 121 162 204 246 303 367
#     4  12  24  39  61  89 120 159 210 256 303 361
#     4   9  15  32  54  88 123 154 196 252 297 361
#     4   9  15  29  56  90 120 156 199 242 305 360
#
# _framework density 24.603991000000001
#
# number of rings (size 3 to 8) (size 9 to 14) (size 15 to 20)
#    0.857    1.429    1.429    3.429    0.000    0.571 
#    0.000    0.714    6.286    1.714    0.000    0.000 
#    0.000    0.000    0.000    0.000    0.000    0.000 
#
# Total GULP energy -173500.157320 kJ/mol
# GULP energy per Si atom -12392.868380 kJ/mol
# Density = 2.454799 g / cm^3
# Si number density = 24.603991 Si / 1000 Ang^3
#
#
#
# Elastic Constant Matrix: (Units=GPa)
#
#
# Indices 1 2 3 4 5 6 
#
# 1 34.5233 4.9866 3.0381 0.1546 -14.2653 3.1256
# 2 4.9866 64.7994 46.0806 22.3953 -5.3297 -9.8951
# 3 3.0381 46.0806 112.3243 20.4062 -11.3450 -20.8499
# 4 0.1546 22.3953 20.4062 51.6680 -6.2601 -5.1414
# 5 -14.2653 -5.3297 -11.3450 -6.2601 38.8316 -2.7257
# 6 3.1256 -9.8951 -20.8499 -5.1414 -2.7257 40.3923
#
#
#
# Elastic Compliance Matrix: (Units=1/GPa)
#
#
# Indices 1 2 3 4 5 6 
#
# 1 0.034850 -0.003428 0.000989 0.002366 0.012872 -0.001856
# 2 -0.003428 0.024281 -0.008566 -0.007242 -0.001543 0.000766
# 3 0.000989 -0.008566 0.013835 -0.000829 0.003454 0.005094
# 4 0.002366 -0.007242 -0.000829 0.023312 0.003448 0.000815
# 5 0.012872 -0.001543 0.003454 0.003448 0.032046 0.003010
# 6 -0.001856 0.000766 0.005094 0.000815 0.003010 0.028025
#
#
# Mechanical properties :
#
#
# Convention : Reuss Voigt Hill
#
# Bulk Modulus (GPa) = 19.62446 35.53972 27.58209
# Shear Modulus (GPa) = 25.59587 36.68116 31.13851
#
# Velocity S-wave (km/s) = 3.22889 3.86536 3.56137
# Velocity P-wave (km/s) = 4.67915 5.86493 5.30527
#
# Compressibility (1/GPa) = 0.05095681
#
# Stress axis : x y z
#
# Youngs Moduli (GPa) = 28.69412 41.18511 72.27861
#
# Poissons Ratio (x) = 0.14117 -0.07152
# Poissons Ratio (y) = 0.09836 0.61917
# Poissons Ratio (z) = -0.02839 0.35281
#
# Static dielectric constant tensor:
#      x y z
#    x 4.388610 -0.008470 -0.205890 
#    y -0.008470 4.299600 0.118130 
#    z -0.205890 0.118130 4.664970 
# 
# 
# High freq. dielectric constant tensor:
#      x y z
#    x 1.992950 -0.004150 -0.006830 
#    y -0.004150 1.976880 0.009240 
#    z -0.006830 0.009240 1.967710 
# 
# From -- ./inp_files/500488.got.cif
#   From: 2010.06.25/outbox.cif.g09.slc.cpg/sg2_251_cif.got.tgz:500488.got - 2010.06.27 13:26:56.
