data_PCOD8021479
_publ_section_title
;
Structure prediction by ZEFSAII (Michael W. Deem and Ramdas Pophale) SiO2 
 PCOD8021479
Probable space group: P -1
;
_chemical_formula_sum "Si O2"
_cell_formula_units_Z 14
_cell_length_a 9.272463
_cell_length_b 17.443507
_cell_length_c 6.602435
_cell_angle_alpha 102.573499
_cell_angle_beta 134.639200
_cell_angle_gamma 59.993334
_cell_volume 642.340209
_symmetry_space_group_name_H-M "P -1"
_symmetry_group_IT_number 2
_symmetry_cell_setting 'triclinic'
loop_
_space_group_symop_operation_xyz
x,y,z
-x,-y,-z
loop_
_atom_site_type_symbol
_atom_site_label
_atom_site_fract_x
_atom_site_fract_y
_atom_site_fract_z
Si Si1 0.303376 0.980519 0.725725
Si Si2 0.165223 0.467904 0.332611
Si Si3 0.285264 0.588399 0.740253
Si Si4 0.642738 0.341582 0.546265
Si Si5 0.955746 0.680208 0.805341
Si Si6 0.895289 0.069102 0.118743
Si Si7 0.441519 0.813394 0.466948
O O1 0.217058 0.966105 0.847306
O O2 0.387811 0.895367 0.610717
O O3 0.106753 0.068839 0.455884
O O4 0.500000 0.000000 0.000000
O O5 0.111746 0.555125 0.461425
O O6 0.437530 0.423697 0.515022
O O7 0.109367 0.397603 0.347991
O O8 0.000000 0.500000 0.000000
O O9 0.384631 0.631735 0.701706
O O10 0.126487 0.671514 0.783845
O O11 0.500000 0.500000 0.000000
O O12 0.614971 0.253648 0.498883
O O13 0.893558 0.328853 0.851169
O O14 0.710370 0.772983 0.638362
O O15 0.708667 0.162099 0.877388
O O16 0.000000 0.000000 0.000000
#
# Coordination Sequence:
#
# PCOD8021479 Si02
#       7
#     2   2   2   2   2   2   2
#     4  10  22  43  74 101 125 172 216 256 321 391
#     4  11  21  42  66  87 125 170 225 275 317 386
#     4  12  23  41  70  91 124 181 230 270 320 385
#     4  11  24  42  60  93 134 171 214 275 336 367
#     4  11  24  40  62  96 128 175 214 274 334 367
#     4   9  21  43  68  98 127 165 211 258 315 389
#     4  10  25  43  64  95 141 168 211 269 323 394
#
# _framework density 21.795304999999999
#
# number of rings (size 3 to 8) (size 9 to 14) (size 15 to 20)
#    0.000    1.429    2.857    1.714    0.000    9.143 
#    0.000    0.000    0.000    0.000    0.000    0.000 
#    0.000    0.000    0.000    0.000    0.000    0.000 
#
# Total GULP energy -173446.215832 kJ/mol
# GULP energy per Si atom -12389.015417 kJ/mol
# Density = 2.174570 g / cm^3
# Si number density = 21.795305 Si / 1000 Ang^3
#
#
#
# Elastic Constant Matrix: (Units=GPa)
#
#
# Indices 1 2 3 4 5 6 
#
# 1 131.2461 42.2500 68.4271 -11.5439 -8.7017 -11.3432
# 2 42.2500 71.0838 52.8104 -6.9137 -3.0997 -5.8235
# 3 68.4271 52.8104 171.6041 -16.4004 7.1628 4.3843
# 4 -11.5439 -6.9137 -16.4004 38.3770 1.3296 2.9516
# 5 -8.7017 -3.0997 7.1628 1.3296 45.4444 -1.5901
# 6 -11.3432 -5.8235 4.3843 2.9516 -1.5901 32.8908
#
#
#
# Elastic Compliance Matrix: (Units=1/GPa)
#
#
# Indices 1 2 3 4 5 6 
#
# 1 0.011133 -0.003541 -0.003469 0.000854 0.002542 0.003721
# 2 -0.003541 0.020166 -0.004921 0.000174 0.001575 0.003066
# 3 -0.003469 -0.004921 0.009153 0.002352 -0.002638 -0.003626
# 4 0.000854 0.000174 0.002352 0.027582 -0.001090 -0.002516
# 5 0.002542 0.001575 -0.002638 -0.001090 0.023142 0.002724
# 6 0.003721 0.003066 -0.003626 -0.002516 0.002724 0.033071
#
#
# Mechanical properties :
#
#
# Convention : Reuss Voigt Hill
#
# Bulk Modulus (GPa) = 60.28299 77.87876 69.08088
# Shear Modulus (GPa) = 32.54387 37.37221 34.95804
#
# Velocity S-wave (km/s) = 3.86833 4.14538 4.00925
# Velocity P-wave (km/s) = 6.90440 7.66301 7.29357
#
# Compressibility (1/GPa) = 0.01658843
#
# Stress axis : x y z
#
# Youngs Moduli (GPa) = 89.82149 49.58949 109.25719
#
# Poissons Ratio (x) = 0.17560 0.37903
# Poissons Ratio (y) = 0.31806 0.53769
# Poissons Ratio (z) = 0.31161 0.24404
#
# Static dielectric constant tensor:
#      x y z
#    x 4.063700 -0.179580 -0.070350 
#    y -0.179580 3.503810 -0.389640 
#    z -0.070350 -0.389640 4.301840 
# 
# 
# High freq. dielectric constant tensor:
#      x y z
#    x 1.865690 -0.009810 0.001110 
#    y -0.009810 1.834180 -0.002280 
#    z 0.001110 -0.002280 1.876520 
# 
# From -- ./inp_files/10773.got.cif
#   From: 2010.06.25/outbox.cif.g09.slc.cpg/sg2_6_cif.got.tgz:10773.got - 2010.06.27 13:26:56.
