data_PCOD8021036
_publ_section_title
;
Structure prediction by ZEFSAII (Michael W. Deem and Ramdas Pophale) SiO2 
 PCOD8021036
Probable space group: P -1
;
_chemical_formula_sum "Si O2"
_cell_formula_units_Z 16
_cell_length_a 10.416024
_cell_length_b 9.491651
_cell_length_c 11.513322
_cell_angle_alpha 52.736566
_cell_angle_beta 52.268253
_cell_angle_gamma 61.342358
_cell_volume 705.630779
_symmetry_space_group_name_H-M "P -1"
_symmetry_group_IT_number 2
_symmetry_cell_setting 'triclinic'
loop_
_space_group_symop_operation_xyz
x,y,z
-x,-y,-z
loop_
_atom_site_type_symbol
_atom_site_label
_atom_site_fract_x
_atom_site_fract_y
_atom_site_fract_z
Si Si1 0.606206 0.926658 0.589874
Si Si2 0.724952 0.572185 0.133119
Si Si3 0.961635 0.804501 0.143642
Si Si4 0.014982 0.438743 0.187038
Si Si5 0.792203 0.202718 0.804566
Si Si6 0.367278 0.100232 0.824464
Si Si7 0.968357 0.862644 0.491368
Si Si8 0.465985 0.462938 0.170505
O O1 0.533730 0.023966 0.701295
O O2 0.800863 0.938265 0.473153
O O3 0.600587 0.719290 0.701751
O O4 0.500000 0.000000 0.500000
O O5 0.831235 0.442372 0.234137
O O6 0.623812 0.451385 0.172693
O O7 0.609628 0.742562 0.175075
O O8 0.850446 0.650408 0.937358
O O9 0.038861 0.646668 0.089804
O O10 0.044032 0.750055 0.247733
O O11 0.764339 0.817145 0.243401
O O12 0.000000 0.000000 0.000000
O O13 0.039647 0.329195 0.348152
O O14 0.665588 0.384845 0.774618
O O15 0.863480 0.142745 0.670498
O O16 0.703082 0.054890 0.989602
O O17 0.000000 0.000000 0.500000
O O18 0.500000 0.500000 0.000000
#
# Coordination Sequence:
#
# PCOD8021036 Si02
#       8
#     2   2   2   2   2   2   2   2
#     4  12  28  47  72 105 149 182 237 297 360 417
#     4  10  23  41  73 100 137 184 238 291 357 417
#     4   9  19  37  67 100 133 173 232 286 350 411
#     4  10  22  43  67 101 142 182 238 293 351 429
#     4  11  23  41  71  99 139 184 236 285 350 424
#     4  10  22  43  71 104 134 184 236 287 345 429
#     4  12  28  45  68 102 146 190 232 294 358 419
#     4  12  25  44  72 106 137 187 235 299 351 420
#
# _framework density 22.674748000000001
#
# number of rings (size 3 to 8) (size 9 to 14) (size 15 to 20)
#    0.000    1.250    1.250    3.750    5.250    5.500 
#    0.000    1.250    0.000    0.000    0.000    0.000 
#    0.000    0.000    0.000    0.000    0.000    0.000 
#
# Total GULP energy -198273.367914 kJ/mol
# GULP energy per Si atom -12392.085495 kJ/mol
# Density = 2.262314 g / cm^3
# Si number density = 22.674748 Si / 1000 Ang^3
#
#
#
# Elastic Constant Matrix: (Units=GPa)
#
#
# Indices 1 2 3 4 5 6 
#
# 1 106.4804 33.9075 12.0094 2.0953 8.4386 2.0818
# 2 33.9075 111.3163 29.4940 24.1771 -9.0859 2.7548
# 3 12.0094 29.4940 85.0413 22.9955 3.0912 -12.6193
# 4 2.0953 24.1771 22.9955 41.3837 -3.1994 -1.3574
# 5 8.4386 -9.0859 3.0912 -3.1994 29.0488 0.0807
# 6 2.0818 2.7548 -12.6193 -1.3574 0.0807 39.6620
#
#
#
# Elastic Compliance Matrix: (Units=1/GPa)
#
#
# Indices 1 2 3 4 5 6 
#
# 1 0.011003 -0.003899 -0.000573 0.001704 -0.004166 -0.000422
# 2 -0.003899 0.012479 -0.002795 -0.005229 0.004762 -0.001740
# 3 -0.000573 -0.002795 0.015570 -0.007072 -0.003157 0.004942
# 4 0.001704 -0.005229 -0.007072 0.031192 0.002060 -0.000913
# 5 -0.004166 0.004762 -0.003157 0.002060 0.037691 -0.001123
# 6 -0.000422 -0.001740 0.004942 -0.000913 -0.001123 0.026900
#
#
# Mechanical properties :
#
#
# Convention : Reuss Voigt Hill
#
# Bulk Modulus (GPa) = 40.78816 50.40665 45.59741
# Shear Modulus (GPa) = 31.73804 37.18070 34.45937
#
# Velocity S-wave (km/s) = 3.74533 4.05376 3.90259
# Velocity P-wave (km/s) = 6.06059 6.64750 6.36082
#
# Compressibility (1/GPa) = 0.02451692
#
# Stress axis : x y z
#
# Youngs Moduli (GPa) = 90.88774 80.13444 64.22769
#
# Poissons Ratio (x) = 0.31245 0.03683
# Poissons Ratio (y) = 0.35438 0.17950
# Poissons Ratio (z) = 0.05211 0.22395
#
# Static dielectric constant tensor:
#      x y z
#    x -1.370860 3.761690 -5.026760 
#    y 3.761690 1.777450 3.451030 
#    z -5.026760 3.451030 -6.042820 
# 
# 
# High freq. dielectric constant tensor:
#      x y z
#    x 1.910780 -0.000040 0.007630 
#    y -0.000040 1.911870 0.012340 
#    z 0.007630 0.012340 1.862800 
# 
# From -- ./inp_files/416438.got.cif
#   From: 2010.06.25/outbox.cif.g09.slc.cpg/sg2_209_cif.got.tgz:416438.got - 2010.06.27 13:26:56.
