data_PCOD8021448
_publ_section_title
;
Structure prediction by ZEFSAII (Michael W. Deem and Ramdas Pophale) SiO2 
 PCOD8021448
Probable space group: P -1
;
_chemical_formula_sum "Si O2"
_cell_formula_units_Z 14
_cell_length_a 8.908442
_cell_length_b 23.471041
_cell_length_c 17.170608
_cell_angle_alpha 20.726614
_cell_angle_beta 150.391732
_cell_angle_gamma 150.420286
_cell_volume 594.071597
_symmetry_space_group_name_H-M "P -1"
_symmetry_group_IT_number 2
_symmetry_cell_setting 'triclinic'
loop_
_space_group_symop_operation_xyz
x,y,z
-x,-y,-z
loop_
_atom_site_type_symbol
_atom_site_label
_atom_site_fract_x
_atom_site_fract_y
_atom_site_fract_z
Si Si1 0.656585 0.362704 0.659818
Si Si2 0.768642 0.993888 0.832618
Si Si3 0.792829 0.760207 0.900703
Si Si4 0.422577 0.651739 0.178713
Si Si5 0.158437 0.489036 0.003062
Si Si6 0.817358 0.946625 0.209344
Si Si7 0.728517 0.821310 0.619890
O O1 0.696238 0.559703 0.412526
O O2 0.574239 0.297100 0.795344
O O3 0.347809 0.257672 0.601398
O O4 0.991847 0.330443 0.836573
O O5 0.614408 0.146098 0.571588
O O6 0.965906 0.995106 0.843070
O O7 0.488358 0.812637 0.945498
O O8 0.000000 0.000000 0.000000
O O9 0.803322 0.741479 0.836613
O O10 0.436141 0.669612 0.886597
O O11 0.938504 0.964220 0.724401
O O12 0.084695 0.522105 0.163787
O O13 0.284294 0.323445 0.265655
O O14 0.000000 0.500000 0.000000
O O15 0.500000 0.000000 0.000000
O O16 0.000000 0.000000 0.500000
#
# Coordination Sequence:
#
# PCOD8021448 Si02
#       7
#     2   2   2   2   2   2   2
#     4  10  22  43  72  99 140 185 239 298 354 426
#     4  12  25  45  73 104 144 194 243 289 358 437
#     4  11  25  46  73 102 145 189 247 292 370 435
#     4  11  23  43  70 105 139 184 240 293 358 428
#     4  12  27  48  70 109 151 185 242 304 366 435
#     4  10  24  46  70 106 143 188 241 304 357 425
#     4  12  27  47  75 105 148 197 241 301 366 433
#
# _framework density 23.566182000000001
#
# number of rings (size 3 to 8) (size 9 to 14) (size 15 to 20)
#    0.000    0.857    4.286    1.286    6.000    1.714 
#    2.571    3.571    0.000    0.000    0.000    0.000 
#    0.000    0.000    0.000    0.000    0.000    0.000 
#
# Total GULP energy -173470.227824 kJ/mol
# GULP energy per Si atom -12390.730559 kJ/mol
# Density = 2.351254 g / cm^3
# Si number density = 23.566182 Si / 1000 Ang^3
#
#
#
# Elastic Constant Matrix: (Units=GPa)
#
#
# Indices 1 2 3 4 5 6 
#
# 1 116.0588 30.1347 24.2931 -8.7270 24.5007 -2.9209
# 2 30.1347 139.0270 18.9748 0.0439 11.2353 -3.5365
# 3 24.2931 18.9748 105.8520 5.1142 20.9212 -1.7834
# 4 -8.7270 0.0439 5.1142 27.1278 3.5623 1.3268
# 5 24.5007 11.2353 20.9212 3.5623 28.3595 -4.8129
# 6 -2.9209 -3.5365 -1.7834 1.3268 -4.8129 36.2829
#
#
#
# Elastic Compliance Matrix: (Units=1/GPa)
#
#
# Indices 1 2 3 4 5 6 
#
# 1 0.011595 -0.001659 -0.000729 0.005166 -0.009594 -0.000726
# 2 -0.001659 0.007749 -0.000803 -0.000296 -0.000928 0.000470
# 3 -0.000729 -0.000803 0.011252 -0.001376 -0.007264 -0.000497
# 4 0.005166 -0.000296 -0.001376 0.040046 -0.008752 -0.002306
# 5 -0.009594 -0.000928 -0.007264 -0.008752 0.051380 0.005916
# 6 -0.000726 0.000470 -0.000497 -0.002306 0.005916 0.028393
#
#
# Mechanical properties :
#
#
# Convention : Reuss Voigt Hill
#
# Bulk Modulus (GPa) = 41.29634 56.41588 48.85611
# Shear Modulus (GPa) = 30.32702 37.52304 33.92503
#
# Velocity S-wave (km/s) = 3.59121 3.99462 3.79828
# Velocity P-wave (km/s) = 5.89554 6.72810 6.32553
#
# Compressibility (1/GPa) = 0.02421522
#
# Stress axis : x y z
#
# Youngs Moduli (GPa) = 86.24242 129.04982 88.87039
#
# Poissons Ratio (x) = 0.21403 0.06482
# Poissons Ratio (y) = 0.14303 0.07135
# Poissons Ratio (z) = 0.06290 0.10360
#
# Static dielectric constant tensor:
#      x y z
#    x 3.586470 0.034630 1.142400 
#    y 0.034630 4.864790 -0.368410 
#    z 1.142400 -0.368410 3.188110 
# 
# 
# High freq. dielectric constant tensor:
#      x y z
#    x 1.922270 0.000500 0.025030 
#    y 0.000500 1.950420 -0.002260 
#    z 0.025030 -0.002260 1.927100 
# 
# From -- ./inp_files/159141.got.cif
#   From: 2010.06.25/outbox.cif.g09.slc.cpg/sg2_80_cif.got.tgz:159141.got - 2010.06.27 13:26:56.
