data_PCOD8021884
_publ_section_title
;
Structure prediction by ZEFSAII (Michael W. Deem and Ramdas Pophale) SiO2 
 PCOD8021884
Probable space group: P -1
;
_chemical_formula_sum "Si O2"
_cell_formula_units_Z 16
_cell_length_a 10.332643
_cell_length_b 13.450223
_cell_length_c 8.226652
_cell_angle_alpha 94.130600
_cell_angle_beta 136.003028
_cell_angle_gamma 109.743055
_cell_volume 654.978771
_symmetry_space_group_name_H-M "P -1"
_symmetry_group_IT_number 2
_symmetry_cell_setting 'triclinic'
loop_
_space_group_symop_operation_xyz
x,y,z
-x,-y,-z
loop_
_atom_site_type_symbol
_atom_site_label
_atom_site_fract_x
_atom_site_fract_y
_atom_site_fract_z
Si Si1 0.031798 0.602513 0.719620
Si Si2 0.853346 0.608156 0.894226
Si Si3 0.550722 0.758167 0.199131
Si Si4 0.914320 0.884441 0.299947
Si Si5 0.447526 0.151116 0.248007
Si Si6 0.893193 0.342300 0.547779
Si Si7 0.513153 0.660045 0.474454
Si Si8 0.401900 0.994567 0.734456
O O1 0.975138 0.643608 0.502011
O O2 0.993322 0.654587 0.856022
O O3 0.882063 0.458311 0.577902
O O4 0.291529 0.650344 0.932613
O O5 0.666666 0.639146 0.727456
O O6 0.731841 0.464208 0.785036
O O7 0.994423 0.673119 0.191752
O O8 0.708852 0.769028 0.195340
O O9 0.638283 0.717834 0.424536
O O10 0.571743 0.882461 0.273243
O O11 0.133991 0.882088 0.467891
O O12 0.806746 0.895442 0.037719
O O13 0.000000 0.000000 0.500000
O O14 0.633249 0.226359 0.280467
O O15 0.531029 0.242698 0.483593
O O16 0.464430 0.036162 0.278126
O O17 0.500000 0.000000 0.000000
#
# Coordination Sequence:
#
# PCOD8021884 Si02
#       8
#     2   2   2   2   2   2   2   2
#     4  11  21  41  71 106 136 189 241 290 360 431
#     4  11  24  47  66  99 155 193 233 295 367 417
#     4  11  22  44  69 101 140 180 236 293 350 428
#     4  10  22  44  69  98 140 177 233 296 339 419
#     4  12  23  44  69 103 141 183 236 289 356 424
#     4  11  22  39  73 106 136 189 244 287 357 434
#     4  11  26  44  65 100 146 191 234 301 355 418
#     4  11  23  44  75 102 134 190 230 291 367 415
#
# _framework density 24.428270999999999
#
# number of rings (size 3 to 8) (size 9 to 14) (size 15 to 20)
#    0.000    1.000    6.250    1.125    1.750    2.500 
#    0.000    3.750    0.000    0.000    0.000    0.000 
#    0.000    0.000    0.000    0.000    0.000    0.000 
#
# Total GULP energy -198269.537438 kJ/mol
# GULP energy per Si atom -12391.846090 kJ/mol
# Density = 2.437267 g / cm^3
# Si number density = 24.428271 Si / 1000 Ang^3
#
#
#
# Elastic Constant Matrix: (Units=GPa)
#
#
# Indices 1 2 3 4 5 6 
#
# 1 85.1055 8.8821 34.1846 -13.8529 -4.7780 2.8917
# 2 8.8821 45.8337 30.7741 -3.8773 -7.0707 4.2128
# 3 34.1846 30.7741 130.6226 -7.5963 9.6620 3.2957
# 4 -13.8529 -3.8773 -7.5963 34.3801 4.5527 -6.8680
# 5 -4.7780 -7.0707 9.6620 4.5527 44.2555 -1.3646
# 6 2.8917 4.2128 3.2957 -6.8680 -1.3646 36.3616
#
#
#
# Elastic Compliance Matrix: (Units=1/GPa)
#
#
# Indices 1 2 3 4 5 6 
#
# 1 0.014032 0.000400 -0.003638 0.004668 0.001897 0.000120
# 2 0.000400 0.027554 -0.006941 0.000506 0.005839 -0.002280
# 3 -0.003638 -0.006941 0.010563 0.000619 -0.003868 0.000108
# 4 0.004668 0.000506 0.000619 0.032637 -0.002736 0.005576
# 5 0.001897 0.005839 -0.003868 -0.002736 0.024858 -0.000061
# 6 0.000120 -0.002280 0.000108 0.005576 -0.000061 0.028797
#
#
# Mechanical properties :
#
#
# Convention : Reuss Voigt Hill
#
# Bulk Modulus (GPa) = 31.45676 45.47147 38.46412
# Shear Modulus (GPa) = 29.51650 35.51419 32.51534
#
# Velocity S-wave (km/s) = 3.47982 3.81703 3.65232
# Velocity P-wave (km/s) = 5.38987 6.17098 5.79360
#
# Compressibility (1/GPa) = 0.03178967
#
# Stress axis : x y z
#
# Youngs Moduli (GPa) = 71.26551 36.29222 94.67432
#
# Poissons Ratio (x) = -0.01452 0.34446
# Poissons Ratio (y) = -0.02851 0.65716
# Poissons Ratio (z) = 0.25929 0.25191
#
# Static dielectric constant tensor:
#      x y z
#    x 4.647680 0.148730 0.186240 
#    y 0.148730 4.401500 0.038920 
#    z 0.186240 0.038920 4.599880 
# 
# 
# High freq. dielectric constant tensor:
#      x y z
#    x 1.952470 -0.001780 -0.003870 
#    y -0.001780 1.962960 0.004130 
#    z -0.003870 0.004130 1.979930 
# 
# From -- ./inp_files/273267.got.cif
#   From: 2010.06.25/outbox.cif.g09.slc.cpg/sg2_137_cif.got.tgz:273267.got - 2010.06.27 13:26:56.
