data_PCOD8021644
_publ_section_title
;
Structure prediction by ZEFSAII (Michael W. Deem and Ramdas Pophale) SiO2 
 PCOD8021644
Probable space group: P -1
;
_chemical_formula_sum "Si O2"
_cell_formula_units_Z 16
_cell_length_a 14.550615
_cell_length_b 14.221486
_cell_length_c 8.280408
_cell_angle_alpha 86.584392
_cell_angle_beta 111.423550
_cell_angle_gamma 36.568482
_cell_volume 733.075856
_symmetry_space_group_name_H-M "P -1"
_symmetry_group_IT_number 2
_symmetry_cell_setting 'triclinic'
loop_
_space_group_symop_operation_xyz
x,y,z
-x,-y,-z
loop_
_atom_site_type_symbol
_atom_site_label
_atom_site_fract_x
_atom_site_fract_y
_atom_site_fract_z
Si Si1 0.037417 0.402856 0.288502
Si Si2 0.304113 0.595025 0.884928
Si Si3 0.453928 0.998537 0.792746
Si Si4 0.769878 0.008474 0.990013
Si Si5 0.881381 0.714564 0.996101
Si Si6 0.080365 0.000698 0.185700
Si Si7 0.079514 0.859102 0.435138
Si Si8 0.596669 0.696360 0.047771
O O1 0.231438 0.221327 0.553456
O O2 0.041954 0.336853 0.134166
O O3 0.826704 0.550657 0.237507
O O4 0.030332 0.518100 0.216727
O O5 0.125122 0.779184 0.879013
O O6 0.211011 0.667564 0.633551
O O7 0.383933 0.423924 0.004616
O O8 0.500000 0.500000 0.000000
O O9 0.642121 0.874833 0.809640
O O10 0.500000 0.000000 0.000000
O O11 0.457354 0.881111 0.818322
O O12 0.887226 0.974696 0.199869
O O13 0.887666 0.808147 0.083143
O O14 0.771980 0.046945 0.803539
O O15 0.523267 0.206825 0.865863
O O16 0.214229 0.816503 0.408638
O O17 0.000000 0.000000 0.000000
O O18 0.000000 0.000000 0.500000
#
# Coordination Sequence:
#
# PCOD8021644 Si02
#       8
#     2   2   2   2   2   2   2   2
#     4  10  24  43  71  91 137 173 226 272 333 398
#     4  11  22  40  63  94 132 165 223 270 321 398
#     4  11  23  43  67  96 137 176 220 277 331 396
#     4  11  21  41  63  94 134 162 225 266 330 398
#     4  10  22  44  66 100 127 176 220 280 333 392
#     4   9  19  39  64  87 123 169 204 268 326 379
#     4   9  20  38  66  88 123 175 205 266 331 384
#     4  11  24  39  65  98 129 174 221 268 325 394
#
# _framework density 21.825845000000001
#
# number of rings (size 3 to 8) (size 9 to 14) (size 15 to 20)
#    0.000    1.750    1.250    3.375    1.750    3.000 
#    2.250    5.625    0.000    0.000    0.000    0.000 
#    0.000    0.000    0.000    0.000    0.000    0.000 
#
# Total GULP energy -198221.784974 kJ/mol
# GULP energy per Si atom -12388.861561 kJ/mol
# Density = 2.177617 g / cm^3
# Si number density = 21.825845 Si / 1000 Ang^3
#
#
#
# Elastic Constant Matrix: (Units=GPa)
#
#
# Indices 1 2 3 4 5 6 
#
# 1 137.2077 58.8630 53.4571 -1.4993 -20.3363 -8.9232
# 2 58.8630 126.7329 46.2192 0.0444 -14.2268 3.4180
# 3 53.4571 46.2192 131.8754 -8.6717 -16.0211 -5.1755
# 4 -1.4993 0.0444 -8.6717 28.7054 -2.2720 1.6270
# 5 -20.3363 -14.2268 -16.0211 -2.2720 21.6854 -2.7139
# 6 -8.9232 3.4180 -5.1755 1.6270 -2.7139 55.0218
#
#
#
# Elastic Compliance Matrix: (Units=1/GPa)
#
#
# Indices 1 2 3 4 5 6 
#
# 1 0.010759 -0.003512 -0.002253 0.000277 0.006408 0.002059
# 2 -0.003512 0.010543 -0.002145 -0.000630 0.001807 -0.001318
# 3 -0.002253 -0.002145 0.010016 0.003206 0.004319 0.000828
# 4 0.000277 -0.000630 0.003206 0.036316 0.005971 -0.000394
# 5 0.006408 0.001807 0.004319 0.005971 0.057626 0.003999
# 6 0.002059 -0.001318 0.000828 -0.000394 0.003999 0.018877
#
#
# Mechanical properties :
#
#
# Convention : Reuss Voigt Hill
#
# Bulk Modulus (GPa) = 64.52324 79.21052 71.86688
# Shear Modulus (GPa) = 30.28038 36.90098 33.59068
#
# Velocity S-wave (km/s) = 3.72877 4.11627 3.92731
# Velocity P-wave (km/s) = 6.94012 7.67870 7.31873
#
# Compressibility (1/GPa) = 0.01549829
#
# Stress axis : x y z
#
# Youngs Moduli (GPa) = 92.94209 94.85212 99.83976
#
# Poissons Ratio (x) = 0.33312 0.22494
# Poissons Ratio (y) = 0.32641 0.21415
# Poissons Ratio (z) = 0.20940 0.20345
#
# Static dielectric constant tensor:
#      x y z
#    x 5.177330 -0.308290 -0.586170 
#    y -0.308290 4.243750 -0.065840 
#    z -0.586170 -0.065840 3.615540 
# 
# 
# High freq. dielectric constant tensor:
#      x y z
#    x 1.877200 0.001160 -0.024100 
#    y 0.001160 1.867970 -0.001390 
#    z -0.024100 -0.001390 1.825500 
# 
# From -- ./inp_files/313183.got.cif
#   From: 2010.06.25/outbox.cif.g09.slc.cpg/sg2_157_cif.got.tgz:313183.got - 2010.06.27 13:26:56.
