data_PCOD8021825
_publ_section_title
;
Structure prediction by ZEFSAII (Michael W. Deem and Ramdas Pophale) SiO2 
 PCOD8021825
Probable space group: P -1
;
_chemical_formula_sum "Si O2"
_cell_formula_units_Z 14
_cell_length_a 8.044697
_cell_length_b 8.862757
_cell_length_c 12.564095
_cell_angle_alpha 54.321285
_cell_angle_beta 113.160353
_cell_angle_gamma 78.025740
_cell_volume 542.614221
_symmetry_space_group_name_H-M "P -1"
_symmetry_group_IT_number 2
_symmetry_cell_setting 'triclinic'
loop_
_space_group_symop_operation_xyz
x,y,z
-x,-y,-z
loop_
_atom_site_type_symbol
_atom_site_label
_atom_site_fract_x
_atom_site_fract_y
_atom_site_fract_z
Si Si1 0.232816 0.822912 0.188227
Si Si2 0.670260 0.005090 0.661882
Si Si3 0.471733 0.755838 0.796841
Si Si4 0.061600 0.557949 0.880351
Si Si5 0.123016 0.198050 0.626053
Si Si6 0.058351 0.557487 0.319816
Si Si7 0.620939 0.389724 0.368763
O O1 0.275044 0.973367 0.211690
O O2 0.442216 0.663383 0.228141
O O3 0.214401 0.644511 0.324486
O O4 0.000000 0.000000 0.000000
O O5 0.541167 0.251352 0.469948
O O6 0.535574 0.893176 0.680204
O O7 0.898937 0.834605 0.720174
O O8 0.375172 0.654526 0.737893
O O9 0.281943 0.925800 0.764178
O O10 0.677425 0.547550 0.002130
O O11 0.029786 0.439744 0.820648
O O12 0.000000 0.500000 0.000000
O O13 0.146774 0.270568 0.720972
O O14 0.197488 0.304775 0.511518
O O15 0.865316 0.303214 0.499830
#
# Coordination Sequence:
#
# PCOD8021825 Si02
#       7
#     2   2   2   2   2   2   2
#     4  12  24  43  70 101 133 173 234 288 332 393
#     4  11  22  40  70  99 130 177 235 282 329 391
#     4  11  23  42  68  98 140 177 227 279 341 399
#     4  10  22  44  69 101 132 178 229 282 335 390
#     4  11  26  44  69 101 140 184 224 270 345 415
#     4  11  24  47  70  96 143 177 228 277 339 408
#     4  12  24  44  68  99 133 182 233 277 332 405
#
# _framework density 25.801020999999999
#
# number of rings (size 3 to 8) (size 9 to 14) (size 15 to 20)
#    0.000    0.857    1.429    7.286    4.000    0.571 
#    2.571    1.429    0.000    0.000    0.000    0.000 
#    0.000    0.000    0.000    0.000    0.000    0.000 
#
# Total GULP energy -173573.871870 kJ/mol
# GULP energy per Si atom -12398.133705 kJ/mol
# Density = 2.574230 g / cm^3
# Si number density = 25.801021 Si / 1000 Ang^3
#
#
#
# Elastic Constant Matrix: (Units=GPa)
#
#
# Indices 1 2 3 4 5 6 
#
# 1 40.9144 21.2218 16.1080 -6.5784 11.1599 -3.9317
# 2 21.2218 212.3024 59.1986 14.3307 30.2838 -30.3467
# 3 16.1080 59.1986 77.2606 -3.1646 24.5697 -19.2331
# 4 -6.5784 14.3307 -3.1646 53.8542 -13.0394 8.9907
# 5 11.1599 30.2838 24.5697 -13.0394 44.2227 -9.7370
# 6 -3.9317 -30.3467 -19.2331 8.9907 -9.7370 38.9262
#
#
#
# Elastic Compliance Matrix: (Units=1/GPa)
#
#
# Indices 1 2 3 4 5 6 
#
# 1 0.028081 -0.001784 -0.003827 0.003233 -0.003226 -0.001999
# 2 -0.001784 0.006979 -0.003325 -0.003552 -0.002700 0.003762
# 3 -0.003827 -0.003325 0.019743 -0.000962 -0.006846 0.005285
# 4 0.003233 -0.003552 -0.000962 0.022710 0.007461 -0.006297
# 5 -0.003226 -0.002700 -0.006846 0.007461 0.031346 0.000304
# 6 -0.001999 0.003762 0.005285 -0.006297 0.000304 0.032563
#
#
# Mechanical properties :
#
#
# Convention : Reuss Voigt Hill
#
# Bulk Modulus (GPa) = 27.07894 58.17045 42.62469
# Shear Modulus (GPa) = 29.13697 42.99722 36.06710
#
# Velocity S-wave (km/s) = 3.36414 4.08670 3.74290
# Velocity P-wave (km/s) = 5.06044 6.69798 5.93595
#
# Compressibility (1/GPa) = 0.03692907
#
# Stress axis : x y z
#
# Youngs Moduli (GPa) = 35.61166 143.29629 50.65210
#
# Poissons Ratio (x) = 0.25557 0.19386
# Poissons Ratio (y) = 0.06351 0.16844
# Poissons Ratio (z) = 0.13630 0.47653
#
# Static dielectric constant tensor:
#      x y z
#    x 4.547880 -0.193640 0.046970 
#    y -0.193640 5.287450 -0.338070 
#    z 0.046970 -0.338070 4.620170 
# 
# 
# High freq. dielectric constant tensor:
#      x y z
#    x 2.015890 -0.007030 0.006760 
#    y -0.007030 2.061740 -0.005280 
#    z 0.006760 -0.005280 2.017210 
# 
# From -- ./inp_files/158652.got.cif
#   From: 2010.06.25/outbox.cif.g09.slc.cpg/sg2_80_cif.got.tgz:158652.got - 2010.06.27 13:26:56.
