data_PCOD8021932
_publ_section_title
;
Structure prediction by ZEFSAII (Michael W. Deem and Ramdas Pophale) SiO2 
 PCOD8021932
Probable space group: P -1
;
_chemical_formula_sum "Si O2"
_cell_formula_units_Z 14
_cell_length_a 18.818821
_cell_length_b 8.451905
_cell_length_c 5.390139
_cell_angle_alpha 123.470740
_cell_angle_beta 113.236156
_cell_angle_gamma 67.379617
_cell_volume 641.352333
_symmetry_space_group_name_H-M "P -1"
_symmetry_group_IT_number 2
_symmetry_cell_setting 'triclinic'
loop_
_space_group_symop_operation_xyz
x,y,z
-x,-y,-z
loop_
_atom_site_type_symbol
_atom_site_label
_atom_site_fract_x
_atom_site_fract_y
_atom_site_fract_z
Si Si1 0.418033 0.435884 0.324720
Si Si2 0.896189 0.750605 0.128176
Si Si3 0.746568 0.951962 0.828827
Si Si4 0.968142 0.368118 0.143727
Si Si5 0.641708 0.670730 0.357751
Si Si6 0.143299 0.899606 0.277571
Si Si7 0.281932 0.695972 0.603264
O O1 0.500000 0.500000 0.500000
O O2 0.412838 0.297030 0.438083
O O3 0.345380 0.625105 0.408911
O O4 0.411164 0.333926 0.963569
O O5 0.912187 0.525058 0.028027
O O6 0.905377 0.899146 0.492347
O O7 0.806989 0.797945 0.945581
O O8 0.959251 0.770790 0.019656
O O9 0.685381 0.845653 0.518909
O O10 0.794744 0.052450 0.789497
O O11 0.695652 0.116375 0.076894
O O12 0.000000 0.500000 0.500000
O O13 0.915813 0.218637 0.040795
O O14 0.709435 0.473479 0.322081
O O15 0.192053 0.758290 0.433172
#
# Coordination Sequence:
#
# PCOD8021932 Si02
#       7
#     2   2   2   2   2   2   2
#     4  10  22  44  70  98 135 175 213 266 325 387
#     4  10  24  40  60  87 127 164 221 265 337 380
#     4  11  23  40  64  97 125 169 219 272 324 387
#     4  11  24  41  60  89 122 170 218 272 329 389
#     4  10  23  41  69  96 134 172 218 265 322 389
#     4  11  23  40  64  88 131 166 217 272 328 387
#     4   9  23  39  66  94 130 168 219 265 326 387
#
# _framework density 21.828873999999999
#
# number of rings (size 3 to 8) (size 9 to 14) (size 15 to 20)
#    0.857    0.857    0.000    3.429    4.000   10.286 
#    0.000    1.429    0.000    0.000    0.000    0.000 
#    0.000    0.000    0.000    0.000    0.000    0.000 
#
# Total GULP energy -173506.733979 kJ/mol
# GULP energy per Si atom -12393.338141 kJ/mol
# Density = 2.177919 g / cm^3
# Si number density = 21.828874 Si / 1000 Ang^3
#
#
#
# Elastic Constant Matrix: (Units=GPa)
#
#
# Indices 1 2 3 4 5 6 
#
# 1 98.0741 18.0661 52.7165 15.1050 8.9288 24.5975
# 2 18.0661 27.9456 24.5923 6.2113 3.4286 14.0424
# 3 52.7165 24.5923 156.9483 2.8262 18.4247 17.9545
# 4 15.1050 6.2113 2.8262 29.4246 11.6588 -6.2938
# 5 8.9288 3.4286 18.4247 11.6588 38.5628 6.9534
# 6 24.5975 14.0424 17.9545 -6.2938 6.9534 31.2228
#
#
#
# Elastic Compliance Matrix: (Units=1/GPa)
#
#
# Indices 1 2 3 4 5 6 
#
# 1 0.018895 0.004883 -0.005396 -0.016665 0.006182 -0.018715
# 2 0.004883 0.062067 -0.008249 -0.026986 0.011777 -0.035080
# 3 -0.005396 -0.008249 0.009410 0.006908 -0.005535 0.005175
# 4 -0.016665 -0.026986 0.006908 0.065647 -0.024083 0.039890
# 5 0.006182 0.011777 -0.005535 -0.024083 0.036999 -0.020078
# 6 -0.018715 -0.035080 0.005175 0.039890 -0.020078 0.072085
#
#
# Mechanical properties :
#
#
# Convention : Reuss Voigt Hill
#
# Bulk Modulus (GPa) = 13.72731 52.63529 33.18130
# Shear Modulus (GPa) = 16.29142 32.34825 24.31983
#
# Velocity S-wave (km/s) = 2.73486 3.85372 3.34145
# Velocity P-wave (km/s) = 4.03421 6.63073 5.48824
#
# Compressibility (1/GPa) = 0.07284751
#
# Stress axis : x y z
#
# Youngs Moduli (GPa) = 52.92382 16.11168 106.27057
#
# Poissons Ratio (x) = -0.07868 0.57348
# Poissons Ratio (y) = -0.25844 0.87661
# Poissons Ratio (z) = 0.28560 0.13290
#
# Static dielectric constant tensor:
#      x y z
#    x 3.658670 -0.077540 -0.145420 
#    y -0.077540 3.925010 -0.002410 
#    z -0.145420 -0.002410 3.971170 
# 
# 
# High freq. dielectric constant tensor:
#      x y z
#    x 1.840040 -0.000560 -0.005180 
#    y -0.000560 1.852160 0.001950 
#    z -0.005180 0.001950 1.863210 
# 
# From -- ./inp_files/13854.got.cif
#   From: 2010.06.25/outbox.cif.g09.slc.cpg/sg2_7_cif.got.tgz:13854.got - 2010.06.27 13:26:56.
