data_PCOD8021151
_publ_section_title
;
Structure prediction by ZEFSAII (Michael W. Deem and Ramdas Pophale) SiO2 
 PCOD8021151
Probable space group: P -1
;
_chemical_formula_sum "Si O2"
_cell_formula_units_Z 16
_cell_length_a 17.906728
_cell_length_b 11.530342
_cell_length_c 9.076895
_cell_angle_alpha 82.183038
_cell_angle_beta 126.198699
_cell_angle_gamma 140.314854
_cell_volume 759.208885
_symmetry_space_group_name_H-M "P -1"
_symmetry_group_IT_number 2
_symmetry_cell_setting 'triclinic'
loop_
_space_group_symop_operation_xyz
x,y,z
-x,-y,-z
loop_
_atom_site_type_symbol
_atom_site_label
_atom_site_fract_x
_atom_site_fract_y
_atom_site_fract_z
Si Si1 0.158203 0.147873 0.469068
Si Si2 0.827474 0.568915 0.647421
Si Si3 0.323087 0.658054 0.788822
Si Si4 0.479056 0.397595 0.634718
Si Si5 0.753654 0.678828 0.144414
Si Si6 0.510633 0.181758 0.576209
Si Si7 0.133421 0.739651 0.045796
Si Si8 0.659139 0.154341 0.973626
O O1 0.171424 0.290974 0.390482
O O2 0.276537 0.188878 0.501419
O O3 0.230941 0.224680 0.708583
O O4 0.952679 0.876302 0.270970
O O5 0.806617 0.482482 0.480418
O O6 0.661535 0.348461 0.595603
O O7 0.023261 0.741789 0.908318
O O8 0.338961 0.545404 0.889725
O O9 0.526966 0.918711 0.940062
O O10 0.244455 0.658866 0.822973
O O11 0.500000 0.500000 0.500000
O O12 0.521614 0.310009 0.663912
O O13 0.624726 0.603454 0.889442
O O14 0.546076 0.109054 0.732860
O O15 0.310878 0.952793 0.314350
O O16 0.186374 0.752290 0.943182
O O17 0.000000 0.500000 0.000000
#
# Coordination Sequence:
#
# PCOD8021151 Si02
#       8
#     2   2   2   2   2   2   2   2
#     4  10  24  44  69  96 133 172 220 268 324 390
#     4  11  23  43  66  97 132 173 217 269 324 393
#     4  10  22  43  68  93 133 171 215 274 325 375
#     4  12  25  41  70 100 130 175 214 267 335 387
#     4  10  23  47  66  95 136 173 216 274 319 387
#     4  12  24  44  66  97 138 170 218 270 323 392
#     4  12  25  40  69  97 129 178 216 267 333 383
#     4  11  22  43  69  95 129 174 217 273 321 386
#
# _framework density 21.074570000000001
#
# number of rings (size 3 to 8) (size 9 to 14) (size 15 to 20)
#    0.000    1.000    5.000    1.500    1.750    3.000 
#    6.750    0.000    0.000    0.000    0.000    0.000 
#    0.000    0.000    0.000    0.000    0.000    0.000 
#
# Total GULP energy -198466.691528 kJ/mol
# GULP energy per Si atom -12404.168220 kJ/mol
# Density = 2.102660 g / cm^3
# Si number density = 21.074570 Si / 1000 Ang^3
#
#
#
# Elastic Constant Matrix: (Units=GPa)
#
#
# Indices 1 2 3 4 5 6 
#
# 1 79.2093 17.2624 43.5751 3.1665 4.7565 17.5188
# 2 17.2624 97.3890 46.3240 -1.3915 -1.8540 14.5305
# 3 43.5751 46.3240 114.6690 -5.1217 10.3759 12.0200
# 4 3.1665 -1.3915 -5.1217 21.9661 1.3981 -0.2288
# 5 4.7565 -1.8540 10.3759 1.3981 28.1175 1.2614
# 6 17.5188 14.5305 12.0200 -0.2288 1.2614 34.3424
#
#
#
# Elastic Compliance Matrix: (Units=1/GPa)
#
#
# Indices 1 2 3 4 5 6 
#
# 1 0.017795 0.001002 -0.006596 -0.004116 0.000018 -0.007221
# 2 0.001002 0.013492 -0.005690 -0.000856 0.003058 -0.004346
# 3 -0.006596 -0.005690 0.014025 0.004170 -0.004690 0.001063
# 4 -0.004116 -0.000856 0.004170 0.047262 -0.003314 0.001439
# 5 0.000018 0.003058 -0.004690 -0.003314 0.037707 -0.001069
# 6 -0.007221 -0.004346 0.001063 0.001439 -0.001069 0.034318
#
#
# Mechanical properties :
#
#
# Convention : Reuss Voigt Hill
#
# Bulk Modulus (GPa) = 43.96794 56.17669 50.07231
# Shear Modulus (GPa) = 25.67412 29.15893 27.41653
#
# Velocity S-wave (km/s) = 3.49413 3.72372 3.61075
# Velocity P-wave (km/s) = 6.09811 6.72326 6.41830
#
# Compressibility (1/GPa) = 0.02274384
#
# Stress axis : x y z
#
# Youngs Moduli (GPa) = 56.19399 74.12019 71.30019
#
# Poissons Ratio (x) = -0.07427 0.47028
# Poissons Ratio (y) = -0.05631 0.40573
# Poissons Ratio (z) = 0.37064 0.42178
#
# Static dielectric constant tensor:
#      x y z
#    x 4.030850 0.137360 -0.136130 
#    y 0.137360 3.909130 -0.097300 
#    z -0.136130 -0.097300 3.884570 
# 
# 
# High freq. dielectric constant tensor:
#      x y z
#    x 1.829840 0.008630 -0.009000 
#    y 0.008630 1.836710 -0.004970 
#    z -0.009000 -0.004970 1.823910 
# 
# From -- ./inp_files/77975.got.cif
#   From: 2010.06.25/outbox.cif.g09.slc.cpg/sg2_39_cif.got.tgz:77975.got - 2010.06.27 13:26:56.
