data_PCOD8021200
_publ_section_title
;
Structure prediction by ZEFSAII (Michael W. Deem and Ramdas Pophale) SiO2 
 PCOD8021200
Probable space group: P -1
;
_chemical_formula_sum "Si O2"
_cell_formula_units_Z 14
_cell_length_a 8.719994
_cell_length_b 28.335677
_cell_length_c 5.571925
_cell_angle_alpha 119.514949
_cell_angle_beta 125.248352
_cell_angle_gamma 32.879332
_cell_volume 610.270180
_symmetry_space_group_name_H-M "P -1"
_symmetry_group_IT_number 2
_symmetry_cell_setting 'triclinic'
loop_
_space_group_symop_operation_xyz
x,y,z
-x,-y,-z
loop_
_atom_site_type_symbol
_atom_site_label
_atom_site_fract_x
_atom_site_fract_y
_atom_site_fract_z
Si Si1 0.172556 0.798827 0.936861
Si Si2 0.962476 0.340313 0.189175
Si Si3 0.250572 0.068262 0.755472
Si Si4 0.696879 0.758682 0.241468
Si Si5 0.570365 0.906731 0.415005
Si Si6 0.932043 0.470173 0.557737
Si Si7 0.491072 0.381658 0.107417
O O1 0.256053 0.716591 0.816885
O O2 0.867058 0.870531 0.693099
O O3 0.442207 0.771470 0.993687
O O4 0.088776 0.844838 0.235135
O O5 0.137853 0.289922 0.475683
O O6 0.913694 0.415057 0.288911
O O7 0.636347 0.385287 0.035698
O O8 0.100035 0.286935 0.930931
O O9 0.363177 0.100416 0.824392
O O10 0.267700 0.010469 0.457731
O O11 0.500000 0.000000 0.000000
O O12 0.535865 0.853594 0.343882
O O13 0.000000 0.500000 0.500000
O O14 0.618325 0.553662 0.617716
O O15 0.210944 0.408278 0.838565
#
# Coordination Sequence:
#
# PCOD8021200 Si02
#       7
#     2   2   2   2   2   2   2
#     4  11  22  42  70  97 136 178 227 280 342 399
#     4  12  27  46  68 103 139 178 233 280 340 404
#     4   9  21  41  68  99 134 177 224 279 340 406
#     4  12  27  42  72 104 135 180 232 280 335 411
#     4  10  22  43  68  98 136 178 226 280 342 401
#     4  11  26  44  69 100 139 177 231 282 341 406
#     4  11  24  44  70  98 136 182 224 284 342 400
#
# _framework density 22.940656000000001
#
# number of rings (size 3 to 8) (size 9 to 14) (size 15 to 20)
#    0.000    1.143    2.857    2.143    8.000    3.429 
#    0.000    6.429    0.000    0.000    0.000    0.000 
#    0.000    0.000    0.000    0.000    0.000    0.000 
#
# Total GULP energy -173458.606481 kJ/mol
# GULP energy per Si atom -12389.900463 kJ/mol
# Density = 2.288844 g / cm^3
# Si number density = 22.940656 Si / 1000 Ang^3
#
#
#
# Elastic Constant Matrix: (Units=GPa)
#
#
# Indices 1 2 3 4 5 6 
#
# 1 131.4097 35.0175 17.5140 15.7987 -7.2281 7.9376
# 2 35.0175 105.0616 17.8928 22.0740 -7.0083 12.4288
# 3 17.5140 17.8928 56.8003 11.4571 -13.3577 -0.0429
# 4 15.7987 22.0740 11.4571 33.0120 2.6589 0.2310
# 5 -7.2281 -7.0083 -13.3577 2.6589 43.1273 4.3034
# 6 7.9376 12.4288 -0.0429 0.2310 4.3034 46.0076
#
#
#
# Elastic Compliance Matrix: (Units=1/GPa)
#
#
# Indices 1 2 3 4 5 6 
#
# 1 0.008728 -0.001973 -0.001342 -0.002464 0.000984 -0.001054
# 2 -0.001973 0.012392 -0.001421 -0.006987 0.001989 -0.003160
# 3 -0.001342 -0.001421 0.021274 -0.006316 0.006517 0.000057
# 4 -0.002464 -0.006987 -0.006316 0.038813 -0.006166 0.002689
# 5 0.000984 0.001989 0.006517 -0.006166 0.026387 -0.003138
# 6 -0.001054 -0.003160 0.000057 0.002689 -0.003138 0.023051
#
#
# Mechanical properties :
#
#
# Convention : Reuss Voigt Hill
#
# Bulk Modulus (GPa) = 30.37398 48.23558 39.30478
# Shear Modulus (GPa) = 33.09263 39.28585 36.18924
#
# Velocity S-wave (km/s) = 3.80219 4.14272 3.97610
# Velocity P-wave (km/s) = 5.70478 6.62984 6.18463
#
# Compressibility (1/GPa) = 0.03292291
#
# Stress axis : x y z
#
# Youngs Moduli (GPa) = 114.56921 80.69608 47.00662
#
# Poissons Ratio (x) = 0.15918 0.06310
# Poissons Ratio (y) = 0.22599 0.06678
# Poissons Ratio (z) = 0.15380 0.11464
#
# Static dielectric constant tensor:
#      x y z
#    x 4.396540 -0.261580 -0.469720 
#    y -0.261580 4.777340 0.631280 
#    z -0.469720 0.631280 4.606650 
# 
# 
# High freq. dielectric constant tensor:
#      x y z
#    x 1.912400 0.007590 -0.014870 
#    y 0.007590 1.920170 0.012520 
#    z -0.014870 0.012520 1.891820 
# 
# From -- ./inp_files/37129.got.cif
#   From: 2010.06.25/outbox.cif.g09.slc.cpg/sg2_19_cif.got.tgz:37129.got - 2010.06.27 13:26:56.
