data_PCOD8021856
_publ_section_title
;
Structure prediction by ZEFSAII (Michael W. Deem and Ramdas Pophale) SiO2 
 PCOD8021856
Probable space group: P -1
;
_chemical_formula_sum "Si O2"
_cell_formula_units_Z 16
_cell_length_a 13.042068
_cell_length_b 12.627814
_cell_length_c 8.679456
_cell_angle_alpha 93.286527
_cell_angle_beta 122.168644
_cell_angle_gamma 44.782118
_cell_volume 718.680014
_symmetry_space_group_name_H-M "P -1"
_symmetry_group_IT_number 2
_symmetry_cell_setting 'triclinic'
loop_
_space_group_symop_operation_xyz
x,y,z
-x,-y,-z
loop_
_atom_site_type_symbol
_atom_site_label
_atom_site_fract_x
_atom_site_fract_y
_atom_site_fract_z
Si Si1 0.191350 0.895279 0.245465
Si Si2 0.391414 0.368923 0.594343
Si Si3 0.361535 0.212043 0.048726
Si Si4 0.170488 0.531763 0.734622
Si Si5 0.199538 0.136398 0.731471
Si Si6 0.313154 0.210216 0.355463
Si Si7 0.025899 0.222119 0.158002
Si Si8 0.106025 0.743087 0.281547
O O1 0.374152 0.776306 0.261557
O O2 0.215268 0.782218 0.378691
O O3 0.164879 0.027851 0.322637
O O4 0.000000 0.000000 0.000000
O O5 0.345380 0.428754 0.740217
O O6 0.325000 0.294828 0.498586
O O7 0.269168 0.535541 0.404620
O O8 0.303724 0.271604 0.185436
O O9 0.606846 0.053689 0.214392
O O10 0.225574 0.383124 0.847829
O O11 0.293247 0.142366 0.942424
O O12 0.943956 0.695308 0.487118
O O13 0.170300 0.625292 0.873409
O O14 0.062793 0.143772 0.708782
O O15 0.118339 0.275323 0.240184
O O16 0.500000 0.000000 0.500000
O O17 0.990352 0.208553 0.957344
#
# Coordination Sequence:
#
# PCOD8021856 Si02
#       8
#     2   2   2   2   2   2   2   2
#     4  10  23  43  72  90 128 178 226 277 327 400
#     4  11  25  42  68 101 129 177 222 279 339 395
#     4  11  24  39  65  96 143 177 213 274 335 402
#     4  11  26  41  65 101 140 173 221 279 335 403
#     4  10  23  40  62 100 134 176 222 270 337 389
#     4  12  24  39  69 101 139 174 225 274 334 418
#     4  11  23  42  65 101 134 174 220 271 342 389
#     4  10  22  44  69  94 132 177 231 272 326 403
#
# _framework density 22.263038000000002
#
# number of rings (size 3 to 8) (size 9 to 14) (size 15 to 20)
#    0.000    1.250    2.500    2.250   12.250    1.000 
#    0.000    5.000    2.750    0.000    0.000    0.000 
#    0.000    0.000    0.000    0.000    0.000    0.000 
#
# Total GULP energy -198285.054261 kJ/mol
# GULP energy per Si atom -12392.815891 kJ/mol
# Density = 2.221237 g / cm^3
# Si number density = 22.263038 Si / 1000 Ang^3
#
#
#
# Elastic Constant Matrix: (Units=GPa)
#
#
# Indices 1 2 3 4 5 6 
#
# 1 150.3628 87.0935 41.1242 0.7942 -1.7517 -1.4351
# 2 87.0935 132.9022 22.1639 -18.2303 -2.8195 -7.0172
# 3 41.1242 22.1639 67.1194 -11.8671 -9.2596 -1.6850
# 4 0.7942 -18.2303 -11.8671 25.7359 -2.8570 -8.1211
# 5 -1.7517 -2.8195 -9.2596 -2.8570 34.3617 -2.9488
# 6 -1.4351 -7.0172 -1.6850 -8.1211 -2.9488 36.5367
#
#
#
# Elastic Compliance Matrix: (Units=1/GPa)
#
#
# Indices 1 2 3 4 5 6 
#
# 1 0.015575 -0.011088 -0.009242 -0.014841 -0.004320 -0.005591
# 2 -0.011088 0.016791 0.005079 0.017327 0.004241 0.007217
# 3 -0.009242 0.005079 0.023265 0.017488 0.008204 0.006235
# 4 -0.014841 0.017327 0.017488 0.067212 0.012640 0.019511
# 5 -0.004320 0.004241 0.008204 0.012640 0.033050 0.006500
# 6 -0.005591 0.007217 0.006235 0.019511 0.006500 0.033685
#
#
# Mechanical properties :
#
#
# Convention : Reuss Voigt Hill
#
# Bulk Modulus (GPa) = 39.79506 72.34973 56.07239
# Shear Modulus (GPa) = 21.88597 32.66039 27.27318
#
# Velocity S-wave (km/s) = 3.13879 3.83433 3.50386
# Velocity P-wave (km/s) = 5.57223 7.22295 6.45061
#
# Compressibility (1/GPa) = 0.02512875
#
# Stress axis : x y z
#
# Youngs Moduli (GPa) = 64.20357 59.55409 42.98380
#
# Poissons Ratio (x) = 0.66035 0.39725
# Poissons Ratio (y) = 0.71190 -0.21830
# Poissons Ratio (z) = 0.59336 -0.30246
#
# Static dielectric constant tensor:
#      x y z
#    x 4.634600 0.297560 -0.195930 
#    y 0.297560 4.546050 -0.186710 
#    z -0.195930 -0.186710 3.862580 
# 
# 
# High freq. dielectric constant tensor:
#      x y z
#    x 1.877950 -0.007070 -0.018090 
#    y -0.007070 1.888920 -0.015720 
#    z -0.018090 -0.015720 1.858420 
# 
# From -- ./inp_files/262549.got.cif
#   From: 2010.06.25/outbox.cif.g09.slc.cpg/sg2_132_cif.got.tgz:262549.got - 2010.06.27 13:26:56.
