data_PCOD8021898
_publ_section_title
;
Structure prediction by ZEFSAII (Michael W. Deem and Ramdas Pophale) SiO2 
 PCOD8021898
Probable space group: P -1
;
_chemical_formula_sum "Si O2"
_cell_formula_units_Z 16
_cell_length_a 18.872745
_cell_length_b 5.343698
_cell_length_c 8.159804
_cell_angle_alpha 101.806071
_cell_angle_beta 97.998509
_cell_angle_gamma 52.760150
_cell_volume 641.149805
_symmetry_space_group_name_H-M "P -1"
_symmetry_group_IT_number 2
_symmetry_cell_setting 'triclinic'
loop_
_space_group_symop_operation_xyz
x,y,z
-x,-y,-z
loop_
_atom_site_type_symbol
_atom_site_label
_atom_site_fract_x
_atom_site_fract_y
_atom_site_fract_z
Si Si1 0.012617 0.158465 0.675919
Si Si2 0.506430 0.769185 0.111870
Si Si3 0.161172 0.594560 0.830076
Si Si4 0.836933 0.860556 0.427048
Si Si5 0.099527 0.363243 0.057781
Si Si6 0.767378 0.156529 0.767300
Si Si7 0.333751 0.160604 0.317752
Si Si8 0.687504 0.511238 0.307673
O O1 0.068925 0.278077 0.646323
O O2 0.914921 0.438924 0.753277
O O3 0.072156 0.950021 0.826260
O O4 0.000000 0.000000 0.500000
O O5 0.597245 0.591149 0.218313
O O6 0.432332 0.966865 0.252889
O O7 0.500000 0.500000 0.000000
O O8 0.500000 0.000000 0.000000
O O9 0.166384 0.436424 0.632606
O O10 0.259490 0.509695 0.842407
O O11 0.152947 0.417747 0.953081
O O12 0.840485 0.948160 0.624070
O O13 0.748018 0.160839 0.355703
O O14 0.166891 0.978670 0.068061
O O15 0.000000 0.500000 0.000000
O O16 0.722369 0.524914 0.773789
O O17 0.699882 0.060205 0.742689
O O18 0.332983 0.239633 0.519892
#
# Coordination Sequence:
#
# PCOD8021898 Si02
#       8
#     2   2   2   2   2   2   2   2
#     4  11  25  42  69  98 137 193 253 307 352 432
#     4  12  29  49  76 117 154 187 234 299 375 448
#     4  11  23  44  69 100 144 190 246 301 376 423
#     4  10  22  44  70 102 139 190 249 304 361 421
#     4  12  27  43  65 104 148 195 242 306 372 427
#     4  11  26  45  75 108 146 191 251 303 358 435
#     4  11  25  51  78 110 141 196 246 298 363 434
#     4  10  25  47  77 105 145 193 245 300 364 447
#
# _framework density 24.955166999999999
#
# number of rings (size 3 to 8) (size 9 to 14) (size 15 to 20)
#    0.000    1.000    2.500    2.250    8.750    3.000 
#    0.000    3.125    0.000    0.000    0.000    0.000 
#    0.000    0.000    0.000    0.000    0.000    0.000 
#
# Total GULP energy -198224.111513 kJ/mol
# GULP energy per Si atom -12389.006970 kJ/mol
# Density = 2.489837 g / cm^3
# Si number density = 24.955167 Si / 1000 Ang^3
#
#
#
# Elastic Constant Matrix: (Units=GPa)
#
#
# Indices 1 2 3 4 5 6 
#
# 1 93.6675 50.2835 45.3742 -12.7905 -10.5590 -5.3829
# 2 50.2835 87.9427 33.0134 -5.2072 -17.4507 -13.0808
# 3 45.3742 33.0134 91.4791 -10.5245 -6.7291 -25.3134
# 4 -12.7905 -5.2072 -10.5245 46.8294 -5.6006 -3.6862
# 5 -10.5590 -17.4507 -6.7291 -5.6006 55.5039 0.8435
# 6 -5.3829 -13.0808 -25.3134 -3.6862 0.8435 36.9959
#
#
#
# Elastic Compliance Matrix: (Units=1/GPa)
#
#
# Indices 1 2 3 4 5 6 
#
# 1 0.018941 -0.008619 -0.007446 0.002168 0.000288 -0.005177
# 2 -0.008619 0.018018 -0.000615 0.000344 0.003915 0.004641
# 3 -0.007446 -0.000615 0.018471 0.003055 0.000761 0.011624
# 4 0.002168 0.000344 0.003055 0.023429 0.003182 0.004789
# 5 0.000288 0.003915 0.000761 0.003182 0.019688 0.001815
# 6 -0.005177 0.004641 0.011624 0.004789 0.001815 0.036307
#
#
# Mechanical properties :
#
#
# Convention : Reuss Voigt Hill
#
# Bulk Modulus (GPa) = 45.31446 58.93682 52.12564
# Shear Modulus (GPa) = 28.47823 37.49370 32.98596
#
# Velocity S-wave (km/s) = 3.38179 3.88034 3.63961
# Velocity P-wave (km/s) = 5.78329 6.61396 6.21252
#
# Compressibility (1/GPa) = 0.02206801
#
# Stress axis : x y z
#
# Youngs Moduli (GPa) = 52.79432 55.50045 54.13889
#
# Poissons Ratio (x) = 0.47838 0.40314
# Poissons Ratio (y) = 0.45505 0.03332
# Poissons Ratio (z) = 0.39313 0.03416
#
# Static dielectric constant tensor:
#      x y z
#    x -128.479050 32.122960 -81.723010 
#    y 32.122960 -2.933980 19.970040 
#    z -81.723010 19.970040 -44.833390 
# 
# 
# High freq. dielectric constant tensor:
#      x y z
#    x 1.997790 -0.000640 -0.003820 
#    y -0.000640 2.001660 0.013700 
#    z -0.003820 0.013700 2.022680 
# 
# From -- ./inp_files/323892.got.cif
#   From: 2010.06.25/outbox.cif.g09.slc.cpg/sg2_162_cif.got.tgz:323892.got - 2010.06.27 13:26:56.
