data_PCOD8021421
_publ_section_title
;
Structure prediction by ZEFSAII (Michael W. Deem and Ramdas Pophale) SiO2 
 PCOD8021421
Probable space group: P -1
;
_chemical_formula_sum "Si O2"
_cell_formula_units_Z 16
_cell_length_a 9.379963
_cell_length_b 18.209545
_cell_length_c 7.797094
_cell_angle_alpha 37.412281
_cell_angle_beta 59.367885
_cell_angle_gamma 67.354964
_cell_volume 695.717674
_symmetry_space_group_name_H-M "P -1"
_symmetry_group_IT_number 2
_symmetry_cell_setting 'triclinic'
loop_
_space_group_symop_operation_xyz
x,y,z
-x,-y,-z
loop_
_atom_site_type_symbol
_atom_site_label
_atom_site_fract_x
_atom_site_fract_y
_atom_site_fract_z
Si Si1 0.231545 0.074275 0.597462
Si Si2 0.036195 0.568247 0.674806
Si Si3 0.283879 0.370328 0.438865
Si Si4 0.199779 0.886326 0.470899
Si Si5 0.629587 0.462764 0.632011
Si Si6 0.897430 0.165211 0.750582
Si Si7 0.507852 0.232162 0.299970
Si Si8 0.848093 0.860269 0.860067
O O1 0.407795 0.125757 0.459180
O O2 0.213664 0.112698 0.342140
O O3 0.088200 0.127045 0.706924
O O4 0.217506 0.928163 0.892816
O O5 0.183805 0.502069 0.610609
O O6 0.106736 0.703789 0.408673
O O7 0.872575 0.562703 0.668678
O O8 0.000000 0.500000 0.000000
O O9 0.394588 0.465722 0.306605
O O10 0.388922 0.318108 0.317801
O O11 0.228971 0.264729 0.797803
O O12 0.170921 0.828535 0.410902
O O13 0.368239 0.834041 0.529802
O O14 0.047729 0.852412 0.755717
O O15 0.210957 0.032644 0.177202
O O16 0.500000 0.500000 0.500000
O O17 0.605141 0.319192 0.944689
#
# Coordination Sequence:
#
# PCOD8021421 Si02
#       8
#     2   2   2   2   2   2   2   2
#     4  10  22  43  72 101 142 177 226 287 348 419
#     4  12  28  47  77 100 137 187 243 286 344 415
#     4  12  26  46  73  98 141 189 236 283 347 415
#     4  10  24  40  69 101 141 176 229 283 355 408
#     4  12  29  47  70 104 141 183 239 293 349 409
#     4  10  23  43  71 100 135 183 232 277 345 420
#     4  12  25  45  71 104 145 180 228 292 356 408
#     4  10  23  43  70 101 139 184 233 281 343 422
#
# _framework density 22.997834000000001
#
# number of rings (size 3 to 8) (size 9 to 14) (size 15 to 20)
#    0.000    1.000    1.250    3.750   14.000    2.500 
#    0.000    0.000    0.000    0.000    0.000    0.000 
#    0.000    0.000    0.000    0.000    0.000    0.000 
#
# Total GULP energy -198500.521049 kJ/mol
# GULP energy per Si atom -12406.282566 kJ/mol
# Density = 2.294549 g / cm^3
# Si number density = 22.997834 Si / 1000 Ang^3
#
#
#
# Elastic Constant Matrix: (Units=GPa)
#
#
# Indices 1 2 3 4 5 6 
#
# 1 159.6003 22.3444 26.4764 -6.4290 5.8598 0.4588
# 2 22.3444 49.5295 -6.0587 -1.1480 2.5615 1.3160
# 3 26.4764 -6.0587 122.2480 -0.9093 -7.0224 5.8975
# 4 -6.4290 -1.1480 -0.9093 30.5059 6.1293 -7.0322
# 5 5.8598 2.5615 -7.0224 6.1293 27.4325 -2.8676
# 6 0.4588 1.3160 5.8975 -7.0322 -2.8676 39.1823
#
#
#
# Elastic Compliance Matrix: (Units=1/GPa)
#
#
# Indices 1 2 3 4 5 6 
#
# 1 0.007188 -0.003332 -0.001850 0.001862 -0.002063 0.000489
# 2 -0.003332 0.021997 0.001804 0.000149 -0.001020 -0.001019
# 3 -0.001850 0.001804 0.008875 -0.000881 0.002555 -0.001346
# 4 0.001862 0.000149 -0.000881 0.036161 -0.008089 0.006004
# 5 -0.002063 -0.001020 0.002555 -0.008089 0.039567 0.001118
# 6 0.000489 -0.001019 -0.001346 0.006004 0.001118 0.026912
#
#
# Mechanical properties :
#
#
# Convention : Reuss Voigt Hill
#
# Bulk Modulus (GPa) = 31.94601 46.32245 39.13423
# Shear Modulus (GPa) = 31.66670 38.66520 35.16595
#
# Velocity S-wave (km/s) = 3.71474 4.10476 3.91461
# Velocity P-wave (km/s) = 5.68508 6.53079 6.12255
#
# Compressibility (1/GPa) = 0.03130282
#
# Stress axis : x y z
#
# Youngs Moduli (GPa) = 139.11166 45.46015 112.67151
#
# Poissons Ratio (x) = 0.15149 0.20847
# Poissons Ratio (y) = 0.46358 -0.20321
# Poissons Ratio (z) = 0.25740 -0.08199
#
# Static dielectric constant tensor:
#      x y z
#    x 4.209050 0.011600 -0.123030 
#    y 0.011600 4.066810 -0.044200 
#    z -0.123030 -0.044200 4.255790 
# 
# 
# High freq. dielectric constant tensor:
#      x y z
#    x 1.918340 0.007620 0.000570 
#    y 0.007620 1.905330 0.000230 
#    z 0.000570 0.000230 1.918070 
# 
# From -- ./inp_files/222835.got.cif
#   From: 2010.06.25/outbox.cif.g09.slc.cpg/sg2_112_cif.got.tgz:222835.got - 2010.06.27 13:26:56.
