data_PCOD8021643
_publ_section_title
;
Structure prediction by ZEFSAII (Michael W. Deem and Ramdas Pophale) SiO2 
 PCOD8021643
Probable space group: P -1
;
_chemical_formula_sum "Si O2"
_cell_formula_units_Z 16
_cell_length_a 9.256213
_cell_length_b 8.757104
_cell_length_c 11.310291
_cell_angle_alpha 83.730344
_cell_angle_beta 94.471512
_cell_angle_gamma 54.983350
_cell_volume 735.122968
_symmetry_space_group_name_H-M "P -1"
_symmetry_group_IT_number 2
_symmetry_cell_setting 'triclinic'
loop_
_space_group_symop_operation_xyz
x,y,z
-x,-y,-z
loop_
_atom_site_type_symbol
_atom_site_label
_atom_site_fract_x
_atom_site_fract_y
_atom_site_fract_z
Si Si1 0.823758 0.932861 0.781249
Si Si2 0.612897 0.149108 0.216536
Si Si3 0.749855 0.499565 0.938659
Si Si4 0.209790 0.876906 0.007870
Si Si5 0.100438 0.854899 0.625111
Si Si6 0.953792 0.508311 0.150991
Si Si7 0.144753 0.476420 0.599906
Si Si8 0.477325 0.082187 0.619261
O O1 0.983543 0.931550 0.731830
O O2 0.901395 0.718414 0.837639
O O3 0.727131 0.072015 0.875634
O O4 0.673563 0.018579 0.665655
O O5 0.415592 0.337638 0.162707
O O6 0.711138 0.186880 0.321974
O O7 0.594360 0.990487 0.280172
O O8 0.725372 0.072705 0.108387
O O9 0.712561 0.343853 0.974959
O O10 0.940341 0.404607 0.891282
O O11 0.775522 0.577452 0.057221
O O12 0.000000 0.000000 0.000000
O O13 0.134764 0.664048 0.595370
O O14 0.000000 0.000000 0.500000
O O15 0.893550 0.578638 0.272829
O O16 0.341632 0.309219 0.582779
O O17 0.000000 0.500000 0.500000
O O18 0.500000 0.000000 0.500000
#
# Coordination Sequence:
#
# PCOD8021643 Si02
#       8
#     2   2   2   2   2   2   2   2
#     4  11  23  44  67  98 141 176 220 282 337 407
#     4  12  26  44  72  99 139 181 225 285 347 406
#     4  11  24  41  69  98 144 175 224 277 342 412
#     4  12  24  41  66 104 138 175 220 275 345 406
#     4  11  24  47  70 100 136 182 230 284 345 407
#     4  10  22  44  65  99 135 185 220 274 341 412
#     4  11  25  43  73  95 134 184 232 279 345 400
#     4  12  27  48  69 100 135 178 235 289 331 409
#
# _framework density 21.765066000000001
#
# number of rings (size 3 to 8) (size 9 to 14) (size 15 to 20)
#    0.000    0.750    3.750    4.125    5.250    1.500 
#    0.000    1.250    0.000    0.000    0.000    0.000 
#    0.000    0.000    0.000    0.000    0.000    0.000 
#
# Total GULP energy -198397.103961 kJ/mol
# GULP energy per Si atom -12399.818998 kJ/mol
# Density = 2.171553 g / cm^3
# Si number density = 21.765066 Si / 1000 Ang^3
#
#
#
# Elastic Constant Matrix: (Units=GPa)
#
#
# Indices 1 2 3 4 5 6 
#
# 1 73.7821 26.8453 24.9867 -2.8831 19.4586 -9.3908
# 2 26.8453 86.7772 38.5275 3.6653 3.2582 -7.4149
# 3 24.9867 38.5275 128.4069 8.0498 14.4869 -6.7573
# 4 -2.8831 3.6653 8.0498 39.2676 -4.7047 5.4454
# 5 19.4586 3.2582 14.4869 -4.7047 59.3027 -6.5788
# 6 -9.3908 -7.4149 -6.7573 5.4454 -6.5788 23.6756
#
#
#
# Elastic Compliance Matrix: (Units=1/GPa)
#
#
# Indices 1 2 3 4 5 6 
#
# 1 0.017309 -0.004275 -0.001430 0.000907 -0.004621 0.003626
# 2 -0.004275 0.014623 -0.003537 -0.001114 0.001662 0.002593
# 3 -0.001430 -0.003537 0.009505 -0.002072 -0.001707 0.001040
# 4 0.000907 -0.001114 -0.002072 0.027148 0.001720 -0.006347
# 5 -0.004621 0.001662 -0.001707 0.001720 0.019189 0.003137
# 6 0.003626 0.002593 0.001040 -0.006347 0.003137 0.047116
#
#
# Mechanical properties :
#
#
# Convention : Reuss Voigt Hill
#
# Bulk Modulus (GPa) = 43.56834 52.18723 47.87779
# Shear Modulus (GPa) = 31.05149 37.68964 34.37057
#
# Velocity S-wave (km/s) = 3.78122 4.16583 3.97818
# Velocity P-wave (km/s) = 6.25496 6.86793 6.56860
#
# Compressibility (1/GPa) = 0.02295245
#
# Stress axis : x y z
#
# Youngs Moduli (GPa) = 57.77451 68.38703 105.21330
#
# Poissons Ratio (x) = 0.29232 0.15048
# Poissons Ratio (y) = 0.24696 0.37213
# Poissons Ratio (z) = 0.08263 0.24188
#
# Static dielectric constant tensor:
#      x y z
#    x 4.270580 0.330870 0.071920 
#    y 0.330870 5.322670 0.622580 
#    z 0.071920 0.622580 4.481590 
# 
# 
# High freq. dielectric constant tensor:
#      x y z
#    x 1.862880 -0.001290 0.007230 
#    y -0.001290 1.844870 -0.003740 
#    z 0.007230 -0.003740 1.874420 
# 
# From -- ./inp_files/225147.got.cif
#   From: 2010.06.25/outbox.cif.g09.slc.cpg/sg2_113_cif.got.tgz:225147.got - 2010.06.27 13:26:56.
