data_PCOD8021648
_publ_section_title
;
Structure prediction by ZEFSAII (Michael W. Deem and Ramdas Pophale) SiO2 
 PCOD8021648
Probable space group: P -1
;
_chemical_formula_sum "Si O2"
_cell_formula_units_Z 16
_cell_length_a 11.978850
_cell_length_b 5.368890
_cell_length_c 14.006012
_cell_angle_alpha 100.135808
_cell_angle_beta 45.773753
_cell_angle_gamma 101.181632
_cell_volume 632.167735
_symmetry_space_group_name_H-M "P -1"
_symmetry_group_IT_number 2
_symmetry_cell_setting 'triclinic'
loop_
_space_group_symop_operation_xyz
x,y,z
-x,-y,-z
loop_
_atom_site_type_symbol
_atom_site_label
_atom_site_fract_x
_atom_site_fract_y
_atom_site_fract_z
Si Si1 0.911897 0.986247 0.909358
Si Si2 0.141794 0.328040 0.904682
Si Si3 0.636808 0.853700 0.802766
Si Si4 0.781891 0.465459 0.451983
Si Si5 0.109937 0.351899 0.267512
Si Si6 0.367458 0.616730 0.650107
Si Si7 0.384402 0.028015 0.385641
Si Si8 0.311538 0.723526 0.041701
O O1 0.954398 0.897194 0.771515
O O2 0.799003 0.214086 0.978127
O O3 0.822509 0.763951 0.014992
O O4 0.078100 0.079569 0.864410
O O5 0.302720 0.451847 0.768928
O O6 0.000000 0.500000 0.000000
O O7 0.795680 0.705529 0.695453
O O8 0.615215 0.013074 0.730975
O O9 0.661621 0.027233 0.892389
O O10 0.479827 0.659495 0.896641
O O11 0.777191 0.371996 0.336984
O O12 0.720591 0.740461 0.516720
O O13 0.959654 0.500959 0.388718
O O14 0.678212 0.246072 0.556070
O O15 0.237892 0.493215 0.131855
O O16 0.500000 0.500000 0.500000
O O17 0.443749 0.888934 0.664761
#
# Coordination Sequence:
#
# PCOD8021648 Si02
#       8
#     2   2   2   2   2   2   2   2
#     4  10  23  38  68 102 138 181 228 295 347 428
#     4  11  23  42  65 107 138 180 236 290 353 421
#     4  10  25  43  68 100 136 181 235 292 352 418
#     4  11  26  47  73 101 141 186 237 289 357 417
#     4  11  24  43  72  93 141 180 231 292 357 422
#     4  10  24  45  69  98 145 188 229 289 360 427
#     4  11  27  46  71 105 137 189 236 292 343 432
#     4  10  22  44  66 101 136 181 229 290 363 412
#
# _framework density 25.309735
#
# number of rings (size 3 to 8) (size 9 to 14) (size 15 to 20)
#    0.000    1.500    0.000    3.000   12.250    3.000 
#    4.500    0.000    0.000    0.000    0.000    0.000 
#    0.000    0.000    0.000    0.000    0.000    0.000 
#
# Total GULP energy -198301.650132 kJ/mol
# GULP energy per Si atom -12393.853133 kJ/mol
# Density = 2.525213 g / cm^3
# Si number density = 25.309735 Si / 1000 Ang^3
#
#
#
# Elastic Constant Matrix: (Units=GPa)
#
#
# Indices 1 2 3 4 5 6 
#
# 1 86.4727 -21.1523 -2.9507 1.3357 -2.0128 -4.9516
# 2 -21.1523 30.4947 -4.2444 -7.7867 -4.4185 -8.8648
# 3 -2.9507 -4.2444 82.5007 -13.8086 1.6892 7.8633
# 4 1.3357 -7.7867 -13.8086 26.2423 -10.3484 -3.8224
# 5 -2.0128 -4.4185 1.6892 -10.3484 39.4211 -6.9354
# 6 -4.9516 -8.8648 7.8633 -3.8224 -6.9354 24.1323
#
#
#
# Elastic Compliance Matrix: (Units=1/GPa)
#
#
# Indices 1 2 3 4 5 6 
#
# 1 0.017930 0.021941 0.002213 0.012762 0.009399 0.015740
# 2 0.021941 0.077895 0.007161 0.044008 0.029216 0.046150
# 3 0.002213 0.007161 0.014231 0.011013 0.003403 0.001170
# 4 0.012762 0.044008 0.011013 0.073620 0.030716 0.035685
# 5 0.009399 0.029216 0.003403 0.030716 0.042054 0.028503
# 6 0.015740 0.046150 0.001170 0.035685 0.028503 0.075083
#
#
# Mechanical properties :
#
#
# Convention : Reuss Voigt Hill
#
# Bulk Modulus (GPa) = 5.79080 15.86370 10.82725
# Shear Modulus (GPa) = 16.90655 33.14683 25.02669
#
# Velocity S-wave (km/s) = 2.58735 3.62283 3.14796
# Velocity P-wave (km/s) = 3.34944 4.87661 4.18330
#
# Compressibility (1/GPa) = 0.17268757
#
# Stress axis : x y z
#
# Youngs Moduli (GPa) = 55.77240 12.83782 70.27041
#
# Poissons Ratio (x) = -0.28168 -0.15554
# Poissons Ratio (y) = -1.22372 -0.50322
# Poissons Ratio (z) = -0.12345 -0.09193
#
# Static dielectric constant tensor:
#      x y z
#    x 5.451700 0.189980 -0.073020 
#    y 0.189980 4.350810 -0.055480 
#    z -0.073020 -0.055480 4.333170 
# 
# 
# High freq. dielectric constant tensor:
#      x y z
#    x 2.033850 0.005790 0.000730 
#    y 0.005790 1.994320 -0.007370 
#    z 0.000730 -0.007370 1.996220 
# 
# From -- ./inp_files/81143.got.cif
#   From: 2010.06.25/outbox.cif.g09.slc.cpg/sg2_41_cif.got.tgz:81143.got - 2010.06.27 13:26:56.
