data_PCOD8021298
_publ_section_title
;
Structure prediction by ZEFSAII (Michael W. Deem and Ramdas Pophale) SiO2 
 PCOD8021298
Probable space group: P -1
;
_chemical_formula_sum "Si O2"
_cell_formula_units_Z 16
_cell_length_a 21.070040
_cell_length_b 11.817109
_cell_length_c 8.809697
_cell_angle_alpha 50.374691
_cell_angle_beta 148.997127
_cell_angle_gamma 141.841272
_cell_volume 693.523809
_symmetry_space_group_name_H-M "P -1"
_symmetry_group_IT_number 2
_symmetry_cell_setting 'triclinic'
loop_
_space_group_symop_operation_xyz
x,y,z
-x,-y,-z
loop_
_atom_site_type_symbol
_atom_site_label
_atom_site_fract_x
_atom_site_fract_y
_atom_site_fract_z
Si Si1 0.166214 0.549785 0.803559
Si Si2 0.354819 0.296294 0.353097
Si Si3 0.513837 0.104409 0.792577
Si Si4 0.005730 0.160691 0.300277
Si Si5 0.750757 0.553774 0.227486
Si Si6 0.678322 0.063880 0.734814
Si Si7 0.776537 0.654229 0.685803
Si Si8 0.408442 0.688291 0.614285
O O1 0.227590 0.559687 0.752183
O O2 0.000000 0.500000 0.500000
O O3 0.303945 0.742075 0.999250
O O4 0.138185 0.385691 0.983711
O O5 0.500000 0.500000 0.500000
O O6 0.409099 0.173629 0.533940
O O7 0.272339 0.242509 0.396385
O O8 0.267501 0.302623 0.020755
O O9 0.436004 0.967736 0.608856
O O10 0.500000 0.000000 0.000000
O O11 0.097775 0.334603 0.452137
O O12 0.093559 0.200235 0.288685
O O13 0.000000 0.000000 0.500000
O O14 0.840216 0.114444 0.970375
O O15 0.610449 0.404637 0.180143
O O16 0.698531 0.242060 0.696601
O O17 0.587915 0.871015 0.809738
O O18 0.635680 0.465453 0.473768
#
# Coordination Sequence:
#
# PCOD8021298 Si02
#       8
#     2   2   2   2   2   2   2   2
#     4  11  24  43  69 100 134 175 228 275 341 409
#     4  11  21  45  72  98 134 176 237 280 326 412
#     4  12  25  45  71 102 139 179 230 289 342 397
#     4  11  26  45  64  99 141 180 225 281 350 405
#     4  10  23  43  71  99 131 181 229 275 338 412
#     4  11  24  42  69 101 144 174 228 288 341 409
#     4  10  23  44  69  97 134 183 228 278 338 406
#     4  10  22  43  70 100 132 181 228 280 343 402
#
# _framework density 23.070584
#
# number of rings (size 3 to 8) (size 9 to 14) (size 15 to 20)
#    0.000    1.250    3.750    1.500    5.250    2.000 
#    4.500    5.000    0.000    0.000    0.000    0.000 
#    0.000    0.000    0.000    0.000    0.000    0.000 
#
# Total GULP energy -198231.690646 kJ/mol
# GULP energy per Si atom -12389.480665 kJ/mol
# Density = 2.301807 g / cm^3
# Si number density = 23.070584 Si / 1000 Ang^3
#
#
#
# Elastic Constant Matrix: (Units=GPa)
#
#
# Indices 1 2 3 4 5 6 
#
# 1 107.4407 26.1628 36.8829 -0.6770 -18.1468 32.9946
# 2 26.1628 70.0219 19.0972 -1.7595 -4.0862 24.8144
# 3 36.8829 19.0972 107.1136 14.2319 2.1666 15.3383
# 4 -0.6770 -1.7595 14.2319 33.5161 4.6526 -0.8710
# 5 -18.1468 -4.0862 2.1666 4.6526 43.4556 -2.2986
# 6 32.9946 24.8144 15.3383 -0.8710 -2.2986 37.8023
#
#
#
# Elastic Compliance Matrix: (Units=1/GPa)
#
#
# Indices 1 2 3 4 5 6 
#
# 1 0.015044 -0.000334 -0.003766 0.000798 0.005770 -0.011014
# 2 -0.000334 0.019027 -0.001850 0.001344 0.000997 -0.011356
# 3 -0.003766 -0.001850 0.011720 -0.004908 -0.001831 -0.000478
# 4 0.000798 0.001344 -0.004908 0.032410 -0.002713 0.000994
# 5 0.005770 0.000997 -0.001831 -0.002713 0.025715 -0.003447
# 6 -0.011014 -0.011356 -0.000478 0.000994 -0.003447 0.043528
#
#
# Mechanical properties :
#
#
# Convention : Reuss Voigt Hill
#
# Bulk Modulus (GPa) = 29.50643 49.87354 39.68998
# Shear Modulus (GPa) = 29.30138 36.45036 32.87587
#
# Velocity S-wave (km/s) = 3.56768 3.97917 3.77903
# Velocity P-wave (km/s) = 5.45788 6.54037 6.02349
#
# Compressibility (1/GPa) = 0.03389092
#
# Stress axis : x y z
#
# Youngs Moduli (GPa) = 66.47358 52.55712 85.32288
#
# Poissons Ratio (x) = 0.01754 0.32134
# Poissons Ratio (y) = 0.02219 0.15784
# Poissons Ratio (z) = 0.25035 0.09723
#
# Static dielectric constant tensor:
#      x y z
#    x 4.170800 0.001130 -0.005380 
#    y 0.001130 4.143960 0.178680 
#    z -0.005380 0.178680 3.893800 
# 
# 
# High freq. dielectric constant tensor:
#      x y z
#    x 1.930810 0.001610 -0.013370 
#    y 0.001610 1.906670 -0.002410 
#    z -0.013370 -0.002410 1.901400 
# 
# From -- ./inp_files/345999.got.cif
#   From: 2010.06.25/outbox.cif.g09.slc.cpg/sg2_173_cif.got.tgz:345999.got - 2010.06.27 13:26:56.
