data_PCOD8021172
_publ_section_title
;
Structure prediction by ZEFSAII (Michael W. Deem and Ramdas Pophale) SiO2 
 PCOD8021172
Probable space group: P -1
;
_chemical_formula_sum "Si O2"
_cell_formula_units_Z 16
_cell_length_a 14.887732
_cell_length_b 5.166915
_cell_length_c 9.384920
_cell_angle_alpha 94.808026
_cell_angle_beta 112.099201
_cell_angle_gamma 83.046962
_cell_volume 663.391051
_symmetry_space_group_name_H-M "P -1"
_symmetry_group_IT_number 2
_symmetry_cell_setting 'triclinic'
loop_
_space_group_symop_operation_xyz
x,y,z
-x,-y,-z
loop_
_atom_site_type_symbol
_atom_site_label
_atom_site_fract_x
_atom_site_fract_y
_atom_site_fract_z
Si Si1 0.429577 0.178301 0.314522
Si Si2 0.010679 0.478433 0.674826
Si Si3 0.377940 0.151889 0.574793
Si Si4 0.243078 0.950301 0.164900
Si Si5 0.270187 0.778527 0.630468
Si Si6 0.197684 0.489579 0.320402
Si Si7 0.127157 0.943185 0.802342
Si Si8 0.465969 0.546420 0.825704
O O1 0.371999 0.312460 0.426416
O O2 0.359685 0.961738 0.207825
O O3 0.440015 0.390712 0.207199
O O4 0.539807 0.085931 0.423328
O O5 0.044204 0.748699 0.770041
O O6 0.000000 0.500000 0.500000
O O7 0.911807 0.423740 0.691315
O O8 0.087169 0.234629 0.749825
O O9 0.422236 0.285448 0.740649
O O10 0.275104 0.032519 0.542207
O O11 0.202182 0.199346 0.246382
O O12 0.226445 0.685290 0.224186
O O13 0.191960 0.954189 0.981611
O O14 0.259592 0.523094 0.510199
O O15 0.185884 0.815638 0.696306
O O16 0.374532 0.766325 0.772534
O O17 0.500000 0.500000 0.000000
#
# Coordination Sequence:
#
# PCOD8021172 Si02
#       8
#     2   2   2   2   2   2   2   2
#     4  10  23  41  66  99 137 191 237 293 350 430
#     4  12  27  50  78 110 147 192 245 303 375 438
#     4  10  22  43  68  95 141 187 245 288 353 425
#     4  12  28  46  76 112 149 189 242 306 369 430
#     4  11  26  44  73 106 141 195 252 294 358 443
#     4  12  27  49  78 106 145 195 246 303 365 448
#     4  12  29  47  78 112 149 190 243 311 370 441
#     4  11  26  40  67 102 150 191 236 303 362 419
#
# _framework density 24.118504999999999
#
# number of rings (size 3 to 8) (size 9 to 14) (size 15 to 20)
#    0.000    0.750    2.500    3.000    8.750    4.000 
#    0.000    0.000    0.000    0.000    0.000    0.000 
#    0.000    0.000    0.000    0.000    0.000    0.000 
#
# Total GULP energy -198304.941909 kJ/mol
# GULP energy per Si atom -12394.058869 kJ/mol
# Density = 2.406361 g / cm^3
# Si number density = 24.118505 Si / 1000 Ang^3
#
#
#
# Elastic Constant Matrix: (Units=GPa)
#
#
# Indices 1 2 3 4 5 6 
#
# 1 96.8755 6.7004 34.6042 -2.9063 -1.9058 23.9227
# 2 6.7004 95.8752 37.0300 -0.0815 -3.7979 16.7231
# 3 34.6042 37.0300 173.1003 -6.1837 2.1072 9.4944
# 4 -2.9063 -0.0815 -6.1837 37.5029 0.2065 3.9140
# 5 -1.9058 -3.7979 2.1072 0.2065 38.8649 2.8734
# 6 23.9227 16.7231 9.4944 3.9140 2.8734 38.1128
#
#
#
# Elastic Compliance Matrix: (Units=1/GPa)
#
#
# Indices 1 2 3 4 5 6 
#
# 1 0.013337 0.001621 -0.002499 0.001528 0.001586 -0.008737
# 2 0.001621 0.012471 -0.002674 0.000328 0.001885 -0.005999
# 3 -0.002499 -0.002674 0.006832 0.000825 -0.000834 0.001018
# 4 0.001528 0.000328 0.000825 0.027350 0.000223 -0.004134
# 5 0.001586 0.001885 -0.000834 0.000223 0.026304 -0.003621
# 6 -0.008737 -0.005999 0.001018 -0.004134 -0.003621 0.034798
#
#
# Mechanical properties :
#
#
# Convention : Reuss Voigt Hill
#
# Bulk Modulus (GPa) = 39.15784 58.05778 48.60781
# Shear Modulus (GPa) = 36.57404 42.06389 39.31897
#
# Velocity S-wave (km/s) = 3.89836 4.18071 4.04200
# Velocity P-wave (km/s) = 6.04432 6.88684 6.47929
#
# Compressibility (1/GPa) = 0.02553767
#
# Stress axis : x y z
#
# Youngs Moduli (GPa) = 74.97661 80.18535 146.36267
#
# Poissons Ratio (x) = -0.12998 0.36569
# Poissons Ratio (y) = -0.12154 0.39139
# Poissons Ratio (z) = 0.18733 0.21442
#
# Static dielectric constant tensor:
#      x y z
#    x 4.766350 0.137950 0.102650 
#    y 0.137950 4.688420 -0.161740 
#    z 0.102650 -0.161740 4.522410 
# 
# 
# High freq. dielectric constant tensor:
#      x y z
#    x 1.975580 0.006420 -0.000920 
#    y 0.006420 1.967880 -0.003700 
#    z -0.000920 -0.003700 1.961410 
# 
# From -- ./inp_files/289076.got.cif
#   From: 2010.06.25/outbox.cif.g09.slc.cpg/sg2_145_cif.got.tgz:289076.got - 2010.06.27 13:26:56.
