data_PCOD8021811
_publ_section_title
;
Structure prediction by ZEFSAII (Michael W. Deem and Ramdas Pophale) SiO2 
 PCOD8021811
Probable space group: P -1
;
_chemical_formula_sum "Si O2"
_cell_formula_units_Z 14
_cell_length_a 7.901293
_cell_length_b 9.064396
_cell_length_c 12.358342
_cell_angle_alpha 89.376781
_cell_angle_beta 90.649886
_cell_angle_gamma 134.587785
_cell_volume 630.308025
_symmetry_space_group_name_H-M "P -1"
_symmetry_group_IT_number 2
_symmetry_cell_setting 'triclinic'
loop_
_space_group_symop_operation_xyz
x,y,z
-x,-y,-z
loop_
_atom_site_type_symbol
_atom_site_label
_atom_site_fract_x
_atom_site_fract_y
_atom_site_fract_z
Si Si1 0.892514 0.277752 0.534508
Si Si2 0.945915 0.375282 0.894285
Si Si3 0.491591 0.724099 0.179250
Si Si4 0.771297 0.957844 0.976107
Si Si5 0.598287 0.436023 0.426156
Si Si6 0.553181 0.420524 0.184064
Si Si7 0.562180 0.892885 0.401870
O O1 0.671650 0.146502 0.619531
O O2 0.000000 0.500000 0.500000
O O3 0.124058 0.346618 0.589917
O O4 0.802488 0.130039 0.428918
O O5 0.777639 0.378322 0.820073
O O6 0.180759 0.477780 0.828616
O O7 0.821730 0.147948 0.927369
O O8 0.000000 0.500000 0.000000
O O9 0.515330 0.567446 0.148667
O O10 0.608501 0.820335 0.297983
O O11 0.633681 0.901257 0.087988
O O12 0.615115 0.778227 0.889360
O O13 0.000000 0.000000 0.000000
O O14 0.500000 0.500000 0.500000
O O15 0.475822 0.355434 0.308778
O O16 0.531743 0.245100 0.488740
#
# Coordination Sequence:
#
# PCOD8021811 Si02
#       7
#     2   2   2   2   2   2   2
#     4   9  21  42  64  94 134 175 229 279 329 403
#     4  12  26  48  72 101 139 184 233 286 348 413
#     4  12  24  46  73 103 140 182 231 285 354 411
#     4  12  26  47  72 103 139 180 229 290 352 409
#     4  11  23  42  67  99 136 180 222 273 344 404
#     4  12  26  47  72 103 143 180 233 292 339 416
#     4  10  22  44  68  98 137 179 227 282 339 408
#
# _framework density 22.211361
#
# number of rings (size 3 to 8) (size 9 to 14) (size 15 to 20)
#    0.000    0.857    4.286    2.571    0.000    6.286 
#    5.143    0.000    0.000    0.000    0.000    0.000 
#    0.000    0.000    0.000    0.000    0.000    0.000 
#
# Total GULP energy -173520.837201 kJ/mol
# GULP energy per Si atom -12394.345514 kJ/mol
# Density = 2.216081 g / cm^3
# Si number density = 22.211361 Si / 1000 Ang^3
#
#
#
# Elastic Constant Matrix: (Units=GPa)
#
#
# Indices 1 2 3 4 5 6 
#
# 1 126.6245 31.5502 16.8572 2.6003 -1.3280 5.0954
# 2 31.5502 131.2321 46.0912 23.5490 -3.6642 1.1723
# 3 16.8572 46.0912 133.8662 7.6720 -10.4672 1.7240
# 4 2.6003 23.5490 7.6720 25.3507 -2.1618 -4.6111
# 5 -1.3280 -3.6642 -10.4672 -2.1618 29.9070 8.4727
# 6 5.0954 1.1723 1.7240 -4.6111 8.4727 32.5614
#
#
#
# Elastic Compliance Matrix: (Units=1/GPa)
#
#
# Indices 1 2 3 4 5 6 
#
# 1 0.008494 -0.002066 -0.000367 0.000975 0.000407 -0.001203
# 2 -0.002066 0.010794 -0.002926 -0.009154 -0.000122 -0.001175
# 3 -0.000367 -0.002926 0.008763 0.000167 0.003004 -0.001059
# 4 0.000975 -0.009154 0.000167 0.049116 0.000553 0.006980
# 5 0.000407 -0.000122 0.003004 0.000553 0.037323 -0.009852
# 6 -0.001203 -0.001175 -0.001059 0.006980 -0.009852 0.034550
#
#
# Mechanical properties :
#
#
# Convention : Reuss Voigt Hill
#
# Bulk Modulus (GPa) = 57.69436 64.52445 61.10941
# Shear Modulus (GPa) = 30.20527 37.37877 33.79202
#
# Velocity S-wave (km/s) = 3.69169 4.10673 3.90472
# Velocity P-wave (km/s) = 6.64853 7.18333 6.92110
#
# Compressibility (1/GPa) = 0.01733272
#
# Stress axis : x y z
#
# Youngs Moduli (GPa) = 117.73532 92.64254 114.11883
#
# Poissons Ratio (x) = 0.19140 0.04186
# Poissons Ratio (y) = 0.24324 0.33393
# Poissons Ratio (z) = 0.04318 0.27109
#
# Static dielectric constant tensor:
#      x y z
#    x 4.564790 0.238340 0.009470 
#    y 0.238340 4.413770 0.022730 
#    z 0.009470 0.022730 3.955570 
# 
# 
# High freq. dielectric constant tensor:
#      x y z
#    x 1.890260 -0.000010 -0.006490 
#    y -0.000010 1.875240 0.014910 
#    z -0.006490 0.014910 1.873590 
# 
# From -- ./inp_files/382358.got.cif
#   From: 2010.06.25/outbox.cif.g09.slc.cpg/sg2_192_cif.got.tgz:382358.got - 2010.06.27 13:26:56.
