data_PCOD8021335
_publ_section_title
;
Structure prediction by ZEFSAII (Michael W. Deem and Ramdas Pophale) SiO2 
 PCOD8021335
Probable space group: P -1
;
_chemical_formula_sum "Si O2"
_cell_formula_units_Z 14
_cell_length_a 9.232816
_cell_length_b 9.303710
_cell_length_c 9.174833
_cell_angle_alpha 67.849382
_cell_angle_beta 70.625189
_cell_angle_gamma 63.881125
_cell_volume 642.255426
_symmetry_space_group_name_H-M "P -1"
_symmetry_group_IT_number 2
_symmetry_cell_setting 'triclinic'
loop_
_space_group_symop_operation_xyz
x,y,z
-x,-y,-z
loop_
_atom_site_type_symbol
_atom_site_label
_atom_site_fract_x
_atom_site_fract_y
_atom_site_fract_z
Si Si1 0.656678 0.976328 0.868228
Si Si2 0.463367 0.936187 0.688260
Si Si3 0.908327 0.176308 0.387675
Si Si4 0.611357 0.560771 0.833821
Si Si5 0.109871 0.362791 0.124085
Si Si6 0.215137 0.738726 0.309764
Si Si7 0.093168 0.021860 0.812652
O O1 0.603819 0.970649 0.721676
O O2 0.793726 0.802409 0.938304
O O3 0.719286 0.123235 0.827859
O O4 0.500000 0.000000 0.000000
O O5 0.499670 0.739898 0.742131
O O6 0.275530 0.029280 0.776717
O O7 0.500000 0.000000 0.500000
O O8 0.764804 0.270655 0.516299
O O9 0.865354 0.137157 0.252546
O O10 0.008099 0.301472 0.300526
O O11 0.000000 0.000000 0.500000
O O12 0.769795 0.561504 0.867118
O O13 0.675422 0.438849 0.721899
O O14 0.500000 0.500000 0.000000
O O15 0.000000 0.500000 0.000000
O O16 0.023550 0.806313 0.292867
O O17 0.000000 0.000000 0.000000
#
# Coordination Sequence:
#
# PCOD8021335 Si02
#       7
#     2   2   2   2   2   2   2
#     4  11  22  44  67  97 134 181 223 276 345 410
#     4  11  26  44  69 101 142 176 225 289 351 402
#     4  10  22  43  70  95 138 174 229 280 339 396
#     4  11  26  46  67 101 143 180 224 285 348 411
#     4  11  25  43  69  98 137 175 228 283 336 403
#     4  11  23  43  72  96 133 185 229 280 340 406
#     4  11  22  40  73 101 131 179 238 272 336 415
#
# _framework density 21.798181
#
# number of rings (size 3 to 8) (size 9 to 14) (size 15 to 20)
#    0.000    1.143    2.857    4.286   10.000    0.571 
#    2.571    1.429    0.000    0.000    0.000    0.000 
#    0.000    0.000    0.000    0.000    0.000    0.000 
#
# Total GULP energy -173462.587581 kJ/mol
# GULP energy per Si atom -12390.184827 kJ/mol
# Density = 2.174857 g / cm^3
# Si number density = 21.798181 Si / 1000 Ang^3
#
#
#
# Elastic Constant Matrix: (Units=GPa)
#
#
# Indices 1 2 3 4 5 6 
#
# 1 91.1097 29.3684 23.8506 -16.8877 -9.5449 -6.2896
# 2 29.3684 105.8195 44.0522 -4.1927 -4.6106 -0.4917
# 3 23.8506 44.0522 137.2706 -6.0430 -11.8128 -8.5035
# 4 -16.8877 -4.1927 -6.0430 44.8590 0.1745 -3.3362
# 5 -9.5449 -4.6106 -11.8128 0.1745 35.5566 0.1048
# 6 -6.2896 -0.4917 -8.5035 -3.3362 0.1048 36.7677
#
#
#
# Elastic Compliance Matrix: (Units=1/GPa)
#
#
# Indices 1 2 3 4 5 6 
#
# 1 0.013568 -0.003129 -0.000725 0.004896 0.002964 0.002547
# 2 -0.003129 0.011658 -0.003337 -0.000626 -0.000430 -0.001207
# 3 -0.000725 -0.003337 0.008832 0.000740 0.002298 0.001935
# 4 0.004896 -0.000626 0.000740 0.024410 0.001350 0.003211
# 5 0.002964 -0.000430 0.002298 0.001350 0.029618 0.001071
# 6 0.002547 -0.001207 0.001935 0.003211 0.001071 0.028353
#
#
# Mechanical properties :
#
#
# Convention : Reuss Voigt Hill
#
# Bulk Modulus (GPa) = 50.82173 58.74912 54.78542
# Shear Modulus (GPa) = 36.39560 39.23191 37.81376
#
# Velocity S-wave (km/s) = 4.09058 4.24698 4.16952
# Velocity P-wave (km/s) = 6.75839 7.14556 6.95467
#
# Compressibility (1/GPa) = 0.01967662
#
# Stress axis : x y z
#
# Youngs Moduli (GPa) = 73.70345 85.77461 113.22614
#
# Poissons Ratio (x) = 0.26837 0.08208
# Poissons Ratio (y) = 0.23060 0.37784
# Poissons Ratio (z) = 0.05343 0.28624
#
# Static dielectric constant tensor:
#      x y z
#    x 3.835810 -0.052550 -0.292230 
#    y -0.052550 4.005200 0.208900 
#    z -0.292230 0.208900 3.808720 
# 
# 
# High freq. dielectric constant tensor:
#      x y z
#    x 1.862130 0.002540 -0.008920 
#    y 0.002540 1.849120 0.010010 
#    z -0.008920 0.010010 1.865530 
# 
# From -- ./inp_files/157109.got.cif
#   From: 2010.06.25/outbox.cif.g09.slc.cpg/sg2_79_cif.got.tgz:157109.got - 2010.06.27 13:26:56.
