data_PCOD8021348
_publ_section_title
;
Structure prediction by ZEFSAII (Michael W. Deem and Ramdas Pophale) SiO2 
 PCOD8021348
Probable space group: P -1
;
_chemical_formula_sum "Si O2"
_cell_formula_units_Z 16
_cell_length_a 14.624809
_cell_length_b 5.311887
_cell_length_c 9.728114
_cell_angle_alpha 89.392764
_cell_angle_beta 79.541878
_cell_angle_gamma 99.931254
_cell_volume 731.355925
_symmetry_space_group_name_H-M "P -1"
_symmetry_group_IT_number 2
_symmetry_cell_setting 'triclinic'
loop_
_space_group_symop_operation_xyz
x,y,z
-x,-y,-z
loop_
_atom_site_type_symbol
_atom_site_label
_atom_site_fract_x
_atom_site_fract_y
_atom_site_fract_z
Si Si1 0.706777 0.082305 0.852577
Si Si2 0.065212 0.228827 0.904387
Si Si3 0.884257 0.414318 0.876129
Si Si4 0.593323 0.558105 0.563191
Si Si5 0.118366 0.027003 0.623901
Si Si6 0.063290 0.329463 0.406871
Si Si7 0.593356 0.532436 0.885106
Si Si8 0.293576 0.889667 0.467269
O O1 0.806526 0.154445 0.907615
O O2 0.642478 0.291106 0.907742
O O3 0.729502 0.095526 0.685984
O O4 0.659374 0.797673 0.911739
O O5 0.993499 0.383305 0.846029
O O6 0.133833 0.140221 0.772547
O O7 0.132132 0.405995 0.992586
O O8 0.000000 0.000000 0.000000
O O9 0.867508 0.536956 0.731886
O O10 0.500000 0.500000 0.500000
O O11 0.567231 0.542979 0.731609
O O12 0.655984 0.346359 0.507833
O O13 0.645053 0.840453 0.503784
O O14 0.194113 0.842246 0.578193
O O15 0.008360 0.899086 0.644644
O O16 0.135022 0.240387 0.497437
O O17 0.000000 0.500000 0.500000
O O18 0.500000 0.500000 0.000000
#
# Coordination Sequence:
#
# PCOD8021348 Si02
#       8
#     2   2   2   2   2   2   2   2
#     4  10  23  40  69  99 128 166 221 272 321 389
#     4  11  24  43  58  86 139 183 215 274 336 390
#     4  11  24  40  64  89 130 181 224 269 335 387
#     4  10  22  44  68  95 131 167 205 264 347 399
#     4  11  24  38  62  95 127 171 230 275 325 384
#     4  11  22  37  64  90 125 171 224 277 320 380
#     4  10  22  43  70  98 129 164 209 270 331 399
#     4  10  23  39  68  99 129 165 218 280 317 391
#
# _framework density 21.877175000000001
#
# number of rings (size 3 to 8) (size 9 to 14) (size 15 to 20)
#    0.000    1.500    2.500    1.500   10.500    0.000 
#    2.250    0.000    0.000    0.000    0.000    0.000 
#    0.000    0.000    0.000    0.000    0.000    0.000 
#
# Total GULP energy -198424.293198 kJ/mol
# GULP energy per Si atom -12401.518325 kJ/mol
# Density = 2.182738 g / cm^3
# Si number density = 21.877175 Si / 1000 Ang^3
#
#
#
# Elastic Constant Matrix: (Units=GPa)
#
#
# Indices 1 2 3 4 5 6 
#
# 1 87.5504 38.4487 44.7396 18.1279 -7.9778 12.3101
# 2 38.4487 132.2845 44.9051 20.5815 -0.5298 7.3175
# 3 44.7396 44.9051 119.6752 17.6681 -14.1911 -1.0653
# 4 18.1279 20.5815 17.6681 32.9243 -5.6026 -1.3426
# 5 -7.9778 -0.5298 -14.1911 -5.6026 32.2600 7.4790
# 6 12.3101 7.3175 -1.0653 -1.3426 7.4790 41.4060
#
#
#
# Elastic Compliance Matrix: (Units=1/GPa)
#
#
# Indices 1 2 3 4 5 6 
#
# 1 0.016704 -0.002251 -0.004380 -0.005232 0.002487 -0.005300
# 2 -0.002251 0.009692 -0.002464 -0.003865 -0.001948 -0.000880
# 3 -0.004380 -0.002464 0.011569 -0.001628 0.003364 0.001375
# 4 -0.005232 -0.003865 -0.001628 0.037296 0.003772 0.002725
# 5 0.002487 -0.001948 0.003364 0.003772 0.035235 -0.006551
# 6 -0.005300 -0.000880 0.001375 0.002725 -0.006551 0.027189
#
#
# Mechanical properties :
#
#
# Convention : Reuss Voigt Hill
#
# Bulk Modulus (GPa) = 50.56439 66.18854 58.37647
# Shear Modulus (GPa) = 30.77555 35.41252 33.09403
#
# Velocity S-wave (km/s) = 3.75473 4.02767 3.89359
# Velocity P-wave (km/s) = 6.47768 7.20762 6.85237
#
# Compressibility (1/GPa) = 0.01977676
#
# Stress axis : x y z
#
# Youngs Moduli (GPa) = 59.86619 103.17574 86.43628
#
# Poissons Ratio (x) = 0.23225 0.37857
# Poissons Ratio (y) = 0.13476 0.21294
# Poissons Ratio (z) = 0.26220 0.25417
#
# Static dielectric constant tensor:
#      x y z
#    x 4.022200 -0.088480 0.064290 
#    y -0.088480 4.484230 0.145350 
#    z 0.064290 0.145350 3.861150 
# 
# 
# High freq. dielectric constant tensor:
#      x y z
#    x 1.844120 -0.000170 0.000580 
#    y -0.000170 1.876660 0.013360 
#    z 0.000580 0.013360 1.852240 
# 
# From -- ./inp_files/38050.got.cif
#   From: 2010.06.25/outbox.cif.g09.slc.cpg/sg2_20_cif.got.tgz:38050.got - 2010.06.27 13:26:56.
