data_PCOD8021781
_publ_section_title
;
Structure prediction by ZEFSAII (Michael W. Deem and Ramdas Pophale) SiO2 
 PCOD8021781
Probable space group: P -1
;
_chemical_formula_sum "Si O2"
_cell_formula_units_Z 10
_cell_length_a 9.258715
_cell_length_b 13.073865
_cell_length_c 4.834376
_cell_angle_alpha 123.728164
_cell_angle_beta 130.663920
_cell_angle_gamma 46.406645
_cell_volume 315.455134
_symmetry_space_group_name_H-M "P -1"
_symmetry_group_IT_number 2
_symmetry_cell_setting 'triclinic'
loop_
_space_group_symop_operation_xyz
x,y,z
-x,-y,-z
loop_
_atom_site_type_symbol
_atom_site_label
_atom_site_fract_x
_atom_site_fract_y
_atom_site_fract_z
Si Si1 0.177019 0.063395 0.741216
Si Si2 0.182148 0.325585 0.262618
Si Si3 0.129249 0.824307 0.954048
Si Si4 0.738061 0.459787 0.623456
Si Si5 0.493824 0.858117 0.215792
O O1 0.929151 0.949512 0.697397
O O2 0.275382 0.169633 0.985148
O O3 0.966506 0.148816 0.814689
O O4 0.361685 0.899764 0.820588
O O5 0.301924 0.399915 0.378601
O O6 0.257208 0.282941 0.620569
O O7 0.913605 0.424279 0.043820
O O8 0.169678 0.672487 0.670004
O O9 0.355653 0.825999 0.220108
O O10 0.500000 0.500000 0.500000
O O11 0.500000 0.000000 0.500000
#
# Coordination Sequence:
#
# PCOD8021781 Si02
#       5
#     2   2   2   2   2
#     4  10  23  47  72 107 146 189 236 297 358 435
#     4   9  22  45  69 109 143 186 247 288 362 422
#     4  11  24  45  75 106 145 195 240 288 368 424
#     4  10  23  47  73 106 147 194 239 302 354 430
#     4  10  22  44  68 109 145 188 236 307 351 434
#
# _framework density 31.700229
#
# number of rings (size 3 to 8) (size 9 to 14) (size 15 to 20)
#    0.000    2.000    0.000    1.200    5.600    1.600 
#   21.600    9.000    0.000    0.000    0.000    0.000 
#    0.000    0.000    0.000    0.000    0.000    0.000 
#
# Total GULP energy -123896.930851 kJ/mol
# GULP energy per Si atom -12389.693085 kJ/mol
# Density = 3.162808 g / cm^3
# Si number density = 31.700229 Si / 1000 Ang^3
#
#
#
# Elastic Constant Matrix: (Units=GPa)
#
#
# Indices 1 2 3 4 5 6 
#
# 1 121.6291 52.1652 78.0842 -1.5641 23.8912 15.2433
# 2 52.1652 218.2312 84.4043 -27.5083 1.8066 41.7674
# 3 78.0842 84.4043 174.9521 -17.3041 25.7903 31.0088
# 4 -1.5641 -27.5083 -17.3041 59.0085 11.5239 2.0378
# 5 23.8912 1.8066 25.7903 11.5239 68.0491 6.5358
# 6 15.2433 41.7674 31.0088 2.0378 6.5358 60.8995
#
#
#
# Elastic Compliance Matrix: (Units=1/GPa)
#
#
# Indices 1 2 3 4 5 6 
#
# 1 0.012157 -0.001346 -0.004654 -0.001237 -0.002311 0.000539
# 2 -0.001346 0.006574 -0.001864 0.002420 0.000922 -0.003402
# 3 -0.004654 -0.001864 0.009651 0.002337 -0.002147 -0.002318
# 4 -0.001237 0.002420 0.002337 0.019518 -0.003551 -0.002812
# 5 -0.002311 0.000922 -0.002147 -0.003551 0.016961 -0.000662
# 6 0.000539 -0.003402 -0.002318 -0.002812 -0.000662 0.019964
#
#
# Mechanical properties :
#
#
# Convention : Reuss Voigt Hill
#
# Bulk Modulus (GPa) = 79.02922 104.90219 91.96571
# Shear Modulus (GPa) = 47.72322 57.60198 52.66260
#
# Velocity S-wave (km/s) = 3.88423 4.26735 4.08029
# Velocity P-wave (km/s) = 6.71570 7.57919 7.16047
#
# Compressibility (1/GPa) = 0.01265355
#
# Stress axis : x y z
#
# Youngs Moduli (GPa) = 82.25575 152.12490 103.61723
#
# Poissons Ratio (x) = 0.20478 0.48222
# Poissons Ratio (y) = 0.11073 0.19315
# Poissons Ratio (z) = 0.38281 0.28357
#
# Static dielectric constant tensor:
#      x y z
#    x 5.928820 0.654470 0.393770 
#    y 0.654470 7.027810 -0.187060 
#    z 0.393770 -0.187060 7.214640 
# 
# 
# High freq. dielectric constant tensor:
#      x y z
#    x 2.305540 0.019630 0.021310 
#    y 0.019630 2.333210 -0.000620 
#    z 0.021310 -0.000620 2.342270 
# 
# From -- ./inp_files/266078.got.cif
#   From: 2010.06.25/outbox.cif.g09.slc.cpg/sg2_134_cif.got.tgz:266078.got - 2010.06.27 13:26:56.
