data_PCOD8021613
_publ_section_title
;
Structure prediction by ZEFSAII (Michael W. Deem and Ramdas Pophale) SiO2 
 PCOD8021613
Probable space group: P -1
;
_chemical_formula_sum "Si O2"
_cell_formula_units_Z 14
_cell_length_a 21.991232
_cell_length_b 12.536161
_cell_length_c 7.615348
_cell_angle_alpha 109.645955
_cell_angle_beta 112.019444
_cell_angle_gamma 20.233764
_cell_volume 672.335812
_symmetry_space_group_name_H-M "P -1"
_symmetry_group_IT_number 2
_symmetry_cell_setting 'triclinic'
loop_
_space_group_symop_operation_xyz
x,y,z
-x,-y,-z
loop_
_atom_site_type_symbol
_atom_site_label
_atom_site_fract_x
_atom_site_fract_y
_atom_site_fract_z
Si Si1 0.614548 0.403317 0.457834
Si Si2 0.550119 0.222290 0.834901
Si Si3 0.143186 0.390087 0.001496
Si Si4 0.188924 0.692631 0.312598
Si Si5 0.705143 0.653263 0.056135
Si Si6 0.778423 0.394033 0.306733
Si Si7 0.814350 0.923671 0.162748
O O1 0.500000 0.500000 0.500000
O O2 0.472829 0.695461 0.341866
O O3 0.720744 0.329654 0.639598
O O4 0.776293 0.075751 0.356123
O O5 0.358544 0.484003 0.840603
O O6 0.699469 0.881609 0.830810
O O7 0.620348 0.215982 0.022412
O O8 0.195012 0.391389 0.904269
O O9 0.965821 0.727697 0.086119
O O10 0.108048 0.324799 0.830756
O O11 0.234391 0.543811 0.114544
O O12 0.258052 0.528049 0.481490
O O13 0.976711 0.035764 0.284519
O O14 0.743201 0.564284 0.251861
O O15 0.500000 0.000000 0.000000
#
# Coordination Sequence:
#
# PCOD8021613 Si02
#       7
#     2   2   2   2   2   2   2
#     4  11  24  39  64  90 125 164 207 262 309 377
#     4   9  19  41  62  89 120 164 207 255 314 362
#     4   9  21  38  66  90 123 162 210 256 313 377
#     4  10  26  43  61  98 130 162 216 263 322 365
#     4  12  23  41  68  94 126 170 215 257 316 385
#     4  10  22  44  65  92 130 167 209 270 309 378
#     4   9  20  42  63  89 120 163 206 254 313 373
#
# _framework density 20.822928999999998
#
# number of rings (size 3 to 8) (size 9 to 14) (size 15 to 20)
#    0.857    1.143    1.429    0.857   10.000    1.714 
#    0.000    0.714    0.000    0.000    0.000    0.000 
#    0.000    0.000    0.000    0.000    0.000    0.000 
#
# Total GULP energy -173440.765546 kJ/mol
# GULP energy per Si atom -12388.626110 kJ/mol
# Density = 2.077553 g / cm^3
# Si number density = 20.822929 Si / 1000 Ang^3
#
#
#
# Elastic Constant Matrix: (Units=GPa)
#
#
# Indices 1 2 3 4 5 6 
#
# 1 145.7709 30.0781 12.1839 -18.2814 -27.8574 -10.2986
# 2 30.0781 68.8525 2.8962 -15.0335 -10.1462 -5.9555
# 3 12.1839 2.8962 22.2005 -12.9406 -7.0466 7.3336
# 4 -18.2814 -15.0335 -12.9406 21.4299 1.4698 1.9941
# 5 -27.8574 -10.1462 -7.0466 1.4698 32.6085 -5.0203
# 6 -10.2986 -5.9555 7.3336 1.9941 -5.0203 35.5458
#
#
#
# Elastic Compliance Matrix: (Units=1/GPa)
#
#
# Indices 1 2 3 4 5 6 
#
# 1 0.009747 -0.001329 0.000161 0.006608 0.008166 0.003351
# 2 -0.001329 0.019810 0.011172 0.019006 0.006664 0.000504
# 3 0.000161 0.011172 0.092858 0.064522 0.017951 -0.018324
# 4 0.006608 0.019006 0.064522 0.104348 0.019047 -0.011377
# 5 0.008166 0.006664 0.017951 0.019047 0.043484 0.004852
# 6 0.003351 0.000504 -0.018324 -0.011377 0.004852 0.034292
#
#
# Mechanical properties :
#
#
# Convention : Reuss Voigt Hill
#
# Bulk Modulus (GPa) = 7.02131 36.34892 21.68512
# Shear Modulus (GPa) = 15.06002 30.69454 22.87728
#
# Velocity S-wave (km/s) = 2.69223 3.84353 3.31820
# Velocity P-wave (km/s) = 3.61156 6.09845 5.01171
#
# Compressibility (1/GPa) = 0.14242349
#
# Stress axis : x y z
#
# Youngs Moduli (GPa) = 102.59789 50.48051 10.76909
#
# Poissons Ratio (x) = 0.06707 -0.00174
# Poissons Ratio (y) = 0.13631 -0.12031
# Poissons Ratio (z) = -0.01653 -0.56396
#
# Static dielectric constant tensor:
#      x y z
#    x 4.058700 -0.105050 -0.136130 
#    y -0.105050 3.774410 -0.136230 
#    z -0.136130 -0.136230 3.675210 
# 
# 
# High freq. dielectric constant tensor:
#      x y z
#    x 1.832660 -0.011700 0.001420 
#    y -0.011700 1.819520 -0.008110 
#    z 0.001420 -0.008110 1.776740 
# 
# From -- ./inp_files/346234.got.cif
#   From: 2010.06.25/outbox.cif.g09.slc.cpg/sg2_174_cif.got.tgz:346234.got - 2010.06.27 13:26:56.
