data_PCOD8021999
_publ_section_title
;
Structure prediction by ZEFSAII (Michael W. Deem and Ramdas Pophale) SiO2 
 PCOD8021999
Probable space group: P -1
;
_chemical_formula_sum "Si O2"
_cell_formula_units_Z 14
_cell_length_a 21.868638
_cell_length_b 5.283395
_cell_length_c 9.163065
_cell_angle_alpha 125.944705
_cell_angle_beta 130.752457
_cell_angle_gamma 59.580673
_cell_volume 636.072591
_symmetry_space_group_name_H-M "P -1"
_symmetry_group_IT_number 2
_symmetry_cell_setting 'triclinic'
loop_
_space_group_symop_operation_xyz
x,y,z
-x,-y,-z
loop_
_atom_site_type_symbol
_atom_site_label
_atom_site_fract_x
_atom_site_fract_y
_atom_site_fract_z
Si Si1 0.429467 0.768169 0.723170
Si Si2 0.604412 0.492012 0.121044
Si Si3 0.561270 0.237632 0.679995
Si Si4 0.778442 0.595364 0.437673
Si Si5 0.707769 0.197294 0.683919
Si Si6 0.096785 0.949871 0.647087
Si Si7 0.181189 0.481873 0.841000
O O1 0.447398 0.600601 0.853541
O O2 0.505800 0.593133 0.681057
O O3 0.342220 0.689387 0.504387
O O4 0.428959 0.142255 0.857855
O O5 0.699620 0.444490 0.299023
O O6 0.603109 0.242612 0.904801
O O7 0.635066 0.110557 0.640756
O O8 0.500000 0.000000 0.500000
O O9 0.860631 0.320630 0.495692
O O10 0.774667 0.704563 0.296146
O O11 0.778560 0.889477 0.647889
O O12 0.750104 0.458684 0.915664
O O13 0.126311 0.820178 0.811984
O O14 0.123539 0.282583 0.768121
O O15 0.000000 0.000000 0.500000
#
# Coordination Sequence:
#
# PCOD8021999 Si02
#       7
#     2   2   2   2   2   2   2
#     4  11  26  42  67  91 132 177 225 284 333 377
#     4  11  24  45  65  92 131 180 224 273 338 394
#     4  12  24  43  63  98 133 176 230 289 326 385
#     4   9  23  41  68  95 133 173 213 269 331 385
#     4  11  24  45  65 103 130 177 234 269 328 402
#     4  10  22  44  72 100 134 171 213 261 333 399
#     4  10  23  43  70  96 133 176 214 268 327 393
#
# _framework density 22.010064
#
# number of rings (size 3 to 8) (size 9 to 14) (size 15 to 20)
#    0.857    0.571    1.429    3.429    4.000    6.857 
#    0.000    1.429    0.000    0.000    0.000    0.000 
#    0.000    0.000    0.000    0.000    0.000    0.000 
#
# Total GULP energy -173504.005241 kJ/mol
# GULP energy per Si atom -12393.143231 kJ/mol
# Density = 2.195997 g / cm^3
# Si number density = 22.010064 Si / 1000 Ang^3
#
#
#
# Elastic Constant Matrix: (Units=GPa)
#
#
# Indices 1 2 3 4 5 6 
#
# 1 115.4383 61.2125 55.2586 19.2961 15.2152 2.5865
# 2 61.2125 108.5373 39.8989 0.7952 -6.7734 4.1780
# 3 55.2586 39.8989 115.8326 14.9108 -0.7927 5.7363
# 4 19.2961 0.7952 14.9108 24.3118 -0.2112 -5.8760
# 5 15.2152 -6.7734 -0.7927 -0.2112 30.2309 5.8064
# 6 2.5865 4.1780 5.7363 -5.8760 5.8064 46.8107
#
#
#
# Elastic Compliance Matrix: (Units=1/GPa)
#
#
# Indices 1 2 3 4 5 6 
#
# 1 0.020193 -0.010463 -0.004461 -0.012982 -0.012777 0.000320
# 2 -0.010463 0.016240 -0.001622 0.008676 0.009059 -0.000707
# 3 -0.004461 -0.001622 0.011972 -0.004190 0.002535 -0.001916
# 4 -0.012982 0.008676 -0.004190 0.055352 0.007512 0.006473
# 5 -0.012777 0.009059 0.002535 0.007512 0.042570 -0.004751
# 6 0.000320 -0.000707 -0.001916 0.006473 -0.004751 0.023045
#
#
# Mechanical properties :
#
#
# Convention : Reuss Voigt Hill
#
# Bulk Modulus (GPa) = 65.31041 72.50537 68.90789
# Shear Modulus (GPa) = 24.08842 32.49988 28.29415
#
# Velocity S-wave (km/s) = 3.31180 3.84681 3.58929
# Velocity P-wave (km/s) = 6.66044 7.26251 6.96798
#
# Compressibility (1/GPa) = 0.01531150
#
# Stress axis : x y z
#
# Youngs Moduli (GPa) = 49.52120 61.57773 83.52981
#
# Poissons Ratio (x) = 0.64429 0.37266
# Poissons Ratio (y) = 0.51815 0.13550
# Poissons Ratio (z) = 0.22093 0.09989
#
# Static dielectric constant tensor:
#      x y z
#    x 3.906360 -0.141100 -0.197730 
#    y -0.141100 3.850410 0.019380 
#    z -0.197730 0.019380 4.102350 
# 
# 
# High freq. dielectric constant tensor:
#      x y z
#    x 1.857180 -0.001460 -0.005020 
#    y -0.001460 1.855120 0.002000 
#    z -0.005020 0.002000 1.865920 
# 
# From -- ./inp_files/340756.got.cif
#   From: 2010.06.25/outbox.cif.g09.slc.cpg/sg2_171_cif.got.tgz:340756.got - 2010.06.27 13:26:56.
