data_PCOD8021306
_publ_section_title
;
Structure prediction by ZEFSAII (Michael W. Deem and Ramdas Pophale) SiO2 
 PCOD8021306
Probable space group: P -1
;
_chemical_formula_sum "Si O2"
_cell_formula_units_Z 14
_cell_length_a 8.525631
_cell_length_b 23.422376
_cell_length_c 9.297650
_cell_angle_alpha 150.881380
_cell_angle_beta 133.298291
_cell_angle_gamma 38.637991
_cell_volume 564.097165
_symmetry_space_group_name_H-M "P -1"
_symmetry_group_IT_number 2
_symmetry_cell_setting 'triclinic'
loop_
_space_group_symop_operation_xyz
x,y,z
-x,-y,-z
loop_
_atom_site_type_symbol
_atom_site_label
_atom_site_fract_x
_atom_site_fract_y
_atom_site_fract_z
Si Si1 0.009301 0.093761 0.586395
Si Si2 0.246579 0.967626 0.166288
Si Si3 0.441422 0.290301 0.624831
Si Si4 0.739489 0.729915 0.833732
Si Si5 0.692953 0.598997 0.761868
Si Si6 0.742210 0.443813 0.716878
Si Si7 0.272389 0.210383 0.601360
O O1 0.190071 0.990523 0.350751
O O2 0.737567 0.196837 0.575440
O O3 0.113751 0.189683 0.919195
O O4 0.000000 0.000000 0.500000
O O5 0.345572 0.064261 0.384165
O O6 0.468966 0.817446 0.935278
O O7 0.000000 0.000000 0.000000
O O8 0.289603 0.325185 0.457909
O O9 0.366313 0.198305 0.470940
O O10 0.376698 0.429484 0.969771
O O11 0.868531 0.602636 0.750530
O O12 0.846181 0.476641 0.706214
O O13 0.468053 0.589562 0.530276
O O14 0.582530 0.736900 0.091131
O O15 0.971698 0.314173 0.652224
#
# Coordination Sequence:
#
# PCOD8021306 Si02
#       7
#     2   2   2   2   2   2   2
#     4  12  28  45  68 106 141 180 231 285 343 409
#     4  12  25  46  73 100 140 184 227 282 349 414
#     4  11  26  45  66 108 137 180 231 286 339 401
#     4  12  26  45  71 104 142 183 223 286 348 408
#     4  10  22  43  70 101 131 181 233 271 345 402
#     4  10  24  46  73  99 137 185 231 285 339 406
#     4  11  24  47  72  98 140 185 233 276 348 409
#
# _framework density 24.818418000000001
#
# number of rings (size 3 to 8) (size 9 to 14) (size 15 to 20)
#    0.000    0.857    2.857    3.857    6.000    6.286 
#    0.000    3.571    0.000    0.000    0.000    0.000 
#    0.000    0.000    0.000    0.000    0.000    0.000 
#
# Total GULP energy -173563.346478 kJ/mol
# GULP energy per Si atom -12397.381891 kJ/mol
# Density = 2.476193 g / cm^3
# Si number density = 24.818418 Si / 1000 Ang^3
#
#
#
# Elastic Constant Matrix: (Units=GPa)
#
#
# Indices 1 2 3 4 5 6 
#
# 1 114.4126 27.2939 47.1810 -8.1908 -3.0679 37.0796
# 2 27.2939 55.7778 31.2248 -12.5541 -11.1344 24.2072
# 3 47.1810 31.2248 125.4764 -32.3858 1.0101 19.1614
# 4 -8.1908 -12.5541 -32.3858 36.9025 -0.3479 -6.5436
# 5 -3.0679 -11.1344 1.0101 -0.3479 44.6391 2.8699
# 6 37.0796 24.2072 19.1614 -6.5436 2.8699 50.8639
#
#
#
# Elastic Compliance Matrix: (Units=1/GPa)
#
#
# Indices 1 2 3 4 5 6 
#
# 1 0.013090 -0.000968 -0.004107 -0.002420 0.001241 -0.007917
# 2 -0.000968 0.027772 -0.003924 0.003918 0.007685 -0.010963
# 3 -0.004107 -0.003924 0.012637 0.009069 -0.001563 0.001356
# 4 -0.002420 0.003918 0.009069 0.036052 0.000818 0.001075
# 5 0.001241 0.007685 -0.001563 0.000818 0.024784 -0.005267
# 6 -0.007917 -0.010963 0.001356 0.001075 -0.005267 0.030574
#
#
# Mechanical properties :
#
#
# Convention : Reuss Voigt Hill
#
# Bulk Modulus (GPa) = 28.16683 56.34071 42.25377
# Shear Modulus (GPa) = 28.61386 39.14559 33.87973
#
# Velocity S-wave (km/s) = 3.39916 3.97581 3.69874
# Velocity P-wave (km/s) = 5.17490 6.62016 5.94164
#
# Compressibility (1/GPa) = 0.03550275
#
# Stress axis : x y z
#
# Youngs Moduli (GPa) = 76.39131 36.00713 79.13451
#
# Poissons Ratio (x) = 0.03484 0.32502
# Poissons Ratio (y) = 0.07391 0.31050
# Poissons Ratio (z) = 0.31375 0.14128
#
# Static dielectric constant tensor:
#      x y z
#    x 4.767890 0.375030 0.202510 
#    y 0.375030 4.806090 0.010620 
#    z 0.202510 0.010620 4.585260 
# 
# 
# High freq. dielectric constant tensor:
#      x y z
#    x 1.991760 0.012270 0.007410 
#    y 0.012270 2.005200 -0.009470 
#    z 0.007410 -0.009470 1.993160 
# 
# From -- ./inp_files/225923.got.cif
#   From: 2010.06.25/outbox.cif.g09.slc.cpg/sg2_113_cif.got.tgz:225923.got - 2010.06.27 13:26:56.
