data_PCOD8021821
_publ_section_title
;
Structure prediction by ZEFSAII (Michael W. Deem and Ramdas Pophale) SiO2 
 PCOD8021821
Probable space group: P -1
;
_chemical_formula_sum "Si O2"
_cell_formula_units_Z 16
_cell_length_a 9.993991
_cell_length_b 11.383270
_cell_length_c 6.799277
_cell_angle_alpha 102.012790
_cell_angle_beta 89.312286
_cell_angle_gamma 80.594137
_cell_volume 745.554869
_symmetry_space_group_name_H-M "P -1"
_symmetry_group_IT_number 2
_symmetry_cell_setting 'triclinic'
loop_
_space_group_symop_operation_xyz
x,y,z
-x,-y,-z
loop_
_atom_site_type_symbol
_atom_site_label
_atom_site_fract_x
_atom_site_fract_y
_atom_site_fract_z
Si Si1 0.711079 0.120982 0.242175
Si Si2 0.087709 0.717414 0.674736
Si Si3 0.356424 0.429073 0.191981
Si Si4 0.861258 0.508376 0.122603
Si Si5 0.799051 0.703469 0.532518
Si Si6 0.446055 0.777473 0.066175
Si Si7 0.624139 0.909353 0.374625
Si Si8 0.683080 0.313785 0.610487
O O1 0.860776 0.156765 0.215914
O O2 0.625360 0.228867 0.418890
O O3 0.725273 0.988623 0.295208
O O4 0.625883 0.118558 0.043416
O O5 0.138497 0.616328 0.802605
O O6 0.160879 0.676779 0.448224
O O7 0.927735 0.739355 0.656115
O O8 0.280944 0.362182 0.331978
O O9 0.401290 0.549141 0.331260
O O10 0.261795 0.471697 0.021308
O O11 0.494638 0.346302 0.091709
O O12 0.845733 0.619544 0.315413
O O13 0.000000 0.500000 0.000000
O O14 0.706853 0.829283 0.513953
O O15 0.571581 0.822081 0.186427
O O16 0.327341 0.751903 0.204495
O O17 0.500000 0.000000 0.500000
#
# Coordination Sequence:
#
# PCOD8021821 Si02
#       8
#     2   2   2   2   2   2   2   2
#     4  10  24  43  66  94 132 184 225 284 327 393
#     4  10  22  44  68  99 137 178 216 280 348 397
#     4  12  24  39  70 105 138 177 225 283 342 416
#     4  12  22  41  69 104 140 176 221 274 346 415
#     4  12  24  43  68 104 139 178 229 281 340 406
#     4  12  24  44  68 100 133 184 235 275 345 402
#     4  12  24  47  70  94 138 185 235 286 331 392
#     4  10  23  42  65 100 139 177 213 289 343 396
#
# _framework density 21.460528
#
# number of rings (size 3 to 8) (size 9 to 14) (size 15 to 20)
#    0.750    0.000    5.000    3.375    0.000    1.000 
#    0.000    0.000    0.000    3.000    0.000    0.000 
#    0.000    0.000    0.000    0.000    0.000    0.000 
#
# Total GULP energy -198338.383548 kJ/mol
# GULP energy per Si atom -12396.148972 kJ/mol
# Density = 2.141168 g / cm^3
# Si number density = 21.460528 Si / 1000 Ang^3
#
#
#
# Elastic Constant Matrix: (Units=GPa)
#
#
# Indices 1 2 3 4 5 6 
#
# 1 51.1726 34.2231 35.1838 -24.1228 -10.4654 5.2492
# 2 34.2231 127.5218 43.1486 -31.0955 6.4045 14.1669
# 3 35.1838 43.1486 95.4446 -27.0079 -7.1484 -0.6080
# 4 -24.1228 -31.0955 -27.0079 37.4694 -3.5088 -1.8580
# 5 -10.4654 6.4045 -7.1484 -3.5088 37.5007 -7.2977
# 6 5.2492 14.1669 -0.6080 -1.8580 -7.2977 33.6251
#
#
#
# Elastic Compliance Matrix: (Units=1/GPa)
#
#
# Indices 1 2 3 4 5 6 
#
# 1 0.036879 -0.004213 -0.006067 0.016896 0.011298 -0.000706
# 2 -0.004213 0.011790 -0.002911 0.004317 -0.004326 -0.005063
# 3 -0.006067 -0.002911 0.015849 0.005553 0.003010 0.003421
# 4 0.016896 0.004317 0.005553 0.046042 0.009388 0.000226
# 5 0.011298 -0.004326 0.003010 0.009388 0.033550 0.007913
# 6 -0.000706 -0.005063 0.003421 0.000226 0.007913 0.033775
#
#
# Mechanical properties :
#
#
# Convention : Reuss Voigt Hill
#
# Bulk Modulus (GPa) = 26.22372 55.47222 40.84797
# Shear Modulus (GPa) = 23.04373 32.49128 27.76750
#
# Velocity S-wave (km/s) = 3.28040 3.89524 3.60097
# Velocity P-wave (km/s) = 5.15695 6.79228 6.03031
#
# Compressibility (1/GPa) = 0.03813341
#
# Stress axis : x y z
#
# Youngs Moduli (GPa) = 27.11594 84.81731 63.09704
#
# Poissons Ratio (x) = 0.35736 0.38282
# Poissons Ratio (y) = 0.11425 0.18371
# Poissons Ratio (z) = 0.16452 0.24694
#
# Static dielectric constant tensor:
#      x y z
#    x 3.682420 0.227630 -0.103930 
#    y 0.227630 3.972320 -0.071260 
#    z -0.103930 -0.071260 4.050810 
# 
# 
# High freq. dielectric constant tensor:
#      x y z
#    x 1.828710 0.020990 -0.006830 
#    y 0.020990 1.843150 -0.011360 
#    z -0.006830 -0.011360 1.852010 
# 
# From -- ./inp_files/67290.got.cif
#   From: 2010.06.25/outbox.cif.g09.slc.cpg/sg2_34_cif.got.tgz:67290.got - 2010.06.27 13:26:56.
