data_PCOD8021370
_publ_section_title
;
Structure prediction by ZEFSAII (Michael W. Deem and Ramdas Pophale) SiO2 
 PCOD8021370
Probable space group: P -1
;
_chemical_formula_sum "Si O2"
_cell_formula_units_Z 14
_cell_length_a 10.962607
_cell_length_b 9.107920
_cell_length_c 11.809263
_cell_angle_alpha 49.298550
_cell_angle_beta 40.338596
_cell_angle_gamma 61.972189
_cell_volume 577.742092
_symmetry_space_group_name_H-M "P -1"
_symmetry_group_IT_number 2
_symmetry_cell_setting 'triclinic'
loop_
_space_group_symop_operation_xyz
x,y,z
-x,-y,-z
loop_
_atom_site_type_symbol
_atom_site_label
_atom_site_fract_x
_atom_site_fract_y
_atom_site_fract_z
Si Si1 0.556770 0.063205 0.772832
Si Si2 0.651738 0.034338 0.470689
Si Si3 0.271996 0.577038 0.872750
Si Si4 0.035078 0.577134 0.255609
Si Si5 0.217383 0.143050 0.114551
Si Si6 0.378937 0.511409 0.463213
Si Si7 0.033498 0.206479 0.587211
O O1 0.540804 0.059029 0.652483
O O2 0.661669 0.263681 0.642580
O O3 0.670127 0.884377 0.832526
O O4 0.342373 0.059152 0.968202
O O5 0.784494 0.232844 0.253278
O O6 0.500000 0.000000 0.500000
O O7 0.758952 0.836605 0.495642
O O8 0.496508 0.559742 0.696021
O O9 0.169639 0.368272 0.015228
O O10 0.209123 0.618225 0.025576
O O11 0.827563 0.603995 0.331048
O O12 0.038340 0.357442 0.406259
O O13 0.076308 0.718358 0.262734
O O14 0.031006 0.003467 0.313502
O O15 0.500000 0.500000 0.500000
#
# Coordination Sequence:
#
# PCOD8021370 Si02
#       7
#     2   2   2   2   2   2   2
#     4  10  22  43  71 101 141 182 238 295 350 428
#     4  12  27  46  68 107 145 189 230 302 369 428
#     4  11  26  44  74 105 137 191 237 288 367 424
#     4  11  26  48  72 105 144 190 241 296 354 431
#     4  10  23  44  73 106 132 189 243 293 351 423
#     4  11  22  43  72 104 141 183 235 299 349 425
#     4  11  26  47  69 103 148 186 238 302 353 422
#
# _framework density 24.232265999999999
#
# number of rings (size 3 to 8) (size 9 to 14) (size 15 to 20)
#    0.000    1.143    2.857    1.714    4.000    5.143 
#    0.000    2.857    0.000    0.000    0.000    0.000 
#    0.000    0.000    0.000    0.000    0.000    0.000 
#
# Total GULP energy -173460.958277 kJ/mol
# GULP energy per Si atom -12390.068448 kJ/mol
# Density = 2.417711 g / cm^3
# Si number density = 24.232266 Si / 1000 Ang^3
#
#
#
# Elastic Constant Matrix: (Units=GPa)
#
#
# Indices 1 2 3 4 5 6 
#
# 1 83.3672 21.5707 49.0334 1.3322 23.3770 -6.5732
# 2 21.5707 82.4005 28.2994 -0.7920 10.0782 -10.1268
# 3 49.0334 28.2994 111.4104 16.0229 30.9224 5.6052
# 4 1.3322 -0.7920 16.0229 52.0820 8.6894 2.1799
# 5 23.3770 10.0782 30.9224 8.6894 33.0489 2.2939
# 6 -6.5732 -10.1268 5.6052 2.1799 2.2939 25.0393
#
#
#
# Elastic Compliance Matrix: (Units=1/GPa)
#
#
# Indices 1 2 3 4 5 6 
#
# 1 0.018785 -0.000865 -0.006510 0.002581 -0.008066 0.006553
# 2 -0.000865 0.014510 -0.003425 0.001259 -0.001385 0.006425
# 3 -0.006510 -0.003425 0.015589 -0.003159 -0.007717 -0.005602
# 4 0.002581 0.001259 -0.003159 0.020902 -0.004784 0.000512
# 5 -0.008066 -0.001385 -0.007717 -0.004784 0.045189 -0.004674
# 6 0.006553 0.006425 -0.005602 0.000512 -0.004674 0.045893
#
#
# Mechanical properties :
#
#
# Convention : Reuss Voigt Hill
#
# Bulk Modulus (GPa) = 36.65084 52.77610 44.71347
# Shear Modulus (GPa) = 26.10109 33.91903 30.01006
#
# Velocity S-wave (km/s) = 3.28551 3.74538 3.52296
# Velocity P-wave (km/s) = 5.43603 6.36635 5.91949
#
# Compressibility (1/GPa) = 0.02728451
#
# Stress axis : x y z
#
# Youngs Moduli (GPa) = 53.23360 68.91986 64.14774
#
# Poissons Ratio (x) = 0.05962 0.41760
# Poissons Ratio (y) = 0.04605 0.21968
# Poissons Ratio (z) = 0.34655 0.23602
#
# Static dielectric constant tensor:
#      x y z
#    x 3.910830 -0.185470 0.215660 
#    y -0.185470 4.754510 -0.221560 
#    z 0.215660 -0.221560 4.515270 
# 
# 
# High freq. dielectric constant tensor:
#      x y z
#    x 1.938160 -0.007170 0.013270 
#    y -0.007170 1.977940 -0.000070 
#    z 0.013270 -0.000070 1.961890 
# 
# From -- ./inp_files/159781.got.cif
#   From: 2010.06.25/outbox.cif.g09.slc.cpg/sg2_80_cif.got.tgz:159781.got - 2010.06.27 13:26:56.
