data_PCOD8021132
_publ_section_title
;
Structure prediction by ZEFSAII (Michael W. Deem and Ramdas Pophale) SiO2 
 PCOD8021132
Probable space group: P -1
;
_chemical_formula_sum "Si O2"
_cell_formula_units_Z 14
_cell_length_a 12.558352
_cell_length_b 7.399807
_cell_length_c 8.836784
_cell_angle_alpha 82.991235
_cell_angle_beta 131.975036
_cell_angle_gamma 82.318227
_cell_volume 579.582955
_symmetry_space_group_name_H-M "P -1"
_symmetry_group_IT_number 2
_symmetry_cell_setting 'triclinic'
loop_
_space_group_symop_operation_xyz
x,y,z
-x,-y,-z
loop_
_atom_site_type_symbol
_atom_site_label
_atom_site_fract_x
_atom_site_fract_y
_atom_site_fract_z
Si Si1 0.694985 0.357910 0.446045
Si Si2 0.837369 0.023592 0.406890
Si Si3 0.358817 0.662868 0.289329
Si Si4 0.827164 0.577988 0.982808
Si Si5 0.559886 0.132497 0.918659
Si Si6 0.569627 0.731352 0.934485
Si Si7 0.842844 0.659923 0.650632
O O1 0.727022 0.243738 0.648689
O O2 0.519045 0.386337 0.234930
O O3 0.723669 0.563900 0.473574
O O4 0.798522 0.227105 0.433318
O O5 0.834280 0.853597 0.535986
O O6 0.000000 0.000000 0.500000
O O7 0.723158 0.042198 0.158106
O O8 0.500000 0.500000 0.500000
O O9 0.240438 0.597387 0.082560
O O10 0.420809 0.805677 0.238255
O O11 0.735164 0.698526 0.025370
O O12 0.811209 0.697410 0.797762
O O13 0.997616 0.498082 0.204140
O O14 0.484558 0.961140 0.834844
O O15 0.448073 0.305605 0.897241
#
# Coordination Sequence:
#
# PCOD8021132 Si02
#       7
#     2   2   2   2   2   2   2
#     4  10  24  44  71 102 131 180 237 272 344 397
#     4  11  25  48  68 101 140 183 224 284 339 412
#     4  11  22  43  68 101 133 177 226 287 335 408
#     4  10  22  43  68 104 134 178 231 278 342 400
#     4  10  25  43  63 103 139 171 237 278 339 407
#     4  10  22  44  66 100 138 181 218 289 339 396
#     4  10  24  45  70 101 139 180 231 280 334 413
#
# _framework density 24.155298999999999
#
# number of rings (size 3 to 8) (size 9 to 14) (size 15 to 20)
#    0.000    1.714    1.429    0.857    4.000    8.571 
#    7.714    2.857    0.000    0.000    0.000    0.000 
#    0.000    0.000    0.000    0.000    0.000    0.000 
#
# Total GULP energy -173456.008634 kJ/mol
# GULP energy per Si atom -12389.714902 kJ/mol
# Density = 2.410032 g / cm^3
# Si number density = 24.155299 Si / 1000 Ang^3
#
#
#
# Elastic Constant Matrix: (Units=GPa)
#
#
# Indices 1 2 3 4 5 6 
#
# 1 143.0489 6.7408 26.9338 -8.4299 1.8056 -5.5770
# 2 6.7408 30.3514 6.3280 11.5320 -4.4231 10.1152
# 3 26.9338 6.3280 91.2860 -5.1668 1.5022 7.3592
# 4 -8.4299 11.5320 -5.1668 33.4415 2.2329 0.0665
# 5 1.8056 -4.4231 1.5022 2.2329 35.9104 -5.7695
# 6 -5.5770 10.1152 7.3592 0.0665 -5.7695 46.4067
#
#
#
# Elastic Compliance Matrix: (Units=1/GPa)
#
#
# Indices 1 2 3 4 5 6 
#
# 1 0.007761 -0.003017 -0.002067 0.002710 -0.000547 0.001846
# 2 -0.003017 0.044247 -0.002492 -0.016741 0.005313 -0.008927
# 3 -0.002067 -0.002492 0.012026 0.002275 -0.001130 -0.001756
# 4 0.002710 -0.016741 0.002275 0.036979 -0.004103 0.003051
# 5 -0.000547 0.005313 -0.001130 -0.004103 0.029249 0.002598
# 6 0.001846 -0.008927 -0.001756 0.003051 0.002598 0.024313
#
#
# Mechanical properties :
#
#
# Convention : Reuss Voigt Hill
#
# Bulk Modulus (GPa) = 20.45798 38.29905 29.37852
# Shear Modulus (GPa) = 26.87863 38.13064 32.50464
#
# Velocity S-wave (km/s) = 3.33940 3.97742 3.67229
# Velocity P-wave (km/s) = 4.83286 6.08136 5.49270
#
# Compressibility (1/GPa) = 0.04888068
#
# Stress axis : x y z
#
# Youngs Moduli (GPa) = 128.85613 22.60029 83.15213
#
# Poissons Ratio (x) = 0.06819 0.17188
# Poissons Ratio (y) = 0.38881 0.20723
# Poissons Ratio (z) = 0.26635 0.05632
#
# Static dielectric constant tensor:
#      x y z
#    x 5.481920 -0.099770 -0.446650 
#    y -0.099770 4.058650 0.193530 
#    z -0.446650 0.193530 4.497060 
# 
# 
# High freq. dielectric constant tensor:
#      x y z
#    x 1.991530 0.003110 -0.008110 
#    y 0.003110 1.937020 0.010860 
#    z -0.008110 0.010860 1.958390 
# 
# From -- ./inp_files/244193.got.cif
#   From: 2010.06.25/outbox.cif.g09.slc.cpg/sg2_123_cif.got.tgz:244193.got - 2010.06.27 13:26:56.
