data_PCOD8021251
_publ_section_title
;
Structure prediction by ZEFSAII (Michael W. Deem and Ramdas Pophale) SiO2 
 PCOD8021251
Probable space group: P -1
;
_chemical_formula_sum "Si O2"
_cell_formula_units_Z 12
_cell_length_a 14.227977
_cell_length_b 6.455140
_cell_length_c 10.038898
_cell_angle_alpha 131.984581
_cell_angle_beta 54.083123
_cell_angle_gamma 103.374845
_cell_volume 534.805902
_symmetry_space_group_name_H-M "P -1"
_symmetry_group_IT_number 2
_symmetry_cell_setting 'triclinic'
loop_
_space_group_symop_operation_xyz
x,y,z
-x,-y,-z
loop_
_atom_site_type_symbol
_atom_site_label
_atom_site_fract_x
_atom_site_fract_y
_atom_site_fract_z
Si Si1 0.821389 0.203845 0.317236
Si Si2 0.269706 0.737476 0.002206
Si Si3 0.406541 0.827783 0.164885
Si Si4 0.949595 0.232271 0.955122
Si Si5 0.367828 0.095809 0.591990
Si Si6 0.646985 0.738224 0.819391
O O1 0.760118 0.475329 0.577406
O O2 0.732605 0.996568 0.274214
O O3 0.857613 0.302661 0.186387
O O4 0.941286 0.046569 0.230399
O O5 0.308986 0.698193 0.110143
O O6 0.125870 0.811925 0.132225
O O7 0.311522 0.010817 0.026134
O O8 0.332994 0.439407 0.745361
O O9 0.451780 0.371509 0.054358
O O10 0.362010 0.917218 0.386767
O O11 0.414523 0.125330 0.210458
O O12 0.000000 0.500000 0.000000
O O13 0.500000 0.000000 0.500000
#
# Coordination Sequence:
#
# PCOD8021251 Si02
#       6
#     2   2   2   2   2   2
#     4  11  25  43  70 103 136 176 240 281 330 417
#     4  10  22  43  69  94 136 187 221 283 342 390
#     4   9  22  43  64 101 145 173 227 274 345 411
#     4  11  24  47  71  97 137 184 236 283 335 400
#     4  12  25  39  70 104 142 181 218 287 349 407
#     4   9  21  42  66  98 137 177 227 282 332 411
#
# _framework density 22.438047000000001
#
# number of rings (size 3 to 8) (size 9 to 14) (size 15 to 20)
#    1.000    0.667    1.667    2.000    2.333    4.000 
#    0.000    3.333    0.000    0.000    0.000    0.000 
#    0.000    0.000    0.000    0.000    0.000    0.000 
#
# Total GULP energy -148723.215008 kJ/mol
# GULP energy per Si atom -12393.601251 kJ/mol
# Density = 2.238698 g / cm^3
# Si number density = 22.438047 Si / 1000 Ang^3
#
#
#
# Elastic Constant Matrix: (Units=GPa)
#
#
# Indices 1 2 3 4 5 6 
#
# 1 196.7871 42.7075 59.2850 -3.6470 -7.1918 12.8852
# 2 42.7075 96.1051 54.0907 -11.0437 1.7399 29.7807
# 3 59.2850 54.0907 150.1808 9.1059 -3.4620 7.7525
# 4 -3.6470 -11.0437 9.1059 36.5597 2.7338 1.2252
# 5 -7.1918 1.7399 -3.4620 2.7338 35.7231 0.4319
# 6 12.8852 29.7807 7.7525 1.2252 0.4319 36.3455
#
#
#
# Elastic Compliance Matrix: (Units=1/GPa)
#
#
# Indices 1 2 3 4 5 6 
#
# 1 0.006035 -0.001389 -0.001860 0.000587 0.001065 -0.000637
# 2 -0.001389 0.020399 -0.006581 0.008344 -0.002367 -0.015071
# 3 -0.001860 -0.006581 0.009875 -0.004862 0.001226 0.004095
# 4 0.000587 0.008344 -0.004862 0.031610 -0.003093 -0.007037
# 5 0.001065 -0.002367 0.001226 -0.003093 0.028665 0.001064
# 6 -0.000637 -0.015071 0.004095 -0.007037 0.001064 0.039440
#
#
# Mechanical properties :
#
#
# Convention : Reuss Voigt Hill
#
# Bulk Modulus (GPa) = 60.06946 83.91548 71.99247
# Shear Modulus (GPa) = 31.01088 40.85830 35.93459
#
# Velocity S-wave (km/s) = 3.72165 4.27187 4.00622
# Velocity P-wave (km/s) = 6.73030 7.86205 7.31809
#
# Compressibility (1/GPa) = 0.01664739
#
# Stress axis : x y z
#
# Youngs Moduli (GPa) = 165.69811 49.02302 101.26674
#
# Poissons Ratio (x) = 0.06811 0.18837
# Poissons Ratio (y) = 0.23022 0.66644
# Poissons Ratio (z) = 0.30822 0.32262
#
# Static dielectric constant tensor:
#      x y z
#    x 4.480390 -0.129500 -0.294720 
#    y -0.129500 4.159740 0.154710 
#    z -0.294720 0.154710 3.925090 
# 
# 
# High freq. dielectric constant tensor:
#      x y z
#    x 1.885170 0.002760 -0.016090 
#    y 0.002760 1.893210 0.019420 
#    z -0.016090 0.019420 1.878200 
# 
# From -- ./inp_files/288742.got.cif
#   From: 2010.06.25/outbox.cif.g09.slc.cpg/sg2_145_cif.got.tgz:288742.got - 2010.06.27 13:26:56.
