data_PCOD8021146
_publ_section_title
;
Structure prediction by ZEFSAII (Michael W. Deem and Ramdas Pophale) SiO2 
 PCOD8021146
Probable space group: P -1
;
_chemical_formula_sum "Si O2"
_cell_formula_units_Z 16
_cell_length_a 9.521871
_cell_length_b 11.365995
_cell_length_c 18.260117
_cell_angle_alpha 36.193450
_cell_angle_beta 52.460540
_cell_angle_gamma 78.070717
_cell_volume 734.151732
_symmetry_space_group_name_H-M "P -1"
_symmetry_group_IT_number 2
_symmetry_cell_setting 'triclinic'
loop_
_space_group_symop_operation_xyz
x,y,z
-x,-y,-z
loop_
_atom_site_type_symbol
_atom_site_label
_atom_site_fract_x
_atom_site_fract_y
_atom_site_fract_z
Si Si1 0.543006 0.470351 0.757116
Si Si2 0.498171 0.849592 0.663513
Si Si3 0.120340 0.675867 0.767943
Si Si4 0.351212 0.588485 0.987231
Si Si5 0.379169 0.834174 0.004338
Si Si6 0.231082 0.575735 0.417067
Si Si7 0.890678 0.743793 0.076253
Si Si8 0.082293 0.279229 0.759652
O O1 0.572163 0.706533 0.665330
O O2 0.571878 0.319465 0.883225
O O3 0.712729 0.561026 0.589826
O O4 0.300738 0.279144 0.896584
O O5 0.256508 0.772538 0.752907
O O6 0.486417 0.802806 0.776094
O O7 0.698025 0.143117 0.442481
O O8 0.025579 0.390197 0.927205
O O9 0.892353 0.650702 0.847793
O O10 0.500000 0.500000 0.000000
O O11 0.321038 0.709621 0.005487
O O12 0.169300 0.809283 0.114842
O O13 0.589928 0.124279 0.790539
O O14 0.220897 0.480332 0.550429
O O15 0.000000 0.500000 0.500000
O O16 0.807901 0.615732 0.247866
O O17 0.086652 0.041990 0.866948
#
# Coordination Sequence:
#
# PCOD8021146 Si02
#       8
#     2   2   2   2   2   2   2   2
#     4  11  22  45  65  95 136 170 221 270 324 392
#     4  10  24  46  68  96 132 179 225 269 327 394
#     4  10  23  46  68  95 134 176 222 277 323 392
#     4  12  25  43  69 100 132 178 219 273 337 390
#     4  12  24  44  67  98 137 170 219 273 325 394
#     4  12  25  40  70  97 130 180 216 266 334 394
#     4  10  22  43  68  92 137 169 210 285 323 382
#     4  11  23  44  65  98 131 173 215 271 338 381
#
# _framework density 21.793859000000001
#
# number of rings (size 3 to 8) (size 9 to 14) (size 15 to 20)
#    0.000    1.000    5.000    1.500    1.750    2.000 
#   11.250    0.000    0.000    0.000    0.000    0.000 
#    0.000    0.000    0.000    0.000    0.000    0.000 
#
# Total GULP energy -198334.044613 kJ/mol
# GULP energy per Si atom -12395.877788 kJ/mol
# Density = 2.174426 g / cm^3
# Si number density = 21.793859 Si / 1000 Ang^3
#
#
#
# Elastic Constant Matrix: (Units=GPa)
#
#
# Indices 1 2 3 4 5 6 
#
# 1 125.1009 20.1059 31.6444 0.9615 6.7560 -0.5056
# 2 20.1059 59.8314 30.3052 6.2834 -3.6149 -1.0285
# 3 31.6444 30.3052 66.2690 0.6752 5.3900 -4.6720
# 4 0.9615 6.2834 0.6752 27.7137 6.9416 5.3884
# 5 6.7560 -3.6149 5.3900 6.9416 43.8727 10.3397
# 6 -0.5056 -1.0285 -4.6720 5.3884 10.3397 28.2101
#
#
#
# Elastic Compliance Matrix: (Units=1/GPa)
#
#
# Indices 1 2 3 4 5 6 
#
# 1 0.009201 -0.001316 -0.003719 0.000376 -0.001087 -0.000172
# 2 -0.001316 0.023334 -0.010471 -0.005873 0.004696 -0.001506
# 3 -0.003719 -0.010471 0.022305 0.002204 -0.004427 0.004447
# 4 0.000376 -0.005873 0.002204 0.039849 -0.005868 -0.005303
# 5 -0.001087 0.004696 -0.004427 -0.005868 0.027027 -0.009367
# 6 -0.000172 -0.001506 0.004447 -0.005303 -0.009367 0.040573
#
#
# Mechanical properties :
#
#
# Convention : Reuss Voigt Hill
#
# Bulk Modulus (GPa) = 41.96674 46.14582 44.05628
# Shear Modulus (GPa) = 24.84539 31.23568 28.04053
#
# Velocity S-wave (km/s) = 3.38008 3.78991 3.59085
# Velocity P-wave (km/s) = 5.87633 6.35382 6.11973
#
# Compressibility (1/GPa) = 0.02382839
#
# Stress axis : x y z
#
# Youngs Moduli (GPa) = 108.68382 42.85600 44.83207
#
# Poissons Ratio (x) = 0.05641 0.16674
# Poissons Ratio (y) = 0.14305 0.46942
# Poissons Ratio (z) = 0.40422 0.44873
#
# Static dielectric constant tensor:
#      x y z
#    x 4.211730 0.095280 0.153440 
#    y 0.095280 3.909070 0.008160 
#    z 0.153440 0.008160 3.692880 
# 
# 
# High freq. dielectric constant tensor:
#      x y z
#    x 1.882560 0.002000 0.005110 
#    y 0.002000 1.855370 0.003310 
#    z 0.005110 0.003310 1.842690 
# 
# From -- ./inp_files/109883.got.cif
#   From: 2010.06.25/outbox.cif.g09.slc.cpg/sg2_55_cif.got.tgz:109883.got - 2010.06.27 13:26:56.
