data_PCOD8021396
_publ_section_title
;
Structure prediction by ZEFSAII (Michael W. Deem and Ramdas Pophale) SiO2 
 PCOD8021396
Probable space group: P -1
;
_chemical_formula_sum "Si O2"
_cell_formula_units_Z 16
_cell_length_a 11.675855
_cell_length_b 12.063421
_cell_length_c 8.331596
_cell_angle_alpha 124.472129
_cell_angle_beta 125.614780
_cell_angle_gamma 56.793010
_cell_volume 743.689797
_symmetry_space_group_name_H-M "P -1"
_symmetry_group_IT_number 2
_symmetry_cell_setting 'triclinic'
loop_
_space_group_symop_operation_xyz
x,y,z
-x,-y,-z
loop_
_atom_site_type_symbol
_atom_site_label
_atom_site_fract_x
_atom_site_fract_y
_atom_site_fract_z
Si Si1 0.503407 0.945119 0.203494
Si Si2 0.331643 0.204750 0.065784
Si Si3 0.220523 0.539883 0.704930
Si Si4 0.902084 0.698738 0.626013
Si Si5 0.254665 0.706340 0.171873
Si Si6 0.284903 0.981380 0.330745
Si Si7 0.983270 0.645766 0.016498
Si Si8 0.442200 0.419748 0.520366
O O1 0.633369 0.999382 0.423914
O O2 0.390556 0.060903 0.094933
O O3 0.409824 0.907158 0.238469
O O4 0.582624 0.807718 0.044449
O O5 0.346613 0.333386 0.288887
O O6 0.155614 0.235225 0.915024
O O7 0.209412 0.381442 0.598083
O O8 0.335986 0.532154 0.649463
O O9 0.057368 0.649866 0.613109
O O10 0.280090 0.592681 0.956548
O O11 0.826609 0.867880 0.696584
O O12 0.946738 0.641522 0.795200
O O13 0.414394 0.687135 0.363514
O O14 0.136067 0.684637 0.186610
O O15 0.195150 0.870379 0.195743
O O16 0.000000 0.500000 0.000000
O O17 0.500000 0.500000 0.500000
#
# Coordination Sequence:
#
# PCOD8021396 Si02
#       8
#     2   2   2   2   2   2   2   2
#     4  10  23  40  72  94 128 183 217 275 328 413
#     4  11  22  45  66  94 132 179 228 256 343 400
#     4  10  23  42  67  99 133 173 233 264 336 401
#     4  10  22  43  71  96 130 185 224 273 328 408
#     4  11  26  42  67 105 135 176 223 285 339 387
#     4  11  22  45  70 100 139 167 230 283 337 394
#     4  11  23  44  65  95 138 178 221 272 335 404
#     4  12  24  42  66  96 139 173 220 286 326 395
#
# _framework density 21.514346
#
# number of rings (size 3 to 8) (size 9 to 14) (size 15 to 20)
#    0.000    1.250    3.750    1.125    3.500    6.000 
#    0.000    0.625    0.000    0.000    0.000    0.000 
#    0.000    0.000    0.000    0.000    0.000    0.000 
#
# Total GULP energy -198381.067049 kJ/mol
# GULP energy per Si atom -12398.816691 kJ/mol
# Density = 2.146538 g / cm^3
# Si number density = 21.514346 Si / 1000 Ang^3
#
#
#
# Elastic Constant Matrix: (Units=GPa)
#
#
# Indices 1 2 3 4 5 6 
#
# 1 155.5008 64.3481 33.4965 5.2618 3.2751 -15.3905
# 2 64.3481 111.4203 32.8651 4.2295 -4.1830 -0.0077
# 3 33.4965 32.8651 64.9058 4.5480 -1.0955 -1.1822
# 4 5.2618 4.2295 4.5480 28.2161 0.4897 5.7660
# 5 3.2751 -4.1830 -1.0955 0.4897 29.9107 6.2426
# 6 -15.3905 -0.0077 -1.1822 5.7660 6.2426 37.1283
#
#
#
# Elastic Compliance Matrix: (Units=1/GPa)
#
#
# Indices 1 2 3 4 5 6 
#
# 1 0.009494 -0.004848 -0.002299 -0.001558 -0.002728 0.004562
# 2 -0.004848 0.013095 -0.004136 0.000095 0.002755 -0.002616
# 3 -0.002299 -0.004136 0.018831 -0.001969 0.000420 -0.000119
# 4 -0.001558 0.000095 -0.001969 0.037381 0.000891 -0.006664
# 5 -0.002728 0.002755 0.000420 0.000891 0.035630 -0.007246
# 6 0.004562 -0.002616 -0.000119 -0.006664 -0.007246 0.031074
#
#
# Mechanical properties :
#
#
# Convention : Reuss Voigt Hill
#
# Bulk Modulus (GPa) = 53.04120 65.91625 59.47873
# Shear Modulus (GPa) = 28.67740 32.45881 30.56811
#
# Velocity S-wave (km/s) = 3.65491 3.88842 3.77347
# Velocity P-wave (km/s) = 6.52063 7.13194 6.83312
#
# Compressibility (1/GPa) = 0.01885327
#
# Stress axis : x y z
#
# Youngs Moduli (GPa) = 105.33215 76.36778 53.10510
#
# Poissons Ratio (x) = 0.37022 0.12207
# Poissons Ratio (y) = 0.51064 0.21966
# Poissons Ratio (z) = 0.24212 0.31588
#
# Static dielectric constant tensor:
#      x y z
#    x 4.198730 -0.269550 -0.133490 
#    y -0.269550 3.792280 -0.121930 
#    z -0.133490 -0.121930 3.735100 
# 
# 
# High freq. dielectric constant tensor:
#      x y z
#    x 1.856940 -0.012430 -0.001840 
#    y -0.012430 1.838320 -0.004830 
#    z -0.001840 -0.004830 1.833420 
# 
# From -- ./inp_files/263631.got.cif
#   From: 2010.06.25/outbox.cif.g09.slc.cpg/sg2_132_cif.got.tgz:263631.got - 2010.06.27 13:26:56.
