data_PCOD8021104
_publ_section_title
;
Structure prediction by ZEFSAII (Michael W. Deem and Ramdas Pophale) SiO2 
 PCOD8021104
Probable space group: P -1
;
_chemical_formula_sum "Si O2"
_cell_formula_units_Z 16
_cell_length_a 14.528669
_cell_length_b 9.066543
_cell_length_c 8.219078
_cell_angle_alpha 47.063873
_cell_angle_beta 84.481857
_cell_angle_gamma 107.061185
_cell_volume 686.636104
_symmetry_space_group_name_H-M "P -1"
_symmetry_group_IT_number 2
_symmetry_cell_setting 'triclinic'
loop_
_space_group_symop_operation_xyz
x,y,z
-x,-y,-z
loop_
_atom_site_type_symbol
_atom_site_label
_atom_site_fract_x
_atom_site_fract_y
_atom_site_fract_z
Si Si1 0.761064 0.091633 0.554972
Si Si2 0.222851 0.055299 0.977104
Si Si3 0.030840 0.638548 0.154412
Si Si4 0.441208 0.158277 0.721540
Si Si5 0.367738 0.654565 0.209055
Si Si6 0.417429 0.326290 0.270405
Si Si7 0.976926 0.202115 0.307082
Si Si8 0.184743 0.473386 0.618428
O O1 0.851635 0.111616 0.404102
O O2 0.763829 0.337547 0.386808
O O3 0.650176 0.911534 0.633713
O O4 0.777129 0.012921 0.787414
O O5 0.340370 0.174899 0.792146
O O6 0.181636 0.238200 0.842434
O O7 0.144013 0.829980 0.056675
O O8 0.038887 0.413855 0.265153
O O9 0.936626 0.574700 0.352543
O O10 0.990541 0.723813 0.940437
O O11 0.543539 0.312008 0.698584
O O12 0.472199 0.268766 0.454193
O O13 0.411543 0.890458 0.922279
O O14 0.347958 0.442341 0.255704
O O15 0.255161 0.590643 0.357377
O O16 0.500000 0.500000 0.000000
O O17 0.000000 0.000000 0.500000
#
# Coordination Sequence:
#
# PCOD8021104 Si02
#       8
#     2   2   2   2   2   2   2   2
#     4  11  26  44  65 105 139 179 234 281 349 408
#     4  12  23  43  73 100 137 181 237 287 336 414
#     4  10  24  42  68 106 138 180 235 283 340 411
#     4  11  25  46  72 103 134 181 233 289 343 420
#     4  11  25  47  74  99 138 180 236 286 348 415
#     4  12  27  45  70 103 139 179 228 288 354 413
#     4  10  22  43  67  98 145 184 221 285 347 410
#     4  11  24  43  72 100 137 182 229 288 338 411
#
# _framework density 23.302005999999999
#
# number of rings (size 3 to 8) (size 9 to 14) (size 15 to 20)
#    0.000    1.000    2.500    3.000    3.500    5.500 
#    0.000    0.000    0.000    0.000    0.000    0.000 
#    0.000    0.000    0.000    0.000    0.000    0.000 
#
# Total GULP energy -198450.072775 kJ/mol
# GULP energy per Si atom -12403.129548 kJ/mol
# Density = 2.324897 g / cm^3
# Si number density = 23.302006 Si / 1000 Ang^3
#
#
#
# Elastic Constant Matrix: (Units=GPa)
#
#
# Indices 1 2 3 4 5 6 
#
# 1 78.6067 34.7099 33.6736 -3.9358 -3.8443 -15.0348
# 2 34.7099 101.0805 43.4468 -17.5806 6.2664 -5.5465
# 3 33.6736 43.4468 121.0249 -1.3534 -4.6016 0.1444
# 4 -3.9358 -17.5806 -1.3534 41.2924 -8.3276 -0.6821
# 5 -3.8443 6.2664 -4.6016 -8.3276 45.2769 -4.3658
# 6 -15.0348 -5.5465 0.1444 -0.6821 -4.3658 29.0873
#
#
#
# Elastic Compliance Matrix: (Units=1/GPa)
#
#
# Indices 1 2 3 4 5 6 
#
# 1 0.017909 -0.004320 -0.003334 0.000453 0.002718 0.008869
# 2 -0.004320 0.014042 -0.003848 0.005097 -0.001733 0.000323
# 3 -0.003334 -0.003848 0.010590 -0.001484 0.000819 -0.002422
# 4 0.000453 0.005097 -0.001484 0.027321 0.004451 0.002522
# 5 0.002718 -0.001733 0.000819 0.004451 0.023918 0.004765
# 6 0.008869 0.000323 -0.002422 0.002522 0.004765 0.039811
#
#
# Mechanical properties :
#
#
# Convention : Reuss Voigt Hill
#
# Bulk Modulus (GPa) = 51.18775 58.26364 54.72569
# Shear Modulus (GPa) = 30.65443 35.72345 33.18894
#
# Velocity S-wave (km/s) = 3.63095 3.91968 3.77808
# Velocity P-wave (km/s) = 6.29232 6.74857 6.52443
#
# Compressibility (1/GPa) = 0.01953593
#
# Stress axis : x y z
#
# Youngs Moduli (GPa) = 55.83707 71.21416 94.43301
#
# Poissons Ratio (x) = 0.30762 0.31488
# Poissons Ratio (y) = 0.24120 0.36342
# Poissons Ratio (z) = 0.18619 0.27406
#
# Static dielectric constant tensor:
#      x y z
#    x 4.187090 -0.277180 -0.095150 
#    y -0.277180 4.425150 -0.105420 
#    z -0.095150 -0.105420 4.534410 
# 
# 
# High freq. dielectric constant tensor:
#      x y z
#    x 1.911150 -0.014590 -0.002080 
#    y -0.014590 1.923900 -0.012170 
#    z -0.002080 -0.012170 1.945250 
# 
# From -- ./inp_files/297452.got.cif
#   From: 2010.06.25/outbox.cif.g09.slc.cpg/sg2_149_cif.got.tgz:297452.got - 2010.06.27 13:26:56.
