data_PCOD8021524
_publ_section_title
;
Structure prediction by ZEFSAII (Michael W. Deem and Ramdas Pophale) SiO2 
 PCOD8021524
Probable space group: P -1
;
_chemical_formula_sum "Si O2"
_cell_formula_units_Z 16
_cell_length_a 11.544541
_cell_length_b 9.049486
_cell_length_c 9.523831
_cell_angle_alpha 58.555617
_cell_angle_beta 102.748239
_cell_angle_gamma 119.823505
_cell_volume 735.427068
_symmetry_space_group_name_H-M "P -1"
_symmetry_group_IT_number 2
_symmetry_cell_setting 'triclinic'
loop_
_space_group_symop_operation_xyz
x,y,z
-x,-y,-z
loop_
_atom_site_type_symbol
_atom_site_label
_atom_site_fract_x
_atom_site_fract_y
_atom_site_fract_z
Si Si1 0.595953 0.436192 0.970472
Si Si2 0.033557 0.898513 0.431802
Si Si3 0.542466 0.650442 0.311227
Si Si4 0.049076 0.533426 0.652550
Si Si5 0.085175 0.691763 0.016653
Si Si6 0.135132 0.193197 0.091390
Si Si7 0.187570 0.295945 0.759275
Si Si8 0.609391 0.071533 0.113680
O O1 0.582100 0.225463 0.125218
O O2 0.500000 0.500000 0.000000
O O3 0.571342 0.414925 0.806131
O O4 0.748207 0.593158 0.951064
O O5 0.089351 0.758658 0.587351
O O6 0.898901 0.779713 0.366117
O O7 0.145864 0.042523 0.280373
O O8 0.000000 0.000000 0.500000
O O9 0.500000 0.500000 0.500000
O O10 0.661176 0.636970 0.267868
O O11 0.586819 0.867636 0.280849
O O12 0.173013 0.482660 0.725840
O O13 0.000000 0.500000 0.500000
O O14 0.926349 0.382462 0.789349
O O15 0.239301 0.815854 0.958106
O O16 0.000000 0.500000 0.000000
O O17 0.011658 0.825986 0.908999
O O18 0.145162 0.140888 0.955681
O O19 0.500000 0.000000 0.000000
#
# Coordination Sequence:
#
# PCOD8021524 Si02
#       8
#     2   2   2   2   2   2   2   2
#     4  11  23  46  66  93 130 176 224 269 328 407
#     4  11  23  37  62 101 129 163 213 278 334 382
#     4  11  25  44  67  95 131 172 221 281 333 394
#     4   9  22  39  60  93 132 165 207 272 334 384
#     4  11  20  39  69  96 127 170 225 270 317 394
#     4  11  22  40  68  93 131 173 220 272 325 396
#     4  10  22  44  62  87 132 174 216 266 332 401
#     4  10  24  43  69  97 131 179 222 265 337 400
#
# _framework density 21.756065
#
# number of rings (size 3 to 8) (size 9 to 14) (size 15 to 20)
#    0.000    1.500    2.500    1.875    1.750    5.000 
#    2.250    0.625    0.000    0.000    0.000    0.000 
#    0.000    0.000    0.000    0.000    0.000    0.000 
#
# Total GULP energy -198223.899800 kJ/mol
# GULP energy per Si atom -12388.993738 kJ/mol
# Density = 2.170655 g / cm^3
# Si number density = 21.756065 Si / 1000 Ang^3
#
#
#
# Elastic Constant Matrix: (Units=GPa)
#
#
# Indices 1 2 3 4 5 6 
#
# 1 124.0510 51.4387 34.7329 -16.7844 -5.7338 -8.8081
# 2 51.4387 108.8257 34.1809 -16.5066 8.1299 -11.9766
# 3 34.7329 34.1809 125.7950 -22.8027 -3.5593 -17.3053
# 4 -16.7844 -16.5066 -22.8027 44.8916 -4.6090 9.0394
# 5 -5.7338 8.1299 -3.5593 -4.6090 21.7101 1.7751
# 6 -8.8081 -11.9766 -17.3053 9.0394 1.7751 44.2053
#
#
#
# Elastic Compliance Matrix: (Units=1/GPa)
#
#
# Indices 1 2 3 4 5 6 
#
# 1 0.010923 -0.004852 -0.001181 0.002268 0.005011 -0.000265
# 2 -0.004852 0.012908 -0.001927 0.000927 -0.006385 0.001843
# 3 -0.001181 -0.001927 0.009847 0.003669 0.002620 0.002242
# 4 0.002268 0.000927 0.003669 0.026755 0.006828 -0.003606
# 5 0.005011 -0.006385 0.002620 0.006828 0.051916 -0.003187
# 6 -0.000265 0.001843 0.002242 -0.003606 -0.003187 0.024811
#
#
# Mechanical properties :
#
#
# Convention : Reuss Voigt Hill
#
# Bulk Modulus (GPa) = 56.31160 66.59738 61.45449
# Shear Modulus (GPa) = 31.44665 38.04937 34.74801
#
# Velocity S-wave (km/s) = 3.80599 4.18653 4.00079
# Velocity P-wave (km/s) = 6.72707 7.35165 7.04629
#
# Compressibility (1/GPa) = 0.01775833
#
# Stress axis : x y z
#
# Youngs Moduli (GPa) = 91.54651 77.47225 101.55605
#
# Poissons Ratio (x) = 0.37587 0.11997
# Poissons Ratio (y) = 0.44416 0.19568
# Poissons Ratio (z) = 0.10815 0.14928
#
# Static dielectric constant tensor:
#      x y z
#    x 4.048440 -0.531870 0.715610 
#    y -0.531870 4.138290 -0.086360 
#    z 0.715610 -0.086360 3.695760 
# 
# 
# High freq. dielectric constant tensor:
#      x y z
#    x 1.849030 -0.013960 0.013390 
#    y -0.013960 1.866780 -0.003120 
#    z 0.013390 -0.003120 1.853530 
# 
# From -- ./inp_files/190347.got.cif
#   From: 2010.06.25/outbox.cif.g09.slc.cpg/sg2_96_cif.got.tgz:190347.got - 2010.06.27 13:26:56.
