data_PCOD8021041
_publ_section_title
;
Structure prediction by ZEFSAII (Michael W. Deem and Ramdas Pophale) SiO2 
 PCOD8021041
Probable space group: P -1
;
_chemical_formula_sum "Si O2"
_cell_formula_units_Z 16
_cell_length_a 24.107876
_cell_length_b 13.862667
_cell_length_c 5.037061
_cell_angle_alpha 87.485848
_cell_angle_beta 89.826382
_cell_angle_gamma 22.245348
_cell_volume 633.521502
_symmetry_space_group_name_H-M "P -1"
_symmetry_group_IT_number 2
_symmetry_cell_setting 'triclinic'
loop_
_space_group_symop_operation_xyz
x,y,z
-x,-y,-z
loop_
_atom_site_type_symbol
_atom_site_label
_atom_site_fract_x
_atom_site_fract_y
_atom_site_fract_z
Si Si1 0.524619 0.733398 0.266744
Si Si2 0.834775 0.204157 0.353965
Si Si3 0.334960 0.781289 0.860648
Si Si4 0.350223 0.286825 0.876367
Si Si5 0.860473 0.515754 0.418799
Si Si6 0.343877 0.984585 0.734107
Si Si7 0.132318 0.682256 0.258343
Si Si8 0.176261 0.965435 0.340938
O O1 0.673267 0.436075 0.212673
O O2 0.585177 0.743156 0.343819
O O3 0.460913 0.783551 0.519423
O O4 0.414334 0.920676 0.999294
O O5 0.838941 0.306372 0.465651
O O6 0.866747 0.077131 0.609063
O O7 0.961705 0.985126 0.152390
O O8 0.291615 0.964118 0.831918
O O9 0.305670 0.788909 0.564377
O O10 0.500000 0.500000 0.000000
O O11 0.225308 0.904254 0.047448
O O12 0.241347 0.377294 0.796845
O O13 0.256239 0.507691 0.058039
O O14 0.500000 0.000000 0.000000
O O15 0.857913 0.450653 0.686664
O O16 0.787191 0.739578 0.424462
O O17 0.026052 0.268498 0.349206
#
# Coordination Sequence:
#
# PCOD8021041 Si02
#       8
#     2   2   2   2   2   2   2   2
#     4  12  24  42  69 106 140 191 235 294 356 424
#     4  10  22  43  67 103 141 193 233 292 364 427
#     4  12  26  51  77 105 137 185 247 306 364 426
#     4  12  24  41  69 102 153 195 239 290 351 440
#     4  11  26  44  67 110 147 190 238 290 362 435
#     4  12  27  45  74 103 143 189 246 301 359 425
#     4  10  23  43  64 102 149 189 237 289 351 440
#     4  11  27  46  75 105 144 186 238 306 362 423
#
# _framework density 25.255655999999998
#
# number of rings (size 3 to 8) (size 9 to 14) (size 15 to 20)
#    0.000    0.750    2.500    4.125    3.500    3.500 
#    2.250    0.000    0.000    0.000    0.000    0.000 
#    0.000    0.000    0.000    0.000    0.000    0.000 
#
# Total GULP energy -198208.966329 kJ/mol
# GULP energy per Si atom -12388.060396 kJ/mol
# Density = 2.519817 g / cm^3
# Si number density = 25.255656 Si / 1000 Ang^3
#
#
#
# Elastic Constant Matrix: (Units=GPa)
#
#
# Indices 1 2 3 4 5 6 
#
# 1 84.3129 7.9026 -3.9117 0.8378 -22.0354 8.8205
# 2 7.9026 100.5338 -12.8769 5.4468 1.5410 -11.2864
# 3 -3.9117 -12.8769 63.8184 16.8052 -5.7357 -16.6638
# 4 0.8378 5.4468 16.8052 35.3516 -11.6751 -1.0762
# 5 -22.0354 1.5410 -5.7357 -11.6751 38.1440 -1.3724
# 6 8.8205 -11.2864 -16.6638 -1.0762 -1.3724 35.8569
#
#
#
# Elastic Compliance Matrix: (Units=1/GPa)
#
#
# Indices 1 2 3 4 5 6 
#
# 1 0.014887 -0.002023 -0.000567 0.003219 0.009434 -0.004105
# 2 -0.002023 0.011712 0.004886 -0.004577 -0.002084 0.006238
# 3 -0.000567 0.004886 0.022654 -0.011185 -0.000115 0.011865
# 4 0.003219 -0.004577 -0.011185 0.037941 0.011766 -0.005842
# 5 0.009434 -0.002084 -0.000115 0.011766 0.035287 -0.001326
# 6 -0.004105 0.006238 0.011865 -0.005842 -0.001326 0.036150
#
#
# Mechanical properties :
#
#
# Convention : Reuss Voigt Hill
#
# Bulk Modulus (GPa) = 18.57192 25.65481 22.11336
# Shear Modulus (GPa) = 29.07212 39.04058 34.05635
#
# Velocity S-wave (km/s) = 3.39649 3.93595 3.67613
# Velocity P-wave (km/s) = 4.76980 5.55299 5.17623
#
# Compressibility (1/GPa) = 0.05384472
#
# Stress axis : x y z
#
# Youngs Moduli (GPa) = 67.17324 85.38307 44.14290
#
# Poissons Ratio (x) = 0.17270 0.02504
# Poissons Ratio (y) = 0.13587 -0.21568
# Poissons Ratio (z) = 0.03810 -0.41718
#
# Static dielectric constant tensor:
#      x y z
#    x 4.479830 0.378200 -0.382660 
#    y 0.378200 4.320150 -0.095350 
#    z -0.382660 -0.095350 4.243790 
# 
# 
# High freq. dielectric constant tensor:
#      x y z
#    x 2.000160 0.001170 -0.027010 
#    y 0.001170 2.030730 -0.015820 
#    z -0.027010 -0.015820 1.991520 
# 
# From -- ./inp_files/124181.got.cif
#   From: 2010.06.25/outbox.cif.g09.slc.cpg/sg2_63_cif.got.tgz:124181.got - 2010.06.27 13:26:56.
