data_PCOD8021101
_publ_section_title
;
Structure prediction by ZEFSAII (Michael W. Deem and Ramdas Pophale) SiO2 
 PCOD8021101
Probable space group: P -1
;
_chemical_formula_sum "Si O2"
_cell_formula_units_Z 16
_cell_length_a 8.731746
_cell_length_b 17.711452
_cell_length_c 5.075950
_cell_angle_alpha 79.257495
_cell_angle_beta 105.427879
_cell_angle_gamma 132.740742
_cell_volume 555.739445
_symmetry_space_group_name_H-M "P -1"
_symmetry_group_IT_number 2
_symmetry_cell_setting 'triclinic'
loop_
_space_group_symop_operation_xyz
x,y,z
-x,-y,-z
loop_
_atom_site_type_symbol
_atom_site_label
_atom_site_fract_x
_atom_site_fract_y
_atom_site_fract_z
Si Si1 0.295975 0.220295 0.368242
Si Si2 0.183790 0.106234 0.888574
Si Si3 0.706691 0.275082 0.718512
Si Si4 0.276763 0.337082 0.669874
Si Si5 0.714702 0.414403 0.987188
Si Si6 0.866704 0.545686 0.469974
Si Si7 0.794097 0.147939 0.661151
Si Si8 0.522985 0.935095 0.867080
O O1 0.220979 0.188537 0.055688
O O2 0.520214 0.250061 0.472517
O O3 0.309347 0.314278 0.400156
O O4 0.135685 0.126933 0.566586
O O5 0.394773 0.120454 0.942874
O O6 0.000000 0.000000 0.000000
O O7 0.724137 0.327442 0.967337
O O8 0.697682 0.177823 0.825550
O O9 0.908685 0.347367 0.572396
O O10 0.470008 0.363893 0.912684
O O11 0.298750 0.436240 0.617535
O O12 0.047571 0.234342 0.732986
O O13 0.862476 0.508418 0.785493
O O14 0.802864 0.457054 0.294517
O O15 0.689687 0.147671 0.346031
O O16 0.722799 0.035481 0.721527
O O17 0.500000 0.000000 0.000000
#
# Coordination Sequence:
#
# PCOD8021101 Si02
#       8
#     2   2   2   2   2   2   2   2
#     4  11  25  44  65  99 133 175 226 272 333 389
#     4  12  26  43  69  95 136 178 226 276 330 390
#     4  10  22  43  67  98 134 175 221 275 329 397
#     4  10  24  43  69  96 137 175 222 273 334 397
#     4  11  24  44  68  98 136 172 219 274 331 403
#     4  11  24  44  69 100 133 175 219 271 339 394
#     4  10  22  46  62  98 133 177 224 274 333 389
#     4  11  24  41  69  94 137 175 229 274 330 394
#
# _framework density 28.790469000000002
#
# number of rings (size 3 to 8) (size 9 to 14) (size 15 to 20)
#    0.000    1.250    1.250    3.375    3.500    6.000 
#   13.500    0.000    0.000    0.000    0.000    0.000 
#    0.000    0.000    0.000    0.000    0.000    0.000 
#
# Total GULP energy -198323.576386 kJ/mol
# GULP energy per Si atom -12395.223524 kJ/mol
# Density = 2.872494 g / cm^3
# Si number density = 28.790469 Si / 1000 Ang^3
#
#
#
# Elastic Constant Matrix: (Units=GPa)
#
#
# Indices 1 2 3 4 5 6 
#
# 1 119.4764 19.3614 11.0707 0.2621 -19.3383 -25.0447
# 2 19.3614 107.5976 10.0232 1.4769 -7.3766 -20.5315
# 3 11.0707 10.0232 88.2075 2.6039 -15.7161 -10.0267
# 4 0.2621 1.4769 2.6039 38.8042 -2.7690 -2.5511
# 5 -19.3383 -7.3766 -15.7161 -2.7690 37.3575 -6.2458
# 6 -25.0447 -20.5315 -10.0267 -2.5511 -6.2458 59.8545
#
#
#
# Elastic Compliance Matrix: (Units=1/GPa)
#
#
# Indices 1 2 3 4 5 6 
#
# 1 0.010493 -0.000552 0.000428 0.000704 0.006386 0.004969
# 2 -0.000552 0.010231 -0.000312 0.000018 0.002182 0.003455
# 3 0.000428 -0.000312 0.012707 -0.000234 0.005958 0.002812
# 4 0.000704 0.000018 -0.000234 0.026064 0.002474 0.001631
# 5 0.006386 0.002182 0.005958 0.002474 0.034554 0.008130
# 6 0.004969 0.003455 0.002812 0.001631 0.008130 0.021361
#
#
# Mechanical properties :
#
#
# Convention : Reuss Voigt Hill
#
# Bulk Modulus (GPa) = 30.71408 44.02137 37.36772
# Shear Modulus (GPa) = 39.32800 45.52500 42.42650
#
# Velocity S-wave (km/s) = 3.69996 3.98081 3.84295
# Velocity P-wave (km/s) = 5.37999 6.03760 5.71825
#
# Compressibility (1/GPa) = 0.03255836
#
# Stress axis : x y z
#
# Youngs Moduli (GPa) = 95.29787 97.74381 78.69748
#
# Poissons Ratio (x) = 0.05392 -0.03365
# Poissons Ratio (y) = 0.05257 0.02458
# Poissons Ratio (z) = -0.04075 0.03053
#
# Static dielectric constant tensor:
#      x y z
#    x 6.368980 -0.810050 -0.418170 
#    y -0.810050 8.882090 0.019810 
#    z -0.418170 0.019810 5.154550 
# 
# 
# High freq. dielectric constant tensor:
#      x y z
#    x 2.205180 0.003990 -0.015890 
#    y 0.003990 2.198250 -0.013540 
#    z -0.015890 -0.013540 2.145590 
# 
# From -- ./inp_files/47974.got.cif
#   From: 2010.06.25/outbox.cif.g09.slc.cpg/sg2_24_cif.got.tgz:47974.got - 2010.06.27 13:26:56.
