data_PCOD8021302
_publ_section_title
;
Structure prediction by ZEFSAII (Michael W. Deem and Ramdas Pophale) SiO2 
 PCOD8021302
Probable space group: P -1
;
_chemical_formula_sum "Si O2"
_cell_formula_units_Z 16
_cell_length_a 9.275882
_cell_length_b 14.290018
_cell_length_c 8.201287
_cell_angle_alpha 41.995733
_cell_angle_beta 98.652204
_cell_angle_gamma 96.221283
_cell_volume 719.065395
_symmetry_space_group_name_H-M "P -1"
_symmetry_group_IT_number 2
_symmetry_cell_setting 'triclinic'
loop_
_space_group_symop_operation_xyz
x,y,z
-x,-y,-z
loop_
_atom_site_type_symbol
_atom_site_label
_atom_site_fract_x
_atom_site_fract_y
_atom_site_fract_z
Si Si1 0.903813 0.397448 0.226236
Si Si2 0.394836 0.587359 0.989260
Si Si3 0.377181 0.406725 0.524045
Si Si4 0.605877 0.882484 0.249873
Si Si5 0.120755 0.419238 0.716168
Si Si6 0.934867 0.885992 0.392704
Si Si7 0.889169 0.869389 0.789429
Si Si8 0.568229 0.853999 0.661581
O O1 0.834574 0.485252 0.248638
O O2 0.000790 0.261873 0.470075
O O3 0.754137 0.344134 0.191755
O O4 0.000000 0.500000 0.000000
O O5 0.331951 0.484841 0.249505
O O6 0.500000 0.500000 0.000000
O O7 0.483151 0.721905 0.894177
O O8 0.500000 0.500000 0.500000
O O9 0.430288 0.251069 0.692935
O O10 0.250923 0.392660 0.650343
O O11 0.780547 0.918947 0.232788
O O12 0.571990 0.841456 0.483238
O O13 0.500000 0.000000 0.000000
O O14 0.000000 0.500000 0.500000
O O15 0.046028 0.276605 0.948165
O O16 0.925969 0.885921 0.585722
O O17 0.049024 0.013651 0.224946
O O18 0.716149 0.855895 0.786338
O O19 0.500000 0.000000 0.500000
#
# Coordination Sequence:
#
# PCOD8021302 Si02
#       8
#     2   2   2   2   2   2   2   2
#     4  12  23  44  73 103 139 190 244 297 350 432
#     4  12  24  45  75 102 136 190 248 295 352 429
#     4  12  27  46  68 103 144 186 234 298 362 419
#     4  11  26  46  69 103 147 184 234 300 362 426
#     4  12  26  43  67 104 142 183 232 296 359 414
#     4  10  22  45  72 102 137 189 239 288 354 426
#     4  10  22  43  70 100 140 183 237 291 346 433
#     4  11  24  44  72 103 134 184 241 292 351 428
#
# _framework density 22.251106
#
# number of rings (size 3 to 8) (size 9 to 14) (size 15 to 20)
#    0.000    0.750    2.500    5.250    3.500    1.000 
#    0.000    1.250    0.000    0.000    0.000    0.000 
#    0.000    0.000    0.000    0.000    0.000    0.000 
#
# Total GULP energy -198275.116536 kJ/mol
# GULP energy per Si atom -12392.194784 kJ/mol
# Density = 2.220046 g / cm^3
# Si number density = 22.251106 Si / 1000 Ang^3
#
#
#
# Elastic Constant Matrix: (Units=GPa)
#
#
# Indices 1 2 3 4 5 6 
#
# 1 115.9071 49.3838 42.6890 -14.7020 17.3167 23.2745
# 2 49.3838 138.4852 46.4052 -32.6728 -2.2592 7.0281
# 3 42.6890 46.4052 118.7167 -25.9727 25.7137 19.0782
# 4 -14.7020 -32.6728 -25.9727 45.9343 0.1534 -4.9757
# 5 17.3167 -2.2592 25.7137 0.1534 31.8831 -5.9339
# 6 23.2745 7.0281 19.0782 -4.9757 -5.9339 41.1069
#
#
#
# Elastic Compliance Matrix: (Units=1/GPa)
#
#
# Indices 1 2 3 4 5 6 
#
# 1 0.013647 -0.004648 0.000476 0.000442 -0.009709 -0.008501
# 2 -0.004648 0.011204 -0.003911 0.004695 0.007221 0.004142
# 3 0.000476 -0.003911 0.015381 0.005228 -0.014491 -0.008198
# 4 0.000442 0.004695 0.005228 0.028145 -0.004390 -0.000706
# 5 -0.009709 0.007221 -0.014491 -0.004390 0.052206 0.017993
# 6 -0.008501 0.004142 -0.008198 -0.000706 0.017993 0.034748
#
#
# Mechanical properties :
#
#
# Convention : Reuss Voigt Hill
#
# Bulk Modulus (GPa) = 41.55405 72.22943 56.89174
# Shear Modulus (GPa) = 27.85199 39.42693 33.63946
#
# Velocity S-wave (km/s) = 3.54179 4.21397 3.89242
# Velocity P-wave (km/s) = 5.95326 7.49722 6.76940
#
# Compressibility (1/GPa) = 0.02406504
#
# Stress axis : x y z
#
# Youngs Moduli (GPa) = 73.27878 89.25116 65.01557
#
# Poissons Ratio (x) = 0.41488 -0.03092
# Poissons Ratio (y) = 0.34063 0.25425
# Poissons Ratio (z) = -0.03485 0.34902
#
# Static dielectric constant tensor:
#      x y z
#    x 4.075600 0.093360 -0.038250 
#    y 0.093360 4.186470 0.085170 
#    z -0.038250 0.085170 4.404230 
# 
# 
# High freq. dielectric constant tensor:
#      x y z
#    x 1.880840 0.006930 0.002500 
#    y 0.006930 1.886810 -0.007710 
#    z 0.002500 -0.007710 1.883010 
# 
# From -- ./inp_files/205293.got.cif
#   From: 2010.06.25/outbox.cif.g09.slc.cpg/sg2_103_cif.got.tgz:205293.got - 2010.06.27 13:26:56.
