data_PCOD8021517
_publ_section_title
;
Structure prediction by ZEFSAII (Michael W. Deem and Ramdas Pophale) SiO2 
 PCOD8021517
Probable space group: P -1
;
_chemical_formula_sum "Si O2"
_cell_formula_units_Z 14
_cell_length_a 6.871253
_cell_length_b 24.196632
_cell_length_c 4.866690
_cell_angle_alpha 98.044904
_cell_angle_beta 99.026742
_cell_angle_gamma 55.100149
_cell_volume 654.142415
_symmetry_space_group_name_H-M "P -1"
_symmetry_group_IT_number 2
_symmetry_cell_setting 'triclinic'
loop_
_space_group_symop_operation_xyz
x,y,z
-x,-y,-z
loop_
_atom_site_type_symbol
_atom_site_label
_atom_site_fract_x
_atom_site_fract_y
_atom_site_fract_z
Si Si1 0.096667 0.073122 0.028624
Si Si2 0.536092 0.045701 0.329608
Si Si3 0.983283 0.375814 0.625970
Si Si4 0.226627 0.880564 0.505737
Si Si5 0.664091 0.423928 0.081462
Si Si6 0.550844 0.726344 0.570864
Si Si7 0.586888 0.647786 0.056540
O O1 0.901069 0.122951 0.796996
O O2 0.263393 0.998030 0.887248
O O3 0.277341 0.095357 0.160085
O O4 0.970447 0.071145 0.276888
O O5 0.615269 0.090635 0.523023
O O6 0.500000 0.000000 0.500000
O O7 0.810677 0.422838 0.374799
O O8 0.181080 0.300412 0.499971
O O9 0.137663 0.403064 0.808316
O O10 0.829267 0.375015 0.838085
O O11 0.393148 0.806424 0.616576
O O12 0.500000 0.500000 0.000000
O O13 0.504603 0.396275 0.109310
O O14 0.437567 0.698509 0.314592
O O15 0.574968 0.695715 0.851373
#
# Coordination Sequence:
#
# PCOD8021517 Si02
#       7
#     2   2   2   2   2   2   2
#     4  11  25  42  66  95 126 166 205 269 323 360
#     4  11  25  44  65  97 128 162 211 263 328 368
#     4  10  22  44  61  94 133 165 201 267 315 351
#     4  12  25  43  66  94 126 168 215 257 308 388
#     4  12  24  40  69  98 122 168 214 250 319 377
#     4  10  22  47  63  88 132 172 207 254 318 367
#     4  10  22  45  63  91 130 166 203 262 307 371
#
# _framework density 21.402068
#
# number of rings (size 3 to 8) (size 9 to 14) (size 15 to 20)
#    0.857    0.286    2.857    3.000    4.000    1.143 
#    7.714    0.000    0.000    0.000    0.000    0.000 
#    0.000    0.000    0.000    0.000    0.000    0.000 
#
# Total GULP energy -173442.948113 kJ/mol
# GULP energy per Si atom -12388.782008 kJ/mol
# Density = 2.135336 g / cm^3
# Si number density = 21.402068 Si / 1000 Ang^3
#
#
#
# Elastic Constant Matrix: (Units=GPa)
#
#
# Indices 1 2 3 4 5 6 
#
# 1 117.2292 65.4421 49.6660 -12.6791 16.6545 -4.2111
# 2 65.4421 81.7551 31.7777 -16.8449 23.7104 8.2120
# 3 49.6660 31.7777 126.2972 -23.6989 8.5728 -3.3443
# 4 -12.6791 -16.8449 -23.6989 29.9467 -7.5845 2.0570
# 5 16.6545 23.7104 8.5728 -7.5845 31.2605 -5.2989
# 6 -4.2111 8.2120 -3.3443 2.0570 -5.2989 22.5698
#
#
#
# Elastic Compliance Matrix: (Units=1/GPa)
#
#
# Indices 1 2 3 4 5 6 
#
# 1 0.018881 -0.016783 -0.004020 -0.004200 0.004530 0.010480
# 2 -0.016783 0.035209 0.000263 0.009523 -0.019130 -0.021263
# 3 -0.004020 0.000263 0.010721 0.007107 0.000773 0.000277
# 4 -0.004200 0.009523 0.007107 0.043694 0.002551 -0.006579
# 5 0.004530 -0.019130 0.000773 0.002551 0.047694 0.018885
# 6 0.010480 -0.021263 0.000277 -0.006579 0.018885 0.059073
#
#
# Mechanical properties :
#
#
# Convention : Reuss Voigt Hill
#
# Bulk Modulus (GPa) = 42.13808 68.78368 55.46088
# Shear Modulus (GPa) = 18.92062 28.64843 23.78453
#
# Velocity S-wave (km/s) = 2.97653 3.66263 3.33726
# Velocity P-wave (km/s) = 5.61645 7.07779 6.38904
#
# Compressibility (1/GPa) = 0.02373151
#
# Stress axis : x y z
#
# Youngs Moduli (GPa) = 52.96332 28.40153 93.27478
#
# Poissons Ratio (x) = 0.47666 0.37499
# Poissons Ratio (y) = 0.88887 -0.02455
# Poissons Ratio (z) = 0.21293 -0.00748
#
# Static dielectric constant tensor:
#      x y z
#    x 4.049450 -0.340660 0.166360 
#    y -0.340660 3.407040 -0.043560 
#    z 0.166360 -0.043560 4.161370 
# 
# 
# High freq. dielectric constant tensor:
#      x y z
#    x 1.839410 -0.023630 0.002390 
#    y -0.023630 1.796160 -0.011650 
#    z 0.002390 -0.011650 1.864690 
# 
# From -- ./inp_files/12455.got.cif
#   From: 2010.06.25/outbox.cif.g09.slc.cpg/sg2_7_cif.got.tgz:12455.got - 2010.06.27 13:26:56.
