data_PCOD8021865
_publ_section_title
;
Structure prediction by ZEFSAII (Michael W. Deem and Ramdas Pophale) SiO2 
 PCOD8021865
Probable space group: P -1
;
_chemical_formula_sum "Si O2"
_cell_formula_units_Z 16
_cell_length_a 8.316818
_cell_length_b 25.049688
_cell_length_c 8.122142
_cell_angle_alpha 132.836870
_cell_angle_beta 49.623233
_cell_angle_gamma 145.614837
_cell_volume 685.223802
_symmetry_space_group_name_H-M "P -1"
_symmetry_group_IT_number 2
_symmetry_cell_setting 'triclinic'
loop_
_space_group_symop_operation_xyz
x,y,z
-x,-y,-z
loop_
_atom_site_type_symbol
_atom_site_label
_atom_site_fract_x
_atom_site_fract_y
_atom_site_fract_z
Si Si1 0.527197 0.115861 0.779877
Si Si2 0.697807 0.783740 0.923084
Si Si3 0.304237 0.982194 0.943908
Si Si4 0.878301 0.688028 0.135056
Si Si5 0.407605 0.250110 0.697316
Si Si6 0.445783 0.593916 0.491676
Si Si7 0.983316 0.034778 0.412730
Si Si8 0.920136 0.379418 0.403182
O O1 0.873174 0.204697 0.714083
O O2 0.355356 0.041360 0.579780
O O3 0.411301 0.171126 0.010810
O O4 0.497288 0.045995 0.791896
O O5 0.573643 0.677527 0.720714
O O6 0.596990 0.771074 0.152319
O O7 0.048320 0.862032 0.837364
O O8 0.156229 0.025441 0.153495
O O9 0.500000 0.000000 0.000000
O O10 0.668561 0.683493 0.141749
O O11 0.692321 0.612605 0.255082
O O12 0.030155 0.663385 0.870799
O O13 0.724452 0.301108 0.519534
O O14 0.147774 0.150068 0.557702
O O15 0.261443 0.596104 0.489655
O O16 0.234711 0.482476 0.478503
O O17 0.000000 0.000000 0.500000
#
# Coordination Sequence:
#
# PCOD8021865 Si02
#       8
#     2   2   2   2   2   2   2   2
#     4  11  23  39  67  92 136 181 218 271 330 402
#     4  11  22  44  61 100 136 176 221 271 334 402
#     4  11  24  40  64  97 136 176 224 273 325 402
#     4  11  23  42  68  99 125 174 228 277 333 401
#     4  11  24  42  67  95 137 175 222 275 330 400
#     4  10  23  42  70  96 130 169 227 282 336 398
#     4  11  22  40  60  93 135 178 215 264 332 392
#     4  10  22  44  69  96 128 175 220 285 342 386
#
# _framework density 23.350034000000001
#
# number of rings (size 3 to 8) (size 9 to 14) (size 15 to 20)
#    0.000    1.250    3.750    3.375    5.250    2.000 
#    2.250    0.625    0.000    0.000    0.000    0.000 
#    0.000    0.000    0.000    0.000    0.000    0.000 
#
# Total GULP energy -198240.643192 kJ/mol
# GULP energy per Si atom -12390.040200 kJ/mol
# Density = 2.329689 g / cm^3
# Si number density = 23.350034 Si / 1000 Ang^3
#
#
#
# Elastic Constant Matrix: (Units=GPa)
#
#
# Indices 1 2 3 4 5 6 
#
# 1 90.3434 33.6008 9.6205 -1.9047 15.1427 6.7311
# 2 33.6008 184.2061 56.2757 -3.0150 17.5509 20.4544
# 3 9.6205 56.2757 88.9633 3.6260 5.4040 11.0702
# 4 -1.9047 -3.0150 3.6260 38.4234 8.5991 1.7181
# 5 15.1427 17.5509 5.4040 8.5991 29.6225 1.3441
# 6 6.7311 20.4544 11.0702 1.7181 1.3441 26.7948
#
#
#
# Elastic Compliance Matrix: (Units=1/GPa)
#
#
# Indices 1 2 3 4 5 6 
#
# 1 0.012848 -0.001550 0.000123 0.001967 -0.006156 -0.001912
# 2 -0.001550 0.007747 -0.004133 0.001853 -0.003411 -0.003765
# 3 0.000123 -0.004133 0.014216 -0.001627 0.000386 -0.002664
# 4 0.001967 0.001853 -0.001627 0.028786 -0.010046 -0.002578
# 5 -0.006156 -0.003411 0.000386 -0.010046 0.041656 0.002545
# 6 -0.001912 -0.003765 -0.002664 -0.002578 0.002545 0.041813
#
#
# Mechanical properties :
#
#
# Convention : Reuss Voigt Hill
#
# Bulk Modulus (GPa) = 42.20973 62.50077 52.35525
# Shear Modulus (GPa) = 30.10515 36.56920 33.33717
#
# Velocity S-wave (km/s) = 3.59457 3.96173 3.78261
# Velocity P-wave (km/s) = 5.94509 6.91029 6.44578
#
# Compressibility (1/GPa) = 0.02369122
#
# Stress axis : x y z
#
# Youngs Moduli (GPa) = 77.83273 129.07398 70.34252
#
# Poissons Ratio (x) = 0.20007 -0.00864
# Poissons Ratio (y) = 0.12065 0.29073
# Poissons Ratio (z) = -0.00956 0.53347
#
# Static dielectric constant tensor:
#      x y z
#    x 3.805340 0.257880 0.096780 
#    y 0.257880 4.888330 -0.104340 
#    z 0.096780 -0.104340 3.703940 
# 
# 
# High freq. dielectric constant tensor:
#      x y z
#    x 1.904910 0.010460 -0.004670 
#    y 0.010460 1.938260 -0.003700 
#    z -0.004670 -0.003700 1.918100 
# 
# From -- ./inp_files/227488.got.cif
#   From: 2010.06.25/outbox.cif.g09.slc.cpg/sg2_114_cif.got.tgz:227488.got - 2010.06.27 13:26:56.
