data_PCOD8021462
_publ_section_title
;
Structure prediction by ZEFSAII (Michael W. Deem and Ramdas Pophale) SiO2 
 PCOD8021462
Probable space group: P -1
;
_chemical_formula_sum "Si O2"
_cell_formula_units_Z 10
_cell_length_a 11.949433
_cell_length_b 9.049167
_cell_length_c 7.138492
_cell_angle_alpha 53.802976
_cell_angle_beta 88.665732
_cell_angle_gamma 130.598758
_cell_volume 353.147562
_symmetry_space_group_name_H-M "P -1"
_symmetry_group_IT_number 2
_symmetry_cell_setting 'triclinic'
loop_
_space_group_symop_operation_xyz
x,y,z
-x,-y,-z
loop_
_atom_site_type_symbol
_atom_site_label
_atom_site_fract_x
_atom_site_fract_y
_atom_site_fract_z
Si Si1 0.280621 0.151721 0.210462
Si Si2 0.927906 0.776730 0.841433
Si Si3 0.311443 0.777342 0.444177
Si Si4 0.272972 0.152772 0.783694
Si Si5 0.749354 0.293457 0.929294
O O1 0.143437 0.126740 0.328203
O O2 0.243972 0.885937 0.446776
O O3 0.500000 0.500000 0.000000
O O4 0.218641 0.108282 0.032645
O O5 0.929640 0.628249 0.784490
O O6 0.774224 0.498177 0.216024
O O7 0.141086 0.096220 0.691590
O O8 0.232821 0.633177 0.345511
O O9 0.548425 0.093025 0.186593
O O10 0.500000 0.500000 0.500000
O O11 0.229921 0.893097 0.906240
#
# Coordination Sequence:
#
# PCOD8021462 Si02
#       5
#     2   2   2   2   2
#     4  11  24  44  71 108 141 182 236 291 361 426
#     4  12  24  47  76 103 142 195 234 292 360 417
#     4  10  23  44  74 107 144 183 235 293 358 429
#     4  11  26  46  69 103 147 188 239 299 351 416
#     4  10  22  43  73 107 142 184 238 291 355 429
#
# _framework density 28.316776000000001
#
# number of rings (size 3 to 8) (size 9 to 14) (size 15 to 20)
#    0.000    1.200    2.000    3.000    2.800    3.200 
#    3.600    5.000    0.000    0.000    0.000    0.000 
#    0.000    0.000    0.000    0.000    0.000    0.000 
#
# Total GULP energy -123969.146972 kJ/mol
# GULP energy per Si atom -12396.914697 kJ/mol
# Density = 2.825233 g / cm^3
# Si number density = 28.316776 Si / 1000 Ang^3
#
#
#
# Elastic Constant Matrix: (Units=GPa)
#
#
# Indices 1 2 3 4 5 6 
#
# 1 169.7220 45.5038 26.4787 -21.2459 3.8814 -2.7826
# 2 45.5038 158.5882 36.6563 -26.7545 -8.5040 11.6910
# 3 26.4787 36.6563 135.4975 -19.6332 20.1985 5.2655
# 4 -21.2459 -26.7545 -19.6332 48.8746 5.2474 -4.4155
# 5 3.8814 -8.5040 20.1985 5.2474 38.7300 -1.8868
# 6 -2.7826 11.6910 5.2655 -4.4155 -1.8868 54.5149
#
#
#
# Elastic Compliance Matrix: (Units=1/GPa)
#
#
# Indices 1 2 3 4 5 6 
#
# 1 0.006681 -0.001583 -0.000465 0.002036 -0.001009 0.000855
# 2 -0.001583 0.007810 -0.001743 0.002514 0.002379 -0.001301
# 3 -0.000465 -0.001743 0.009249 0.003117 -0.005606 -0.000485
# 4 0.002036 0.002514 0.003117 0.024562 -0.004552 0.001096
# 5 -0.001009 0.002379 -0.005606 -0.004552 0.030015 0.000650
# 6 0.000855 -0.001301 -0.000485 0.001096 0.000650 0.018824
#
#
# Mechanical properties :
#
#
# Convention : Reuss Voigt Hill
#
# Bulk Modulus (GPa) = 61.89207 75.67615 68.78411
# Shear Modulus (GPa) = 45.40906 52.10184 48.75545
#
# Velocity S-wave (km/s) = 4.00885 4.29413 4.15394
# Velocity P-wave (km/s) = 6.58273 7.16721 6.88118
#
# Compressibility (1/GPa) = 0.01615716
#
# Stress axis : x y z
#
# Youngs Moduli (GPa) = 149.67812 128.03324 108.12225
#
# Poissons Ratio (x) = 0.20269 0.05029
# Poissons Ratio (y) = 0.23695 0.18850
# Poissons Ratio (z) = 0.06962 0.22321
#
# Static dielectric constant tensor:
#      x y z
#    x 5.298320 -0.060260 0.134010 
#    y -0.060260 5.862060 0.358720 
#    z 0.134010 0.358720 5.443610 
# 
# 
# High freq. dielectric constant tensor:
#      x y z
#    x 2.157560 -0.007730 -0.001650 
#    y -0.007730 2.177210 0.001370 
#    z -0.001650 0.001370 2.168250 
# 
# From -- ./inp_files/147711.got.cif
#   From: 2010.06.25/outbox.cif.g09.slc.cpg/sg2_74_cif.got.tgz:147711.got - 2010.06.27 13:26:56.
