data_PCOD8021469
_publ_section_title
;
Structure prediction by ZEFSAII (Michael W. Deem and Ramdas Pophale) SiO2 
 PCOD8021469
Probable space group: P -1
;
_chemical_formula_sum "Si O2"
_cell_formula_units_Z 16
_cell_length_a 14.631475
_cell_length_b 7.980334
_cell_length_c 11.195738
_cell_angle_alpha 111.657742
_cell_angle_beta 69.909425
_cell_angle_gamma 146.642953
_cell_volume 666.468573
_symmetry_space_group_name_H-M "P -1"
_symmetry_group_IT_number 2
_symmetry_cell_setting 'triclinic'
loop_
_space_group_symop_operation_xyz
x,y,z
-x,-y,-z
loop_
_atom_site_type_symbol
_atom_site_label
_atom_site_fract_x
_atom_site_fract_y
_atom_site_fract_z
Si Si1 0.194781 0.342030 0.183620
Si Si2 0.766701 0.010385 0.908043
Si Si3 0.085628 0.624736 0.826457
Si Si4 0.638089 0.558426 0.450814
Si Si5 0.840205 0.948130 0.250774
Si Si6 0.377990 0.827402 0.776917
Si Si7 0.586091 0.332052 0.056292
Si Si8 0.598833 0.284185 0.615244
O O1 0.247831 0.222462 0.171811
O O2 0.241009 0.539390 0.331001
O O3 0.301620 0.557702 0.077212
O O4 0.999826 0.069409 0.174088
O O5 0.588743 0.840064 0.947228
O O6 0.887971 0.287569 0.829051
O O7 0.856885 0.160048 0.035083
O O8 0.182144 0.578115 0.784504
O O9 0.128769 0.796336 0.730311
O O10 0.500000 0.500000 0.500000
O O11 0.801752 0.880167 0.392951
O O12 0.573176 0.283724 0.339503
O O13 0.664718 0.550503 0.576458
O O14 0.682919 0.627035 0.168432
O O15 0.430590 0.876563 0.906634
O O16 0.472602 0.134535 0.745906
O O17 0.500000 0.000000 0.500000
#
# Coordination Sequence:
#
# PCOD8021469 Si02
#       8
#     2   2   2   2   2   2   2   2
#     4  12  25  43  72 102 145 190 231 286 355 421
#     4  11  25  39  66 105 146 194 222 278 345 429
#     4  11  24  42  63 103 155 179 228 282 348 415
#     4  10  22  43  73  97 128 186 239 287 347 403
#     4  11  25  43  70 104 145 184 234 292 347 420
#     4  10  23  41  70 101 143 182 222 295 349 413
#     4  11  24  41  70 107 144 186 232 276 360 429
#     4  10  24  44  70  98 137 178 242 294 345 397
#
# _framework density 24.007133
#
# number of rings (size 3 to 8) (size 9 to 14) (size 15 to 20)
#    0.000    1.250    1.250    3.750   10.500    1.500 
#    0.000    0.000    0.000    5.250    0.000    0.000 
#    0.000    0.000    0.000    0.000    0.000    0.000 
#
# Total GULP energy -198212.718508 kJ/mol
# GULP energy per Si atom -12388.294907 kJ/mol
# Density = 2.395249 g / cm^3
# Si number density = 24.007133 Si / 1000 Ang^3
#
#
#
# Elastic Constant Matrix: (Units=GPa)
#
#
# Indices 1 2 3 4 5 6 
#
# 1 129.3841 56.1692 51.8819 -32.0621 3.7920 -0.3632
# 2 56.1692 144.1239 46.5934 -42.9113 15.2059 -1.2917
# 3 51.8819 46.5934 116.0004 -34.4703 23.4665 -10.1536
# 4 -32.0621 -42.9113 -34.4703 54.7914 -14.0147 8.3337
# 5 3.7920 15.2059 23.4665 -14.0147 46.4976 -14.3199
# 6 -0.3632 -1.2917 -10.1536 8.3337 -14.3199 44.8466
#
#
#
# Elastic Compliance Matrix: (Units=1/GPa)
#
#
# Indices 1 2 3 4 5 6 
#
# 1 0.010874 -0.002494 -0.003542 0.002883 0.002416 -0.000550
# 2 -0.002494 0.010066 -0.001130 0.005606 -0.001270 -0.001433
# 3 -0.003542 -0.001130 0.012749 0.003829 -0.004404 0.000708
# 4 0.002883 0.005606 0.003829 0.028104 0.003533 -0.003043
# 5 0.002416 -0.001270 -0.004404 0.003533 0.027169 0.007005
# 6 -0.000550 -0.001433 0.000708 -0.003043 0.007005 0.025215
#
#
# Mechanical properties :
#
#
# Convention : Reuss Voigt Hill
#
# Bulk Modulus (GPa) = 51.66134 77.64416 64.65275
# Shear Modulus (GPa) = 37.04711 44.88472 40.96592
#
# Velocity S-wave (km/s) = 3.93258 4.32863 4.13535
# Velocity P-wave (km/s) = 6.49509 7.57595 7.05624
#
# Compressibility (1/GPa) = 0.01935684
#
# Stress axis : x y z
#
# Youngs Moduli (GPa) = 91.96167 99.34111 78.43498
#
# Poissons Ratio (x) = 0.24779 0.27780
# Poissons Ratio (y) = 0.22939 0.08866
# Poissons Ratio (z) = 0.32571 0.11229
#
# Static dielectric constant tensor:
#      x y z
#    x 4.396890 -0.229050 0.654080 
#    y -0.229050 4.803450 -0.349300 
#    z 0.654080 -0.349300 4.912600 
# 
# 
# High freq. dielectric constant tensor:
#      x y z
#    x 1.944410 -0.012740 0.019670 
#    y -0.012740 1.968150 -0.017230 
#    z 0.019670 -0.017230 1.951640 
# 
# From -- ./inp_files/447832.got.cif
#   From: 2010.06.25/outbox.cif.g09.slc.cpg/sg2_224_cif.got.tgz:447832.got - 2010.06.27 13:26:56.
