data_PCOD8021903
_publ_section_title
;
Structure prediction by ZEFSAII (Michael W. Deem and Ramdas Pophale) SiO2 
 PCOD8021903
Probable space group: P -1
;
_chemical_formula_sum "Si O2"
_cell_formula_units_Z 10
_cell_length_a 6.534601
_cell_length_b 7.786244
_cell_length_c 14.334504
_cell_angle_alpha 144.155151
_cell_angle_beta 99.485206
_cell_angle_gamma 68.401275
_cell_volume 384.967916
_symmetry_space_group_name_H-M "P -1"
_symmetry_group_IT_number 2
_symmetry_cell_setting 'triclinic'
loop_
_space_group_symop_operation_xyz
x,y,z
-x,-y,-z
loop_
_atom_site_type_symbol
_atom_site_label
_atom_site_fract_x
_atom_site_fract_y
_atom_site_fract_z
Si Si1 0.490569 0.298511 0.202262
Si Si2 0.116470 0.351450 0.326382
Si Si3 0.427195 0.474333 0.876061
Si Si4 0.974930 0.791031 0.058987
Si Si5 0.348889 0.252134 0.482014
O O1 0.470726 0.346120 0.109636
O O2 0.492615 0.605432 0.391647
O O3 0.713844 0.975349 0.093471
O O4 0.736057 0.740101 0.797609
O O5 0.266308 0.418606 0.448232
O O6 0.878594 0.662897 0.433783
O O7 0.061201 0.049987 0.224155
O O8 0.507062 0.119315 0.686127
O O9 0.500000 0.500000 0.000000
O O10 0.151550 0.630779 0.916376
O O11 0.000000 0.500000 0.000000
#
# Coordination Sequence:
#
# PCOD8021903 Si02
#       5
#     2   2   2   2   2
#     4  11  25  45  75 105 143 190 240 289 353 434
#     4  10  22  45  74 103 141 187 239 292 357 421
#     4  12  25  47  70 106 148 188 237 296 357 415
#     4  11  25  46  71 104 143 186 235 296 360 422
#     4  10  22  44  70 104 144 187 235 289 356 431
#
# _framework density 25.976189000000002
#
# number of rings (size 3 to 8) (size 9 to 14) (size 15 to 20)
#    0.000    1.200    2.000    3.000    0.000    4.800 
#    7.200    0.000    0.000    0.000    0.000    0.000 
#    0.000    0.000    0.000    0.000    0.000    0.000 
#
# Total GULP energy -123911.964335 kJ/mol
# GULP energy per Si atom -12391.196433 kJ/mol
# Density = 2.591707 g / cm^3
# Si number density = 25.976189 Si / 1000 Ang^3
#
#
#
# Elastic Constant Matrix: (Units=GPa)
#
#
# Indices 1 2 3 4 5 6 
#
# 1 147.8145 36.6098 75.7366 9.6497 -35.0851 24.9058
# 2 36.6098 111.0188 53.0415 5.6746 -9.1773 28.4424
# 3 75.7366 53.0415 184.4887 13.3687 -25.8402 -8.0813
# 4 9.6497 5.6746 13.3687 32.2359 -15.3845 -20.4955
# 5 -35.0851 -9.1773 -25.8402 -15.3845 56.8046 -0.4100
# 6 24.9058 28.4424 -8.0813 -20.4955 -0.4100 42.2200
#
#
#
# Elastic Compliance Matrix: (Units=1/GPa)
#
#
# Indices 1 2 3 4 5 6 
#
# 1 0.013221 0.003718 -0.006015 -0.011679 0.002744 -0.017098
# 2 0.003718 0.018175 -0.006928 -0.018811 -0.003193 -0.024926
# 3 -0.006015 -0.006928 0.010191 0.009301 0.002427 0.014704
# 4 -0.011679 -0.018811 0.009301 0.080011 0.016083 0.060340
# 5 0.002744 -0.003193 0.002427 0.016083 0.024308 0.009041
# 6 -0.017098 -0.024926 0.014704 0.060340 0.009041 0.082758
#
#
# Mechanical properties :
#
#
# Convention : Reuss Voigt Hill
#
# Bulk Modulus (GPa) = 43.21826 86.01086 64.61456
# Shear Modulus (GPa) = 19.62126 44.78104 32.20115
#
# Velocity S-wave (km/s) = 2.75136 4.15652 3.52467
# Velocity P-wave (km/s) = 5.17369 7.49793 6.44150
#
# Compressibility (1/GPa) = 0.02313837
#
# Stress axis : x y z
#
# Youngs Moduli (GPa) = 75.63825 55.02157 98.12202
#
# Poissons Ratio (x) = -0.20458 0.59018
# Poissons Ratio (y) = -0.28124 0.67976
# Poissons Ratio (z) = 0.45495 0.38117
#
# Static dielectric constant tensor:
#      x y z
#    x 5.180710 -0.075030 -0.466290 
#    y -0.075030 4.596550 0.008350 
#    z -0.466290 0.008350 5.066810 
# 
# 
# High freq. dielectric constant tensor:
#      x y z
#    x 2.050400 -0.006730 -0.015840 
#    y -0.006730 2.013300 0.006540 
#    z -0.015840 0.006540 2.070860 
# 
# From -- ./inp_files/145302.got.cif
#   From: 2010.06.25/outbox.cif.g09.slc.cpg/sg2_73_cif.got.tgz:145302.got - 2010.06.27 13:26:56.
