data_PCOD8021747
_publ_section_title
;
Structure prediction by ZEFSAII (Michael W. Deem and Ramdas Pophale) SiO2 
 PCOD8021747
Probable space group: P -1
;
_chemical_formula_sum "Si O2"
_cell_formula_units_Z 16
_cell_length_a 16.454875
_cell_length_b 11.270021
_cell_length_c 14.152071
_cell_angle_alpha 146.614884
_cell_angle_beta 33.027799
_cell_angle_gamma 123.656846
_cell_volume 687.792808
_symmetry_space_group_name_H-M "P -1"
_symmetry_group_IT_number 2
_symmetry_cell_setting 'triclinic'
loop_
_space_group_symop_operation_xyz
x,y,z
-x,-y,-z
loop_
_atom_site_type_symbol
_atom_site_label
_atom_site_fract_x
_atom_site_fract_y
_atom_site_fract_z
Si Si1 0.950768 0.205027 0.104059
Si Si2 0.634829 0.218066 0.057289
Si Si3 0.905151 0.718355 0.533027
Si Si4 0.255476 0.675906 0.170904
Si Si5 0.754688 0.949157 0.430298
Si Si6 0.432449 0.182283 0.773486
Si Si7 0.610842 0.659749 0.471414
Si Si8 0.255481 0.984778 0.931900
O O1 0.875870 0.480608 0.402538
O O2 0.812548 0.190128 0.161711
O O3 0.000000 0.000000 0.000000
O O4 0.114337 0.161591 0.856138
O O5 0.628712 0.316030 0.022810
O O6 0.771188 0.928304 0.733098
O O7 0.689088 0.367647 0.179748
O O8 0.448802 0.268323 0.312140
O O9 0.096670 0.648735 0.267849
O O10 0.874823 0.828725 0.740762
O O11 0.185066 0.914476 0.463858
O O12 0.378279 0.451271 0.967385
O O13 0.569563 0.127498 0.685718
O O14 0.751769 0.732770 0.351582
O O15 0.269782 0.164634 0.959650
O O16 0.500000 0.000000 0.500000
O O17 0.443695 0.805138 0.666358
#
# Coordination Sequence:
#
# PCOD8021747 Si02
#       8
#     2   2   2   2   2   2   2   2
#     4  12  25  42  70 100 135 175 224 272 341 399
#     4  10  22  44  68  92 131 182 221 272 333 385
#     4  11  24  44  67  99 136 176 222 277 326 399
#     4  12  23  40  68  98 139 173 222 277 333 398
#     4  11  24  43  65 103 130 173 225 276 338 395
#     4  11  23  43  67  95 134 176 219 279 337 395
#     4   9  21  46  69  91 135 171 225 277 324 398
#     4  10  22  44  67  98 132 173 220 276 335 391
#
# _framework density 23.262820000000001
#
# number of rings (size 3 to 8) (size 9 to 14) (size 15 to 20)
#    0.000    1.250    1.250    5.250    1.750    1.500 
#   22.500    1.250    0.000    0.000    0.000    0.000 
#    0.000    0.000    0.000    0.000    0.000    0.000 
#
# Total GULP energy -198390.869132 kJ/mol
# GULP energy per Si atom -12399.429321 kJ/mol
# Density = 2.320987 g / cm^3
# Si number density = 23.262820 Si / 1000 Ang^3
#
#
#
# Elastic Constant Matrix: (Units=GPa)
#
#
# Indices 1 2 3 4 5 6 
#
# 1 57.0855 35.5005 17.2218 2.0554 18.3585 10.6631
# 2 35.5005 172.0182 46.3202 -3.5734 7.1719 -10.2402
# 3 17.2218 46.3202 78.0291 5.8397 13.3085 0.7264
# 4 2.0554 -3.5734 5.8397 50.7610 -2.5777 9.5526
# 5 18.3585 7.1719 13.3085 -2.5777 29.9965 -1.1743
# 6 10.6631 -10.2402 0.7264 9.5526 -1.1743 38.8256
#
#
#
# Elastic Compliance Matrix: (Units=1/GPa)
#
#
# Indices 1 2 3 4 5 6 
#
# 1 0.028103 -0.005733 0.000114 -0.000579 -0.016304 -0.009583
# 2 -0.005733 0.008256 -0.004359 0.000796 0.003684 0.003749
# 3 0.000114 -0.004359 0.016706 -0.002363 -0.006686 -0.001114
# 4 -0.000579 0.000796 -0.002363 0.021078 0.002840 -0.004687
# 5 -0.016304 0.003684 -0.006686 0.002840 0.045891 0.006264
# 6 -0.009583 0.003749 -0.001114 -0.004687 0.006264 0.030740
#
#
# Mechanical properties :
#
#
# Convention : Reuss Voigt Hill
#
# Bulk Modulus (GPa) = 30.20286 56.13532 43.16909
# Shear Modulus (GPa) = 27.50799 37.78931 32.64865
#
# Velocity S-wave (km/s) = 3.44246 4.03482 3.75035
# Velocity P-wave (km/s) = 5.36770 6.77419 6.11154
#
# Compressibility (1/GPa) = 0.03310945
#
# Stress axis : x y z
#
# Youngs Moduli (GPa) = 35.58362 121.11871 59.86041
#
# Poissons Ratio (x) = 0.69441 -0.00684
# Poissons Ratio (y) = 0.20401 0.26091
# Poissons Ratio (z) = -0.00407 0.52791
#
# Static dielectric constant tensor:
#      x y z
#    x 3.911570 -0.073860 0.229220 
#    y -0.073860 4.556260 -0.191160 
#    z 0.229220 -0.191160 3.989370 
# 
# 
# High freq. dielectric constant tensor:
#      x y z
#    x 1.900420 -0.009040 0.014750 
#    y -0.009040 1.945850 0.000070 
#    z 0.014750 0.000070 1.915320 
# 
# From -- ./inp_files/186393.got.cif
#   From: 2010.06.25/outbox.cif.g09.slc.cpg/sg2_94_cif.got.tgz:186393.got - 2010.06.27 13:26:56.
