data_PCOD8021173
_publ_section_title
;
Structure prediction by ZEFSAII (Michael W. Deem and Ramdas Pophale) SiO2 
 PCOD8021173
Probable space group: P -1
;
_chemical_formula_sum "Si O2"
_cell_formula_units_Z 16
_cell_length_a 15.039300
_cell_length_b 30.327892
_cell_length_c 9.301145
_cell_angle_alpha 33.307427
_cell_angle_beta 144.965118
_cell_angle_gamma 162.014427
_cell_volume 712.144855
_symmetry_space_group_name_H-M "P -1"
_symmetry_group_IT_number 2
_symmetry_cell_setting 'triclinic'
loop_
_space_group_symop_operation_xyz
x,y,z
-x,-y,-z
loop_
_atom_site_type_symbol
_atom_site_label
_atom_site_fract_x
_atom_site_fract_y
_atom_site_fract_z
Si Si1 0.825987 0.355684 0.981225
Si Si2 0.118592 0.351722 0.184652
Si Si3 0.254950 0.293746 0.959813
Si Si4 0.162679 0.661292 0.633217
Si Si5 0.722878 0.894795 0.215011
Si Si6 0.326285 0.135215 0.449787
Si Si7 0.176198 0.892215 0.347517
Si Si8 0.166483 0.353850 0.924975
O O1 0.533426 0.266415 0.766464
O O2 0.074028 0.530527 0.845667
O O3 0.763725 0.291360 0.231385
O O4 0.919972 0.327368 0.074169
O O5 0.457014 0.524437 0.177935
O O6 0.039382 0.229245 0.477488
O O7 0.005795 0.296455 0.020671
O O8 0.119719 0.249213 0.062398
O O9 0.997314 0.212946 0.737139
O O10 0.338080 0.237628 0.198749
O O11 0.444863 0.801528 0.528925
O O12 0.908435 0.607793 0.389705
O O13 0.620862 0.879047 0.282946
O O14 0.013566 0.970420 0.420984
O O15 0.795734 0.999847 0.917907
O O16 0.500000 0.000000 0.500000
O O17 0.500000 0.500000 0.000000
#
# Coordination Sequence:
#
# PCOD8021173 Si02
#       8
#     2   2   2   2   2   2   2   2
#     4  11  23  40  68  98 128 171 212 271 318 379
#     4  11  21  41  67  95 125 173 212 264 323 371
#     4  10  22  43  68  96 128 164 218 272 317 377
#     4  11  24  41  67  98 130 164 222 264 321 383
#     4  10  23  41  65  92 132 172 215 258 319 388
#     4  10  22  44  70  94 127 172 215 263 322 380
#     4  11  22  38  63  94 130 173 211 252 326 387
#     4  10  24  41  64 102 126 163 215 273 321 375
#
# _framework density 22.46734
#
# number of rings (size 3 to 8) (size 9 to 14) (size 15 to 20)
#    0.000    1.500    2.500    1.875    3.500    2.500 
#    4.500    4.375    0.000    0.000    0.000    0.000 
#    0.000    0.000    0.000    0.000    0.000    0.000 
#
# Total GULP energy -198234.042098 kJ/mol
# GULP energy per Si atom -12389.627631 kJ/mol
# Density = 2.241620 g / cm^3
# Si number density = 22.467340 Si / 1000 Ang^3
#
#
#
# Elastic Constant Matrix: (Units=GPa)
#
#
# Indices 1 2 3 4 5 6 
#
# 1 118.7989 31.0644 27.5829 13.8076 -18.2382 2.7687
# 2 31.0644 111.1259 27.2844 24.7950 -19.6929 5.3517
# 3 27.5829 27.2844 90.1236 18.2250 -18.4955 0.0247
# 4 13.8076 24.7950 18.2250 43.6100 -4.6109 -9.0670
# 5 -18.2382 -19.6929 -18.4955 -4.6109 30.3771 4.4513
# 6 2.7687 5.3517 0.0247 -9.0670 4.4513 26.6195
#
#
#
# Elastic Compliance Matrix: (Units=1/GPa)
#
#
# Indices 1 2 3 4 5 6 
#
# 1 0.009998 -0.001124 -0.001418 -0.001924 0.004443 -0.002211
# 2 -0.001124 0.012538 -0.000617 -0.007023 0.006883 -0.005946
# 3 -0.001418 -0.000617 0.014146 -0.004909 0.006994 -0.002583
# 4 -0.001924 -0.007023 -0.004909 0.031755 -0.005842 0.013410
# 5 0.004443 0.006883 0.006994 -0.005842 0.045088 -0.011382
# 6 -0.002211 -0.005946 -0.002583 0.013410 -0.011382 0.045465
#
#
# Mechanical properties :
#
#
# Convention : Reuss Voigt Hill
#
# Bulk Modulus (GPa) = 32.93545 54.65685 43.79615
# Shear Modulus (GPa) = 28.50161 35.72912 32.11536
#
# Velocity S-wave (km/s) = 3.56558 3.99214 3.78487
# Velocity P-wave (km/s) = 5.62514 6.75497 6.21578
#
# Compressibility (1/GPa) = 0.03036242
#
# Stress axis : x y z
#
# Youngs Moduli (GPa) = 100.02133 79.76013 70.69279
#
# Poissons Ratio (x) = 0.08961 0.10027
# Poissons Ratio (y) = 0.11238 0.04365
# Poissons Ratio (z) = 0.14187 0.04925
#
# Static dielectric constant tensor:
#      x y z
#    x 4.484350 -0.312450 -0.564500 
#    y -0.312450 4.944100 0.165490 
#    z -0.564500 0.165490 4.254460 
# 
# 
# High freq. dielectric constant tensor:
#      x y z
#    x 1.870970 -0.001700 -0.019660 
#    y -0.001700 1.893480 0.012560 
#    z -0.019660 0.012560 1.886600 
# 
# From -- ./inp_files/321053.got.cif
#   From: 2010.06.25/outbox.cif.g09.slc.cpg/sg2_161_cif.got.tgz:321053.got - 2010.06.27 13:26:56.
