data_PCOD8021242
_publ_section_title
;
Structure prediction by ZEFSAII (Michael W. Deem and Ramdas Pophale) SiO2 
 PCOD8021242
Probable space group: P -1
;
_chemical_formula_sum "Si O2"
_cell_formula_units_Z 14
_cell_length_a 15.405461
_cell_length_b 8.439843
_cell_length_c 9.138126
_cell_angle_alpha 95.990813
_cell_angle_beta 117.554882
_cell_angle_gamma 41.892340
_cell_volume 642.976263
_symmetry_space_group_name_H-M "P -1"
_symmetry_group_IT_number 2
_symmetry_cell_setting 'triclinic'
loop_
_space_group_symop_operation_xyz
x,y,z
-x,-y,-z
loop_
_atom_site_type_symbol
_atom_site_label
_atom_site_fract_x
_atom_site_fract_y
_atom_site_fract_z
Si Si1 0.446517 0.103525 0.305554
Si Si2 0.315498 0.282652 0.783947
Si Si3 0.415927 0.405839 0.109877
Si Si4 0.920314 0.444000 0.986073
Si Si5 0.249810 0.997651 0.730250
Si Si6 0.999166 0.797786 0.662721
Si Si7 0.903676 0.002381 0.138372
O O1 0.458011 0.277869 0.290517
O O2 0.265257 0.284409 0.156996
O O3 0.500000 0.000000 0.500000
O O4 0.568509 0.845294 0.275745
O O5 0.271472 0.157816 0.776955
O O6 0.146790 0.584253 0.644166
O O7 0.394023 0.272479 0.982651
O O8 0.569919 0.308534 0.164300
O O9 0.258173 0.713537 0.026494
O O10 0.988559 0.208112 0.924819
O O11 0.000000 0.500000 0.000000
O O12 0.959116 0.357961 0.175930
O O13 0.163181 0.059468 0.518337
O O14 0.148132 0.064673 0.793023
O O15 0.987431 0.001526 0.703262
#
# Coordination Sequence:
#
# PCOD8021242 Si02
#       7
#     2   2   2   2   2   2   2
#     4  11  24  41  67  97 130 169 219 266 327 382
#     4  10  22  43  69  92 133 172 217 272 322 382
#     4  10  23  45  70  95 133 177 212 277 327 382
#     4  12  27  43  68  95 133 176 218 268 336 390
#     4  11  22  39  68 102 125 168 232 261 319 394
#     4  11  24  43  65  97 134 175 215 274 326 380
#     4  11  24  44  66  92 137 175 215 269 334 388
#
# _framework density 21.773743
#
# number of rings (size 3 to 8) (size 9 to 14) (size 15 to 20)
#    0.000    1.143    2.857    4.286    8.000    0.000 
#    0.000    0.714    0.000    0.000    0.000    0.000 
#    0.000    0.000    0.000    0.000    0.000    0.000 
#
# Total GULP energy -173549.923114 kJ/mol
# GULP energy per Si atom -12396.423080 kJ/mol
# Density = 2.172418 g / cm^3
# Si number density = 21.773743 Si / 1000 Ang^3
#
#
#
# Elastic Constant Matrix: (Units=GPa)
#
#
# Indices 1 2 3 4 5 6 
#
# 1 97.1830 43.9348 47.8194 -0.8102 8.8415 -14.6725
# 2 43.9348 140.7713 49.0950 6.3244 9.3290 -11.1729
# 3 47.8194 49.0950 120.9724 -12.7318 6.6534 -5.0983
# 4 -0.8102 6.3244 -12.7318 14.8835 -6.5734 3.0157
# 5 8.8415 9.3290 6.6534 -6.5734 42.8340 -2.0837
# 6 -14.6725 -11.1729 -5.0983 3.0157 -2.0837 32.9162
#
#
#
# Elastic Compliance Matrix: (Units=1/GPa)
#
#
# Indices 1 2 3 4 5 6 
#
# 1 0.014714 -0.001992 -0.005168 -0.004875 -0.002287 0.005384
# 2 -0.001992 0.009888 -0.003962 -0.009289 -0.002428 0.002552
# 3 -0.005168 -0.003962 0.013177 0.014080 0.001909 -0.002777
# 4 -0.004875 -0.009289 0.014080 0.091404 0.014353 -0.010611
# 5 -0.002287 -0.002428 0.001909 0.014353 0.026194 -0.001205
# 6 0.005384 0.002552 -0.002777 -0.010611 -0.001205 0.034112
#
#
# Mechanical properties :
#
#
# Convention : Reuss Voigt Hill
#
# Bulk Modulus (GPa) = 64.37263 71.18058 67.77661
# Shear Modulus (GPa) = 23.05090 32.66523 27.85807
#
# Velocity S-wave (km/s) = 3.25723 3.87746 3.58080
# Velocity P-wave (km/s) = 6.61624 7.26693 6.94920
#
# Compressibility (1/GPa) = 0.01553455
#
# Stress axis : x y z
#
# Youngs Moduli (GPa) = 67.96427 101.13299 75.88938
#
# Poissons Ratio (x) = 0.20144 0.39221
# Poissons Ratio (y) = 0.13537 0.30068
# Poissons Ratio (z) = 0.35125 0.40069
#
# Static dielectric constant tensor:
#      x y z
#    x 4.148770 -0.406830 0.141110 
#    y -0.406830 4.437080 -0.227300 
#    z 0.141110 -0.227300 3.882690 
# 
# 
# High freq. dielectric constant tensor:
#      x y z
#    x 1.865640 -0.014560 0.004850 
#    y -0.014560 1.862820 -0.015180 
#    z 0.004850 -0.015180 1.845760 
# 
# From -- ./inp_files/298908.got.cif
#   From: 2010.06.25/outbox.cif.g09.slc.cpg/sg2_150_cif.got.tgz:298908.got - 2010.06.27 13:26:56.
