data_PCOD8021741
_publ_section_title
;
Structure prediction by ZEFSAII (Michael W. Deem and Ramdas Pophale) SiO2 
 PCOD8021741
Probable space group: P -1
;
_chemical_formula_sum "Si O2"
_cell_formula_units_Z 14
_cell_length_a 8.611342
_cell_length_b 26.900051
_cell_length_c 29.386111
_cell_angle_alpha 9.367650
_cell_angle_beta 30.692126
_cell_angle_gamma 33.011082
_cell_volume 561.526738
_symmetry_space_group_name_H-M "P -1"
_symmetry_group_IT_number 2
_symmetry_cell_setting 'triclinic'
loop_
_space_group_symop_operation_xyz
x,y,z
-x,-y,-z
loop_
_atom_site_type_symbol
_atom_site_label
_atom_site_fract_x
_atom_site_fract_y
_atom_site_fract_z
Si Si1 0.726058 0.298044 0.775589
Si Si2 0.671907 0.239558 0.066983
Si Si3 0.377350 0.804149 0.401228
Si Si4 0.280042 0.367930 0.135456
Si Si5 0.090781 0.093076 0.290448
Si Si6 0.036970 0.717016 0.483162
Si Si7 0.015597 0.805704 0.102450
O O1 0.402173 0.435696 0.725492
O O2 0.809673 0.337465 0.771570
O O3 0.000000 0.500000 0.500000
O O4 0.725784 0.962114 0.054640
O O5 0.492074 0.271705 0.129428
O O6 0.439791 0.187007 0.131097
O O7 0.857861 0.947287 0.291405
O O8 0.872741 0.555410 0.715899
O O9 0.323719 0.904630 0.270110
O O10 0.100800 0.875577 0.439862
O O11 0.702992 0.955652 0.203422
O O12 0.076925 0.071367 0.475136
O O13 0.500000 0.500000 0.000000
O O14 0.065016 0.609297 0.952956
O O15 0.117149 0.446397 0.673684
#
# Coordination Sequence:
#
# PCOD8021741 Si02
#       7
#     2   2   2   2   2   2   2
#     4   9  21  42  69  96 133 175 219 275 335 405
#     4  12  25  46  64 101 136 178 231 273 334 400
#     4  11  24  41  68  99 133 176 227 274 338 393
#     4  12  25  43  66  99 136 176 228 277 332 396
#     4  12  24  42  70  95 134 184 219 278 335 391
#     4  12  26  42  71 100 137 178 225 280 326 400
#     4  10  22  44  67  97 135 176 220 276 339 398
#
# _framework density 24.932029
#
# number of rings (size 3 to 8) (size 9 to 14) (size 15 to 20)
#    0.000    0.857    1.429    5.571    6.000    0.571 
#    0.000    6.429    0.000    0.000    0.000    0.000 
#    0.000    0.000    0.000    0.000    0.000    0.000 
#
# Total GULP energy -173482.165472 kJ/mol
# GULP energy per Si atom -12391.583248 kJ/mol
# Density = 2.487528 g / cm^3
# Si number density = 24.932029 Si / 1000 Ang^3
#
#
#
# Elastic Constant Matrix: (Units=GPa)
#
#
# Indices 1 2 3 4 5 6 
#
# 1 89.5211 -5.2411 19.8376 -28.3368 -1.1653 12.2515
# 2 -5.2411 41.1345 -10.9655 -20.3176 -4.7072 35.9305
# 3 19.8376 -10.9655 64.4396 -12.9760 16.0414 0.5504
# 4 -28.3368 -20.3176 -12.9760 38.5395 2.1825 5.9694
# 5 -1.1653 -4.7072 16.0414 2.1825 51.6215 -8.1459
# 6 12.2515 35.9305 0.5504 5.9694 -8.1459 44.1422
#
#
#
# Elastic Compliance Matrix: (Units=1/GPa)
#
#
# Indices 1 2 3 4 5 6 
#
# 1 0.007342 -0.017124 -0.007935 -0.008649 0.003619 0.013837
# 2 -0.017124 -0.032212 -0.010322 -0.039329 0.007512 0.037806
# 3 -0.007935 -0.010322 0.015600 -0.007454 -0.003967 0.010686
# 4 -0.008649 -0.039329 -0.007454 -0.009604 0.004729 0.036677
# 5 0.003619 0.007512 -0.003967 0.004729 0.020553 -0.003917
# 6 0.013837 0.037806 0.010686 0.036677 -0.003917 -0.017775
#
#
# Mechanical properties :
#
#
# Convention : Reuss Voigt Hill
#
# Bulk Modulus (GPa) = -12.49503 22.48413 4.99455
# Shear Modulus (GPa) = 178.64086 39.62493 109.13289
#
# Velocity S-wave (km/s) = 8.47388 3.99095 6.62323
# Velocity P-wave (km/s) = 9.52469 5.50224 7.77800
#
# Compressibility (1/GPa) = -0.08003183
#
# Stress axis : x y z
#
# Youngs Moduli (GPa) = 136.19905 -31.04455 64.10389
#
# Poissons Ratio (x) = -0.53160 0.50865
# Poissons Ratio (y) = 2.33223 0.66171
# Poissons Ratio (z) = 1.08072 -0.32046
#
# Static dielectric constant tensor:
#      x y z
#    x 4.322670 -0.385240 0.267950 
#    y -0.385240 4.443130 -0.082980 
#    z 0.267950 -0.082980 4.394030 
# 
# 
# High freq. dielectric constant tensor:
#      x y z
#    x 2.005400 0.008930 0.007010 
#    y 0.008930 2.006020 0.001330 
#    z 0.007010 0.001330 1.999110 
# 
# From -- ./inp_files/35640.got.cif
#   From: 2010.06.25/outbox.cif.g09.slc.cpg/sg2_18_cif.got.tgz:35640.got - 2010.06.27 13:26:56.
