data_PCOD8021290
_publ_section_title
;
Structure prediction by ZEFSAII (Michael W. Deem and Ramdas Pophale) SiO2 
 PCOD8021290
Probable space group: P -1
;
_chemical_formula_sum "Si O2"
_cell_formula_units_Z 16
_cell_length_a 18.630551
_cell_length_b 18.155924
_cell_length_c 7.042877
_cell_angle_alpha 52.446428
_cell_angle_beta 42.258538
_cell_angle_gamma 26.394860
_cell_volume 700.712529
_symmetry_space_group_name_H-M "P -1"
_symmetry_group_IT_number 2
_symmetry_cell_setting 'triclinic'
loop_
_space_group_symop_operation_xyz
x,y,z
-x,-y,-z
loop_
_atom_site_type_symbol
_atom_site_label
_atom_site_fract_x
_atom_site_fract_y
_atom_site_fract_z
Si Si1 0.874158 0.405485 0.106025
Si Si2 0.108063 0.833297 0.121127
Si Si3 0.652032 0.220268 0.010563
Si Si4 0.238802 0.251532 0.707898
Si Si5 0.142475 0.045248 0.250822
Si Si6 0.605070 0.721188 0.357826
Si Si7 0.356193 0.532864 0.839089
Si Si8 0.519779 0.087662 0.081972
O O1 0.718685 0.544904 0.352440
O O2 0.740145 0.480994 0.069769
O O3 0.000797 0.221733 0.158032
O O4 0.020372 0.387484 0.852377
O O5 0.943310 0.902634 0.454765
O O6 0.285706 0.736824 0.054275
O O7 0.183763 0.715760 0.986209
O O8 0.000000 0.000000 0.000000
O O9 0.593564 0.171779 0.325912
O O10 0.468413 0.392180 0.992871
O O11 0.834362 0.060794 0.766701
O O12 0.256450 0.331023 0.674870
O O13 0.341674 0.187927 0.403946
O O14 0.328212 0.108272 0.899529
O O15 0.367055 0.909777 0.046620
O O16 0.552477 0.830343 0.116135
O O17 0.500000 0.500000 0.500000
#
# Coordination Sequence:
#
# PCOD8021290 Si02
#       8
#     2   2   2   2   2   2   2   2
#     4  11  25  42  67  98 133 174 225 281 330 400
#     4  12  24  41  67 102 131 176 225 277 340 401
#     4  12  24  42  70  96 138 179 224 278 335 407
#     4  10  23  45  67  98 139 174 228 276 337 394
#     4  11  22  44  64  97 137 173 225 278 335 399
#     4  12  23  43  68 102 133 181 224 273 342 398
#     4  12  25  46  68  98 137 180 224 278 340 400
#     4  10  22  43  69  99 134 183 220 276 336 408
#
# _framework density 22.8339
#
# number of rings (size 3 to 8) (size 9 to 14) (size 15 to 20)
#    0.000    0.750    1.250    6.750    0.000    0.500 
#    6.750    0.000    0.000    0.000    0.000    0.000 
#    0.000    0.000    0.000    0.000    0.000    0.000 
#
# Total GULP energy -198243.396081 kJ/mol
# GULP energy per Si atom -12390.212255 kJ/mol
# Density = 2.278193 g / cm^3
# Si number density = 22.833900 Si / 1000 Ang^3
#
#
#
# Elastic Constant Matrix: (Units=GPa)
#
#
# Indices 1 2 3 4 5 6 
#
# 1 106.1819 23.6873 -0.2367 11.6897 7.9742 8.4341
# 2 23.6873 87.3074 17.4243 12.9742 6.9899 2.1407
# 3 -0.2367 17.4243 104.8746 9.5801 2.1342 1.5087
# 4 11.6897 12.9742 9.5801 37.3809 3.0763 10.7529
# 5 7.9742 6.9899 2.1342 3.0763 26.6094 5.3365
# 6 8.4341 2.1407 1.5087 10.7529 5.3365 39.4494
#
#
#
# Elastic Compliance Matrix: (Units=1/GPa)
#
#
# Indices 1 2 3 4 5 6 
#
# 1 0.010452 -0.002473 0.000681 -0.002045 -0.002042 -0.001293
# 2 -0.002473 0.013171 -0.001846 -0.003459 -0.002402 0.001152
# 3 0.000681 -0.001846 0.010046 -0.002181 -0.000315 0.000207
# 4 -0.002045 -0.003459 -0.002181 0.031427 -0.000371 -0.007808
# 5 -0.002042 -0.002402 -0.000315 -0.000371 0.039836 -0.004709
# 6 -0.001293 0.001152 0.000207 -0.007808 -0.004709 0.028320
#
#
# Mechanical properties :
#
#
# Convention : Reuss Voigt Hill
#
# Bulk Modulus (GPa) = 37.88546 42.23483 40.06015
# Shear Modulus (GPa) = 33.48411 37.85386 35.66899
#
# Velocity S-wave (km/s) = 3.83354 4.07602 3.95664
# Velocity P-wave (km/s) = 6.01851 6.37876 6.20125
#
# Compressibility (1/GPa) = 0.02639535
#
# Stress axis : x y z
#
# Youngs Moduli (GPa) = 95.67464 75.92414 99.54198
#
# Poissons Ratio (x) = 0.18774 -0.06782
# Poissons Ratio (y) = 0.23657 0.18371
# Poissons Ratio (z) = -0.06519 0.14013
#
# Static dielectric constant tensor:
#      x y z
#    x 3.629740 -0.179430 -0.124310 
#    y -0.179430 3.980170 0.042670 
#    z -0.124310 0.042670 4.087310 
# 
# 
# High freq. dielectric constant tensor:
#      x y z
#    x 1.915720 0.000570 -0.001520 
#    y 0.000570 1.906080 0.007490 
#    z -0.001520 0.007490 1.900120 
# 
# From -- ./inp_files/111616.got.cif
#   From: 2010.06.25/outbox.cif.g09.slc.cpg/sg2_56_cif.got.tgz:111616.got - 2010.06.27 13:26:56.
