data_PCOD8021466
_publ_section_title
;
Structure prediction by ZEFSAII (Michael W. Deem and Ramdas Pophale) SiO2 
 PCOD8021466
Probable space group: P -1
;
_chemical_formula_sum "Si O2"
_cell_formula_units_Z 14
_cell_length_a 15.440073
_cell_length_b 15.091487
_cell_length_c 8.896098
_cell_angle_alpha 139.897825
_cell_angle_beta 150.619364
_cell_angle_gamma 39.692802
_cell_volume 619.352171
_symmetry_space_group_name_H-M "P -1"
_symmetry_group_IT_number 2
_symmetry_cell_setting 'triclinic'
loop_
_space_group_symop_operation_xyz
x,y,z
-x,-y,-z
loop_
_atom_site_type_symbol
_atom_site_label
_atom_site_fract_x
_atom_site_fract_y
_atom_site_fract_z
Si Si1 0.580665 0.331618 0.674531
Si Si2 0.180253 0.519668 0.227709
Si Si3 0.807912 0.527494 0.160530
Si Si4 0.753549 0.831117 0.567913
Si Si5 0.149685 0.828552 0.638161
Si Si6 0.562173 0.146288 0.677843
Si Si7 0.896221 0.116338 0.708425
O O1 0.366903 0.386119 0.368975
O O2 0.586943 0.276198 0.783189
O O3 0.690398 0.188596 0.557970
O O4 0.670702 0.460551 0.959292
O O5 0.185182 0.660986 0.508576
O O6 0.162805 0.542651 0.051524
O O7 0.000000 0.500000 0.000000
O O8 0.725258 0.703378 0.254894
O O9 0.000000 0.500000 0.500000
O O10 0.653284 0.827611 0.573481
O O11 0.656114 0.985947 0.537203
O O12 0.970309 0.807948 0.904216
O O13 0.109332 0.852152 0.433800
O O14 0.334596 0.860318 0.013757
O O15 0.976870 0.939709 0.617393
#
# Coordination Sequence:
#
# PCOD8021466 Si02
#       7
#     2   2   2   2   2   2   2
#     4  12  26  44  70 105 137 179 235 277 343 401
#     4  12  29  45  67 101 141 180 225 285 344 407
#     4  12  25  45  72  99 137 178 225 283 343 407
#     4  10  22  45  69 100 139 177 227 275 349 394
#     4  10  22  44  69  95 136 176 226 270 345 393
#     4  10  25  42  72 100 135 181 227 282 329 415
#     4  10  22  43  73  95 131 182 224 282 334 407
#
# _framework density 22.604261999999999
#
# number of rings (size 3 to 8) (size 9 to 14) (size 15 to 20)
#    0.000    1.143    2.857    1.286    8.000    4.571 
#    0.000    1.429    0.000    0.000    0.000    0.000 
#    0.000    0.000    0.000    0.000    0.000    0.000 
#
# Total GULP energy -173505.673340 kJ/mol
# GULP energy per Si atom -12393.262381 kJ/mol
# Density = 2.255281 g / cm^3
# Si number density = 22.604262 Si / 1000 Ang^3
#
#
#
# Elastic Constant Matrix: (Units=GPa)
#
#
# Indices 1 2 3 4 5 6 
#
# 1 73.7409 46.3852 40.1314 2.9100 20.2928 -5.4400
# 2 46.3852 133.0344 56.3272 7.2237 6.7030 -21.4581
# 3 40.1314 56.3272 83.5331 2.8165 7.3742 -9.9087
# 4 2.9100 7.2237 2.8165 43.9362 -9.7328 6.9892
# 5 20.2928 6.7030 7.3742 -9.7328 33.4803 0.3881
# 6 -5.4400 -21.4581 -9.9087 6.9892 0.3881 41.3889
#
#
#
# Elastic Compliance Matrix: (Units=1/GPa)
#
#
# Indices 1 2 3 4 5 6 
#
# 1 0.024051 -0.004512 -0.007286 -0.003224 -0.013004 -0.000256
# 2 -0.004512 0.012268 -0.005555 -0.001922 0.000888 0.004754
# 3 -0.007286 -0.005555 0.019160 0.000372 0.001409 0.000673
# 4 -0.003224 -0.001922 0.000372 0.026418 0.010005 -0.005886
# 5 -0.013004 0.000888 0.001409 0.010005 0.040205 -0.002978
# 6 -0.000256 0.004754 0.000673 -0.005886 -0.002978 0.027775
#
#
# Mechanical properties :
#
#
# Convention : Reuss Voigt Hill
#
# Bulk Modulus (GPa) = 48.13629 63.99953 56.06791
# Shear Modulus (GPa) = 26.10848 33.59206 29.85027
#
# Velocity S-wave (km/s) = 3.40225 3.85917 3.63789
# Velocity P-wave (km/s) = 6.06426 6.94493 6.51948
#
# Compressibility (1/GPa) = 0.02077435
#
# Stress axis : x y z
#
# Youngs Moduli (GPa) = 41.57774 81.51089 52.19144
#
# Poissons Ratio (x) = 0.36779 0.38027
# Poissons Ratio (y) = 0.18760 0.28990
# Poissons Ratio (z) = 0.30294 0.45276
#
# Static dielectric constant tensor:
#      x y z
#    x 3.801330 -0.329190 -0.036770 
#    y -0.329190 5.524500 0.788830 
#    z -0.036770 0.788830 4.397170 
# 
# 
# High freq. dielectric constant tensor:
#      x y z
#    x 1.863330 -0.016690 0.002980 
#    y -0.016690 1.920640 0.004980 
#    z 0.002980 0.004980 1.887140 
# 
# From -- ./inp_files/314430.got.cif
#   From: 2010.06.25/outbox.cif.g09.slc.cpg/sg2_158_cif.got.tgz:314430.got - 2010.06.27 13:26:56.
