data_PCOD8021966
_publ_section_title
;
Structure prediction by ZEFSAII (Michael W. Deem and Ramdas Pophale) SiO2 
 PCOD8021966
Probable space group: P -1
;
_chemical_formula_sum "Si O2"
_cell_formula_units_Z 14
_cell_length_a 8.731822
_cell_length_b 13.342913
_cell_length_c 11.023512
_cell_angle_alpha 120.963165
_cell_angle_beta 113.408307
_cell_angle_gamma 30.389291
_cell_volume 553.908503
_symmetry_space_group_name_H-M "P -1"
_symmetry_group_IT_number 2
_symmetry_cell_setting 'triclinic'
loop_
_space_group_symop_operation_xyz
x,y,z
-x,-y,-z
loop_
_atom_site_type_symbol
_atom_site_label
_atom_site_fract_x
_atom_site_fract_y
_atom_site_fract_z
Si Si1 0.118685 0.806551 0.666005
Si Si2 0.339585 0.674541 0.399805
Si Si3 0.023616 0.662914 0.150048
Si Si4 0.459646 0.111305 0.668497
Si Si5 0.485365 0.800990 0.888278
Si Si6 0.206648 0.438163 0.627277
Si Si7 0.165282 0.206385 0.105805
O O1 0.101415 0.837990 0.534680
O O2 0.344751 0.565579 0.601884
O O3 0.243402 0.850551 0.794469
O O4 0.788028 0.971752 0.719136
O O5 0.195232 0.679501 0.254142
O O6 0.452120 0.733473 0.419120
O O7 0.236180 0.424785 0.094490
O O8 0.702528 0.846775 0.237180
O O9 0.977393 0.701999 0.016877
O O10 0.224793 0.345630 0.692717
O O11 0.500000 0.000000 0.500000
O O12 0.602304 0.818380 0.827327
O O13 0.317069 0.990949 0.044158
O O14 0.000000 0.500000 0.500000
O O15 0.067296 0.641699 0.761644
#
# Coordination Sequence:
#
# PCOD8021966 Si02
#       7
#     2   2   2   2   2   2   2
#     4  10  22  44  71 104 146 185 246 293 365 418
#     4  10  23  44  72 101 145 190 237 303 354 430
#     4  11  24  48  74 107 149 193 243 294 366 433
#     4  12  25  44  73 111 143 188 240 304 363 429
#     4  10  23  44  73 104 143 199 234 298 357 434
#     4  12  27  46  72 108 142 183 248 306 362 434
#     4  11  25  47  74 103 150 193 243 294 373 429
#
# _framework density 25.274933999999998
#
# number of rings (size 3 to 8) (size 9 to 14) (size 15 to 20)
#    0.000    1.143    2.857    2.143    4.000    6.857 
#    0.000    2.143    0.000    0.000    0.000    0.000 
#    0.000    0.000    0.000    0.000    0.000    0.000 
#
# Total GULP energy -173545.676606 kJ/mol
# GULP energy per Si atom -12396.119758 kJ/mol
# Density = 2.521741 g / cm^3
# Si number density = 25.274934 Si / 1000 Ang^3
#
#
#
# Elastic Constant Matrix: (Units=GPa)
#
#
# Indices 1 2 3 4 5 6 
#
# 1 102.5470 38.0287 46.6428 -14.4260 7.1034 -26.1646
# 2 38.0287 87.7454 56.2561 0.9576 6.5711 -29.8884
# 3 46.6428 56.2561 140.1885 0.4946 -5.1077 -12.1555
# 4 -14.4260 0.9576 0.4946 42.8401 0.2438 7.8228
# 5 7.1034 6.5711 -5.1077 0.2438 44.8491 -0.3890
# 6 -26.1646 -29.8884 -12.1555 7.8228 -0.3890 33.1493
#
#
#
# Elastic Compliance Matrix: (Units=1/GPa)
#
#
# Indices 1 2 3 4 5 6 
#
# 1 0.014692 -0.000730 -0.003953 0.003446 -0.002614 0.008644
# 2 -0.000730 0.023225 -0.007605 -0.004029 -0.003971 0.018479
# 3 -0.003953 -0.007605 0.011105 -0.000245 0.002956 -0.005812
# 4 0.003446 -0.004029 -0.000245 0.025896 -0.000186 -0.007116
# 5 -0.002614 -0.003971 0.002956 -0.000186 0.023594 -0.004239
# 6 0.008644 0.018479 -0.005812 -0.007116 -0.004239 0.053149
#
#
# Mechanical properties :
#
#
# Convention : Reuss Voigt Hill
#
# Bulk Modulus (GPa) = 40.90863 68.03735 54.47299
# Shear Modulus (GPa) = 27.11708 36.80459 31.96083
#
# Velocity S-wave (km/s) = 3.27904 3.82012 3.55988
# Velocity P-wave (km/s) = 5.52782 6.81433 6.20451
#
# Compressibility (1/GPa) = 0.02444472
#
# Stress axis : x y z
#
# Youngs Moduli (GPa) = 68.06509 43.05733 90.05093
#
# Poissons Ratio (x) = 0.03145 0.35596
# Poissons Ratio (y) = 0.04972 0.68484
# Poissons Ratio (z) = 0.26906 0.32745
#
# Static dielectric constant tensor:
#      x y z
#    x 4.726660 -0.032740 0.061420 
#    y -0.032740 4.985990 0.247320 
#    z 0.061420 0.247320 4.514230 
# 
# 
# High freq. dielectric constant tensor:
#      x y z
#    x 2.011790 0.000780 0.003670 
#    y 0.000780 2.017420 0.002050 
#    z 0.003670 0.002050 2.013460 
# 
# From -- ./inp_files/184426.got.cif
#   From: 2010.06.25/outbox.cif.g09.slc.cpg/sg2_93_cif.got.tgz:184426.got - 2010.06.27 13:26:56.
