data_PCOD8021069
_publ_section_title
;
Structure prediction by ZEFSAII (Michael W. Deem and Ramdas Pophale) SiO2 
 PCOD8021069
Probable space group: P -1
;
_chemical_formula_sum "Si O2"
_cell_formula_units_Z 16
_cell_length_a 6.716687
_cell_length_b 20.633001
_cell_length_c 9.338166
_cell_angle_alpha 123.577772
_cell_angle_beta 132.943796
_cell_angle_gamma 56.984062
_cell_volume 758.693820
_symmetry_space_group_name_H-M "P -1"
_symmetry_group_IT_number 2
_symmetry_cell_setting 'triclinic'
loop_
_space_group_symop_operation_xyz
x,y,z
-x,-y,-z
loop_
_atom_site_type_symbol
_atom_site_label
_atom_site_fract_x
_atom_site_fract_y
_atom_site_fract_z
Si Si1 0.862315 0.146281 0.151326
Si Si2 0.068285 0.404344 0.557844
Si Si3 0.281783 0.662214 0.189424
Si Si4 0.885162 0.587329 0.732654
Si Si5 0.838263 0.176991 0.848947
Si Si6 0.506290 0.941959 0.562600
Si Si7 0.592683 0.943201 0.109016
Si Si8 0.742496 0.306721 0.455977
O O1 0.768108 0.215540 0.309294
O O2 0.180955 0.094599 0.268556
O O3 0.829156 0.185595 0.025888
O O4 0.667605 0.086155 0.994882
O O5 0.400068 0.394483 0.727811
O O6 0.006495 0.392723 0.345719
O O7 0.897502 0.493158 0.635655
O O8 0.976499 0.337878 0.524481
O O9 0.252426 0.734477 0.152761
O O10 0.195116 0.695393 0.346959
O O11 0.079288 0.608200 0.976737
O O12 0.565420 0.637683 0.666941
O O13 0.619515 0.130684 0.629299
O O14 0.152112 0.133719 0.896900
O O15 0.500000 0.000000 0.500000
O O16 0.316316 0.999841 0.659683
O O17 0.500000 0.000000 0.000000
#
# Coordination Sequence:
#
# PCOD8021069 Si02
#       8
#     2   2   2   2   2   2   2   2
#     4  12  26  45  63  93 132 166 208 264 317 376
#     4  10  22  43  67  94 130 167 208 259 310 374
#     4  11  25  40  64  98 126 166 214 256 313 375
#     4  10  22  43  67  94 129 169 208 255 314 375
#     4  12  26  44  65  92 129 170 208 262 318 375
#     4  12  25  44  68  94 125 166 215 263 318 375
#     4  12  25  44  68  92 125 168 213 263 318 374
#     4  11  25  40  64  97 128 165 212 259 313 374
#
# _framework density 21.088875000000002
#
# number of rings (size 3 to 8) (size 9 to 14) (size 15 to 20)
#    0.000    0.750    2.500    4.500    3.500    6.500 
#    0.000    0.000    0.000    0.000    0.000    0.000 
#    0.000    0.000    0.000    0.000    0.000    0.000 
#
# Total GULP energy -198503.991098 kJ/mol
# GULP energy per Si atom -12406.499444 kJ/mol
# Density = 2.104088 g / cm^3
# Si number density = 21.088875 Si / 1000 Ang^3
#
#
#
# Elastic Constant Matrix: (Units=GPa)
#
#
# Indices 1 2 3 4 5 6 
#
# 1 78.9916 13.4789 34.6787 -3.2305 -10.5586 1.8619
# 2 13.4789 84.2293 11.4430 -4.1031 -12.0900 -7.3887
# 3 34.6787 11.4430 129.1643 2.7991 -12.2317 2.6527
# 4 -3.2305 -4.1031 2.7991 36.0195 -0.2325 -2.1349
# 5 -10.5586 -12.0900 -12.2317 -0.2325 42.1774 -1.4942
# 6 1.8619 -7.3887 2.6527 -2.1349 -1.4942 50.0815
#
#
#
# Elastic Compliance Matrix: (Units=1/GPa)
#
#
# Indices 1 2 3 4 5 6 
#
# 1 0.014902 -0.001538 -0.003677 0.001434 0.002215 -0.000459
# 2 -0.001538 0.012917 -0.000500 0.001521 0.003257 0.002151
# 3 -0.003677 -0.000500 0.008949 -0.001097 0.001511 -0.000413
# 4 0.001434 0.001521 -0.001097 0.028240 0.000684 0.001453
# 5 0.002215 0.003257 0.001511 0.000684 0.025679 0.001113
# 6 -0.000459 0.002151 -0.000413 0.001453 0.001113 0.020419
#
#
# Mechanical properties :
#
#
# Convention : Reuss Voigt Hill
#
# Bulk Modulus (GPa) = 39.46576 45.73181 42.59879
# Shear Modulus (GPa) = 38.17376 41.17466 39.67421
#
# Velocity S-wave (km/s) = 4.25919 4.42343 4.34209
# Velocity P-wave (km/s) = 6.55303 6.91530 6.73660
#
# Compressibility (1/GPa) = 0.02533842
#
# Stress axis : x y z
#
# Youngs Moduli (GPa) = 67.10711 77.41926 111.74687
#
# Poissons Ratio (x) = 0.11904 0.41084
# Poissons Ratio (y) = 0.10318 0.05590
# Poissons Ratio (z) = 0.24672 0.03872
#
# Static dielectric constant tensor:
#      x y z
#    x 3.783470 0.004060 -0.027180 
#    y 0.004060 3.715680 -0.140990 
#    z -0.027180 -0.140990 3.884690 
# 
# 
# High freq. dielectric constant tensor:
#      x y z
#    x 1.832040 -0.003700 -0.005740 
#    y -0.003700 1.839830 -0.000100 
#    z -0.005740 -0.000100 1.840430 
# 
# From -- ./inp_files/47643.got.cif
#   From: 2010.06.25/outbox.cif.g09.slc.cpg/sg2_24_cif.got.tgz:47643.got - 2010.06.27 13:26:56.
