data_PCOD8021883
_publ_section_title
;
Structure prediction by ZEFSAII (Michael W. Deem and Ramdas Pophale) SiO2 
 PCOD8021883
Probable space group: P -1
;
_chemical_formula_sum "Si O2"
_cell_formula_units_Z 12
_cell_length_a 10.517753
_cell_length_b 10.317573
_cell_length_c 13.670872
_cell_angle_alpha 148.006078
_cell_angle_beta 43.405628
_cell_angle_gamma 137.862700
_cell_volume 507.078106
_symmetry_space_group_name_H-M "P -1"
_symmetry_group_IT_number 2
_symmetry_cell_setting 'triclinic'
loop_
_space_group_symop_operation_xyz
x,y,z
-x,-y,-z
loop_
_atom_site_type_symbol
_atom_site_label
_atom_site_fract_x
_atom_site_fract_y
_atom_site_fract_z
Si Si1 0.833412 0.820220 0.409060
Si Si2 0.303611 0.065151 0.637704
Si Si3 0.522893 0.596745 0.938828
Si Si4 0.055553 0.078457 0.129213
Si Si5 0.402019 0.055485 0.228898
Si Si6 0.793885 0.264159 0.037851
O O1 0.787706 0.986411 0.452534
O O2 0.889405 0.578332 0.179308
O O3 0.648485 0.748258 0.542065
O O4 0.000000 0.000000 0.500000
O O5 0.367686 0.375509 0.819154
O O6 0.134902 0.884229 0.689425
O O7 0.500000 0.000000 0.500000
O O8 0.747989 0.662430 0.814325
O O9 0.500000 0.500000 0.000000
O O10 0.473329 0.858758 0.127926
O O11 0.088466 0.838723 0.014328
O O12 0.000000 0.000000 0.000000
O O13 0.571352 0.223615 0.169547
O O14 0.215227 0.887879 0.157367
#
# Coordination Sequence:
#
# PCOD8021883 Si02
#       6
#     2   2   2   2   2   2
#     4  12  26  42  71 108 144 187 240 301 363 431
#     4  12  27  46  70 108 151 186 245 301 364 439
#     4  11  22  44  75  99 141 194 235 296 367 429
#     4  11  25  44  72 105 140 194 241 298 368 428
#     4  10  22  44  69  98 139 185 236 297 357 425
#     4  10  23  44  71 100 137 185 246 293 357 430
#
# _framework density 23.664992999999999
#
# number of rings (size 3 to 8) (size 9 to 14) (size 15 to 20)
#    0.000    1.000    3.333    2.500    4.667    3.333 
#    3.000    0.000    0.000    0.000    0.000    0.000 
#    0.000    0.000    0.000    0.000    0.000    0.000 
#
# Total GULP energy -148766.032423 kJ/mol
# GULP energy per Si atom -12397.169369 kJ/mol
# Density = 2.361113 g / cm^3
# Si number density = 23.664993 Si / 1000 Ang^3
#
#
#
# Elastic Constant Matrix: (Units=GPa)
#
#
# Indices 1 2 3 4 5 6 
#
# 1 167.5369 31.6710 25.1659 -10.5164 13.1609 -8.3803
# 2 31.6710 104.5043 -2.9142 -19.6238 0.2400 10.2449
# 3 25.1659 -2.9142 87.5187 -13.7533 10.4508 -0.3849
# 4 -10.5164 -19.6238 -13.7533 39.4047 -2.7016 0.6558
# 5 13.1609 0.2400 10.4508 -2.7016 39.9064 -2.7299
# 6 -8.3803 10.2449 -0.3849 0.6558 -2.7299 39.5222
#
#
#
# Elastic Compliance Matrix: (Units=1/GPa)
#
#
# Indices 1 2 3 4 5 6 
#
# 1 0.006917 -0.002361 -0.001883 -0.000132 -0.001649 0.001948
# 2 -0.002361 0.011825 0.001962 0.006028 0.000354 -0.003622
# 3 -0.001883 0.001962 0.013103 0.004889 -0.002562 -0.001038
# 4 -0.000132 0.006028 0.004889 0.030127 0.000630 -0.002000
# 5 -0.001649 0.000354 -0.002562 0.000630 0.026406 0.001347
# 6 0.001948 -0.003622 -0.001038 -0.002000 0.001347 0.026771
#
#
# Mechanical properties :
#
#
# Convention : Reuss Voigt Hill
#
# Bulk Modulus (GPa) = 36.65543 51.93394 44.29468
# Shear Modulus (GPa) = 38.81805 44.14248 41.48026
#
# Velocity S-wave (km/s) = 4.05447 4.32361 4.19120
# Velocity P-wave (km/s) = 6.11893 6.84966 6.49458
#
# Compressibility (1/GPa) = 0.02728109
#
# Stress axis : x y z
#
# Youngs Moduli (GPa) = 144.57877 84.56350 76.32101
#
# Poissons Ratio (x) = 0.19963 0.14369
# Poissons Ratio (y) = 0.34131 -0.14972
# Poissons Ratio (z) = 0.27221 -0.16589
#
# Static dielectric constant tensor:
#      x y z
#    x 4.320420 0.300730 0.216130 
#    y 0.300730 4.663950 -0.286760 
#    z 0.216130 -0.286760 4.704480 
# 
# 
# High freq. dielectric constant tensor:
#      x y z
#    x 1.951160 0.009240 0.005810 
#    y 0.009240 1.950800 -0.025780 
#    z 0.005810 -0.025780 1.924620 
# 
# From -- ./inp_files/518343.got.cif
#   From: 2010.06.25/outbox.cif.g09.slc.cpg/sg2_260_cif.got.tgz:518343.got - 2010.06.27 13:26:56.
