data_PCOD8021946
_publ_section_title
;
Structure prediction by ZEFSAII (Michael W. Deem and Ramdas Pophale) SiO2 
 PCOD8021946
Probable space group: P -1
;
_chemical_formula_sum "Si O2"
_cell_formula_units_Z 14
_cell_length_a 11.972931
_cell_length_b 8.491320
_cell_length_c 17.991285
_cell_angle_alpha 129.408124
_cell_angle_beta 32.289385
_cell_angle_gamma 106.953696
_cell_volume 607.463732
_symmetry_space_group_name_H-M "P -1"
_symmetry_group_IT_number 2
_symmetry_cell_setting 'triclinic'
loop_
_space_group_symop_operation_xyz
x,y,z
-x,-y,-z
loop_
_atom_site_type_symbol
_atom_site_label
_atom_site_fract_x
_atom_site_fract_y
_atom_site_fract_z
Si Si1 0.508917 0.054645 0.596176
Si Si2 0.358952 0.451176 0.172934
Si Si3 0.046513 0.457900 0.762059
Si Si4 0.812433 0.614878 0.501040
Si Si5 0.990646 0.831309 0.015576
Si Si6 0.461694 0.799352 0.154010
Si Si7 0.556904 0.432240 0.210931
O O1 0.796034 0.842066 0.402768
O O2 0.500000 0.000000 0.500000
O O3 0.454235 0.321108 0.720233
O O4 0.300557 0.040547 0.754660
O O5 0.287697 0.721850 0.265626
O O6 0.527505 0.342538 0.120616
O O7 0.081662 0.505504 0.358919
O O8 0.525906 0.234614 0.952111
O O9 0.133844 0.500148 0.646427
O O10 0.115884 0.563756 0.823797
O O11 0.740916 0.594716 0.973138
O O12 0.672767 0.511487 0.590092
O O13 0.634655 0.920112 0.688624
O O14 0.166603 0.787799 0.974672
O O15 0.000000 0.000000 0.000000
#
# Coordination Sequence:
#
# PCOD8021946 Si02
#       7
#     2   2   2   2   2   2   2
#     4  12  27  45  69 104 139 180 233 286 343 409
#     4  10  23  42  68  99 140 179 232 282 343 410
#     4  11  23  44  70  96 140 181 231 277 346 412
#     4  11  24  44  68 103 137 185 231 284 341 414
#     4  12  27  46  70 101 139 183 233 281 349 414
#     4  10  22  44  71 100 135 184 229 285 343 413
#     4  12  25  44  69 101 144 179 230 290 347 403
#
# _framework density 23.046644000000001
#
# number of rings (size 3 to 8) (size 9 to 14) (size 15 to 20)
#    0.000    0.857    1.429    5.571    4.000    4.000 
#    0.000    0.000    0.000    0.000    0.000    0.000 
#    0.000    0.000    0.000    0.000    0.000    0.000 
#
# Total GULP energy -173641.899095 kJ/mol
# GULP energy per Si atom -12402.992792 kJ/mol
# Density = 2.299419 g / cm^3
# Si number density = 23.046644 Si / 1000 Ang^3
#
#
#
# Elastic Constant Matrix: (Units=GPa)
#
#
# Indices 1 2 3 4 5 6 
#
# 1 153.7754 1.9242 39.8050 2.6341 -8.3970 -11.4961
# 2 1.9242 76.8451 23.5604 -18.8338 -9.8445 -3.6280
# 3 39.8050 23.5604 79.9125 -7.9311 -1.8762 -1.2156
# 4 2.6341 -18.8338 -7.9311 36.5447 -5.2260 -6.3612
# 5 -8.3970 -9.8445 -1.8762 -5.2260 37.4922 0.0318
# 6 -11.4961 -3.6280 -1.2156 -6.3612 0.0318 27.2185
#
#
#
# Elastic Compliance Matrix: (Units=1/GPa)
#
#
# Indices 1 2 3 4 5 6 
#
# 1 0.007963 0.001590 -0.004317 0.000192 0.002009 0.003425
# 2 0.001590 0.017913 -0.004874 0.009837 0.006183 0.005133
# 3 -0.004317 -0.004874 0.016130 0.000840 -0.001321 -0.001555
# 4 0.000192 0.009837 0.000840 0.035374 0.007591 0.009688
# 5 0.002009 0.006183 -0.001321 0.007591 0.029735 0.003353
# 6 0.003425 0.005133 -0.001555 0.009688 0.003353 0.041061
#
#
# Mechanical properties :
#
#
# Convention : Reuss Voigt Hill
#
# Bulk Modulus (GPa) = 37.30690 49.01248 43.15969
# Shear Modulus (GPa) = 29.01726 36.60065 32.80895
#
# Velocity S-wave (km/s) = 3.55218 3.98944 3.77714
# Velocity P-wave (km/s) = 5.74863 6.52178 6.14737
#
# Compressibility (1/GPa) = 0.02680469
#
# Stress axis : x y z
#
# Youngs Moduli (GPa) = 125.58087 55.82546 61.99754
#
# Poissons Ratio (x) = -0.08878 0.26764
# Poissons Ratio (y) = -0.19971 0.30217
# Poissons Ratio (z) = 0.54213 0.27208
#
# Static dielectric constant tensor:
#      x y z
#    x 4.575150 0.086730 0.119530 
#    y 0.086730 4.079780 -0.100560 
#    z 0.119530 -0.100560 4.211080 
# 
# 
# High freq. dielectric constant tensor:
#      x y z
#    x 1.931120 -0.003880 0.005200 
#    y -0.003880 1.902080 -0.012690 
#    z 0.005200 -0.012690 1.909960 
# 
# From -- ./inp_files/40264.got.cif
#   From: 2010.06.25/outbox.cif.g09.slc.cpg/sg2_21_cif.got.tgz:40264.got - 2010.06.27 13:26:56.
