data_PCOD8021611
_publ_section_title
;
Structure prediction by ZEFSAII (Michael W. Deem and Ramdas Pophale) SiO2 
 PCOD8021611
Probable space group: P -1
;
_chemical_formula_sum "Si O2"
_cell_formula_units_Z 14
_cell_length_a 17.131936
_cell_length_b 24.578768
_cell_length_c 14.126589
_cell_angle_alpha 155.677570
_cell_angle_beta 156.033154
_cell_angle_gamma 16.321799
_cell_volume 647.704714
_symmetry_space_group_name_H-M "P -1"
_symmetry_group_IT_number 2
_symmetry_cell_setting 'triclinic'
loop_
_space_group_symop_operation_xyz
x,y,z
-x,-y,-z
loop_
_atom_site_type_symbol
_atom_site_label
_atom_site_fract_x
_atom_site_fract_y
_atom_site_fract_z
Si Si1 0.325712 0.443108 0.817352
Si Si2 0.140881 0.650305 0.751408
Si Si3 0.406050 0.899439 0.113301
Si Si4 0.105397 0.462002 0.795700
Si Si5 0.673692 0.991368 0.451476
Si Si6 0.237754 0.740364 0.581051
Si Si7 0.753346 0.857628 0.131872
O O1 0.109982 0.591317 0.725556
O O2 0.137213 0.530351 0.842956
O O3 0.497228 0.219073 0.628938
O O4 0.538427 0.458628 0.086473
O O5 0.073854 0.578579 0.483333
O O6 0.914808 0.889138 0.872856
O O7 0.565859 0.738825 0.120768
O O8 0.597768 0.930193 0.353929
O O9 0.369797 0.819759 0.856198
O O10 0.920922 0.632810 0.943260
O O11 0.581887 0.960052 0.203835
O O12 0.026081 0.835432 0.590702
O O13 0.500000 0.500000 0.500000
O O14 0.024372 0.826234 0.388223
O O15 0.500000 0.000000 0.000000
#
# Coordination Sequence:
#
# PCOD8021611 Si02
#       7
#     2   2   2   2   2   2   2
#     4  11  24  43  68  95 130 179 215 281 326 395
#     4  11  24  41  67  97 132 170 226 264 346 388
#     4  12  23  42  68 100 128 183 219 267 334 409
#     4  12  25  40  66 101 134 164 228 276 327 387
#     4  10  23  42  69  92 137 176 218 269 339 386
#     4  10  22  44  65  91 135 178 217 267 332 393
#     4  10  23  43  68  95 133 174 222 276 328 388
#
# _framework density 21.614787
#
# number of rings (size 3 to 8) (size 9 to 14) (size 15 to 20)
#    0.857    0.286    4.286    1.714    2.000    4.000 
#    2.571    0.714    0.000    0.000    0.000    0.000 
#    0.000    0.000    0.000    0.000    0.000    0.000 
#
# Total GULP energy -173467.727068 kJ/mol
# GULP energy per Si atom -12390.551933 kJ/mol
# Density = 2.156559 g / cm^3
# Si number density = 21.614787 Si / 1000 Ang^3
#
#
#
# Elastic Constant Matrix: (Units=GPa)
#
#
# Indices 1 2 3 4 5 6 
#
# 1 36.2789 -3.5746 11.5555 0.5662 -0.6592 1.4435
# 2 -3.5746 78.8999 32.3869 -9.8236 1.8784 7.7213
# 3 11.5555 32.3869 143.6372 2.5656 -4.6053 8.9361
# 4 0.5662 -9.8236 2.5656 40.6369 -0.6041 -7.7139
# 5 -0.6592 1.8784 -4.6053 -0.6041 28.6106 1.6868
# 6 1.4435 7.7213 8.9361 -7.7139 1.6868 27.4716
#
#
#
# Elastic Compliance Matrix: (Units=1/GPa)
#
#
# Indices 1 2 3 4 5 6 
#
# 1 0.028770 0.002605 -0.002821 0.000164 0.000117 -0.001287
# 2 0.002605 0.014904 -0.003538 0.003362 -0.001290 -0.002152
# 3 -0.002821 -0.003538 0.008198 -0.001709 0.001575 -0.002101
# 4 0.000164 0.003362 -0.001709 0.026883 -0.000347 0.007172
# 5 0.000117 -0.001290 0.001575 -0.000347 0.035429 -0.002429
# 6 -0.001287 -0.002152 -0.002101 0.007172 -0.002429 0.039920
#
#
# Mechanical properties :
#
#
# Convention : Reuss Voigt Hill
#
# Bulk Modulus (GPa) = 22.53995 37.72794 30.13395
# Shear Modulus (GPa) = 28.34457 33.90703 31.12580
#
# Velocity S-wave (km/s) = 3.62519 3.96497 3.79888
# Velocity P-wave (km/s) = 5.28898 6.20112 5.76313
#
# Compressibility (1/GPa) = 0.04436567
#
# Stress axis : x y z
#
# Youngs Moduli (GPa) = 34.75815 67.09419 121.97632
#
# Poissons Ratio (x) = -0.17479 0.34410
# Poissons Ratio (y) = -0.09055 0.43152
# Poissons Ratio (z) = 0.09805 0.23736
#
# Static dielectric constant tensor:
#      x y z
#    x 3.586990 -0.088170 -0.036110 
#    y -0.088170 3.970290 -0.024620 
#    z -0.036110 -0.024620 4.122210 
# 
# 
# High freq. dielectric constant tensor:
#      x y z
#    x 1.806230 -0.009280 -0.002870 
#    y -0.009280 1.857720 -0.003080 
#    z -0.002870 -0.003080 1.871980 
# 
# From -- ./inp_files/457780.got.cif
#   From: 2010.06.25/outbox.cif.g09.slc.cpg/sg2_229_cif.got.tgz:457780.got - 2010.06.27 13:26:56.
