data_PCOD8021140
_publ_section_title
;
Structure prediction by ZEFSAII (Michael W. Deem and Ramdas Pophale) SiO2 
 PCOD8021140
Probable space group: P -1
;
_chemical_formula_sum "Si O2"
_cell_formula_units_Z 16
_cell_length_a 8.340815
_cell_length_b 14.623474
_cell_length_c 11.851733
_cell_angle_alpha 105.130427
_cell_angle_beta 127.857774
_cell_angle_gamma 45.026106
_cell_volume 767.829863
_symmetry_space_group_name_H-M "P -1"
_symmetry_group_IT_number 2
_symmetry_cell_setting 'triclinic'
loop_
_space_group_symop_operation_xyz
x,y,z
-x,-y,-z
loop_
_atom_site_type_symbol
_atom_site_label
_atom_site_fract_x
_atom_site_fract_y
_atom_site_fract_z
Si Si1 0.271304 0.028515 0.057079
Si Si2 0.923023 0.222652 0.342113
Si Si3 0.263474 0.808381 0.966673
Si Si4 0.792606 0.617460 0.296250
Si Si5 0.205365 0.650648 0.444103
Si Si6 0.833822 0.042772 0.557610
Si Si7 0.226967 0.314526 0.443413
Si Si8 0.122304 0.116453 0.783312
O O1 0.287368 0.912515 0.996582
O O2 0.597562 0.957382 0.201575
O O3 0.177076 0.125036 0.939979
O O4 0.051550 0.117589 0.094540
O O5 0.747778 0.303676 0.407304
O O6 0.059550 0.273253 0.374484
O O7 0.709544 0.251739 0.162659
O O8 0.172050 0.062177 0.430658
O O9 0.519025 0.686411 0.120131
O O10 0.681719 0.665947 0.392852
O O11 0.939105 0.666819 0.341055
O O12 0.021620 0.454852 0.330361
O O13 0.500000 0.500000 0.500000
O O14 0.147986 0.736760 0.339777
O O15 0.511641 0.193907 0.455600
O O16 0.031206 0.037216 0.727008
O O17 0.000000 0.000000 0.500000
#
# Coordination Sequence:
#
# PCOD8021140 Si02
#       8
#     2   2   2   2   2   2   2   2
#     4  10  23  37  64  93 130 169 209 263 316 379
#     4  11  25  40  64  99 129 164 215 266 323 373
#     4  11  22  41  65  93 130 167 213 261 317 378
#     4  10  22  43  68  90 122 178 219 255 312 388
#     4  11  23  42  67  92 130 169 216 262 319 385
#     4  12  23  37  64  96 132 161 209 270 322 368
#     4  10  24  43  65  93 128 169 221 262 311 382
#     4  11  21  40  62  96 126 170 214 254 321 381
#
# _framework density 20.837949999999999
#
# number of rings (size 3 to 8) (size 9 to 14) (size 15 to 20)
#    0.000    1.250    3.750    1.875    3.500    2.500 
#    0.000    0.625    0.000    0.000    0.000    0.000 
#    0.000    0.000    0.000    0.000    0.000    0.000 
#
# Total GULP energy -198348.175127 kJ/mol
# GULP energy per Si atom -12396.760945 kJ/mol
# Density = 2.079052 g / cm^3
# Si number density = 20.837950 Si / 1000 Ang^3
#
#
#
# Elastic Constant Matrix: (Units=GPa)
#
#
# Indices 1 2 3 4 5 6 
#
# 1 42.0436 22.6002 5.4274 -2.4515 -10.1871 8.5393
# 2 22.6002 127.4790 55.4395 -7.8032 -10.4647 -1.4107
# 3 5.4274 55.4395 103.3796 -13.5793 -14.6702 4.0851
# 4 -2.4515 -7.8032 -13.5793 25.4897 6.3062 4.2986
# 5 -10.1871 -10.4647 -14.6702 6.3062 28.5804 -2.0141
# 6 8.5393 -1.4107 4.0851 4.2986 -2.0141 34.4649
#
#
#
# Elastic Compliance Matrix: (Units=1/GPa)
#
#
# Indices 1 2 3 4 5 6 
#
# 1 0.030703 -0.006215 0.003651 0.001981 0.009543 -0.007984
# 2 -0.006215 0.011559 -0.006180 -0.000615 -0.000824 0.002774
# 3 0.003651 -0.006180 0.014341 0.005415 0.004976 -0.003242
# 4 0.001981 -0.000615 0.005415 0.045115 -0.007202 -0.007206
# 5 0.009543 -0.000824 0.004976 -0.007202 0.042259 0.000380
# 6 -0.007984 0.002774 -0.003242 -0.007206 0.000380 0.032412
#
#
# Mechanical properties :
#
#
# Convention : Reuss Voigt Hill
#
# Bulk Modulus (GPa) = 25.56507 48.87070 37.21789
# Shear Modulus (GPa) = 24.16432 30.33601 27.25016
#
# Velocity S-wave (km/s) = 3.40903 3.81964 3.62016
# Velocity P-wave (km/s) = 5.27167 6.55412 5.94756
#
# Compressibility (1/GPa) = 0.03911586
#
# Stress axis : x y z
#
# Youngs Moduli (GPa) = 32.56962 86.51108 69.72968
#
# Poissons Ratio (x) = 0.53764 -0.25456
# Poissons Ratio (y) = 0.20241 0.43092
# Poissons Ratio (z) = -0.11890 0.53463
#
# Static dielectric constant tensor:
#      x y z
#    x 3.799800 -0.098810 -0.272320 
#    y -0.098810 3.297160 -0.535840 
#    z -0.272320 -0.535840 3.062570 
# 
# 
# High freq. dielectric constant tensor:
#      x y z
#    x 1.825610 0.012980 -0.003240 
#    y 0.012980 1.805120 -0.004600 
#    z -0.003240 -0.004600 1.811700 
# 
# From -- ./inp_files/184128.got.cif
#   From: 2010.06.25/outbox.cif.g09.slc.cpg/sg2_93_cif.got.tgz:184128.got - 2010.06.27 13:26:56.
