data_PCOD8021485
_publ_section_title
;
Structure prediction by ZEFSAII (Michael W. Deem and Ramdas Pophale) SiO2 
 PCOD8021485
Probable space group: P -1
;
_chemical_formula_sum "Si O2"
_cell_formula_units_Z 16
_cell_length_a 14.704907
_cell_length_b 9.390668
_cell_length_c 8.567740
_cell_angle_alpha 83.485553
_cell_angle_beta 131.846174
_cell_angle_gamma 67.254674
_cell_volume 683.799232
_symmetry_space_group_name_H-M "P -1"
_symmetry_group_IT_number 2
_symmetry_cell_setting 'triclinic'
loop_
_space_group_symop_operation_xyz
x,y,z
-x,-y,-z
loop_
_atom_site_type_symbol
_atom_site_label
_atom_site_fract_x
_atom_site_fract_y
_atom_site_fract_z
Si Si1 0.596003 0.660796 0.130617
Si Si2 0.397497 0.633928 0.695296
Si Si3 0.127094 0.484139 0.748022
Si Si4 0.620066 0.339041 0.773612
Si Si5 0.507972 0.870242 0.310520
Si Si6 0.042860 0.857012 0.704907
Si Si7 0.254121 0.196286 0.170588
Si Si8 0.862502 0.003749 0.780616
O O1 0.684650 0.455192 0.331892
O O2 0.707160 0.650365 0.132220
O O3 0.549231 0.819829 0.181282
O O4 0.433125 0.725761 0.857655
O O5 0.569749 0.451687 0.863750
O O6 0.295717 0.782771 0.422545
O O7 0.073463 0.685290 0.679659
O O8 0.000000 0.500000 0.500000
O O9 0.134411 0.398989 0.934997
O O10 0.500000 0.500000 0.500000
O O11 0.577887 0.206761 0.719250
O O12 0.808628 0.211195 0.004167
O O13 0.669787 0.784939 0.594001
O O14 0.382370 0.082005 0.192441
O O15 0.896156 0.947976 0.642990
O O16 0.000000 0.000000 0.500000
O O17 0.162026 0.121068 0.129731
O O18 0.000000 0.000000 0.000000
#
# Coordination Sequence:
#
# PCOD8021485 Si02
#       8
#     2   2   2   2   2   2   2   2
#     4  10  23  44  74 105 138 189 247 305 364 429
#     4  10  22  43  74 108 140 180 252 307 351 436
#     4  12  29  47  72 103 154 198 240 305 378 446
#     4  11  21  43  76 105 142 191 249 299 369 434
#     4  10  24  43  73 103 138 185 238 312 359 434
#     4  12  28  48  77 112 152 193 251 305 372 449
#     4  11  27  48  67 105 147 187 247 300 374 443
#     4  12  28  46  74 106 150 196 245 307 371 444
#
# _framework density 23.398682000000001
#
# number of rings (size 3 to 8) (size 9 to 14) (size 15 to 20)
#    0.000    1.000    1.250    3.750   14.000    2.000 
#    0.000    0.000    0.000    0.000    0.000    0.000 
#    0.000    0.000    0.000    0.000    0.000    0.000 
#
# Total GULP energy -198232.906706 kJ/mol
# GULP energy per Si atom -12389.556669 kJ/mol
# Density = 2.334543 g / cm^3
# Si number density = 23.398682 Si / 1000 Ang^3
#
#
#
# Elastic Constant Matrix: (Units=GPa)
#
#
# Indices 1 2 3 4 5 6 
#
# 1 110.6561 36.9480 31.1720 -7.3495 -5.9177 7.7812
# 2 36.9480 115.3215 45.5478 11.8757 0.9767 6.3792
# 3 31.1720 45.5478 130.6180 -3.9815 -3.0600 24.4040
# 4 -7.3495 11.8757 -3.9815 44.9893 12.0606 -0.4028
# 5 -5.9177 0.9767 -3.0600 12.0606 36.7030 -3.2473
# 6 7.7812 6.3792 24.4040 -0.4028 -3.2473 39.7594
#
#
#
# Elastic Compliance Matrix: (Units=1/GPa)
#
#
# Indices 1 2 3 4 5 6 
#
# 1 0.010676 -0.003129 -0.001231 0.002210 0.000911 -0.000735
# 2 -0.003129 0.011411 -0.003517 -0.003896 0.000260 0.000922
# 3 -0.001231 -0.003517 0.010246 0.001661 -0.000282 -0.005490
# 4 0.002210 -0.003896 0.001661 0.025903 -0.008021 -0.001219
# 5 0.000911 0.000260 -0.000282 -0.008021 0.030205 0.002339
# 6 -0.000735 0.000922 -0.005490 -0.001219 0.002339 0.028695
#
#
# Mechanical properties :
#
#
# Convention : Reuss Voigt Hill
#
# Bulk Modulus (GPa) = 60.31846 64.88124 62.59985
# Shear Modulus (GPa) = 36.12287 40.48554 38.30420
#
# Velocity S-wave (km/s) = 3.93338 4.16414 4.05040
# Velocity P-wave (km/s) = 6.81639 7.13504 6.97754
#
# Compressibility (1/GPa) = 0.01657867
#
# Stress axis : x y z
#
# Youngs Moduli (GPa) = 93.67128 87.63340 97.60050
#
# Poissons Ratio (x) = 0.27421 0.12010
# Poissons Ratio (y) = 0.29310 0.34330
# Poissons Ratio (z) = 0.11527 0.30824
#
# Static dielectric constant tensor:
#      x y z
#    x 4.743270 -0.223650 -0.198250 
#    y -0.223650 4.668700 0.054170 
#    z -0.198250 0.054170 4.043510 
# 
# 
# High freq. dielectric constant tensor:
#      x y z
#    x 1.928020 -0.005330 -0.009870 
#    y -0.005330 1.940010 0.007920 
#    z -0.009870 0.007920 1.923890 
# 
# From -- ./inp_files/298383.got.cif
#   From: 2010.06.25/outbox.cif.g09.slc.cpg/sg2_150_cif.got.tgz:298383.got - 2010.06.27 13:26:56.
