data_PCOD8021092
_publ_section_title
;
Structure prediction by ZEFSAII (Michael W. Deem and Ramdas Pophale) SiO2 
 PCOD8021092
Probable space group: P -1
;
_chemical_formula_sum "Si O2"
_cell_formula_units_Z 10
_cell_length_a 7.669695
_cell_length_b 8.864890
_cell_length_c 11.686582
_cell_angle_alpha 58.574712
_cell_angle_beta 143.185276
_cell_angle_gamma 127.711409
_cell_volume 375.830558
_symmetry_space_group_name_H-M "P -1"
_symmetry_group_IT_number 2
_symmetry_cell_setting 'triclinic'
loop_
_space_group_symop_operation_xyz
x,y,z
-x,-y,-z
loop_
_atom_site_type_symbol
_atom_site_label
_atom_site_fract_x
_atom_site_fract_y
_atom_site_fract_z
Si Si1 0.534276 0.434619 0.891953
Si Si2 0.288898 0.175320 0.258058
Si Si3 0.842513 0.241658 0.687945
Si Si4 0.562227 0.761982 0.319125
Si Si5 0.871064 0.175987 0.251322
O O1 0.711743 0.665369 0.898170
O O2 0.523472 0.384101 0.772460
O O3 0.802462 0.619635 0.204635
O O4 0.729109 0.337502 0.104005
O O5 0.637847 0.240389 0.468610
O O6 0.033729 0.151064 0.230870
O O7 0.192172 0.975613 0.220124
O O8 0.711854 0.318047 0.698872
O O9 0.891519 0.768277 0.539538
O O10 0.593198 0.971259 0.210285
#
# Coordination Sequence:
#
# PCOD8021092 Si02
#       5
#     2   2   2   2   2
#     4  12  23  44  72  95 130 178 221 267 328 394
#     4  10  22  43  67  96 138 170 213 282 325 380
#     4  10  23  43  66  98 135 172 217 273 331 386
#     4  10  23  44  70  93 136 176 214 272 334 385
#     4  10  22  43  67  99 131 174 218 272 327 390
#
# _framework density 26.607735000000002
#
# number of rings (size 3 to 8) (size 9 to 14) (size 15 to 20)
#    0.000    1.600    2.000    1.800    2.800    4.000 
#    3.600    1.000    0.000    0.000    0.000    0.000 
#    0.000    0.000    0.000    0.000    0.000    0.000 
#
# Total GULP energy -124090.666551 kJ/mol
# GULP energy per Si atom -12409.066655 kJ/mol
# Density = 2.654718 g / cm^3
# Si number density = 26.607735 Si / 1000 Ang^3
#
#
#
# Elastic Constant Matrix: (Units=GPa)
#
#
# Indices 1 2 3 4 5 6 
#
# 1 110.6591 2.5578 10.3194 4.8522 -9.5915 -2.6757
# 2 2.5578 86.3063 1.7047 -19.0861 -12.4716 5.9213
# 3 10.3194 1.7047 44.5485 -18.4286 4.9738 2.7036
# 4 4.8522 -19.0861 -18.4286 33.1449 -3.0962 -5.5316
# 5 -9.5915 -12.4716 4.9738 -3.0962 33.2039 -0.0093
# 6 -2.6757 5.9213 2.7036 -5.5316 -0.0093 30.2377
#
#
#
# Elastic Compliance Matrix: (Units=1/GPa)
#
#
# Indices 1 2 3 4 5 6 
#
# 1 0.009874 -0.000678 -0.004188 -0.003781 0.002873 0.000690
# 2 -0.000678 0.014909 0.003556 0.010998 0.005896 -0.001284
# 3 -0.004188 0.003556 0.031926 0.020111 -0.002781 -0.000243
# 4 -0.003781 0.010998 0.020111 0.049468 0.004640 0.004764
# 5 0.002873 0.005896 -0.002781 0.004640 0.034011 0.000208
# 6 0.000690 -0.001284 -0.000243 0.004764 0.000208 0.034277
#
#
# Mechanical properties :
#
#
# Convention : Reuss Voigt Hill
#
# Bulk Modulus (GPa) = 18.48837 30.07528 24.28182
# Shear Modulus (GPa) = 25.62570 34.44610 30.03590
#
# Velocity S-wave (km/s) = 3.10674 3.60194 3.36347
# Velocity P-wave (km/s) = 4.45339 5.35037 4.92235
#
# Compressibility (1/GPa) = 0.05408806
#
# Stress axis : x y z
#
# Youngs Moduli (GPa) = 101.27105 67.07454 31.32201
#
# Poissons Ratio (x) = 0.04550 0.13118
# Poissons Ratio (y) = 0.06870 -0.11138
# Poissons Ratio (z) = 0.42415 -0.23850
#
# Static dielectric constant tensor:
#      x y z
#    x 4.759920 0.036100 0.074760 
#    y 0.036100 4.862640 -0.238330 
#    z 0.074760 -0.238330 5.037400 
# 
# 
# High freq. dielectric constant tensor:
#      x y z
#    x 2.075260 0.002600 0.001590 
#    y 0.002600 2.073950 -0.007380 
#    z 0.001590 -0.007380 2.073750 
# 
# From -- ./inp_files/160620.got.cif
#   From: 2010.06.25/outbox.cif.g09.slc.cpg/sg2_81_cif.got.tgz:160620.got - 2010.06.27 13:26:56.
