data_PCOD8021849
_publ_section_title
;
Structure prediction by ZEFSAII (Michael W. Deem and Ramdas Pophale) SiO2 
 PCOD8021849
Probable space group: P -1
;
_chemical_formula_sum "Si O2"
_cell_formula_units_Z 16
_cell_length_a 16.585083
_cell_length_b 6.903748
_cell_length_c 9.369533
_cell_angle_alpha 73.469872
_cell_angle_beta 133.219739
_cell_angle_gamma 103.401446
_cell_volume 748.428463
_symmetry_space_group_name_H-M "P -1"
_symmetry_group_IT_number 2
_symmetry_cell_setting 'triclinic'
loop_
_space_group_symop_operation_xyz
x,y,z
-x,-y,-z
loop_
_atom_site_type_symbol
_atom_site_label
_atom_site_fract_x
_atom_site_fract_y
_atom_site_fract_z
Si Si1 0.478281 0.123763 0.805306
Si Si2 0.637164 0.937771 0.835427
Si Si3 0.770677 0.950565 0.520024
Si Si4 0.515357 0.551298 0.675234
Si Si5 0.295104 0.751235 0.391077
Si Si6 0.837730 0.015120 0.271332
Si Si7 0.984515 0.663078 0.567081
Si Si8 0.106599 0.431850 0.224523
O O1 0.349616 0.162706 0.620465
O O2 0.540361 0.347048 0.835445
O O3 0.520013 0.003595 0.742845
O O4 0.500000 0.000000 0.000000
O O5 0.619182 0.710997 0.797105
O O6 0.679271 0.082373 0.731527
O O7 0.724774 0.958809 0.064184
O O8 0.813915 0.034455 0.404979
O O9 0.856811 0.794616 0.722575
O O10 0.761049 0.146002 0.564468
O O11 0.500000 0.500000 0.500000
O O12 0.406191 0.643335 0.589549
O O13 0.205998 0.583418 0.262320
O O14 0.917645 0.835720 0.372765
O O15 0.899094 0.230420 0.255473
O O16 0.000000 0.500000 0.500000
O O17 0.915803 0.558967 0.635208
O O18 0.000000 0.500000 0.000000
#
# Coordination Sequence:
#
# PCOD8021849 Si02
#       8
#     2   2   2   2   2   2   2   2
#     4  12  24  44  67 101 142 178 225 284 339 413
#     4  12  25  41  69 103 135 184 231 272 348 414
#     4  11  23  43  67  95 139 175 220 285 348 403
#     4  12  25  44  68  98 142 186 230 281 342 418
#     4  12  24  41  70  97 134 183 225 279 350 406
#     4  10  23  43  65  98 133 173 225 284 339 411
#     4  10  22  44  69  92 134 175 221 283 350 397
#     4  11  25  43  67  99 131 173 233 284 339 408
#
# _framework density 21.378129999999999
#
# number of rings (size 3 to 8) (size 9 to 14) (size 15 to 20)
#    0.000    0.750    5.000    2.625    0.000    3.000 
#    4.500    0.000    0.000    0.000    0.000    0.000 
#    0.000    0.000    0.000    0.000    0.000    0.000 
#
# Total GULP energy -198415.182018 kJ/mol
# GULP energy per Si atom -12400.948876 kJ/mol
# Density = 2.132947 g / cm^3
# Si number density = 21.378130 Si / 1000 Ang^3
#
#
#
# Elastic Constant Matrix: (Units=GPa)
#
#
# Indices 1 2 3 4 5 6 
#
# 1 96.7210 46.5553 19.6910 -2.0661 -3.3178 -6.4005
# 2 46.5553 138.0285 46.8212 -4.5330 -11.6234 3.0977
# 3 19.6910 46.8212 89.4280 -11.2457 7.2025 -1.8266
# 4 -2.0661 -4.5330 -11.2457 28.4432 3.9989 -2.2732
# 5 -3.3178 -11.6234 7.2025 3.9989 35.4645 0.3006
# 6 -6.4005 3.0977 -1.8266 -2.2732 0.3006 53.2954
#
#
#
# Elastic Compliance Matrix: (Units=1/GPa)
#
#
# Indices 1 2 3 4 5 6 
#
# 1 0.012531 -0.004077 -0.000558 0.000190 -0.000087 0.001731
# 2 -0.004077 0.010774 -0.005302 -0.001404 0.004396 -0.001382
# 3 -0.000558 -0.005302 0.015312 0.006039 -0.005589 0.001055
# 4 0.000190 -0.001404 0.006039 0.038338 -0.006008 0.001981
# 5 -0.000087 0.004396 -0.005589 -0.006008 0.031450 -0.000891
# 6 0.001731 -0.001382 0.001055 0.001981 -0.000891 0.019177
#
#
# Mechanical properties :
#
#
# Convention : Reuss Voigt Hill
#
# Bulk Modulus (GPa) = 53.35558 61.14584 57.25071
# Shear Modulus (GPa) = 32.53010 37.51461 35.02236
#
# Velocity S-wave (km/s) = 3.90507 4.19359 4.05190
# Velocity P-wave (km/s) = 6.73387 7.21889 6.98059
#
# Compressibility (1/GPa) = 0.01874218
#
# Stress axis : x y z
#
# Youngs Moduli (GPa) = 79.80373 92.81960 65.30812
#
# Poissons Ratio (x) = 0.37842 0.03646
# Poissons Ratio (y) = 0.32536 0.34625
# Poissons Ratio (z) = 0.04455 0.49211
#
# Static dielectric constant tensor:
#      x y z
#    x 4.354530 -0.105630 0.069410 
#    y -0.105630 4.207700 -0.027390 
#    z 0.069410 -0.027390 3.645730 
# 
# 
# High freq. dielectric constant tensor:
#      x y z
#    x 1.857820 0.004250 0.002120 
#    y 0.004250 1.850990 -0.004590 
#    z 0.002120 -0.004590 1.818320 
# 
# From -- ./inp_files/46225.got.cif
#   From: 2010.06.25/outbox.cif.g09.slc.cpg/sg2_24_cif.got.tgz:46225.got - 2010.06.27 13:26:56.
