data_PCOD8021246
_publ_section_title
;
Structure prediction by ZEFSAII (Michael W. Deem and Ramdas Pophale) SiO2 
 PCOD8021246
Probable space group: P -1
;
_chemical_formula_sum "Si O2"
_cell_formula_units_Z 16
_cell_length_a 11.993051
_cell_length_b 15.724429
_cell_length_c 15.463122
_cell_angle_alpha 35.127610
_cell_angle_beta 152.035245
_cell_angle_gamma 126.180239
_cell_volume 686.162484
_symmetry_space_group_name_H-M "P -1"
_symmetry_group_IT_number 2
_symmetry_cell_setting 'triclinic'
loop_
_space_group_symop_operation_xyz
x,y,z
-x,-y,-z
loop_
_atom_site_type_symbol
_atom_site_label
_atom_site_fract_x
_atom_site_fract_y
_atom_site_fract_z
Si Si1 0.108885 0.351681 0.764894
Si Si2 0.537880 0.436847 0.311684
Si Si3 0.610286 0.193765 0.136099
Si Si4 0.066991 0.698966 0.046826
Si Si5 0.388570 0.376438 0.434314
Si Si6 0.920828 0.063732 0.621074
Si Si7 0.398214 0.299063 0.171300
Si Si8 0.491892 0.975618 0.116402
O O1 0.000000 0.500000 0.500000
O O2 0.864306 0.313665 0.651964
O O3 0.366922 0.195308 0.026369
O O4 0.214124 0.410042 0.872591
O O5 0.379911 0.381949 0.318589
O O6 0.463627 0.416651 0.179680
O O7 0.461257 0.632805 0.106710
O O8 0.854351 0.150304 0.407946
O O9 0.661474 0.054297 0.214314
O O10 0.127054 0.548909 0.144837
O O11 0.329834 0.624452 0.351214
O O12 0.784607 0.762612 0.851195
O O13 0.026907 0.867653 0.832724
O O14 0.372397 0.218556 0.596011
O O15 0.672390 0.139721 0.455736
O O16 0.165615 0.076072 0.827517
O O17 0.500000 0.000000 0.000000
#
# Coordination Sequence:
#
# PCOD8021246 Si02
#       8
#     2   2   2   2   2   2   2   2
#     4   9  20  39  63  95 139 173 216 272 330 389
#     4  11  23  40  68 103 134 176 224 273 331 406
#     4  10  24  41  66  98 137 175 220 275 337 387
#     4  10  22  43  69  93 137 174 224 276 332 394
#     4  10  24  44  68  99 131 180 226 270 332 403
#     4  10  24  45  66 101 132 172 226 275 331 400
#     4  11  22  40  69 101 132 175 220 277 338 388
#     4  11  26  46  69  95 135 180 219 276 333 398
#
# _framework density 23.318092
#
# number of rings (size 3 to 8) (size 9 to 14) (size 15 to 20)
#    0.000    1.750    1.250    1.125    7.000    8.500 
#    0.000    1.875    0.000    0.000    0.000    0.000 
#    0.000    0.000    0.000    0.000    0.000    0.000 
#
# Total GULP energy -198286.404523 kJ/mol
# GULP energy per Si atom -12392.900283 kJ/mol
# Density = 2.326502 g / cm^3
# Si number density = 23.318092 Si / 1000 Ang^3
#
#
#
# Elastic Constant Matrix: (Units=GPa)
#
#
# Indices 1 2 3 4 5 6 
#
# 1 117.6622 29.4961 27.8615 -10.3923 -15.6592 -11.1040
# 2 29.4961 107.5441 25.2405 -3.6384 -13.3388 -16.7676
# 3 27.8615 25.2405 77.5196 -2.9564 -9.0947 -3.7860
# 4 -10.3923 -3.6384 -2.9564 35.7354 0.1644 -6.4874
# 5 -15.6592 -13.3388 -9.0947 0.1644 31.2815 3.5598
# 6 -11.1040 -16.7676 -3.7860 -6.4874 3.5598 37.8336
#
#
#
# Elastic Compliance Matrix: (Units=1/GPa)
#
#
# Indices 1 2 3 4 5 6 
#
# 1 0.010440 -0.001310 -0.002667 0.003103 0.003601 0.002410
# 2 -0.001310 0.011358 -0.002621 0.001333 0.002924 0.004340
# 3 -0.002667 -0.002621 0.014913 0.000069 0.001954 -0.000624
# 4 0.003103 0.001333 0.000069 0.030215 0.001235 0.006573
# 5 0.003601 0.002924 0.001954 0.001235 0.035647 -0.000594
# 6 0.002410 0.004340 -0.000624 0.006573 -0.000594 0.030183
#
#
# Mechanical properties :
#
#
# Convention : Reuss Voigt Hill
#
# Bulk Modulus (GPa) = 42.52816 51.99136 47.25976
# Shear Modulus (GPa) = 32.51202 35.64530 34.07866
#
# Velocity S-wave (km/s) = 3.73806 3.91404 3.82706
# Velocity P-wave (km/s) = 6.07525 6.53998 6.31189
#
# Compressibility (1/GPa) = 0.02351383
#
# Stress axis : x y z
#
# Youngs Moduli (GPa) = 95.78927 88.04745 67.05380
#
# Poissons Ratio (x) = 0.11534 0.17884
# Poissons Ratio (y) = 0.12548 0.17577
# Poissons Ratio (z) = 0.25548 0.23080
#
# Static dielectric constant tensor:
#      x y z
#    x 4.399920 0.027060 0.499270 
#    y 0.027060 4.014130 0.497180 
#    z 0.499270 0.497180 4.759770 
# 
# 
# High freq. dielectric constant tensor:
#      x y z
#    x 1.927040 -0.006360 0.006630 
#    y -0.006360 1.903520 0.021770 
#    z 0.006630 0.021770 1.926950 
# 
# From -- ./inp_files/522306.got.cif
#   From: 2010.06.25/outbox.cif.g09.slc.cpg/sg2_262_cif.got.tgz:522306.got - 2010.06.27 13:26:56.
