data_PCOD8021497
_publ_section_title
;
Structure prediction by ZEFSAII (Michael W. Deem and Ramdas Pophale) SiO2 
 PCOD8021497
Probable space group: P -1
;
_chemical_formula_sum "Si O2"
_cell_formula_units_Z 16
_cell_length_a 11.530787
_cell_length_b 9.424836
_cell_length_c 15.354627
_cell_angle_alpha 27.956577
_cell_angle_beta 69.115103
_cell_angle_gamma 78.910391
_cell_volume 701.692648
_symmetry_space_group_name_H-M "P -1"
_symmetry_group_IT_number 2
_symmetry_cell_setting 'triclinic'
loop_
_space_group_symop_operation_xyz
x,y,z
-x,-y,-z
loop_
_atom_site_type_symbol
_atom_site_label
_atom_site_fract_x
_atom_site_fract_y
_atom_site_fract_z
Si Si1 0.863359 0.568799 0.996632
Si Si2 0.707092 0.294188 0.352094
Si Si3 0.234738 0.464365 0.610257
Si Si4 0.501635 0.574647 0.217528
Si Si5 0.467434 0.936128 0.192424
Si Si6 0.272615 0.811120 0.924081
Si Si7 0.972365 0.277009 0.545491
Si Si8 0.230938 0.333830 0.346589
O O1 0.879446 0.935801 0.778166
O O2 0.807185 0.481952 0.153597
O O3 0.765444 0.365001 0.061605
O O4 0.000000 0.500000 0.000000
O O5 0.724364 0.508336 0.316231
O O6 0.560977 0.276524 0.368484
O O7 0.731399 0.960073 0.548477
O O8 0.341160 0.697515 0.394724
O O9 0.100641 0.554491 0.593313
O O10 0.212138 0.104931 0.780894
O O11 0.536322 0.772756 0.190016
O O12 0.346706 0.480159 0.303011
O O13 0.566165 0.774372 0.005979
O O14 0.571529 0.063692 0.173140
O O15 0.212996 0.570498 0.148467
O O16 0.000000 0.500000 0.500000
O O17 0.101484 0.229636 0.493828
#
# Coordination Sequence:
#
# PCOD8021497 Si02
#       8
#     2   2   2   2   2   2   2   2
#     4  12  27  48  71 102 146 186 236 298 365 418
#     4  12  26  44  72 110 141 190 239 296 361 427
#     4  12  26  44  77 107 144 191 245 289 358 432
#     4  10  22  43  75 109 145 186 238 298 355 426
#     4  10  22  45  73 109 148 184 240 299 354 416
#     4  11  26  46  72 103 143 193 233 301 354 425
#     4  12  27  48  75 103 142 193 242 296 359 437
#     4  11  26  45  70 104 150 186 240 299 361 411
#
# _framework density 22.802007
#
# number of rings (size 3 to 8) (size 9 to 14) (size 15 to 20)
#    0.000    0.750    2.500    3.750    5.250    2.500 
#    0.000    3.125    0.000    0.000    0.000    0.000 
#    0.000    0.000    0.000    0.000    0.000    0.000 
#
# Total GULP energy -198402.163387 kJ/mol
# GULP energy per Si atom -12400.135212 kJ/mol
# Density = 2.275011 g / cm^3
# Si number density = 22.802007 Si / 1000 Ang^3
#
#
#
# Elastic Constant Matrix: (Units=GPa)
#
#
# Indices 1 2 3 4 5 6 
#
# 1 118.7770 36.8054 50.1011 -0.3386 17.6702 -5.1102
# 2 36.8054 92.6059 52.4941 -8.2583 5.5026 11.6856
# 3 50.1011 52.4941 131.6804 -11.4243 3.1408 1.2813
# 4 -0.3386 -8.2583 -11.4243 44.2678 -4.0976 1.3998
# 5 17.6702 5.5026 3.1408 -4.0976 30.5442 -6.1882
# 6 -5.1102 11.6856 1.2813 1.3998 -6.1882 31.6897
#
#
#
# Elastic Compliance Matrix: (Units=1/GPa)
#
#
# Indices 1 2 3 4 5 6 
#
# 1 0.011638 -0.002805 -0.003357 -0.001894 -0.005729 0.002012
# 2 -0.002805 0.015819 -0.004987 0.001681 -0.001808 -0.006511
# 3 -0.003357 -0.004987 0.010972 0.002044 0.002229 0.001199
# 4 -0.001894 0.001681 0.002044 0.023783 0.003495 -0.001376
# 5 -0.005729 -0.001808 0.002229 0.003495 0.038021 0.006923
# 6 0.002012 -0.006511 0.001199 -0.001376 0.006923 0.035646
#
#
# Mechanical properties :
#
#
# Convention : Reuss Voigt Hill
#
# Bulk Modulus (GPa) = 61.99062 69.09604 65.54333
# Shear Modulus (GPa) = 30.57114 34.87786 32.72450
#
# Velocity S-wave (km/s) = 3.66556 3.91525 3.79246
# Velocity P-wave (km/s) = 6.72016 7.12792 6.92704
#
# Compressibility (1/GPa) = 0.01613147
#
# Stress axis : x y z
#
# Youngs Moduli (GPa) = 85.92803 63.21554 91.14244
#
# Poissons Ratio (x) = 0.17730 0.30597
# Poissons Ratio (y) = 0.24100 0.45450
# Poissons Ratio (z) = 0.28846 0.31524
#
# Static dielectric constant tensor:
#      x y z
#    x 4.461560 -0.050420 0.166390 
#    y -0.050420 4.092490 -0.136070 
#    z 0.166390 -0.136070 4.232050 
# 
# 
# High freq. dielectric constant tensor:
#      x y z
#    x 1.913210 0.002070 0.014380 
#    y 0.002070 1.897920 -0.005660 
#    z 0.014380 -0.005660 1.908970 
# 
# From -- ./inp_files/514803.got.cif
#   From: 2010.06.25/outbox.cif.g09.slc.cpg/sg2_258_cif.got.tgz:514803.got - 2010.06.27 13:26:56.
