data_PCOD8021199
_publ_section_title
;
Structure prediction by ZEFSAII (Michael W. Deem and Ramdas Pophale) SiO2 
 PCOD8021199
Probable space group: P -1
;
_chemical_formula_sum "Si O2"
_cell_formula_units_Z 16
_cell_length_a 14.246508
_cell_length_b 11.343747
_cell_length_c 20.374942
_cell_angle_alpha 29.428840
_cell_angle_beta 152.217987
_cell_angle_gamma 147.658252
_cell_volume 713.312778
_symmetry_space_group_name_H-M "P -1"
_symmetry_group_IT_number 2
_symmetry_cell_setting 'triclinic'
loop_
_space_group_symop_operation_xyz
x,y,z
-x,-y,-z
loop_
_atom_site_type_symbol
_atom_site_label
_atom_site_fract_x
_atom_site_fract_y
_atom_site_fract_z
Si Si1 0.499224 0.334013 0.351337
Si Si2 0.087071 0.301320 0.184365
Si Si3 0.224447 0.785207 0.660152
Si Si4 0.089319 0.278321 0.342400
Si Si5 0.365741 0.684782 0.927605
Si Si6 0.579081 0.840262 0.752093
Si Si7 0.811595 0.376304 0.641164
Si Si8 0.343315 0.123793 0.875610
O O1 0.258754 0.277603 0.251345
O O2 0.479796 0.142838 0.370308
O O3 0.619672 0.320223 0.498804
O O4 0.620852 0.609365 0.264768
O O5 0.177788 0.387249 0.272305
O O6 0.903592 0.031240 0.209368
O O7 0.000000 0.500000 0.000000
O O8 0.390998 0.762364 0.829697
O O9 0.353815 0.823827 0.654312
O O10 0.032915 0.516878 0.673328
O O11 0.125105 0.007699 0.506417
O O12 0.214895 0.469582 0.384715
O O13 0.839138 0.249013 0.203499
O O14 0.335825 0.390975 0.065680
O O15 0.586408 0.849288 0.017744
O O16 0.776097 0.083606 0.780699
O O17 0.500000 0.000000 0.000000
#
# Coordination Sequence:
#
# PCOD8021199 Si02
#       8
#     2   2   2   2   2   2   2   2
#     4  11  25  42  64  96 135 173 227 271 326 397
#     4  12  23  39  66  99 133 171 216 271 334 390
#     4  11  25  43  70  98 134 176 222 271 337 392
#     4  11  24  42  68 104 130 169 226 274 327 409
#     4  10  22  43  68  98 136 169 223 276 328 398
#     4  11  25  45  63  98 134 176 231 270 318 407
#     4  11  25  43  69  93 136 178 214 278 339 383
#     4  11  21  39  67  97 134 174 215 276 332 385
#
# _framework density 22.430551000000001
#
# number of rings (size 3 to 8) (size 9 to 14) (size 15 to 20)
#    0.000    1.000    2.500    4.500    1.750    7.500 
#    0.000    0.000    0.000    0.000    0.000    0.000 
#    0.000    0.000    0.000    0.000    0.000    0.000 
#
# Total GULP energy -198300.390208 kJ/mol
# GULP energy per Si atom -12393.774388 kJ/mol
# Density = 2.237950 g / cm^3
# Si number density = 22.430551 Si / 1000 Ang^3
#
#
#
# Elastic Constant Matrix: (Units=GPa)
#
#
# Indices 1 2 3 4 5 6 
#
# 1 159.0393 68.9481 36.0179 7.6259 -4.5921 -3.3164
# 2 68.9481 149.1949 35.6618 -5.2303 -1.9864 -3.2613
# 3 36.0179 35.6618 91.0555 9.0621 -9.0772 -15.4757
# 4 7.6259 -5.2303 9.0621 17.8788 -2.9233 -2.4284
# 5 -4.5921 -1.9864 -9.0772 -2.9233 38.0281 6.6586
# 6 -3.3164 -3.2613 -15.4757 -2.4284 6.6586 36.7952
#
#
#
# Elastic Compliance Matrix: (Units=1/GPa)
#
#
# Indices 1 2 3 4 5 6 
#
# 1 0.008412 -0.003656 -0.001574 -0.003892 0.000243 -0.000529
# 2 -0.003656 0.009250 -0.002800 0.005622 -0.000144 -0.000290
# 3 -0.001574 -0.002800 0.014352 -0.006473 0.001733 0.004906
# 4 -0.003892 0.005622 -0.006473 0.063143 0.002947 0.001059
# 5 0.000243 -0.000144 0.001733 0.002947 0.027672 -0.004075
# 6 -0.000529 -0.000290 0.004906 0.001059 -0.004075 0.029975
#
#
# Mechanical properties :
#
#
# Convention : Reuss Voigt Hill
#
# Bulk Modulus (GPa) = 62.67681 75.61614 69.14647
# Shear Modulus (GPa) = 28.70572 35.78455 32.24514
#
# Velocity S-wave (km/s) = 3.58125 3.99851 3.79562
# Velocity P-wave (km/s) = 6.71593 7.42307 7.07834
#
# Compressibility (1/GPa) = 0.01595487
#
# Stress axis : x y z
#
# Youngs Moduli (GPa) = 118.88179 108.10542 69.67623
#
# Poissons Ratio (x) = 0.39522 0.10966
# Poissons Ratio (y) = 0.43462 0.19508
# Poissons Ratio (z) = 0.18710 0.30268
#
# Static dielectric constant tensor:
#      x y z
#    x 4.211010 -0.267340 -0.289340 
#    y -0.267340 4.443980 -0.058390 
#    z -0.289340 -0.058390 3.939650 
# 
# 
# High freq. dielectric constant tensor:
#      x y z
#    x 1.889110 -0.009090 -0.016200 
#    y -0.009090 1.885640 -0.007410 
#    z -0.016200 -0.007410 1.896200 
# 
# From -- ./inp_files/597814.got.cif
#   From: 2010.06.25/outbox.cif.g09.slc.cpg/sg2_299_cif.got.tgz:597814.got - 2010.06.27 13:26:56.
