data_PCOD8021947
_publ_section_title
;
Structure prediction by ZEFSAII (Michael W. Deem and Ramdas Pophale) SiO2 
 PCOD8021947
Probable space group: P -1
;
_chemical_formula_sum "Si O2"
_cell_formula_units_Z 14
_cell_length_a 14.079882
_cell_length_b 11.011240
_cell_length_c 6.953167
_cell_angle_alpha 120.978518
_cell_angle_beta 137.974581
_cell_angle_gamma 58.477200
_cell_volume 599.918097
_symmetry_space_group_name_H-M "P -1"
_symmetry_group_IT_number 2
_symmetry_cell_setting 'triclinic'
loop_
_space_group_symop_operation_xyz
x,y,z
-x,-y,-z
loop_
_atom_site_type_symbol
_atom_site_label
_atom_site_fract_x
_atom_site_fract_y
_atom_site_fract_z
Si Si1 0.891978 0.764480 0.314634
Si Si2 0.672638 0.433369 0.226212
Si Si3 0.856802 0.056595 0.708365
Si Si4 0.679948 0.833028 0.734192
Si Si5 0.111932 0.659420 0.227536
Si Si6 0.641658 0.141605 0.787098
Si Si7 0.127070 0.372357 0.424414
O O1 0.920545 0.659163 0.458218
O O2 0.032981 0.721373 0.357797
O O3 0.856793 0.935579 0.450434
O O4 0.750422 0.752459 0.968569
O O5 0.731849 0.441426 0.543036
O O6 0.766961 0.518317 0.307275
O O7 0.500000 0.500000 0.000000
O O8 0.713136 0.264601 0.083023
O O9 0.859496 0.210137 0.747198
O O10 0.712870 0.082271 0.643604
O O11 0.000000 0.000000 0.000000
O O12 0.529378 0.786261 0.444499
O O13 0.784568 0.777904 0.663349
O O14 0.658546 0.007930 0.854103
O O15 0.018468 0.568684 0.883238
#
# Coordination Sequence:
#
# PCOD8021947 Si02
#       7
#     2   2   2   2   2   2   2
#     4  11  22  42  73 102 133 176 228 283 346 402
#     4  12  26  46  69  97 143 186 227 278 338 404
#     4  12  21  41  71 105 135 169 230 289 338 403
#     4  10  22  44  71 100 136 179 225 287 346 402
#     4  11  25  43  71 100 139 183 224 282 344 401
#     4  11  23  43  69 101 140 178 229 284 342 403
#     4  11  23  47  69 100 139 177 227 281 340 415
#
# _framework density 23.336521000000001
#
# number of rings (size 3 to 8) (size 9 to 14) (size 15 to 20)
#    0.000    0.857    4.286    3.429    0.000    2.286 
#    5.143    1.429    0.000    0.000    0.000    0.000 
#    0.000    0.000    0.000    0.000    0.000    0.000 
#
# Total GULP energy -173589.502378 kJ/mol
# GULP energy per Si atom -12399.250170 kJ/mol
# Density = 2.328341 g / cm^3
# Si number density = 23.336521 Si / 1000 Ang^3
#
#
#
# Elastic Constant Matrix: (Units=GPa)
#
#
# Indices 1 2 3 4 5 6 
#
# 1 101.5012 10.6246 54.4681 -19.4786 -2.5408 10.8699
# 2 10.6246 56.0129 44.9806 -3.3308 8.7851 12.0461
# 3 54.4681 44.9806 152.4142 -19.3824 13.2193 1.6635
# 4 -19.4786 -3.3308 -19.3824 59.2064 -0.0626 2.8389
# 5 -2.5408 8.7851 13.2193 -0.0626 37.4278 2.8107
# 6 10.8699 12.0461 1.6635 2.8389 2.8107 33.6317
#
#
#
# Elastic Compliance Matrix: (Units=1/GPa)
#
#
# Indices 1 2 3 4 5 6 
#
# 1 0.013810 0.002818 -0.005533 0.003166 0.002663 -0.005689
# 2 0.002818 0.026682 -0.008561 0.000096 -0.002307 -0.009859
# 3 -0.005533 -0.008561 0.011408 0.001218 -0.002725 0.004415
# 4 0.003166 0.000096 0.001218 0.018464 -0.000006 -0.002676
# 5 0.002663 -0.002307 -0.002725 -0.000006 0.028575 -0.002287
# 6 -0.005689 -0.009859 0.004415 -0.002676 -0.002287 0.035303
#
#
# Mechanical properties :
#
#
# Convention : Reuss Voigt Hill
#
# Bulk Modulus (GPa) = 34.07592 58.89720 46.48656
# Shear Modulus (GPa) = 30.01635 39.37684 34.69659
#
# Velocity S-wave (km/s) = 3.59031 4.11219 3.86008
# Velocity P-wave (km/s) = 5.64099 6.91663 6.31112
#
# Compressibility (1/GPa) = 0.02934624
#
# Stress axis : x y z
#
# Youngs Moduli (GPa) = 72.41252 37.47907 87.65708
#
# Poissons Ratio (x) = -0.10561 0.48501
# Poissons Ratio (y) = -0.20405 0.75047
# Poissons Ratio (z) = 0.40066 0.32087
#
# Static dielectric constant tensor:
#      x y z
#    x 4.379640 -0.589260 -0.495720 
#    y -0.589260 5.029850 0.675120 
#    z -0.495720 0.675120 5.242320 
# 
# 
# High freq. dielectric constant tensor:
#      x y z
#    x 1.909520 0.001620 0.007800 
#    y 0.001620 1.941700 0.002320 
#    z 0.007800 0.002320 1.934610 
# 
# From -- ./inp_files/72082.got.cif
#   From: 2010.06.25/outbox.cif.g09.slc.cpg/sg2_37_cif.got.tgz:72082.got - 2010.06.27 13:26:56.
