data_PCOD8021955
_publ_section_title
;
Structure prediction by ZEFSAII (Michael W. Deem and Ramdas Pophale) SiO2 
 PCOD8021955
Probable space group: P -1
;
_chemical_formula_sum "Si O2"
_cell_formula_units_Z 14
_cell_length_a 6.844341
_cell_length_b 11.643582
_cell_length_c 12.385898
_cell_angle_alpha 37.265113
_cell_angle_beta 107.027031
_cell_angle_gamma 116.374224
_cell_volume 532.096709
_symmetry_space_group_name_H-M "P -1"
_symmetry_group_IT_number 2
_symmetry_cell_setting 'triclinic'
loop_
_space_group_symop_operation_xyz
x,y,z
-x,-y,-z
loop_
_atom_site_type_symbol
_atom_site_label
_atom_site_fract_x
_atom_site_fract_y
_atom_site_fract_z
Si Si1 0.468287 0.840860 0.981551
Si Si2 0.658450 0.813840 0.585275
Si Si3 0.182084 0.732978 0.662691
Si Si4 0.248094 0.729784 0.240538
Si Si5 0.780633 0.684562 0.488031
Si Si6 0.853615 0.794473 0.186708
Si Si7 0.698606 0.480234 0.980824
O O1 0.604697 0.080308 0.802941
O O2 0.275780 0.814012 0.058043
O O3 0.616930 0.720141 0.147368
O O4 0.380816 0.734256 0.934789
O O5 0.413472 0.756109 0.630256
O O6 0.645055 0.760805 0.495370
O O7 0.783858 0.677743 0.767735
O O8 0.804644 0.049687 0.450066
O O9 0.996406 0.667364 0.591720
O O10 0.126283 0.553319 0.880885
O O11 0.341147 0.546799 0.404915
O O12 0.990808 0.647768 0.296228
O O13 0.835354 0.833291 0.282818
O O14 0.000000 0.000000 0.000000
O O15 0.500000 0.500000 0.000000
#
# Coordination Sequence:
#
# PCOD8021955 Si02
#       7
#     2   2   2   2   2   2   2
#     4  10  22  46  64  99 140 176 235 277 341 419
#     4  10  23  45  66 104 137 189 231 277 354 407
#     4  10  25  44  71 101 143 180 228 298 335 412
#     4  10  23  41  68  98 133 185 221 283 346 402
#     4  12  24  44  67 106 136 176 241 278 352 418
#     4  10  25  42  64  97 133 180 221 288 343 401
#     4  10  22  44  71 101 133 188 228 278 348 401
#
# _framework density 26.311005000000002
#
# number of rings (size 3 to 8) (size 9 to 14) (size 15 to 20)
#    0.000    1.714    1.429    0.857    4.000   12.571 
#    5.143    0.000    0.000    0.000    0.000    0.000 
#    0.000    0.000    0.000    0.000    0.000    0.000 
#
# Total GULP energy -173542.017658 kJ/mol
# GULP energy per Si atom -12395.858404 kJ/mol
# Density = 2.625112 g / cm^3
# Si number density = 26.311005 Si / 1000 Ang^3
#
#
#
# Elastic Constant Matrix: (Units=GPa)
#
#
# Indices 1 2 3 4 5 6 
#
# 1 63.7699 18.1423 22.0267 6.8824 10.5527 -18.3853
# 2 18.1423 97.4268 36.5272 -9.1492 1.2424 -33.6868
# 3 22.0267 36.5272 145.9479 6.8152 2.1593 -11.7916
# 4 6.8824 -9.1492 6.8152 48.2747 -3.3255 7.9172
# 5 10.5527 1.2424 2.1593 -3.3255 37.6426 6.3340
# 6 -18.3853 -33.6868 -11.7916 7.9172 6.3340 37.5699
#
#
#
# Elastic Compliance Matrix: (Units=1/GPa)
#
#
# Indices 1 2 3 4 5 6 
#
# 1 0.022164 0.001013 -0.002095 -0.005546 -0.008934 0.013772
# 2 0.001013 0.016371 -0.003067 0.000796 -0.003027 0.014555
# 3 -0.002095 -0.003067 0.007898 -0.001196 0.000314 -0.001097
# 4 -0.005546 0.000796 -0.001196 0.023515 0.005052 -0.008183
# 5 -0.008934 -0.003027 0.000314 0.005052 0.031857 -0.013423
# 6 0.013772 0.014555 -0.001097 -0.008183 -0.013423 0.050051
#
#
# Mechanical properties :
#
#
# Convention : Reuss Voigt Hill
#
# Bulk Modulus (GPa) = 26.22119 51.17078 38.69599
# Shear Modulus (GPa) = 28.92418 40.06064 34.49241
#
# Velocity S-wave (km/s) = 3.31919 3.90626 3.62463
# Velocity P-wave (km/s) = 4.96759 6.31156 5.67947
#
# Compressibility (1/GPa) = 0.03813709
#
# Stress axis : x y z
#
# Youngs Moduli (GPa) = 45.11734 61.08298 126.61456
#
# Poissons Ratio (x) = -0.06188 0.26523
# Poissons Ratio (y) = -0.04571 0.38828
# Poissons Ratio (z) = 0.09451 0.18732
#
# Static dielectric constant tensor:
#      x y z
#    x 6.004310 -0.408640 0.263690 
#    y -0.408640 4.615840 -0.249050 
#    z 0.263690 -0.249050 5.392300 
# 
# 
# High freq. dielectric constant tensor:
#      x y z
#    x 2.075640 -0.022630 0.005750 
#    y -0.022630 2.036350 -0.000470 
#    z 0.005750 -0.000470 2.062250 
# 
# From -- ./inp_files/388892.got.cif
#   From: 2010.06.25/outbox.cif.g09.slc.cpg/sg2_195_cif.got.tgz:388892.got - 2010.06.27 13:26:56.
