data_PCOD8021505
_publ_section_title
;
Structure prediction by ZEFSAII (Michael W. Deem and Ramdas Pophale) SiO2 
 PCOD8021505
Probable space group: P -1
;
_chemical_formula_sum "Si O2"
_cell_formula_units_Z 16
_cell_length_a 15.141069
_cell_length_b 15.443264
_cell_length_c 8.848747
_cell_angle_alpha 94.478090
_cell_angle_beta 66.182281
_cell_angle_gamma 151.696922
_cell_volume 689.821872
_symmetry_space_group_name_H-M "P -1"
_symmetry_group_IT_number 2
_symmetry_cell_setting 'triclinic'
loop_
_space_group_symop_operation_xyz
x,y,z
-x,-y,-z
loop_
_atom_site_type_symbol
_atom_site_label
_atom_site_fract_x
_atom_site_fract_y
_atom_site_fract_z
Si Si1 0.482611 0.767001 0.908073
Si Si2 0.092125 0.855616 0.097702
Si Si3 0.600177 0.977102 0.327818
Si Si4 0.269062 0.755379 0.925201
Si Si5 0.022362 0.719683 0.646840
Si Si6 0.789805 0.757152 0.405045
Si Si7 0.069470 0.946058 0.535954
Si Si8 0.940941 0.576862 0.354544
O O1 0.459734 0.832671 0.826753
O O2 0.630671 0.919485 0.977050
O O3 0.652131 0.836128 0.712734
O O4 0.199453 0.495104 0.111238
O O5 0.976641 0.855828 0.181503
O O6 0.890630 0.618279 0.284838
O O7 0.172716 0.897169 0.878691
O O8 0.315593 0.696936 0.500701
O O9 0.581752 0.049729 0.255051
O O10 0.700696 0.078198 0.442512
O O11 0.000000 0.500000 0.000000
O O12 0.189202 0.730033 0.139630
O O13 0.988343 0.794485 0.666048
O O14 0.008498 0.663360 0.487040
O O15 0.500000 0.500000 0.500000
O O16 0.832971 0.764775 0.552379
O O17 0.884741 0.936922 0.361040
#
# Coordination Sequence:
#
# PCOD8021505 Si02
#       8
#     2   2   2   2   2   2   2   2
#     4  11  23  46  69  93 148 180 228 284 343 401
#     4  10  23  48  68  99 137 183 225 281 350 408
#     4  11  26  43  71 101 142 181 234 280 337 406
#     4  11  26  45  66 105 139 188 234 281 337 401
#     4  12  24  43  71 102 136 186 225 283 342 398
#     4  10  22  43  76  98 132 179 229 278 350 415
#     4  10  25  45  68 102 136 182 223 283 351 408
#     4  11  25  45  68  99 140 180 236 277 337 408
#
# _framework density 23.194391
#
# number of rings (size 3 to 8) (size 9 to 14) (size 15 to 20)
#    0.000    1.250    5.000    0.000    5.250    4.000 
#    0.000    7.500    0.000    0.000    0.000    0.000 
#    0.000    0.000    0.000    0.000    0.000    0.000 
#
# Total GULP energy -198380.033944 kJ/mol
# GULP energy per Si atom -12398.752122 kJ/mol
# Density = 2.314160 g / cm^3
# Si number density = 23.194391 Si / 1000 Ang^3
#
#
#
# Elastic Constant Matrix: (Units=GPa)
#
#
# Indices 1 2 3 4 5 6 
#
# 1 125.1965 62.4915 47.6794 -1.7085 -6.1593 -5.3823
# 2 62.4915 126.8605 40.8932 -19.4345 -1.0753 -3.4124
# 3 47.6794 40.8932 81.0716 -1.3668 10.1366 -7.4821
# 4 -1.7085 -19.4345 -1.3668 27.6212 -12.2995 -0.8362
# 5 -6.1593 -1.0753 10.1366 -12.2995 36.3567 -1.1823
# 6 -5.3823 -3.4124 -7.4821 -0.8362 -1.1823 42.7866
#
#
#
# Elastic Compliance Matrix: (Units=1/GPa)
#
#
# Indices 1 2 3 4 5 6 
#
# 1 0.012473 -0.004577 -0.005400 -0.001355 0.003035 0.000317
# 2 -0.004577 0.013240 -0.004361 0.010820 0.004494 0.000053
# 3 -0.005400 -0.004361 0.018822 -0.006107 -0.008295 0.001916
# 4 -0.001355 0.010820 -0.006107 0.052136 0.019469 0.001182
# 5 0.003035 0.004494 -0.008295 0.019469 0.037074 0.000695
# 6 0.000317 0.000053 0.001916 0.001182 0.000695 0.023793
#
#
# Mechanical properties :
#
#
# Convention : Reuss Voigt Hill
#
# Bulk Modulus (GPa) = 63.05871 70.58408 66.82140
# Shear Modulus (GPa) = 26.10955 33.49052 29.80004
#
# Velocity S-wave (km/s) = 3.35876 3.80400 3.58829
# Velocity P-wave (km/s) = 6.50291 7.05631 6.78525
#
# Compressibility (1/GPa) = 0.01585824
#
# Stress axis : x y z
#
# Youngs Moduli (GPa) = 80.17361 75.52782 53.13063
#
# Poissons Ratio (x) = 0.34567 0.28691
# Poissons Ratio (y) = 0.36694 0.23172
# Poissons Ratio (z) = 0.43294 0.32941
#
# Static dielectric constant tensor:
#      x y z
#    x 4.536290 0.011590 -0.089650 
#    y 0.011590 4.527560 0.083470 
#    z -0.089650 0.083470 4.162480 
# 
# 
# High freq. dielectric constant tensor:
#      x y z
#    x 1.914740 -0.005450 -0.003870 
#    y -0.005450 1.936490 0.007180 
#    z -0.003870 0.007180 1.914570 
# 
# From -- ./inp_files/315254.got.cif
#   From: 2010.06.25/outbox.cif.g09.slc.cpg/sg2_158_cif.got.tgz:315254.got - 2010.06.27 13:26:56.
