data_PCOD8021133
_publ_section_title
;
Structure prediction by ZEFSAII (Michael W. Deem and Ramdas Pophale) SiO2 
 PCOD8021133
Probable space group: P -1
;
_chemical_formula_sum "Si O2"
_cell_formula_units_Z 14
_cell_length_a 9.239689
_cell_length_b 8.725102
_cell_length_c 14.160479
_cell_angle_alpha 51.971682
_cell_angle_beta 49.704715
_cell_angle_gamma 49.284932
_cell_volume 621.616340
_symmetry_space_group_name_H-M "P -1"
_symmetry_group_IT_number 2
_symmetry_cell_setting 'triclinic'
loop_
_space_group_symop_operation_xyz
x,y,z
-x,-y,-z
loop_
_atom_site_type_symbol
_atom_site_label
_atom_site_fract_x
_atom_site_fract_y
_atom_site_fract_z
Si Si1 0.464806 0.323054 0.525497
Si Si2 0.001599 0.572806 0.264460
Si Si3 0.399304 0.854124 0.645321
Si Si4 0.447033 0.916279 0.149886
Si Si5 0.074898 0.934113 0.194294
Si Si6 0.897682 0.667618 0.062995
Si Si7 0.646798 0.870192 0.699408
O O1 0.500000 0.500000 0.500000
O O2 0.234214 0.334330 0.632997
O O3 0.510322 0.352555 0.384374
O O4 0.637564 0.092843 0.577468
O O5 0.020297 0.575523 0.142524
O O6 0.109902 0.719111 0.204603
O O7 0.126657 0.326054 0.338082
O O8 0.476944 0.807323 0.739105
O O9 0.500000 0.000000 0.500000
O O10 0.150977 0.961084 0.702188
O O11 0.243728 0.870580 0.233047
O O12 0.656264 0.703549 0.168718
O O13 0.404058 0.095982 0.180774
O O14 0.500000 0.000000 0.000000
O O15 0.097602 0.105349 0.048335
O O16 0.000000 0.500000 0.000000
#
# Coordination Sequence:
#
# PCOD8021133 Si02
#       7
#     2   2   2   2   2   2   2
#     4  11  26  46  72  98 143 182 238 291 344 413
#     4  12  24  45  69 104 137 189 230 291 352 411
#     4  10  22  48  68 100 140 182 232 290 342 412
#     4  10  22  43  68 104 140 178 233 286 342 420
#     4  11  23  42  73 100 144 183 234 287 349 407
#     4  11  24  44  70 101 144 184 230 293 351 417
#     4  11  24  45  70 100 142 176 238 282 349 416
#
# _framework density 22.521932
#
# number of rings (size 3 to 8) (size 9 to 14) (size 15 to 20)
#    0.000    1.143    4.286    2.143    4.000    4.571 
#    2.571    4.286    0.000    0.000    0.000    0.000 
#    0.000    0.000    0.000    0.000    0.000    0.000 
#
# Total GULP energy -173520.316487 kJ/mol
# GULP energy per Si atom -12394.308321 kJ/mol
# Density = 2.247067 g / cm^3
# Si number density = 22.521932 Si / 1000 Ang^3
#
#
#
# Elastic Constant Matrix: (Units=GPa)
#
#
# Indices 1 2 3 4 5 6 
#
# 1 188.7751 82.8719 60.9314 22.1076 5.9139 20.4103
# 2 82.8719 153.6337 39.4580 7.7227 6.0913 5.8527
# 3 60.9314 39.4580 74.5466 19.3419 0.4720 4.6635
# 4 22.1076 7.7227 19.3419 40.8036 7.0550 5.2172
# 5 5.9139 6.0913 0.4720 7.0550 41.3697 15.2945
# 6 20.4103 5.8527 4.6635 5.2172 15.2945 48.9037
#
#
#
# Elastic Compliance Matrix: (Units=1/GPa)
#
#
# Indices 1 2 3 4 5 6 
#
# 1 0.008798 -0.003339 -0.004839 -0.001583 0.000606 -0.002831
# 2 -0.003339 0.008871 -0.002367 0.001379 -0.001344 0.000831
# 3 -0.004839 -0.002367 0.020387 -0.006974 0.001797 0.000541
# 4 -0.001583 0.001379 -0.006974 0.029288 -0.004710 -0.000490
# 5 0.000606 -0.001344 0.001797 -0.004710 0.028244 -0.008594
# 6 -0.002831 0.000831 0.000541 -0.000490 -0.008594 0.024219
#
#
# Mechanical properties :
#
#
# Convention : Reuss Voigt Hill
#
# Bulk Modulus (GPa) = 58.94793 87.05311 73.00052
# Shear Modulus (GPa) = 34.11773 41.79502 37.95638
#
# Velocity S-wave (km/s) = 3.89635 4.31251 4.10970
# Velocity P-wave (km/s) = 6.81707 7.97079 7.41640
#
# Compressibility (1/GPa) = 0.01696412
#
# Stress axis : x y z
#
# Youngs Moduli (GPa) = 113.66399 112.73303 49.05096
#
# Poissons Ratio (x) = 0.37646 0.23737
# Poissons Ratio (y) = 0.37956 0.11610
# Poissons Ratio (z) = 0.55006 0.26683
#
# Static dielectric constant tensor:
#      x y z
#    x 5.179550 0.243080 0.243120 
#    y 0.243080 4.697500 0.567360 
#    z 0.243120 0.567360 4.365190 
# 
# 
# High freq. dielectric constant tensor:
#      x y z
#    x 1.908430 0.007250 0.010770 
#    y 0.007250 1.892150 0.020270 
#    z 0.010770 0.020270 1.869380 
# 
# From -- ./inp_files/356548.got.cif
#   From: 2010.06.25/outbox.cif.g09.slc.cpg/sg2_179_cif.got.tgz:356548.got - 2010.06.27 13:26:56.
