data_PCOD8021793
_publ_section_title
;
Structure prediction by ZEFSAII (Michael W. Deem and Ramdas Pophale) SiO2 
 PCOD8021793
Probable space group: P -1
;
_chemical_formula_sum "Si O2"
_cell_formula_units_Z 16
_cell_length_a 9.777270
_cell_length_b 21.619184
_cell_length_c 14.979325
_cell_angle_alpha 20.147938
_cell_angle_beta 65.695983
_cell_angle_gamma 53.334963
_cell_volume 736.676055
_symmetry_space_group_name_H-M "P -1"
_symmetry_group_IT_number 2
_symmetry_cell_setting 'triclinic'
loop_
_space_group_symop_operation_xyz
x,y,z
-x,-y,-z
loop_
_atom_site_type_symbol
_atom_site_label
_atom_site_fract_x
_atom_site_fract_y
_atom_site_fract_z
Si Si1 0.133597 0.428599 0.145801
Si Si2 0.939123 0.858249 0.744006
Si Si3 0.556412 0.911328 0.206682
Si Si4 0.084668 0.229740 0.590593
Si Si5 0.274424 0.744841 0.134450
Si Si6 0.335452 0.372014 0.751773
Si Si7 0.275215 0.611619 0.119060
Si Si8 0.458783 0.701512 0.798933
O O1 0.165850 0.235541 0.465145
O O2 0.347754 0.333458 0.184927
O O3 0.000000 0.500000 0.000000
O O4 0.007533 0.671402 0.903816
O O5 0.695260 0.048001 0.555960
O O6 0.000000 0.000000 0.500000
O O7 0.057596 0.721307 0.989667
O O8 0.772049 0.827017 0.288620
O O9 0.571947 0.682473 0.523403
O O10 0.500000 0.000000 0.000000
O O11 0.388767 0.134455 0.016008
O O12 0.859400 0.485291 0.324537
O O13 0.095661 0.004753 0.878039
O O14 0.287920 0.544822 0.450439
O O15 0.480173 0.695737 0.148814
O O16 0.223676 0.736178 0.059070
O O17 0.371761 0.696916 0.921517
O O18 0.500000 0.500000 0.000000
#
# Coordination Sequence:
#
# PCOD8021793 Si02
#       8
#     2   2   2   2   2   2   2   2
#     4  12  27  44  65 105 142 177 233 285 340 416
#     4  10  22  44  68  94 136 176 233 279 338 408
#     4  11  22  45  70 101 138 170 231 289 336 416
#     4  11  25  44  65  97 139 178 225 277 352 404
#     4  10  23  43  67  96 134 173 229 275 339 422
#     4  10  23  45  68  94 136 178 217 284 344 404
#     4  11  22  44  70 103 133 182 233 282 351 403
#     4  11  23  44  71  98 138 184 225 283 344 405
#
# _framework density 21.719179
#
# number of rings (size 3 to 8) (size 9 to 14) (size 15 to 20)
#    0.000    1.250    5.000    0.375    5.250    4.000 
#    0.000    0.000    0.000    0.000    0.000    0.000 
#    0.000    0.000    0.000    0.000    0.000    0.000 
#
# Total GULP energy -198330.354142 kJ/mol
# GULP energy per Si atom -12395.647134 kJ/mol
# Density = 2.166975 g / cm^3
# Si number density = 21.719179 Si / 1000 Ang^3
#
#
#
# Elastic Constant Matrix: (Units=GPa)
#
#
# Indices 1 2 3 4 5 6 
#
# 1 130.0823 62.9404 43.3290 5.0772 24.3938 14.1469
# 2 62.9404 102.3064 40.2809 -6.3449 15.2687 15.5322
# 3 43.3290 40.2809 119.3284 -10.7984 19.0291 7.5406
# 4 5.0772 -6.3449 -10.7984 44.0043 3.7966 5.1402
# 5 24.3938 15.2687 19.0291 3.7966 34.3579 -0.1491
# 6 14.1469 15.5322 7.5406 5.1402 -0.1491 45.8926
#
#
#
# Elastic Compliance Matrix: (Units=1/GPa)
#
#
# Indices 1 2 3 4 5 6 
#
# 1 0.012375 -0.006146 -0.001768 -0.002189 -0.004839 -0.001215
# 2 -0.006146 0.015340 -0.002232 0.002888 -0.001550 -0.003259
# 3 -0.001768 -0.002232 0.010737 0.002959 -0.004030 -0.000808
# 4 -0.002189 0.002888 0.002959 0.024896 -0.004135 -0.003591
# 5 -0.004839 -0.001550 -0.004030 -0.004135 0.035933 0.003258
# 6 -0.001215 -0.003259 -0.000808 -0.003591 0.003258 0.023813
#
#
# Mechanical properties :
#
#
# Convention : Reuss Voigt Hill
#
# Bulk Modulus (GPa) = 55.06897 71.64642 63.35769
# Shear Modulus (GPa) = 33.45797 38.52874 35.99335
#
# Velocity S-wave (km/s) = 3.92915 4.21640 4.07531
# Velocity P-wave (km/s) = 6.78191 7.53414 7.16790
#
# Compressibility (1/GPa) = 0.01815905
#
# Stress axis : x y z
#
# Youngs Moduli (GPa) = 80.80578 65.18952 93.13337
#
# Poissons Ratio (x) = 0.40068 0.16470
# Poissons Ratio (y) = 0.49666 0.20787
# Poissons Ratio (z) = 0.14290 0.14550
#
# Static dielectric constant tensor:
#      x y z
#    x 4.368550 -0.449090 -0.229550 
#    y -0.449090 4.387610 0.551540 
#    z -0.229550 0.551540 5.282480 
# 
# 
# High freq. dielectric constant tensor:
#      x y z
#    x 1.848410 0.010880 0.002040 
#    y 0.010880 1.842300 -0.006530 
#    z 0.002040 -0.006530 1.880690 
# 
# From -- ./inp_files/508059.got.cif
#   From: 2010.06.25/outbox.cif.g09.slc.cpg/sg2_255_cif.got.tgz:508059.got - 2010.06.27 13:26:56.
