data_PCOD8021597
_publ_section_title
;
Structure prediction by ZEFSAII (Michael W. Deem and Ramdas Pophale) SiO2 
 PCOD8021597
Probable space group: P -1
;
_chemical_formula_sum "Si O2"
_cell_formula_units_Z 12
_cell_length_a 12.589096
_cell_length_b 8.807504
_cell_length_c 11.566665
_cell_angle_alpha 139.596750
_cell_angle_beta 42.514784
_cell_angle_gamma 117.453074
_cell_volume 546.832097
_symmetry_space_group_name_H-M "P -1"
_symmetry_group_IT_number 2
_symmetry_cell_setting 'triclinic'
loop_
_space_group_symop_operation_xyz
x,y,z
-x,-y,-z
loop_
_atom_site_type_symbol
_atom_site_label
_atom_site_fract_x
_atom_site_fract_y
_atom_site_fract_z
Si Si1 0.142780 0.012013 0.806877
Si Si2 0.551177 0.801377 0.698855
Si Si3 0.062283 0.693130 0.487979
Si Si4 0.237675 0.487645 0.012310
Si Si5 0.761783 0.033643 0.816253
Si Si6 0.544395 0.316284 0.533721
O O1 0.137918 0.289508 0.943021
O O2 0.127505 0.877773 0.622489
O O3 0.308421 0.896047 0.671416
O O4 0.000000 0.000000 0.000000
O O5 0.607446 0.546269 0.572045
O O6 0.557734 0.771371 0.538161
O O7 0.675283 0.962074 0.728887
O O8 0.366661 0.928285 0.953951
O O9 0.000000 0.500000 0.500000
O O10 0.208538 0.557003 0.210527
O O11 0.916175 0.828374 0.603675
O O12 0.428536 0.384633 0.777338
O O13 0.178874 0.722637 0.115193
#
# Coordination Sequence:
#
# PCOD8021597 Si02
#       6
#     2   2   2   2   2   2
#     4  12  25  44  67  97 135 174 215 272 333 387
#     4   9  20  40  73  90 132 178 211 274 326 381
#     4  12  25  44  67  97 135 174 215 272 333 387
#     4  11  26  44  65 102 128 178 221 268 328 379
#     4  10  22  44  65 101 130 170 227 263 325 394
#     4  10  22  44  65 101 130 170 227 263 325 394
#
# _framework density 21.944578
#
# number of rings (size 3 to 8) (size 9 to 14) (size 15 to 20)
#    0.000    1.333    1.667    3.000    2.333    1.333 
#    0.000    0.000    0.000    0.000    0.000    0.000 
#    0.000    0.000    0.000    0.000    0.000    0.000 
#
# Total GULP energy -148852.549114 kJ/mol
# GULP energy per Si atom -12404.379093 kJ/mol
# Density = 2.189463 g / cm^3
# Si number density = 21.944578 Si / 1000 Ang^3
#
#
#
# Elastic Constant Matrix: (Units=GPa)
#
#
# Indices 1 2 3 4 5 6 
#
# 1 107.5951 60.2765 65.5213 1.2361 15.1280 7.0466
# 2 60.2765 142.7041 64.1420 8.9513 0.4172 11.8618
# 3 65.5213 64.1420 139.8319 -6.1712 16.3425 -7.0030
# 4 1.2361 8.9513 -6.1712 36.1107 -1.1453 12.5729
# 5 15.1280 0.4172 16.3425 -1.1453 42.9819 9.5703
# 6 7.0466 11.8618 -7.0030 12.5729 9.5703 24.5196
#
#
#
# Elastic Compliance Matrix: (Units=1/GPa)
#
#
# Indices 1 2 3 4 5 6 
#
# 1 0.015172 -0.003834 -0.005187 0.000609 -0.002582 -0.003291
# 2 -0.003834 0.011099 -0.004170 -0.000867 0.004294 -0.006689
# 3 -0.005187 -0.004170 0.012517 0.000080 -0.004883 0.008948
# 4 0.000609 -0.000867 0.000080 0.034882 0.005056 -0.019592
# 5 -0.002582 0.004294 -0.004883 0.005056 0.029908 -0.016996
# 6 -0.003291 -0.006689 0.008948 -0.019592 -0.016996 0.064201
#
#
# Mechanical properties :
#
#
# Convention : Reuss Voigt Hill
#
# Bulk Modulus (GPa) = 80.60125 85.55674 83.07900
# Shear Modulus (GPa) = 25.21475 34.06855 29.64165
#
# Velocity S-wave (km/s) = 3.39340 3.94443 3.67924
# Velocity P-wave (km/s) = 7.22238 7.73414 7.48264
#
# Compressibility (1/GPa) = 0.01240676
#
# Stress axis : x y z
#
# Youngs Moduli (GPa) = 65.91019 90.09699 79.89276
#
# Poissons Ratio (x) = 0.34546 0.41437
# Poissons Ratio (y) = 0.25272 0.33313
# Poissons Ratio (z) = 0.34185 0.37568
#
# Static dielectric constant tensor:
#      x y z
#    x 3.696660 0.063260 0.200310 
#    y 0.063260 4.116540 0.108510 
#    z 0.200310 0.108510 4.285500 
# 
# 
# High freq. dielectric constant tensor:
#      x y z
#    x 1.839900 0.003720 0.013160 
#    y 0.003720 1.873210 0.005260 
#    z 0.013160 0.005260 1.880840 
# 
# From -- ./inp_files/173846.got.cif
#   From: 2010.06.25/outbox.cif.g09.slc.cpg/sg2_87_cif.got.tgz:173846.got - 2010.06.27 13:26:56.
