data_PCOD8021279
_publ_section_title
;
Structure prediction by ZEFSAII (Michael W. Deem and Ramdas Pophale) SiO2 
 PCOD8021279
Probable space group: P -1
;
_chemical_formula_sum "Si O2"
_cell_formula_units_Z 16
_cell_length_a 17.655803
_cell_length_b 11.779764
_cell_length_c 8.757528
_cell_angle_alpha 80.435890
_cell_angle_beta 138.095330
_cell_angle_gamma 130.081796
_cell_volume 735.666604
_symmetry_space_group_name_H-M "P -1"
_symmetry_group_IT_number 2
_symmetry_cell_setting 'triclinic'
loop_
_space_group_symop_operation_xyz
x,y,z
-x,-y,-z
loop_
_atom_site_type_symbol
_atom_site_label
_atom_site_fract_x
_atom_site_fract_y
_atom_site_fract_z
Si Si1 0.839891 0.135530 0.560717
Si Si2 0.534629 0.297234 0.411230
Si Si3 0.976836 0.862006 0.406116
Si Si4 0.055457 0.414152 0.081052
Si Si5 0.167171 0.855803 0.918899
Si Si6 0.436490 0.463524 0.240138
Si Si7 0.206128 0.706905 0.776781
Si Si8 0.497502 0.758330 0.269825
O O1 0.749618 0.161645 0.313522
O O2 0.886969 0.058722 0.549453
O O3 0.690230 0.979085 0.497276
O O4 0.015025 0.331073 0.869555
O O5 0.725286 0.410315 0.593520
O O6 0.506864 0.403885 0.277752
O O7 0.560887 0.309179 0.628973
O O8 0.353784 0.080105 0.145302
O O9 0.008642 0.785194 0.591143
O O10 0.781866 0.702641 0.066937
O O11 0.000000 0.000000 0.500000
O O12 0.931675 0.236201 0.046696
O O13 0.000000 0.500000 0.000000
O O14 0.228225 0.780509 0.961859
O O15 0.500000 0.500000 0.500000
O O16 0.517802 0.647043 0.249285
O O17 0.000000 0.500000 0.500000
O O18 0.341600 0.707336 0.960736
#
# Coordination Sequence:
#
# PCOD8021279 Si02
#       8
#     2   2   2   2   2   2   2   2
#     4  11  24  42  67 105 134 186 240 284 358 424
#     4  11  23  44  68 101 140 180 233 290 345 415
#     4  11  23  46  70  98 145 182 233 293 349 415
#     4  12  26  44  72 105 141 187 235 289 358 425
#     4  11  24  44  69 102 138 185 234 291 349 418
#     4  10  22  43  69  98 134 183 231 285 346 411
#     4  11  23  43  65  95 139 184 231 295 355 415
#     4  11  22  41  69  98 139 180 231 295 347 417
#
# _framework density 21.748981000000001
#
# number of rings (size 3 to 8) (size 9 to 14) (size 15 to 20)
#    0.000    1.000    2.500    5.625    1.750    2.000 
#    9.000    3.750    0.000    0.000    0.000    0.000 
#    0.000    0.000    0.000    0.000    0.000    0.000 
#
# Total GULP energy -198290.000633 kJ/mol
# GULP energy per Si atom -12393.125040 kJ/mol
# Density = 2.169948 g / cm^3
# Si number density = 21.748981 Si / 1000 Ang^3
#
#
#
# Elastic Constant Matrix: (Units=GPa)
#
#
# Indices 1 2 3 4 5 6 
#
# 1 103.6229 57.6796 43.2060 -0.7146 6.4897 -18.5485
# 2 57.6796 116.5366 54.5848 6.3571 18.4767 -20.6802
# 3 43.2060 54.5848 143.6573 5.0503 16.4361 -10.0650
# 4 -0.7146 6.3571 5.0503 35.8808 -5.6684 1.9700
# 5 6.4897 18.4767 16.4361 -5.6684 40.5960 -1.5710
# 6 -18.5485 -20.6802 -10.0650 1.9700 -1.5710 39.1457
#
#
#
# Elastic Compliance Matrix: (Units=1/GPa)
#
#
# Indices 1 2 3 4 5 6 
#
# 1 0.014255 -0.005878 -0.002079 0.001700 0.001596 0.003093
# 2 -0.005878 0.014462 -0.002772 -0.003276 -0.004818 0.004113
# 3 -0.002079 -0.002772 0.008916 -0.001140 -0.002182 -0.000188
# 4 0.001700 -0.003276 -0.001140 0.029686 0.005730 -0.002482
# 5 0.001596 -0.004818 -0.002182 0.005730 0.028196 -0.001507
# 6 0.003093 0.004113 -0.000188 -0.002482 -0.001507 0.029200
#
#
# Mechanical properties :
#
#
# Convention : Reuss Voigt Hill
#
# Bulk Modulus (GPa) = 61.83260 74.97306 68.40283
# Shear Modulus (GPa) = 32.98894 37.01426 35.00160
#
# Velocity S-wave (km/s) = 3.89884 4.12987 4.01602
# Velocity P-wave (km/s) = 6.98282 7.56888 7.28175
#
# Compressibility (1/GPa) = 0.01617270
#
# Stress axis : x y z
#
# Youngs Moduli (GPa) = 70.15170 69.14899 112.15343
#
# Poissons Ratio (x) = 0.40648 0.23320
# Poissons Ratio (y) = 0.41238 0.31093
# Poissons Ratio (z) = 0.14587 0.19170
#
# Static dielectric constant tensor:
#      x y z
#    x 4.078090 -0.338240 -0.015480 
#    y -0.338240 4.164910 -0.126290 
#    z -0.015480 -0.126290 4.020530 
# 
# 
# High freq. dielectric constant tensor:
#      x y z
#    x 1.844340 -0.018750 0.001640 
#    y -0.018750 1.860440 -0.000900 
#    z 0.001640 -0.000900 1.866020 
# 
# From -- ./inp_files/307458.got.cif
#   From: 2010.06.25/outbox.cif.g09.slc.cpg/sg2_154_cif.got.tgz:307458.got - 2010.06.27 13:26:56.
