data_PCOD8021870
_publ_section_title
;
Structure prediction by ZEFSAII (Michael W. Deem and Ramdas Pophale) SiO2 
 PCOD8021870
Probable space group: P -1
;
_chemical_formula_sum "Si O2"
_cell_formula_units_Z 16
_cell_length_a 14.540047
_cell_length_b 12.346389
_cell_length_c 8.389104
_cell_angle_alpha 106.853934
_cell_angle_beta 71.757921
_cell_angle_gamma 45.366187
_cell_volume 668.108334
_symmetry_space_group_name_H-M "P -1"
_symmetry_group_IT_number 2
_symmetry_cell_setting 'triclinic'
loop_
_space_group_symop_operation_xyz
x,y,z
-x,-y,-z
loop_
_atom_site_type_symbol
_atom_site_label
_atom_site_fract_x
_atom_site_fract_y
_atom_site_fract_z
Si Si1 0.126446 0.446357 0.283918
Si Si2 0.466592 0.998407 0.699316
Si Si3 0.910695 0.167067 0.979583
Si Si4 0.307237 0.836821 0.478078
Si Si5 0.600130 0.629974 0.837860
Si Si6 0.276295 0.067124 0.384911
Si Si7 0.227246 0.746223 0.229305
Si Si8 0.577389 0.626780 0.503724
O O1 0.272451 0.385192 0.265934
O O2 0.000000 0.500000 0.500000
O O3 0.960540 0.689856 0.387954
O O4 0.249978 0.248807 0.999580
O O5 0.500000 0.000000 0.500000
O O6 0.634040 0.898511 0.659504
O O7 0.503067 0.830113 0.632199
O O8 0.761114 0.255276 0.972034
O O9 0.797441 0.389117 0.212517
O O10 0.080778 0.046103 0.728831
O O11 0.000000 0.000000 0.000000
O O12 0.364196 0.697392 0.234837
O O13 0.435590 0.687792 0.504645
O O14 0.337667 0.937560 0.457466
O O15 0.706331 0.447608 0.838524
O O16 0.587446 0.572001 0.656380
O O17 0.374319 0.895268 0.114897
O O18 0.000000 0.000000 0.500000
#
# Coordination Sequence:
#
# PCOD8021870 Si02
#       8
#     2   2   2   2   2   2   2   2
#     4  11  24  44  71 101 137 188 242 281 357 433
#     4  11  25  44  68 103 148 182 231 304 357 406
#     4  11  26  45  70 102 140 175 226 295 350 413
#     4  11  25  43  69 100 130 187 235 277 353 422
#     4  11  25  44  69 101 143 184 230 299 349 411
#     4  11  24  44  71  97 135 186 236 283 354 427
#     4  10  22  44  69  96 137 182 232 286 356 416
#     4  12  25  43  68 103 141 178 233 288 349 413
#
# _framework density 23.94821
#
# number of rings (size 3 to 8) (size 9 to 14) (size 15 to 20)
#    0.000    1.000    1.250    5.250    3.500   10.500 
#    0.000    0.000    0.000    0.000    0.000    0.000 
#    0.000    0.000    0.000    0.000    0.000    0.000 
#
# Total GULP energy -198285.865324 kJ/mol
# GULP energy per Si atom -12392.866583 kJ/mol
# Density = 2.389370 g / cm^3
# Si number density = 23.948210 Si / 1000 Ang^3
#
#
#
# Elastic Constant Matrix: (Units=GPa)
#
#
# Indices 1 2 3 4 5 6 
#
# 1 101.6013 49.5044 44.9254 -0.6354 13.5290 -11.5313
# 2 49.5044 123.0628 53.8954 -6.2224 17.9632 -20.7118
# 3 44.9254 53.8954 178.9558 10.8373 18.5884 -8.0560
# 4 -0.6354 -6.2224 10.8373 43.4804 1.8271 8.7693
# 5 13.5290 17.9632 18.5884 1.8271 35.4591 -10.3863
# 6 -11.5313 -20.7118 -8.0560 8.7693 -10.3863 39.5334
#
#
#
# Elastic Compliance Matrix: (Units=1/GPa)
#
#
# Indices 1 2 3 4 5 6 
#
# 1 0.012925 -0.004012 -0.001820 -0.000034 -0.001691 0.000860
# 2 -0.004012 0.011725 -0.002220 0.001546 -0.002277 0.003579
# 3 -0.001820 -0.002220 0.007009 -0.001949 -0.001848 -0.000319
# 4 -0.000034 0.001546 -0.001949 0.025005 -0.002756 -0.005867
# 5 -0.001691 -0.002277 -0.001848 -0.002756 0.033244 0.007283
# 6 0.000860 0.003579 -0.000319 -0.005867 0.007283 0.030571
#
#
# Mechanical properties :
#
#
# Convention : Reuss Voigt Hill
#
# Bulk Modulus (GPa) = 64.28995 77.80780 71.04887
# Shear Modulus (GPa) = 35.26904 40.71423 37.99163
#
# Velocity S-wave (km/s) = 3.84177 4.12769 3.98729
# Velocity P-wave (km/s) = 6.82514 7.43490 7.13654
#
# Compressibility (1/GPa) = 0.01555453
#
# Stress axis : x y z
#
# Youngs Moduli (GPa) = 77.37172 85.28740 142.67179
#
# Poissons Ratio (x) = 0.34220 0.25964
# Poissons Ratio (y) = 0.31044 0.31673
# Poissons Ratio (z) = 0.14080 0.18934
#
# Static dielectric constant tensor:
#      x y z
#    x 4.525210 -0.285050 0.144310 
#    y -0.285050 4.445920 -0.028550 
#    z 0.144310 -0.028550 4.621280 
# 
# 
# High freq. dielectric constant tensor:
#      x y z
#    x 1.941890 -0.007000 0.005330 
#    y -0.007000 1.956950 0.003730 
#    z 0.005330 0.003730 1.970730 
# 
# From -- ./inp_files/307960.got.cif
#   From: 2010.06.25/outbox.cif.g09.slc.cpg/sg2_154_cif.got.tgz:307960.got - 2010.06.27 13:26:56.
