data_PCOD8021714
_publ_section_title
;
Structure prediction by ZEFSAII (Michael W. Deem and Ramdas Pophale) SiO2 
 PCOD8021714
Probable space group: P -1
;
_chemical_formula_sum "Si O2"
_cell_formula_units_Z 16
_cell_length_a 17.942533
_cell_length_b 6.715876
_cell_length_c 8.162384
_cell_angle_alpha 72.931315
_cell_angle_beta 118.266223
_cell_angle_gamma 123.354535
_cell_volume 722.857449
_symmetry_space_group_name_H-M "P -1"
_symmetry_group_IT_number 2
_symmetry_cell_setting 'triclinic'
loop_
_space_group_symop_operation_xyz
x,y,z
-x,-y,-z
loop_
_atom_site_type_symbol
_atom_site_label
_atom_site_fract_x
_atom_site_fract_y
_atom_site_fract_z
Si Si1 0.254636 0.534300 0.893328
Si Si2 0.060610 0.371560 0.548646
Si Si3 0.405860 0.486689 0.478269
Si Si4 0.966195 0.872305 0.748399
Si Si5 0.694268 0.017223 0.622197
Si Si6 0.852950 0.936527 0.894589
Si Si7 0.601577 0.278765 0.273123
Si Si8 0.389296 0.895810 0.180295
O O1 0.167776 0.524412 0.697956
O O2 0.344044 0.563062 0.866028
O O3 0.220191 0.295516 0.020441
O O4 0.301443 0.783725 0.984819
O O5 0.067927 0.343355 0.366318
O O6 0.000000 0.500000 0.500000
O O7 0.004290 0.115654 0.632585
O O8 0.500000 0.500000 0.500000
O O9 0.414837 0.548985 0.663889
O O10 0.382820 0.664781 0.312619
O O11 0.322814 0.216910 0.437399
O O12 0.877157 0.834553 0.780080
O O13 0.051278 0.885498 0.948606
O O14 0.673418 0.189318 0.444734
O O15 0.629095 0.954435 0.734434
O O16 0.806397 0.109522 0.766360
O O17 0.495416 0.057889 0.171904
#
# Coordination Sequence:
#
# PCOD8021714 Si02
#       8
#     2   2   2   2   2   2   2   2
#     4  11  25  41  61  95 131 163 210 262 307 377
#     4  10  23  43  66  95 127 160 203 265 322 370
#     4  11  19  41  65  87 119 170 216 256 311 363
#     4   9  22  45  67  91 129 158 207 262 317 379
#     4  11  22  38  67  89 120 172 213 255 312 371
#     4  10  22  44  67  93 125 168 205 262 316 373
#     4  11  24  40  62  94 130 167 212 262 306 369
#     4  11  22  41  61  91 132 164 218 259 299 373
#
# _framework density 22.134378999999999
#
# number of rings (size 3 to 8) (size 9 to 14) (size 15 to 20)
#    0.000    1.500    3.750    1.125    5.250    0.000 
#    2.250    3.125    0.000    0.000    0.000    0.000 
#    0.000    0.000    0.000    0.000    0.000    0.000 
#
# Total GULP energy -198325.040145 kJ/mol
# GULP energy per Si atom -12395.315009 kJ/mol
# Density = 2.208400 g / cm^3
# Si number density = 22.134379 Si / 1000 Ang^3
#
#
#
# Elastic Constant Matrix: (Units=GPa)
#
#
# Indices 1 2 3 4 5 6 
#
# 1 125.1262 37.5070 47.2220 4.3285 -8.0242 0.4462
# 2 37.5070 70.6244 32.9724 23.4069 -4.6016 -8.8146
# 3 47.2220 32.9724 84.2271 28.9396 0.8296 -3.8701
# 4 4.3285 23.4069 28.9396 26.8687 -2.7214 -3.5437
# 5 -8.0242 -4.6016 0.8296 -2.7214 46.8877 -1.9534
# 6 0.4462 -8.8146 -3.8701 -3.5437 -1.9534 38.8903
#
#
#
# Elastic Compliance Matrix: (Units=1/GPa)
#
#
# Indices 1 2 3 4 5 6 
#
# 1 0.013749 -0.007716 -0.010087 0.015455 0.002614 -0.001371
# 2 -0.007716 0.025148 0.002519 -0.022862 -0.000059 0.003953
# 3 -0.010087 0.002519 0.026831 -0.029778 -0.003663 0.000459
# 4 0.015455 -0.022862 -0.029778 0.087316 0.005993 -0.000065
# 5 0.002614 -0.000059 -0.003663 0.005993 0.022234 0.001255
# 6 -0.001371 0.003953 0.000459 -0.000065 0.001255 0.026728
#
#
# Mechanical properties :
#
#
# Convention : Reuss Voigt Hill
#
# Bulk Modulus (GPa) = 28.44184 57.26452 42.85318
# Shear Modulus (GPa) = 20.46708 33.34776 26.90742
#
# Velocity S-wave (km/s) = 3.04414 3.88571 3.49038
# Velocity P-wave (km/s) = 5.02327 6.78669 5.97044
#
# Compressibility (1/GPa) = 0.03515947
#
# Stress axis : x y z
#
# Youngs Moduli (GPa) = 72.73007 39.76486 37.27069
#
# Poissons Ratio (x) = 0.30681 0.37596
# Poissons Ratio (y) = 0.56116 -0.09387
# Poissons Ratio (z) = 0.73364 -0.10015
#
# Static dielectric constant tensor:
#      x y z
#    x 4.168590 -0.031750 -0.078030 
#    y -0.031750 3.904450 0.461200 
#    z -0.078030 0.461200 4.273130 
# 
# 
# High freq. dielectric constant tensor:
#      x y z
#    x 1.881950 0.002880 -0.000910 
#    y 0.002880 1.858010 0.019050 
#    z -0.000910 0.019050 1.871220 
# 
# From -- ./inp_files/323471.got.cif
#   From: 2010.06.25/outbox.cif.g09.slc.cpg/sg2_162_cif.got.tgz:323471.got - 2010.06.27 13:26:56.
