data_PCOD8021139
_publ_section_title
;
Structure prediction by ZEFSAII (Michael W. Deem and Ramdas Pophale) SiO2 
 PCOD8021139
Probable space group: P -1
;
_chemical_formula_sum "Si O2"
_cell_formula_units_Z 10
_cell_length_a 8.597080
_cell_length_b 8.874067
_cell_length_c 9.581377
_cell_angle_alpha 124.844726
_cell_angle_beta 98.447514
_cell_angle_gamma 54.089366
_cell_volume 466.005141
_symmetry_space_group_name_H-M "P -1"
_symmetry_group_IT_number 2
_symmetry_cell_setting 'triclinic'
loop_
_space_group_symop_operation_xyz
x,y,z
-x,-y,-z
loop_
_atom_site_type_symbol
_atom_site_label
_atom_site_fract_x
_atom_site_fract_y
_atom_site_fract_z
Si Si1 0.245888 0.490190 0.534069
Si Si2 0.860108 0.762670 0.782279
Si Si3 0.105623 0.232479 0.893396
Si Si4 0.075144 0.010334 0.310431
Si Si5 0.381038 0.928416 0.528830
O O1 0.271968 0.312935 0.326670
O O2 0.465052 0.349402 0.558507
O O3 0.092318 0.536522 0.661859
O O4 0.154766 0.741038 0.583913
O O5 0.807814 0.983490 0.802131
O O6 0.816649 0.841202 0.977454
O O7 0.940434 0.195426 0.820007
O O8 0.295835 0.081628 0.738520
O O9 0.000000 0.500000 0.000000
O O10 0.194795 0.973503 0.446589
O O11 0.500000 0.000000 0.500000
#
# Coordination Sequence:
#
# PCOD8021139 Si02
#       5
#     2   2   2   2   2
#     4   9  19  40  70  88 126 161 210 252 323 363
#     4   9  19  43  65  91 128 162 204 262 316 368
#     4  12  25  39  65  96 129 167 213 256 311 373
#     4  10  22  43  68  89 128 170 205 256 320 372
#     4  12  22  42  67  94 126 167 208 261 314 373
#
# _framework density 21.458991999999999
#
# number of rings (size 3 to 8) (size 9 to 14) (size 15 to 20)
#    1.200    0.400    2.000    3.600    0.000    1.600 
#    0.000    6.000    0.000    0.000    0.000    0.000 
#    0.000    0.000    0.000    0.000    0.000    0.000 
#
# Total GULP energy -123932.068350 kJ/mol
# GULP energy per Si atom -12393.206835 kJ/mol
# Density = 2.141015 g / cm^3
# Si number density = 21.458992 Si / 1000 Ang^3
#
#
#
# Elastic Constant Matrix: (Units=GPa)
#
#
# Indices 1 2 3 4 5 6 
#
# 1 57.7268 41.5020 48.4763 5.2030 12.7358 -4.3865
# 2 41.5020 138.2791 53.8646 8.0102 9.9724 -24.6097
# 3 48.4763 53.8646 137.6655 -21.8042 -1.7743 8.8673
# 4 5.2030 8.0102 -21.8042 36.4483 12.0122 5.4968
# 5 12.7358 9.9724 -1.7743 12.0122 34.8896 6.6941
# 6 -4.3865 -24.6097 8.8673 5.4968 6.6941 35.3572
#
#
#
# Elastic Compliance Matrix: (Units=1/GPa)
#
#
# Indices 1 2 3 4 5 6 
#
# 1 0.034535 -0.001552 -0.014111 -0.010952 -0.011134 0.010554
# 2 -0.001552 0.013151 -0.006611 -0.007385 -0.003366 0.012404
# 3 -0.014111 -0.006611 0.018120 0.014585 0.005672 -0.014238
# 4 -0.010952 -0.007385 0.014585 0.043413 -0.005035 -0.015952
# 5 -0.011134 -0.003366 0.005672 -0.005035 0.037925 -0.011544
# 6 0.010554 0.012404 -0.014238 -0.015952 -0.011544 0.046462
#
#
# Mechanical properties :
#
#
# Convention : Reuss Voigt Hill
#
# Bulk Modulus (GPa) = 47.04524 69.03968 58.04246
# Shear Modulus (GPa) = 20.38816 33.99425 27.19121
#
# Velocity S-wave (km/s) = 3.08571 3.98446 3.56353
# Velocity P-wave (km/s) = 5.88782 7.30825 6.63615
#
# Compressibility (1/GPa) = 0.02125614
#
# Stress axis : x y z
#
# Youngs Moduli (GPa) = 28.95649 76.03968 55.18797
#
# Poissons Ratio (x) = 0.11805 0.77877
# Poissons Ratio (y) = 0.04495 0.36485
# Poissons Ratio (z) = 0.40861 0.50270
#
# Static dielectric constant tensor:
#      x y z
#    x 3.650870 0.026060 -0.022930 
#    y 0.026060 3.912470 -0.164270 
#    z -0.022930 -0.164270 3.732650 
# 
# 
# High freq. dielectric constant tensor:
#      x y z
#    x 1.825920 0.006360 0.004630 
#    y 0.006360 1.843510 -0.011660 
#    z 0.004630 -0.011660 1.830340 
# 
# From -- ./inp_files/147004.got.cif
#   From: 2010.06.25/outbox.cif.g09.slc.cpg/sg2_74_cif.got.tgz:147004.got - 2010.06.27 13:26:56.
