data_PCOD8021028
_publ_section_title
;
Structure prediction by ZEFSAII (Michael W. Deem and Ramdas Pophale) SiO2 
 PCOD8021028
Probable space group: P -1
;
_chemical_formula_sum "Si O2"
_cell_formula_units_Z 14
_cell_length_a 19.199601
_cell_length_b 13.506008
_cell_length_c 6.885389
_cell_angle_alpha 99.900195
_cell_angle_beta 97.569757
_cell_angle_gamma 18.909922
_cell_volume 567.334657
_symmetry_space_group_name_H-M "P -1"
_symmetry_group_IT_number 2
_symmetry_cell_setting 'triclinic'
loop_
_space_group_symop_operation_xyz
x,y,z
-x,-y,-z
loop_
_atom_site_type_symbol
_atom_site_label
_atom_site_fract_x
_atom_site_fract_y
_atom_site_fract_z
Si Si1 0.972936 0.923388 0.775010
Si Si2 0.263355 0.861373 0.572185
Si Si3 0.737761 0.285977 0.168618
Si Si4 0.823006 0.811522 0.956323
Si Si5 0.529876 0.091495 0.210575
Si Si6 0.163630 0.505072 0.971302
Si Si7 0.358750 0.920625 0.421425
O O1 0.082431 0.879952 0.745545
O O2 0.143029 0.624734 0.854638
O O3 0.909313 0.955399 0.568608
O O4 0.758021 0.239349 0.930006
O O5 0.500000 0.500000 0.500000
O O6 0.206275 0.898428 0.778349
O O7 0.245683 0.005709 0.578244
O O8 0.506554 0.643879 0.258587
O O9 0.600624 0.082454 0.076728
O O10 0.000000 0.500000 0.000000
O O11 0.922131 0.788749 0.027624
O O12 0.802061 0.821176 0.717472
O O13 0.522432 0.149420 0.445122
O O14 0.695303 0.774490 0.169224
O O15 0.290519 0.374875 0.164311
#
# Coordination Sequence:
#
# PCOD8021028 Si02
#       7
#     2   2   2   2   2   2   2
#     4  11  22  44  66  92 139 174 225 280 333 407
#     4  10  23  39  62  97 130 175 223 270 332 400
#     4  10  25  41  67  97 129 180 225 276 338 398
#     4  10  22  43  67 100 134 180 226 273 343 406
#     4  10  24  44  68  99 140 175 226 283 338 407
#     4  10  22  44  69  98 133 183 225 273 346 402
#     4  11  23  43  68 100 137 175 225 282 339 404
#
# _framework density 24.676794999999998
#
# number of rings (size 3 to 8) (size 9 to 14) (size 15 to 20)
#    0.000    1.714    1.429    1.286    2.000   12.571 
#    0.000   10.000    0.000    0.000    0.000    0.000 
#    0.000    0.000    0.000    0.000    0.000    0.000 
#
# Total GULP energy -173482.865637 kJ/mol
# GULP energy per Si atom -12391.633260 kJ/mol
# Density = 2.462063 g / cm^3
# Si number density = 24.676795 Si / 1000 Ang^3
#
#
#
# Elastic Constant Matrix: (Units=GPa)
#
#
# Indices 1 2 3 4 5 6 
#
# 1 98.4166 22.9466 38.8933 -7.2416 -5.2808 -4.0774
# 2 22.9466 52.8176 27.1150 -20.1680 0.8298 4.5414
# 3 38.8933 27.1150 58.2729 -26.1826 5.7648 -4.8213
# 4 -7.2416 -20.1680 -26.1826 33.1401 0.9066 3.1082
# 5 -5.2808 0.8298 5.7648 0.9066 41.6661 -6.7867
# 6 -4.0774 4.5414 -4.8213 3.1082 -6.7867 43.6707
#
#
#
# Elastic Compliance Matrix: (Units=1/GPa)
#
#
# Indices 1 2 3 4 5 6 
#
# 1 0.016078 -0.004031 -0.013655 -0.010023 0.004523 0.001829
# 2 -0.004031 0.028763 -0.005061 0.013144 -0.001499 -0.005095
# 3 -0.013655 -0.005061 0.041560 0.026920 -0.007851 0.000704
# 4 -0.010023 0.013144 0.026920 0.057880 -0.007262 -0.004579
# 5 0.004523 -0.001499 -0.007851 -0.007262 0.026557 0.004355
# 6 0.001829 -0.005095 0.000704 -0.004579 0.004355 0.024680
#
#
# Mechanical properties :
#
#
# Convention : Reuss Voigt Hill
#
# Bulk Modulus (GPa) = 24.44592 43.04632 33.74612
# Shear Modulus (GPa) = 19.63500 31.73220 25.68360
#
# Velocity S-wave (km/s) = 2.82385 3.58985 3.22964
# Velocity P-wave (km/s) = 4.53433 5.88767 5.25475
#
# Compressibility (1/GPa) = 0.04090663
#
# Stress axis : x y z
#
# Youngs Moduli (GPa) = 62.19643 34.76707 24.06161
#
# Poissons Ratio (x) = 0.14013 0.32857
# Poissons Ratio (y) = 0.25068 0.12178
# Poissons Ratio (z) = 0.84932 0.17596
#
# Static dielectric constant tensor:
#      x y z
#    x 5.373080 -0.241200 -0.355300 
#    y -0.241200 4.399830 -0.079890 
#    z -0.355300 -0.079890 4.424380 
# 
# 
# High freq. dielectric constant tensor:
#      x y z
#    x 2.004490 0.002820 0.001370 
#    y 0.002820 1.968890 -0.009190 
#    z 0.001370 -0.009190 1.971890 
# 
# From -- ./inp_files/27501.got.cif
#   From: 2010.06.25/outbox.cif.g09.slc.cpg/sg2_14_cif.got.tgz:27501.got - 2010.06.27 13:26:56.
