data_PCOD8021056
_publ_section_title
;
Structure prediction by ZEFSAII (Michael W. Deem and Ramdas Pophale) SiO2 
 PCOD8021056
Probable space group: P -1
;
_chemical_formula_sum "Si O2"
_cell_formula_units_Z 14
_cell_length_a 9.159131
_cell_length_b 21.590801
_cell_length_c 21.560408
_cell_angle_alpha 18.328696
_cell_angle_beta 150.558284
_cell_angle_gamma 149.249423
_cell_volume 644.103036
_symmetry_space_group_name_H-M "P -1"
_symmetry_group_IT_number 2
_symmetry_cell_setting 'triclinic'
loop_
_space_group_symop_operation_xyz
x,y,z
-x,-y,-z
loop_
_atom_site_type_symbol
_atom_site_label
_atom_site_fract_x
_atom_site_fract_y
_atom_site_fract_z
Si Si1 0.669533 0.132500 0.534433
Si Si2 0.692305 0.880174 0.467833
Si Si3 0.300474 0.513914 0.228251
Si Si4 0.663078 0.601888 0.902275
Si Si5 0.778570 0.529177 0.620181
Si Si6 0.774308 0.732202 0.998458
Si Si7 0.719553 0.870730 0.981753
O O1 0.569605 0.187302 0.513950
O O2 0.417339 0.178776 0.348028
O O3 0.994245 0.267208 0.509503
O O4 0.694544 0.900037 0.762486
O O5 0.769604 0.686533 0.648003
O O6 0.557375 0.014444 0.239792
O O7 0.000000 0.000000 0.500000
O O8 0.343521 0.452725 0.372992
O O9 0.600052 0.667976 0.169526
O O10 0.020333 0.625329 0.013240
O O11 0.500000 0.500000 0.000000
O O12 0.514511 0.456150 0.928929
O O13 0.500000 0.500000 0.500000
O O14 0.932117 0.335932 0.855754
O O15 0.844297 0.814611 0.015082
O O16 0.000000 0.000000 0.000000
#
# Coordination Sequence:
#
# PCOD8021056 Si02
#       7
#     2   2   2   2   2   2   2
#     4  10  22  43  67  92 135 170 219 277 331 394
#     4  11  25  46  72 103 129 181 229 278 344 397
#     4  12  24  43  71  99 138 171 225 286 326 408
#     4  11  21  42  63 104 130 171 220 268 347 393
#     4  11  26  42  64 100 134 183 219 266 345 396
#     4  10  23  45  67  94 137 176 218 281 333 397
#     4  11  27  45  69 101 133 179 234 276 337 401
#
# _framework density 21.735651000000001
#
# number of rings (size 3 to 8) (size 9 to 14) (size 15 to 20)
#    0.000    1.143    2.857    4.286    6.000    4.571 
#    2.571    0.000    0.000    0.000    0.000    0.000 
#    0.000    0.000    0.000    0.000    0.000    0.000 
#
# Total GULP energy -173613.237034 kJ/mol
# GULP energy per Si atom -12400.945502 kJ/mol
# Density = 2.168618 g / cm^3
# Si number density = 21.735651 Si / 1000 Ang^3
#
#
#
# Elastic Constant Matrix: (Units=GPa)
#
#
# Indices 1 2 3 4 5 6 
#
# 1 95.2139 29.7668 31.8714 -11.6237 -16.3164 -0.0606
# 2 29.7668 132.9611 41.3240 7.2109 -8.3214 -6.7215
# 3 31.8714 41.3240 128.0507 -1.5335 -4.2448 6.9370
# 4 -11.6237 7.2109 -1.5335 35.8212 0.7699 -4.5849
# 5 -16.3164 -8.3214 -4.2448 0.7699 36.1905 0.2970
# 6 -0.0606 -6.7215 6.9370 -4.5849 0.2970 26.4557
#
#
#
# Elastic Compliance Matrix: (Units=1/GPa)
#
#
# Indices 1 2 3 4 5 6 
#
# 1 0.013460 -0.002126 -0.002485 0.004693 0.005181 0.000897
# 2 -0.002126 0.009097 -0.002545 -0.002321 0.000863 0.002562
# 3 -0.002485 -0.002545 0.009398 -0.000284 -0.000571 -0.003159
# 4 0.004693 -0.002321 -0.000284 0.030486 0.000861 0.004769
# 5 0.005181 0.000863 -0.000571 0.000861 0.030079 0.000192
# 6 0.000897 0.002562 -0.003159 0.004769 0.000192 0.040105
#
#
# Mechanical properties :
#
#
# Convention : Reuss Voigt Hill
#
# Bulk Modulus (GPa) = 56.67476 62.46112 59.56794
# Shear Modulus (GPa) = 32.71868 36.57772 34.64820
#
# Velocity S-wave (km/s) = 3.88403 4.10670 3.99692
# Velocity P-wave (km/s) = 6.80040 7.16141 6.98324
#
# Compressibility (1/GPa) = 0.01764454
#
# Stress axis : x y z
#
# Youngs Moduli (GPa) = 74.29182 109.92371 106.40713
#
# Poissons Ratio (x) = 0.23371 0.26440
# Poissons Ratio (y) = 0.15795 0.27076
# Poissons Ratio (z) = 0.18460 0.27971
#
# Static dielectric constant tensor:
#      x y z
#    x 3.969460 -0.055240 -0.592990 
#    y -0.055240 3.874910 -0.233110 
#    z -0.592990 -0.233110 0.821840 
# 
# 
# High freq. dielectric constant tensor:
#      x y z
#    x 1.860480 -0.003880 -0.005640 
#    y -0.003880 1.842330 0.001300 
#    z -0.005640 0.001300 1.869170 
# 
# From -- ./inp_files/101033.got.cif
#   From: 2010.06.25/outbox.cif.g09.slc.cpg/sg2_51_cif.got.tgz:101033.got - 2010.06.27 13:26:56.
