data_PCOD8021351
_publ_section_title
;
Structure prediction by ZEFSAII (Michael W. Deem and Ramdas Pophale) SiO2 
 PCOD8021351
Probable space group: P -1
;
_chemical_formula_sum "Si O2"
_cell_formula_units_Z 12
_cell_length_a 13.176849
_cell_length_b 16.017754
_cell_length_c 9.067352
_cell_angle_alpha 46.013764
_cell_angle_beta 144.277100
_cell_angle_gamma 152.061331
_cell_volume 521.716227
_symmetry_space_group_name_H-M "P -1"
_symmetry_group_IT_number 2
_symmetry_cell_setting 'triclinic'
loop_
_space_group_symop_operation_xyz
x,y,z
-x,-y,-z
loop_
_atom_site_type_symbol
_atom_site_label
_atom_site_fract_x
_atom_site_fract_y
_atom_site_fract_z
Si Si1 0.884766 0.089686 0.909694
Si Si2 0.923716 0.578866 0.388235
Si Si3 0.103357 0.194364 0.548347
Si Si4 0.328722 0.236776 0.061134
Si Si5 0.330740 0.095188 0.817044
Si Si6 0.063035 0.644445 0.806224
O O1 0.883087 0.220942 0.689282
O O2 0.654976 0.893096 0.799449
O O3 0.173373 0.178177 0.103594
O O4 0.837245 0.059935 0.065268
O O5 0.613930 0.445051 0.146835
O O6 0.000000 0.500000 0.500000
O O7 0.946316 0.571870 0.596069
O O8 0.342105 0.239490 0.697163
O O9 0.081367 0.319387 0.328619
O O10 0.141844 0.205229 0.756328
O O11 0.823602 0.994342 0.410485
O O12 0.617118 0.180063 0.038219
O O13 0.000000 0.500000 0.000000
#
# Coordination Sequence:
#
# PCOD8021351 Si02
#       6
#     2   2   2   2   2   2
#     4  10  22  43  70  98 133 178 225 285 340 397
#     4  12  26  44  68 106 140 177 229 285 342 411
#     4  10  22  47  70  97 137 179 227 279 342 405
#     4  10  22  45  71 101 132 179 234 275 347 406
#     4  10  24  46  70 102 133 179 235 277 345 410
#     4  12  28  45  66 103 141 183 224 281 347 410
#
# _framework density 23.001010000000001
#
# number of rings (size 3 to 8) (size 9 to 14) (size 15 to 20)
#    0.000    1.333    1.667    3.000    2.333    8.667 
#    0.000    0.000    0.000    0.000    0.000    0.000 
#    0.000    0.000    0.000    0.000    0.000    0.000 
#
# Total GULP energy -148709.989059 kJ/mol
# GULP energy per Si atom -12392.499088 kJ/mol
# Density = 2.294866 g / cm^3
# Si number density = 23.001010 Si / 1000 Ang^3
#
#
#
# Elastic Constant Matrix: (Units=GPa)
#
#
# Indices 1 2 3 4 5 6 
#
# 1 60.0523 22.4505 57.7405 -11.7415 -3.0194 -3.2185
# 2 22.4505 97.6592 67.0241 -25.5897 -6.2058 -0.0552
# 3 57.7405 67.0241 132.2789 -15.8055 -5.8892 -7.7996
# 4 -11.7415 -25.5897 -15.8055 55.8626 -14.9954 9.8945
# 5 -3.0194 -6.2058 -5.8892 -14.9954 37.7148 -10.5114
# 6 -3.2185 -0.0552 -7.7996 9.8945 -10.5114 33.4825
#
#
#
# Elastic Compliance Matrix: (Units=1/GPa)
#
#
# Indices 1 2 3 4 5 6 
#
# 1 0.030442 0.004938 -0.015115 0.005328 0.002636 -0.001333
# 2 0.004938 0.018949 -0.010748 0.008385 0.004297 -0.003126
# 3 -0.015115 -0.010748 0.019431 -0.003355 -0.000165 0.003995
# 4 0.005328 0.008385 -0.003355 0.025443 0.010117 -0.004598
# 5 0.002636 0.004297 -0.000165 0.010117 0.033598 0.007780
# 6 -0.001333 -0.003126 0.003995 -0.004598 0.007780 0.034465
#
#
# Mechanical properties :
#
#
# Convention : Reuss Voigt Hill
#
# Bulk Modulus (GPa) = 37.07519 64.93565 51.00542
# Shear Modulus (GPa) = 23.45576 34.93032 29.19304
#
# Velocity S-wave (km/s) = 3.19685 3.90120 3.56646
# Velocity P-wave (km/s) = 5.45714 6.97033 6.25963
#
# Compressibility (1/GPa) = 0.02697222
#
# Stress axis : x y z
#
# Youngs Moduli (GPa) = 32.84980 52.77259 51.46506
#
# Poissons Ratio (x) = -0.26059 0.77787
# Poissons Ratio (y) = -0.16221 0.55314
# Poissons Ratio (z) = 0.49651 0.56720
#
# Static dielectric constant tensor:
#      x y z
#    x 4.351120 -0.099650 0.272630 
#    y -0.099650 4.239160 0.109190 
#    z 0.272630 0.109190 4.302040 
# 
# 
# High freq. dielectric constant tensor:
#      x y z
#    x 1.915160 -0.020380 0.006000 
#    y -0.020380 1.893770 -0.004800 
#    z 0.006000 -0.004800 1.909380 
# 
# From -- ./inp_files/272007.got.cif
#   From: 2010.06.25/outbox.cif.g09.slc.cpg/sg2_137_cif.got.tgz:272007.got - 2010.06.27 13:26:56.
