data_PCOD8021722
_publ_section_title
;
Structure prediction by ZEFSAII (Michael W. Deem and Ramdas Pophale) SiO2 
 PCOD8021722
Probable space group: P -1
;
_chemical_formula_sum "Si O2"
_cell_formula_units_Z 16
_cell_length_a 13.734092
_cell_length_b 24.550779
_cell_length_c 9.195187
_cell_angle_alpha 129.765268
_cell_angle_beta 138.411069
_cell_angle_gamma 20.797630
_cell_volume 707.032225
_symmetry_space_group_name_H-M "P -1"
_symmetry_group_IT_number 2
_symmetry_cell_setting 'triclinic'
loop_
_space_group_symop_operation_xyz
x,y,z
-x,-y,-z
loop_
_atom_site_type_symbol
_atom_site_label
_atom_site_fract_x
_atom_site_fract_y
_atom_site_fract_z
Si Si1 0.405046 0.858837 0.606089
Si Si2 0.411667 0.977044 0.474727
Si Si3 0.705633 0.510912 0.338643
Si Si4 0.423833 0.503755 0.127591
Si Si5 0.289771 0.782015 0.534744
Si Si6 0.426436 0.247940 0.706338
Si Si7 0.345287 0.714794 0.795320
Si Si8 0.258376 0.154661 0.078466
O O1 0.400185 0.813341 0.666392
O O2 0.425238 0.809353 0.389360
O O3 0.716284 0.774857 0.826291
O O4 0.100561 0.046033 0.585372
O O5 0.032972 0.144380 0.381349
O O6 0.500000 0.000000 0.500000
O O7 0.466976 0.872160 0.302468
O O8 0.658099 0.884618 0.725508
O O9 0.734896 0.421403 0.301274
O O10 0.398381 0.686371 0.359672
O O11 0.029843 0.419323 0.557610
O O12 0.626738 0.530853 0.116778
O O13 0.463958 0.438828 0.205040
O O14 0.125479 0.690912 0.121863
O O15 0.458988 0.683408 0.704719
O O16 0.571813 0.251881 0.960426
O O17 0.500000 0.000000 0.000000
#
# Coordination Sequence:
#
# PCOD8021722 Si02
#       8
#     2   2   2   2   2   2   2   2
#     4  10  22  44  67  95 133 185 227 272 335 412
#     4  11  24  46  70 103 138 178 227 282 335 407
#     4  11  24  45  70  97 136 182 228 275 336 416
#     4  11  25  44  71 101 134 182 228 277 344 410
#     4  11  24  42  67  98 139 174 224 285 342 393
#     4  11  23  46  71  97 137 185 231 271 338 410
#     4  12  26  43  70 104 139 176 227 289 342 394
#     4  11  23  46  72  98 134 181 229 276 340 413
#
# _framework density 22.629802000000002
#
# number of rings (size 3 to 8) (size 9 to 14) (size 15 to 20)
#    0.000    1.000    5.000    2.625    3.500    3.000 
#    4.500    0.000    0.000    0.000    0.000    0.000 
#    0.000    0.000    0.000    0.000    0.000    0.000 
#
# Total GULP energy -198275.287205 kJ/mol
# GULP energy per Si atom -12392.205450 kJ/mol
# Density = 2.257830 g / cm^3
# Si number density = 22.629802 Si / 1000 Ang^3
#
#
#
# Elastic Constant Matrix: (Units=GPa)
#
#
# Indices 1 2 3 4 5 6 
#
# 1 160.4108 30.5686 30.2102 -17.2990 -11.7554 17.6638
# 2 30.5686 116.3679 25.3468 -0.5172 -15.7644 -6.7984
# 3 30.2102 25.3468 25.9542 -19.7288 0.3781 -0.5804
# 4 -17.2990 -0.5172 -19.7288 26.9238 -0.7054 -5.3316
# 5 -11.7554 -15.7644 0.3781 -0.7054 24.6735 -2.4613
# 6 17.6638 -6.7984 -0.5804 -5.3316 -2.4613 39.3525
#
#
#
# Elastic Compliance Matrix: (Units=1/GPa)
#
#
# Indices 1 2 3 4 5 6 
#
# 1 0.009899 0.003026 -0.023740 -0.011906 0.006124 -0.005501
# 2 0.003026 0.020014 -0.048809 -0.033531 0.013789 -0.002301
# 3 -0.023740 -0.048809 0.238588 0.162635 -0.038974 0.025339
# 4 -0.011906 -0.033531 0.162635 0.151580 -0.023156 0.021039
# 5 0.006124 0.013789 -0.038974 -0.023156 0.052111 -0.000820
# 6 -0.005501 -0.002301 0.025339 0.021039 -0.000820 0.030656
#
#
# Mechanical properties :
#
#
# Convention : Reuss Voigt Hill
#
# Bulk Modulus (GPa) = 7.72462 52.77600 30.25031
# Shear Modulus (GPa) = 7.29879 32.63046 19.96463
#
# Velocity S-wave (km/s) = 1.79786 3.80139 2.97345
# Velocity P-wave (km/s) = 2.78040 6.52989 5.01847
#
# Compressibility (1/GPa) = 0.12945616
#
# Stress axis : x y z
#
# Youngs Moduli (GPa) = 101.02268 49.96390 4.19133
#
# Poissons Ratio (x) = -0.15119 0.09950
# Poissons Ratio (y) = -0.30569 0.20457
# Poissons Ratio (z) = 2.39824 2.43868
#
# Static dielectric constant tensor:
#      x y z
#    x 3.969570 -0.063300 0.076700 
#    y -0.063300 4.117490 -0.064530 
#    z 0.076700 -0.064530 3.888780 
# 
# 
# High freq. dielectric constant tensor:
#      x y z
#    x 1.911980 -0.000270 0.019320 
#    y -0.000270 1.898300 0.001560 
#    z 0.019320 0.001560 1.870600 
# 
# From -- ./inp_files/320724.got.cif
#   From: 2010.06.25/outbox.cif.g09.slc.cpg/sg2_161_cif.got.tgz:320724.got - 2010.06.27 13:26:56.
