data_PCOD8021256
_publ_section_title
;
Structure prediction by ZEFSAII (Michael W. Deem and Ramdas Pophale) SiO2 
 PCOD8021256
Probable space group: P -1
;
_chemical_formula_sum "Si O2"
_cell_formula_units_Z 14
_cell_length_a 12.286966
_cell_length_b 5.827749
_cell_length_c 9.119505
_cell_angle_alpha 74.250419
_cell_angle_beta 94.698997
_cell_angle_gamma 81.973530
_cell_volume 617.394561
_symmetry_space_group_name_H-M "P -1"
_symmetry_group_IT_number 2
_symmetry_cell_setting 'triclinic'
loop_
_space_group_symop_operation_xyz
x,y,z
-x,-y,-z
loop_
_atom_site_type_symbol
_atom_site_label
_atom_site_fract_x
_atom_site_fract_y
_atom_site_fract_z
Si Si1 0.938811 0.246062 0.627767
Si Si2 0.825412 0.733066 0.419732
Si Si3 0.237719 0.079086 0.316112
Si Si4 0.649784 0.793079 0.141235
Si Si5 0.276962 0.506389 0.058540
Si Si6 0.408941 0.807345 0.181528
Si Si7 0.048940 0.712807 0.054788
O O1 0.864703 0.442561 0.480440
O O2 0.951860 0.377846 0.761443
O O3 0.061688 0.149800 0.592371
O O4 0.876433 0.023171 0.687681
O O5 0.748832 0.829750 0.533201
O O6 0.752427 0.808169 0.255360
O O7 0.224704 0.285845 0.157438
O O8 0.346469 0.887135 0.313699
O O9 0.539990 0.780944 0.227370
O O10 0.675769 0.549420 0.089431
O O11 0.630058 0.018645 0.990586
O O12 0.375547 0.554781 0.169224
O O13 0.172934 0.723514 0.006428
O O14 0.000000 0.500000 0.000000
O O15 0.000000 0.000000 0.000000
#
# Coordination Sequence:
#
# PCOD8021256 Si02
#       7
#     2   2   2   2   2   2   2
#     4  11  24  42  62  96 136 176 223 275 346 418
#     4  11  24  41  64  92 137 177 220 278 350 418
#     4  11  21  43  66  93 132 182 219 283 345 412
#     4  10  24  43  66  99 129 172 230 283 347 401
#     4  11  22  42  68  92 136 172 226 285 344 403
#     4  10  22  43  69  95 127 172 231 290 335 405
#     4  12  25  40  70 104 138 182 236 285 346 419
#
# _framework density 22.675937000000001
#
# number of rings (size 3 to 8) (size 9 to 14) (size 15 to 20)
#    0.000    1.143    2.857    2.571    4.000    1.714 
#    0.000    2.857    0.000    0.000    0.000    0.000 
#    0.000    0.000    0.000    0.000    0.000    0.000 
#
# Total GULP energy -173515.486406 kJ/mol
# GULP energy per Si atom -12393.963315 kJ/mol
# Density = 2.262433 g / cm^3
# Si number density = 22.675937 Si / 1000 Ang^3
#
#
#
# Elastic Constant Matrix: (Units=GPa)
#
#
# Indices 1 2 3 4 5 6 
#
# 1 155.3093 44.8806 36.2818 1.5813 -15.7578 -6.4629
# 2 44.8806 94.6973 19.7269 4.5805 -3.8082 1.6696
# 3 36.2818 19.7269 76.3222 10.8398 -0.7804 -14.3360
# 4 1.5813 4.5805 10.8398 32.3076 -9.3217 -11.6994
# 5 -15.7578 -3.8082 -0.7804 -9.3217 35.5533 7.8953
# 6 -6.4629 1.6696 -14.3360 -11.6994 7.8953 39.5842
#
#
#
# Elastic Compliance Matrix: (Units=1/GPa)
#
#
# Indices 1 2 3 4 5 6 
#
# 1 0.008600 -0.003308 -0.003501 0.002444 0.003976 0.000205
# 2 -0.003308 0.012640 -0.001857 -0.001869 -0.000139 -0.002270
# 3 -0.003501 -0.001857 0.016779 -0.004439 -0.003657 0.005001
# 4 0.002444 -0.001869 -0.004439 0.038201 0.008941 0.008377
# 5 0.003976 -0.000139 -0.003657 0.008941 0.033169 -0.004642
# 6 0.000205 -0.002270 0.005001 0.008377 -0.004642 0.030605
#
#
# Mechanical properties :
#
#
# Convention : Reuss Voigt Hill
#
# Bulk Modulus (GPa) = 48.34107 58.67861 53.50984
# Shear Modulus (GPa) = 30.44701 36.51832 33.48266
#
# Velocity S-wave (km/s) = 3.66826 4.01739 3.84679
# Velocity P-wave (km/s) = 6.26945 6.88857 6.58629
#
# Compressibility (1/GPa) = 0.02068634
#
# Stress axis : x y z
#
# Youngs Moduli (GPa) = 116.28352 79.11681 59.59877
#
# Poissons Ratio (x) = 0.26175 0.20865
# Poissons Ratio (y) = 0.38471 0.11065
# Poissons Ratio (z) = 0.40710 0.14689
#
# Static dielectric constant tensor:
#      x y z
#    x 4.351950 -0.118170 -0.340350 
#    y -0.118170 4.208560 0.134760 
#    z -0.340350 0.134760 3.999560 
# 
# 
# High freq. dielectric constant tensor:
#      x y z
#    x 1.903160 -0.003140 -0.020110 
#    y -0.003140 1.895510 0.013970 
#    z -0.020110 0.013970 1.875920 
# 
# From -- ./inp_files/60395.got.cif
#   From: 2010.06.25/outbox.cif.g09.slc.cpg/sg2_31_cif.got.tgz:60395.got - 2010.06.27 13:26:56.
