data_PCOD8021739
_publ_section_title
;
Structure prediction by ZEFSAII (Michael W. Deem and Ramdas Pophale) SiO2 
 PCOD8021739
Probable space group: P -1
;
_chemical_formula_sum "Si O2"
_cell_formula_units_Z 16
_cell_length_a 18.080020
_cell_length_b 9.709005
_cell_length_c 21.991848
_cell_angle_alpha 137.536324
_cell_angle_beta 163.111503
_cell_angle_gamma 40.937051
_cell_volume 732.593942
_symmetry_space_group_name_H-M "P -1"
_symmetry_group_IT_number 2
_symmetry_cell_setting 'triclinic'
loop_
_space_group_symop_operation_xyz
x,y,z
-x,-y,-z
loop_
_atom_site_type_symbol
_atom_site_label
_atom_site_fract_x
_atom_site_fract_y
_atom_site_fract_z
Si Si1 0.030870 0.718050 0.568495
Si Si2 0.488926 0.343887 0.995750
Si Si3 0.768520 0.076266 0.725746
Si Si4 0.720193 0.367244 0.394070
Si Si5 0.022265 0.297674 0.911671
Si Si6 0.867746 0.429400 0.009450
Si Si7 0.976386 0.373275 0.210143
Si Si8 0.604797 0.022611 0.271417
O O1 0.107914 0.698000 0.551812
O O2 0.000000 0.500000 0.500000
O O3 0.238523 0.775779 0.796647
O O4 0.763399 0.908966 0.419471
O O5 0.306969 0.479394 0.948394
O O6 0.375236 0.156580 0.821965
O O7 0.500000 0.500000 0.000000
O O8 0.846678 0.223293 0.887310
O O9 0.785517 0.192442 0.711742
O O10 0.500000 0.000000 0.500000
O O11 0.007299 0.868151 0.839645
O O12 0.425055 0.442373 0.163155
O O13 0.755188 0.181546 0.410753
O O14 0.795535 0.557853 0.551033
O O15 0.990658 0.400237 0.853357
O O16 0.307168 0.134417 0.092646
O O17 0.000000 0.500000 0.000000
O O18 0.030422 0.368673 0.179106
#
# Coordination Sequence:
#
# PCOD8021739 Si02
#       8
#     2   2   2   2   2   2   2   2
#     4  12  24  41  65  98 135 176 224 273 333 400
#     4  12  24  41  66  98 136 175 221 278 337 400
#     4  11  22  41  73  98 130 175 227 283 337 397
#     4  11  23  42  64  97 134 176 225 275 328 405
#     4   9  22  44  71  95 135 176 221 277 335 398
#     4  10  22  44  67  97 133 180 221 280 336 397
#     4  12  23  40  69  94 137 174 228 276 334 399
#     4  11  24  42  69  96 138 176 223 272 340 398
#
# _framework density 21.840202999999999
#
# number of rings (size 3 to 8) (size 9 to 14) (size 15 to 20)
#    0.000    1.000    5.000    1.500    0.000    2.500 
#    0.000    0.625    8.250    0.000    0.000    0.000 
#    0.000    0.000    0.000    0.000    0.000    0.000 
#
# Total GULP energy -198230.172697 kJ/mol
# GULP energy per Si atom -12389.385794 kJ/mol
# Density = 2.179049 g / cm^3
# Si number density = 21.840203 Si / 1000 Ang^3
#
#
#
# Elastic Constant Matrix: (Units=GPa)
#
#
# Indices 1 2 3 4 5 6 
#
# 1 102.7333 36.5207 41.0917 14.4523 5.6532 17.0138
# 2 36.5207 126.5175 22.8177 2.2442 2.9434 8.2911
# 3 41.0917 22.8177 79.5377 2.3480 -5.6880 15.5374
# 4 14.4523 2.2442 2.3480 21.4232 8.4167 7.1222
# 5 5.6532 2.9434 -5.6880 8.4167 39.3486 3.2759
# 6 17.0138 8.2911 15.5374 7.1222 3.2759 40.6152
#
#
#
# Elastic Compliance Matrix: (Units=1/GPa)
#
#
# Indices 1 2 3 4 5 6 
#
# 1 0.014719 -0.002839 -0.006290 -0.008001 -0.000959 -0.001700
# 2 -0.002839 0.008941 -0.001112 0.001519 -0.000712 -0.000420
# 3 -0.006290 -0.001112 0.017163 0.002670 0.003266 -0.004435
# 4 -0.008001 0.001519 0.002670 0.058152 -0.010406 -0.007338
# 5 -0.000959 -0.000712 0.003266 -0.010406 0.028400 -0.001168
# 6 -0.001700 -0.000420 -0.004435 -0.007338 -0.001168 0.028497
#
#
# Mechanical properties :
#
#
# Convention : Reuss Voigt Hill
#
# Bulk Modulus (GPa) = 49.16360 56.62763 52.89562
# Shear Modulus (GPa) = 27.30244 34.16796 30.73520
#
# Velocity S-wave (km/s) = 3.53951 3.95961 3.75544
# Velocity P-wave (km/s) = 6.26607 6.84756 6.56326
#
# Compressibility (1/GPa) = 0.02034025
#
# Stress axis : x y z
#
# Youngs Moduli (GPa) = 67.94011 111.84212 58.26632
#
# Poissons Ratio (x) = 0.31749 0.36651
# Poissons Ratio (y) = 0.19286 0.06481
# Poissons Ratio (z) = 0.42736 0.12440
#
# Static dielectric constant tensor:
#      x y z
#    x 4.461930 0.318930 0.108420 
#    y 0.318930 4.599850 -0.154970 
#    z 0.108420 -0.154970 4.127970 
# 
# 
# High freq. dielectric constant tensor:
#      x y z
#    x 1.859390 0.004970 0.008640 
#    y 0.004970 1.879750 0.001330 
#    z 0.008640 0.001330 1.842980 
# 
# From -- ./inp_files/599783.got.cif
#   From: 2010.06.25/outbox.cif.g09.slc.cpg/sg2_300_cif.got.tgz:599783.got - 2010.06.27 13:26:56.
