data_PCOD8021601
_publ_section_title
;
Structure prediction by ZEFSAII (Michael W. Deem and Ramdas Pophale) SiO2 
 PCOD8021601
Probable space group: P -1
;
_chemical_formula_sum "Si O2"
_cell_formula_units_Z 16
_cell_length_a 10.799353
_cell_length_b 9.437299
_cell_length_c 13.001634
_cell_angle_alpha 78.176562
_cell_angle_beta 143.049483
_cell_angle_gamma 87.197185
_cell_volume 726.943390
_symmetry_space_group_name_H-M "P -1"
_symmetry_group_IT_number 2
_symmetry_cell_setting 'triclinic'
loop_
_space_group_symop_operation_xyz
x,y,z
-x,-y,-z
loop_
_atom_site_type_symbol
_atom_site_label
_atom_site_fract_x
_atom_site_fract_y
_atom_site_fract_z
Si Si1 0.784644 0.503695 0.416024
Si Si2 0.304654 0.955522 0.922519
Si Si3 0.620022 0.377599 0.011140
Si Si4 0.737005 0.371293 0.694767
Si Si5 0.843298 0.192196 0.581503
Si Si6 0.912280 0.598747 0.703796
Si Si7 0.872242 0.120065 0.984004
Si Si8 0.722202 0.927750 0.597076
O O1 0.553864 0.612667 0.197338
O O2 0.757113 0.335829 0.425060
O O3 0.827240 0.549473 0.550291
O O4 0.000000 0.500000 0.500000
O O5 0.300080 0.804299 0.878388
O O6 0.296874 0.927125 0.046783
O O7 0.500000 0.000000 0.000000
O O8 0.098725 0.108394 0.736676
O O9 0.500000 0.500000 0.000000
O O10 0.836343 0.412763 0.120194
O O11 0.500000 0.500000 0.500000
O O12 0.807504 0.243234 0.669906
O O13 0.898370 0.470655 0.795547
O O14 0.741842 0.285036 0.818997
O O15 0.727920 0.065375 0.504312
O O16 0.729711 0.772257 0.568129
O O17 0.059366 0.135954 0.179433
O O18 0.000000 0.000000 0.000000
O O19 0.500000 0.000000 0.500000
#
# Coordination Sequence:
#
# PCOD8021601 Si02
#       8
#     2   2   2   2   2   2   2   2
#     4  11  24  43  73 100 139 192 234 290 372 429
#     4  11  24  44  72 101 148 192 235 299 366 430
#     4  12  25  46  73 104 146 187 245 301 359 440
#     4  11  24  42  72 104 145 189 241 302 365 433
#     4  10  22  44  65 101 142 179 239 293 356 437
#     4  11  25  44  69 103 146 180 242 302 362 427
#     4  11  23  43  72 106 139 187 248 292 364 435
#     4  11  23  43  67  99 143 181 236 303 360 428
#
# _framework density 22.009967
#
# number of rings (size 3 to 8) (size 9 to 14) (size 15 to 20)
#    0.000    1.000    6.250    1.500    5.250    1.500 
#    0.000    3.750    0.000    0.000    0.000    0.000 
#    0.000    0.000    0.000    0.000    0.000    0.000 
#
# Total GULP energy -198219.298699 kJ/mol
# GULP energy per Si atom -12388.706169 kJ/mol
# Density = 2.195987 g / cm^3
# Si number density = 22.009967 Si / 1000 Ang^3
#
#
#
# Elastic Constant Matrix: (Units=GPa)
#
#
# Indices 1 2 3 4 5 6 
#
# 1 138.2756 52.3890 29.0086 -6.0652 23.6701 15.9706
# 2 52.3890 125.9130 15.2283 -15.0098 2.8838 4.8103
# 3 29.0086 15.2283 102.8304 -5.2906 15.1338 11.5364
# 4 -6.0652 -15.0098 -5.2906 32.9749 0.9424 8.0524
# 5 23.6701 2.8838 15.1338 0.9424 37.8669 -3.6652
# 6 15.9706 4.8103 11.5364 8.0524 -3.6652 48.8563
#
#
#
# Elastic Compliance Matrix: (Units=1/GPa)
#
#
# Indices 1 2 3 4 5 6 
#
# 1 0.010377 -0.003801 -0.001026 0.001021 -0.006142 -0.003404
# 2 -0.003801 0.009992 -0.000448 0.003761 0.001688 -0.000129
# 3 -0.001026 -0.000448 0.011128 0.002224 -0.004110 -0.002923
# 4 0.001021 0.003761 0.002224 0.034426 -0.003363 -0.007155
# 5 -0.006142 0.001688 -0.004110 -0.003363 0.032406 0.005797
# 6 -0.003404 -0.000129 -0.002923 -0.007155 0.005797 0.023898
#
#
# Mechanical properties :
#
#
# Convention : Reuss Voigt Hill
#
# Bulk Modulus (GPa) = 47.74040 62.25230 54.99635
# Shear Modulus (GPa) = 35.77592 41.96584 38.87088
#
# Velocity S-wave (km/s) = 4.03605 4.37129 4.20701
# Velocity P-wave (km/s) = 6.59220 7.33639 6.97423
#
# Compressibility (1/GPa) = 0.02094662
#
# Stress axis : x y z
#
# Youngs Moduli (GPa) = 96.37105 100.07834 89.86523
#
# Poissons Ratio (x) = 0.38039 0.09220
# Poissons Ratio (y) = 0.36630 0.04026
# Poissons Ratio (z) = 0.09888 0.04484
#
# Static dielectric constant tensor:
#      x y z
#    x 4.215840 0.280020 0.284120 
#    y 0.280020 4.392160 -0.102050 
#    z 0.284120 -0.102050 3.849280 
# 
# 
# High freq. dielectric constant tensor:
#      x y z
#    x 1.872700 0.002490 0.024910 
#    y 0.002490 1.889910 -0.019020 
#    z 0.024910 -0.019020 1.849070 
# 
# From -- ./inp_files/515564.got.cif
#   From: 2010.06.25/outbox.cif.g09.slc.cpg/sg2_258_cif.got.tgz:515564.got - 2010.06.27 13:26:56.
