data_PCOD8021231
_publ_section_title
;
Structure prediction by ZEFSAII (Michael W. Deem and Ramdas Pophale) SiO2 
 PCOD8021231
Probable space group: P -1
;
_chemical_formula_sum "Si O2"
_cell_formula_units_Z 16
_cell_length_a 13.169969
_cell_length_b 13.338999
_cell_length_c 13.878705
_cell_angle_alpha 33.228708
_cell_angle_beta 141.316464
_cell_angle_gamma 117.341434
_cell_volume 688.717035
_symmetry_space_group_name_H-M "P -1"
_symmetry_group_IT_number 2
_symmetry_cell_setting 'triclinic'
loop_
_space_group_symop_operation_xyz
x,y,z
-x,-y,-z
loop_
_atom_site_type_symbol
_atom_site_label
_atom_site_fract_x
_atom_site_fract_y
_atom_site_fract_z
Si Si1 0.849716 0.543176 0.435122
Si Si2 0.131372 0.764508 0.956280
Si Si3 0.701664 0.165653 0.373150
Si Si4 0.293193 0.401953 0.215512
Si Si5 0.571202 0.395218 0.280286
Si Si6 0.044868 0.514994 0.229498
Si Si7 0.692209 0.991862 0.175873
Si Si8 0.472676 0.966834 0.792073
O O1 0.720686 0.452905 0.381272
O O2 0.969183 0.423562 0.717627
O O3 0.000000 0.500000 0.500000
O O4 0.701231 0.812422 0.120608
O O5 0.279616 0.844210 0.000103
O O6 0.155355 0.644787 0.967390
O O7 0.177134 0.589505 0.216281
O O8 0.915989 0.985792 0.634715
O O9 0.692864 0.182427 0.469728
O O10 0.548728 0.108952 0.268686
O O11 0.623339 0.408274 0.077751
O O12 0.488298 0.345948 0.351456
O O13 0.384196 0.226740 0.512384
O O14 0.164628 0.355843 0.085117
O O15 0.122881 0.259610 0.488544
O O16 0.657501 0.070542 0.198687
O O17 0.500000 0.000000 0.000000
#
# Coordination Sequence:
#
# PCOD8021231 Si02
#       8
#     2   2   2   2   2   2   2   2
#     4  11  27  48  70 101 150 194 238 300 369 434
#     4  12  25  45  77 108 148 188 248 303 360 430
#     4  10  22  43  69 104 134 189 245 296 356 419
#     4  12  25  45  76 111 144 185 253 305 354 437
#     4  10  25  44  72 100 143 194 248 290 365 435
#     4  12  26  46  74 113 144 188 245 303 363 433
#     4  12  26  44  70 107 151 192 233 300 375 432
#     4  11  23  46  71 104 145 187 239 302 361 432
#
# _framework density 23.231603
#
# number of rings (size 3 to 8) (size 9 to 14) (size 15 to 20)
#    0.000    0.750    3.750    3.375    7.000    4.500 
#    0.000    1.250    0.000    0.000    0.000    0.000 
#    0.000    0.000    0.000    0.000    0.000    0.000 
#
# Total GULP energy -198290.656386 kJ/mol
# GULP energy per Si atom -12393.166024 kJ/mol
# Density = 2.317873 g / cm^3
# Si number density = 23.231603 Si / 1000 Ang^3
#
#
#
# Elastic Constant Matrix: (Units=GPa)
#
#
# Indices 1 2 3 4 5 6 
#
# 1 190.0319 74.1556 45.6909 -0.0404 2.6063 6.5268
# 2 74.1556 106.1346 35.8582 2.6672 -3.0936 3.4999
# 3 45.6909 35.8582 79.1996 -0.3650 -0.7135 2.9829
# 4 -0.0404 2.6672 -0.3650 32.6440 -1.5586 -2.2860
# 5 2.6063 -3.0936 -0.7135 -1.5586 36.6492 -4.4710
# 6 6.5268 3.4999 2.9829 -2.2860 -4.4710 45.9336
#
#
#
# Elastic Compliance Matrix: (Units=1/GPa)
#
#
# Indices 1 2 3 4 5 6 
#
# 1 0.007641 -0.004569 -0.002322 0.000260 -0.001046 -0.000676
# 2 -0.004569 0.013921 -0.003656 -0.001125 0.001369 -0.000097
# 3 -0.002322 -0.003656 0.015639 0.000451 0.000135 -0.000371
# 4 0.000260 -0.001125 0.000451 0.030917 0.001417 0.001696
# 5 -0.001046 0.001369 0.000135 0.001417 0.027883 0.002820
# 6 -0.000676 -0.000097 -0.000371 0.001696 0.002820 0.022257
#
#
# Mechanical properties :
#
#
# Convention : Reuss Voigt Hill
#
# Bulk Modulus (GPa) = 62.08912 76.30837 69.19875
# Shear Modulus (GPa) = 34.54916 37.68946 36.11931
#
# Velocity S-wave (km/s) = 3.86056 4.03219 3.94731
# Velocity P-wave (km/s) = 6.83052 7.38892 7.11520
#
# Compressibility (1/GPa) = 0.01610588
#
# Stress axis : x y z
#
# Youngs Moduli (GPa) = 130.86950 71.83438 63.94360
#
# Poissons Ratio (x) = 0.32821 0.14850
# Poissons Ratio (y) = 0.59793 0.23379
# Poissons Ratio (z) = 0.30393 0.26264
#
# Static dielectric constant tensor:
#      x y z
#    x 4.400950 -0.166210 -0.116510 
#    y -0.166210 4.258680 -0.173090 
#    z -0.116510 -0.173090 4.305490 
# 
# 
# High freq. dielectric constant tensor:
#      x y z
#    x 1.925280 -0.011860 -0.000600 
#    y -0.011860 1.912210 -0.009050 
#    z -0.000600 -0.009050 1.911490 
# 
# From -- ./inp_files/522207.got.cif
#   From: 2010.06.25/outbox.cif.g09.slc.cpg/sg2_262_cif.got.tgz:522207.got - 2010.06.27 13:26:56.
