data_PCOD8021850
_publ_section_title
;
Structure prediction by ZEFSAII (Michael W. Deem and Ramdas Pophale) SiO2 
 PCOD8021850
Probable space group: P -1
;
_chemical_formula_sum "Si O2"
_cell_formula_units_Z 16
_cell_length_a 6.406929
_cell_length_b 8.641518
_cell_length_c 18.270448
_cell_angle_alpha 130.456482
_cell_angle_beta 91.014216
_cell_angle_gamma 102.117867
_cell_volume 736.258634
_symmetry_space_group_name_H-M "P -1"
_symmetry_group_IT_number 2
_symmetry_cell_setting 'triclinic'
loop_
_space_group_symop_operation_xyz
x,y,z
-x,-y,-z
loop_
_atom_site_type_symbol
_atom_site_label
_atom_site_fract_x
_atom_site_fract_y
_atom_site_fract_z
Si Si1 0.411113 0.165089 0.360787
Si Si2 0.365468 0.172385 0.199777
Si Si3 0.549728 0.761181 0.259204
Si Si4 0.778865 0.549526 0.304768
Si Si5 0.912661 0.233924 0.991166
Si Si6 0.727462 0.616800 0.075263
Si Si7 0.128868 0.419524 0.185732
Si Si8 0.817520 0.572046 0.477509
O O1 0.319021 0.088553 0.256379
O O2 0.597953 0.383380 0.421899
O O3 0.217797 0.213220 0.421978
O O4 0.503857 0.985818 0.341941
O O5 0.616125 0.308246 0.230104
O O6 0.211259 0.319655 0.226104
O O7 0.300315 0.966184 0.083848
O O8 0.664450 0.715410 0.320230
O O9 0.691930 0.762922 0.187426
O O10 0.324337 0.576494 0.189195
O O11 0.873698 0.624012 0.408659
O O12 0.978950 0.557162 0.255979
O O13 0.102983 0.231566 0.933542
O O14 0.839159 0.446051 0.053564
O O15 0.005159 0.228847 0.072070
O O16 0.500000 0.500000 0.000000
O O17 0.000000 0.500000 0.500000
#
# Coordination Sequence:
#
# PCOD8021850 Si02
#       8
#     2   2   2   2   2   2   2   2
#     4  10  23  42  66  93 122 159 205 257 318 372
#     4  10  23  39  60  91 124 166 208 261 307 362
#     4  11  23  41  63  90 132 165 203 258 310 368
#     4  10  23  42  62  91 128 164 205 260 316 370
#     4  11  23  37  62  90 124 170 218 254 298 367
#     4  11  22  38  58  88 126 166 211 257 303 352
#     4  11  22  40  59  91 128 170 209 253 304 367
#     4  10  22  44  69  93 119 157 206 259 316 379
#
# _framework density 21.731493
#
# number of rings (size 3 to 8) (size 9 to 14) (size 15 to 20)
#    0.000    1.500    2.500    1.875    1.750    7.000 
#    0.000    1.250    0.000    0.000    0.000    0.000 
#    0.000    0.000    0.000    0.000    0.000    0.000 
#
# Total GULP energy -198424.613162 kJ/mol
# GULP energy per Si atom -12401.538323 kJ/mol
# Density = 2.168203 g / cm^3
# Si number density = 21.731493 Si / 1000 Ang^3
#
#
#
# Elastic Constant Matrix: (Units=GPa)
#
#
# Indices 1 2 3 4 5 6 
#
# 1 94.7055 25.2789 39.9579 -17.7172 -18.8491 -15.7692
# 2 25.2789 77.3250 32.0651 -14.8623 -14.6613 -19.9157
# 3 39.9579 32.0651 97.8216 -20.4527 -18.3771 -15.3016
# 4 -17.7172 -14.8623 -20.4527 37.5732 -7.9867 -1.3492
# 5 -18.8491 -14.6613 -18.3771 -7.9867 38.0661 -0.5715
# 6 -15.7692 -19.9157 -15.3016 -1.3492 -0.5715 26.9912
#
#
#
# Elastic Compliance Matrix: (Units=1/GPa)
#
#
# Indices 1 2 3 4 5 6 
#
# 1 0.016573 0.002116 -0.001531 0.010481 0.010648 0.011125
# 2 0.002116 0.021759 -0.000193 0.012760 0.012283 0.018079
# 3 -0.001531 -0.000193 0.016196 0.010309 0.009282 0.008856
# 4 0.010481 0.012760 0.010309 0.048538 0.025630 0.024351
# 5 0.010648 0.012283 0.009282 0.025630 0.046475 0.022812
# 6 0.011125 0.018079 0.008856 0.024351 0.022812 0.063610
#
#
# Mechanical properties :
#
#
# Convention : Reuss Voigt Hill
#
# Bulk Modulus (GPa) = 18.07981 51.60621 34.84301
# Shear Modulus (GPa) = 21.66339 32.02944 26.84641
#
# Velocity S-wave (km/s) = 3.16074 3.84327 3.51859
# Velocity P-wave (km/s) = 4.65383 6.59493 5.70750
#
# Compressibility (1/GPa) = 0.05531031
#
# Stress axis : x y z
#
# Youngs Moduli (GPa) = 60.34033 45.95829 61.74365
#
# Poissons Ratio (x) = -0.09724 0.09454
# Poissons Ratio (y) = -0.12766 0.01192
# Poissons Ratio (z) = 0.09239 0.00888
#
# Static dielectric constant tensor:
#      x y z
#    x 4.051320 -0.096870 0.043430 
#    y -0.096870 3.819240 -0.205510 
#    z 0.043430 -0.205510 3.950300 
# 
# 
# High freq. dielectric constant tensor:
#      x y z
#    x 1.859850 -0.011680 0.003180 
#    y -0.011680 1.846990 -0.012220 
#    z 0.003180 -0.012220 1.848780 
# 
# From -- ./inp_files/47888.got.cif
#   From: 2010.06.25/outbox.cif.g09.slc.cpg/sg2_24_cif.got.tgz:47888.got - 2010.06.27 13:26:56.
