data_PCOD8021286
_publ_section_title
;
Structure prediction by ZEFSAII (Michael W. Deem and Ramdas Pophale) SiO2 
 PCOD8021286
Probable space group: P -1
;
_chemical_formula_sum "Si O2"
_cell_formula_units_Z 14
_cell_length_a 13.380980
_cell_length_b 9.375947
_cell_length_c 17.495762
_cell_angle_alpha 48.997790
_cell_angle_beta 31.847416
_cell_angle_gamma 34.880551
_cell_volume 656.275097
_symmetry_space_group_name_H-M "P -1"
_symmetry_group_IT_number 2
_symmetry_cell_setting 'triclinic'
loop_
_space_group_symop_operation_xyz
x,y,z
-x,-y,-z
loop_
_atom_site_type_symbol
_atom_site_label
_atom_site_fract_x
_atom_site_fract_y
_atom_site_fract_z
Si Si1 0.359324 0.048678 0.893211
Si Si2 0.961923 0.800223 0.091785
Si Si3 0.363286 0.425700 0.847153
Si Si4 0.046307 0.007962 0.357651
Si Si5 0.796325 0.806509 0.365488
Si Si6 0.052381 0.904090 0.779233
Si Si7 0.078500 0.257872 0.381686
O O1 0.284266 0.287530 0.903452
O O2 0.270182 0.111068 0.841663
O O3 0.656178 0.819156 0.782734
O O4 0.217875 0.968409 0.053852
O O5 0.896126 0.760669 0.230551
O O6 0.215734 0.538978 0.983727
O O7 0.000000 0.000000 0.000000
O O8 0.280661 0.651121 0.765148
O O9 0.657687 0.237695 0.741154
O O10 0.892673 0.917692 0.508683
O O11 0.957647 0.144740 0.285836
O O12 0.969275 0.224128 0.389827
O O13 0.889763 0.545352 0.429752
O O14 0.500000 0.000000 0.500000
O O15 0.914269 0.893975 0.308865
#
# Coordination Sequence:
#
# PCOD8021286 Si02
#       7
#     2   2   2   2   2   2   2
#     4  10  23  42  67  99 126 166 219 265 326 379
#     4  11  22  41  66  93 132 170 210 270 320 379
#     4  10  22  43  69  99 130 164 218 270 318 386
#     4  10  24  45  67  94 133 168 216 274 316 376
#     4  12  27  43  62  96 132 174 217 259 327 389
#     4  11  23  42  67  96 130 171 213 265 324 379
#     4  10  25  44  63  96 129 169 220 263 323 388
#
# _framework density 21.332518
#
# number of rings (size 3 to 8) (size 9 to 14) (size 15 to 20)
#    0.000    1.429    2.857    2.571    8.000    3.429 
#    0.000    2.857    0.000    0.000    0.000    0.000 
#    0.000    0.000    0.000    0.000    0.000    0.000 
#
# Total GULP energy -173607.077948 kJ/mol
# GULP energy per Si atom -12400.505568 kJ/mol
# Density = 2.128396 g / cm^3
# Si number density = 21.332518 Si / 1000 Ang^3
#
#
#
# Elastic Constant Matrix: (Units=GPa)
#
#
# Indices 1 2 3 4 5 6 
#
# 1 78.8455 6.0902 11.7913 -1.3065 3.1895 3.8713
# 2 6.0902 96.6272 25.1316 8.9433 -15.6813 17.8452
# 3 11.7913 25.1316 87.0297 0.3486 -13.0804 3.8736
# 4 -1.3065 8.9433 0.3486 26.1635 8.3005 5.9349
# 5 3.1895 -15.6813 -13.0804 8.3005 33.9500 -16.3098
# 6 3.8713 17.8452 3.8736 5.9349 -16.3098 25.2215
#
#
#
# Elastic Compliance Matrix: (Units=1/GPa)
#
#
# Indices 1 2 3 4 5 6 
#
# 1 0.013800 -0.000500 -0.002485 0.004712 -0.007012 -0.007026
# 2 -0.000500 0.013115 -0.002956 -0.004246 0.003309 -0.005610
# 3 -0.002485 -0.002956 0.013602 -0.003218 0.007897 0.006248
# 4 0.004712 -0.004246 -0.003218 0.057899 -0.033382 -0.032436
# 5 -0.007012 0.003309 0.007897 -0.033382 0.065903 0.047995
# 6 -0.007026 -0.005610 0.006248 -0.032436 0.047995 0.082406
#
#
# Mechanical properties :
#
#
# Convention : Reuss Voigt Hill
#
# Bulk Modulus (GPa) = 34.92102 38.72539 36.82321
# Shear Modulus (GPa) = 18.64607 31.69960 25.17284
#
# Velocity S-wave (km/s) = 2.95967 3.85902 3.43887
# Velocity P-wave (km/s) = 5.29952 6.16836 5.75037
#
# Compressibility (1/GPa) = 0.02863604
#
# Stress axis : x y z
#
# Youngs Moduli (GPa) = 72.46358 76.24662 73.51692
#
# Poissons Ratio (x) = 0.03811 0.18272
# Poissons Ratio (y) = 0.03622 0.21728
# Poissons Ratio (z) = 0.18011 0.22535
#
# Static dielectric constant tensor:
#      x y z
#    x 3.942220 0.191110 0.000020 
#    y 0.191110 3.734280 -0.048890 
#    z 0.000020 -0.048890 3.961720 
# 
# 
# High freq. dielectric constant tensor:
#      x y z
#    x 1.840320 0.013700 -0.003820 
#    y 0.013700 1.828380 -0.001560 
#    z -0.003820 -0.001560 1.847900 
# 
# From -- ./inp_files/153711.got.cif
#   From: 2010.06.25/outbox.cif.g09.slc.cpg/sg2_77_cif.got.tgz:153711.got - 2010.06.27 13:26:56.
