data_PCOD8021195
_publ_section_title
;
Structure prediction by ZEFSAII (Michael W. Deem and Ramdas Pophale) SiO2 
 PCOD8021195
Probable space group: P -1
;
_chemical_formula_sum "Si O2"
_cell_formula_units_Z 16
_cell_length_a 20.626126
_cell_length_b 17.549232
_cell_length_c 8.037359
_cell_angle_alpha 67.033531
_cell_angle_beta 122.693720
_cell_angle_gamma 159.705621
_cell_volume 778.731552
_symmetry_space_group_name_H-M "P -1"
_symmetry_group_IT_number 2
_symmetry_cell_setting 'triclinic'
loop_
_space_group_symop_operation_xyz
x,y,z
-x,-y,-z
loop_
_atom_site_type_symbol
_atom_site_label
_atom_site_fract_x
_atom_site_fract_y
_atom_site_fract_z
Si Si1 0.770905 0.794345 0.944245
Si Si2 0.508488 0.835520 0.318876
Si Si3 0.952714 0.040420 0.322892
Si Si4 0.487540 0.618521 0.132717
Si Si5 0.635920 0.319881 0.113955
Si Si6 0.928837 0.334627 0.569452
Si Si7 0.437334 0.575590 0.470554
Si Si8 0.441130 0.035860 0.392952
O O1 0.627118 0.566715 0.986717
O O2 0.607874 0.687202 0.702185
O O3 0.842471 0.920051 0.092887
O O4 0.000000 0.000000 0.000000
O O5 0.376618 0.718747 0.064943
O O6 0.543214 0.773173 0.450235
O O7 0.740466 0.116697 0.362572
O O8 0.410144 0.773409 0.410885
O O9 0.758190 0.892345 0.279182
O O10 0.000000 0.000000 0.500000
O O11 0.185924 0.325240 0.410480
O O12 0.396740 0.616117 0.954886
O O13 0.406337 0.511899 0.294630
O O14 0.881388 0.539723 0.314127
O O15 0.470132 0.105788 0.192644
O O16 0.820785 0.216994 0.705393
O O17 0.000000 0.500000 0.500000
O O18 0.500000 0.000000 0.500000
#
# Coordination Sequence:
#
# PCOD8021195 Si02
#       8
#     2   2   2   2   2   2   2   2
#     4  12  24  40  68  92 132 184 219 274 337 377
#     4   9  25  42  65 101 132 172 221 276 334 394
#     4  12  25  42  64  95 133 175 235 273 324 400
#     4  11  25  43  65  98 128 177 228 275 330 394
#     4  11  23  45  66  97 139 169 221 282 333 397
#     4  10  22  44  69  96 133 170 217 274 338 409
#     4  11  24  46  62  92 139 172 224 281 324 393
#     4  10  22  43  68  98 130 167 218 267 328 414
#
# _framework density 20.546233000000001
#
# number of rings (size 3 to 8) (size 9 to 14) (size 15 to 20)
#    0.750    0.500    3.750    1.500    3.500    4.000 
#    6.750    1.250    0.000    0.000    0.000    0.000 
#    0.000    0.000    0.000    0.000    0.000    0.000 
#
# Total GULP energy -198219.060444 kJ/mol
# GULP energy per Si atom -12388.691278 kJ/mol
# Density = 2.049947 g / cm^3
# Si number density = 20.546233 Si / 1000 Ang^3
#
#
#
# Elastic Constant Matrix: (Units=GPa)
#
#
# Indices 1 2 3 4 5 6 
#
# 1 79.9155 18.3692 22.8176 -6.4352 7.6055 -6.7536
# 2 18.3692 110.0930 23.9239 2.0664 10.1782 1.3755
# 3 22.8176 23.9239 78.7118 -12.0061 11.7081 -6.8530
# 4 -6.4352 2.0664 -12.0061 39.2339 4.8368 3.1175
# 5 7.6055 10.1782 11.7081 4.8368 32.6975 7.4198
# 6 -6.7536 1.3755 -6.8530 3.1175 7.4198 45.0619
#
#
#
# Elastic Compliance Matrix: (Units=1/GPa)
#
#
# Indices 1 2 3 4 5 6 
#
# 1 0.014236 -0.001584 -0.002833 0.001699 -0.002520 0.002048
# 2 -0.001584 0.010094 -0.002650 -0.001371 -0.001483 -0.000609
# 3 -0.002833 -0.002650 0.016192 0.005116 -0.005684 0.002701
# 4 0.001699 -0.001371 0.005116 0.028134 -0.005988 0.000114
# 5 -0.002520 -0.001483 -0.005684 -0.005988 0.036078 -0.006723
# 6 0.002048 -0.000609 0.002701 0.000114 -0.006723 0.024027
#
#
# Mechanical properties :
#
#
# Convention : Reuss Voigt Hill
#
# Bulk Modulus (GPa) = 37.89686 44.32687 41.11187
# Shear Modulus (GPa) = 32.96156 36.97265 34.96710
#
# Velocity S-wave (km/s) = 4.00967 4.24664 4.12985
# Velocity P-wave (km/s) = 6.31833 6.75768 6.54170
#
# Compressibility (1/GPa) = 0.02638741
#
# Stress axis : x y z
#
# Youngs Moduli (GPa) = 70.24441 99.06890 61.75773
#
# Poissons Ratio (x) = 0.15694 0.17496
# Poissons Ratio (y) = 0.11128 0.16368
# Poissons Ratio (z) = 0.19900 0.26256
#
# Static dielectric constant tensor:
#      x y z
#    x 3.816970 0.143150 -0.033660 
#    y 0.143150 4.021780 -0.012040 
#    z -0.033660 -0.012040 3.593340 
# 
# 
# High freq. dielectric constant tensor:
#      x y z
#    x 1.809570 0.002900 0.004110 
#    y 0.002900 1.810710 -0.003660 
#    z 0.004110 -0.003660 1.793380 
# 
# From -- ./inp_files/348446.got.cif
#   From: 2010.06.25/outbox.cif.g09.slc.cpg/sg2_175_cif.got.tgz:348446.got - 2010.06.27 13:26:56.
