data_PCOD8021234
_publ_section_title
;
Structure prediction by ZEFSAII (Michael W. Deem and Ramdas Pophale) SiO2 
 PCOD8021234
Probable space group: P -1
;
_chemical_formula_sum "Si O2"
_cell_formula_units_Z 12
_cell_length_a 14.175574
_cell_length_b 11.700883
_cell_length_c 5.147271
_cell_angle_alpha 105.197066
_cell_angle_beta 75.861023
_cell_angle_gamma 48.705871
_cell_volume 506.242576
_symmetry_space_group_name_H-M "P -1"
_symmetry_group_IT_number 2
_symmetry_cell_setting 'triclinic'
loop_
_space_group_symop_operation_xyz
x,y,z
-x,-y,-z
loop_
_atom_site_type_symbol
_atom_site_label
_atom_site_fract_x
_atom_site_fract_y
_atom_site_fract_z
Si Si1 0.177339 0.815946 0.315895
Si Si2 0.318425 0.306094 0.244126
Si Si3 0.136517 0.100878 0.658900
Si Si4 0.957019 0.466153 0.757129
Si Si5 0.610356 0.964488 0.598458
Si Si6 0.829089 0.323356 0.248782
O O1 0.210174 0.710844 0.487476
O O2 0.235254 0.897047 0.357404
O O3 0.244288 0.683052 0.943616
O O4 0.000000 0.000000 0.500000
O O5 0.225167 0.384458 0.078748
O O6 0.257909 0.470261 0.559351
O O7 0.293289 0.212776 0.383033
O O8 0.498607 0.150884 0.964053
O O9 0.037247 0.261020 0.595832
O O10 0.265221 0.071926 0.661135
O O11 0.013572 0.173255 0.002895
O O12 0.000000 0.500000 0.500000
O O13 0.000000 0.500000 0.000000
O O14 0.500000 0.000000 0.500000
#
# Coordination Sequence:
#
# PCOD8021234 Si02
#       6
#     2   2   2   2   2   2
#     4  10  22  43  69 107 134 178 235 303 350 406
#     4  11  25  45  66 102 146 188 230 298 353 424
#     4  11  23  44  73 105 142 184 237 296 352 421
#     4  12  24  39  68 104 135 176 236 281 346 416
#     4  11  26  46  67 102 150 189 232 286 366 424
#     4  11  24  43  76 101 137 180 244 294 351 411
#
# _framework density 23.704049000000001
#
# number of rings (size 3 to 8) (size 9 to 14) (size 15 to 20)
#    0.000    1.000    1.667    6.000    4.667    1.333 
#   18.000    1.667    0.000    0.000    0.000    0.000 
#    0.000    0.000    0.000    0.000    0.000    0.000 
#
# Total GULP energy -148716.632668 kJ/mol
# GULP energy per Si atom -12393.052722 kJ/mol
# Density = 2.365010 g / cm^3
# Si number density = 23.704049 Si / 1000 Ang^3
#
#
#
# Elastic Constant Matrix: (Units=GPa)
#
#
# Indices 1 2 3 4 5 6 
#
# 1 120.4391 65.7324 43.9135 8.7217 19.2368 3.8147
# 2 65.7324 126.0474 55.3158 -1.4965 24.3844 1.9924
# 3 43.9135 55.3158 121.8379 9.1939 34.2174 -1.1685
# 4 8.7217 -1.4965 9.1939 48.2413 1.5722 7.4582
# 5 19.2368 24.3844 34.2174 1.5722 38.6048 -0.1358
# 6 3.8147 1.9924 -1.1685 7.4582 -0.1358 27.9847
#
#
#
# Elastic Compliance Matrix: (Units=1/GPa)
#
#
# Indices 1 2 3 4 5 6 
#
# 1 0.012187 -0.005506 -0.001394 -0.001940 -0.001284 -0.000817
# 2 -0.005506 0.012774 -0.003290 0.002240 -0.002504 -0.000905
# 3 -0.001394 -0.003290 0.012757 -0.002240 -0.008438 0.001513
# 4 -0.001940 0.002240 -0.002240 0.022481 0.000601 -0.005977
# 5 -0.001284 -0.002504 -0.008438 0.000601 0.035579 0.000013
# 6 -0.000817 -0.000905 0.001513 -0.005977 0.000013 0.037566
#
#
# Mechanical properties :
#
#
# Convention : Reuss Voigt Hill
#
# Bulk Modulus (GPa) = 57.67163 77.58309 67.62736
# Shear Modulus (GPa) = 31.34759 36.52367 33.93563
#
# Velocity S-wave (km/s) = 3.64051 3.92959 3.78780
# Velocity P-wave (km/s) = 6.48488 7.30683 6.90809
#
# Compressibility (1/GPa) = 0.01733955
#
# Stress axis : x y z
#
# Youngs Moduli (GPa) = 82.05140 78.28679 78.38921
#
# Poissons Ratio (x) = 0.43103 0.10927
# Poissons Ratio (y) = 0.45175 0.25787
# Poissons Ratio (z) = 0.11437 0.25753
#
# Static dielectric constant tensor:
#      x y z
#    x 6.805110 1.889180 1.959890 
#    y 1.889180 5.572650 1.490420 
#    z 1.959890 1.490420 5.885660 
# 
# 
# High freq. dielectric constant tensor:
#      x y z
#    x 1.923070 0.013780 0.016650 
#    y 0.013780 1.947700 0.005090 
#    z 0.016650 0.005090 1.935330 
# 
# From -- ./inp_files/91824.got.cif
#   From: 2010.06.25/outbox.cif.g09.slc.cpg/sg2_46_cif.got.tgz:91824.got - 2010.06.27 13:26:56.
