data_PCOD8021021
_publ_section_title
;
Structure prediction by ZEFSAII (Michael W. Deem and Ramdas Pophale) SiO2 
 PCOD8021021
Probable space group: P -1
;
_chemical_formula_sum "Si O2"
_cell_formula_units_Z 16
_cell_length_a 12.445692
_cell_length_b 21.873446
_cell_length_c 17.852709
_cell_angle_alpha 159.185643
_cell_angle_beta 151.471621
_cell_angle_gamma 29.935268
_cell_volume 794.801436
_symmetry_space_group_name_H-M "P -1"
_symmetry_group_IT_number 2
_symmetry_cell_setting 'triclinic'
loop_
_space_group_symop_operation_xyz
x,y,z
-x,-y,-z
loop_
_atom_site_type_symbol
_atom_site_label
_atom_site_fract_x
_atom_site_fract_y
_atom_site_fract_z
Si Si1 0.708648 0.905154 0.073486
Si Si2 0.961510 0.062530 0.807408
Si Si3 0.708423 0.545572 0.722581
Si Si4 0.433957 0.605879 0.006956
Si Si5 0.268633 0.455046 0.594328
Si Si6 0.623643 0.957156 0.851188
Si Si7 0.495631 0.289775 0.058242
Si Si8 0.197407 0.264277 0.702316
O O1 0.948909 0.927047 0.211203
O O2 0.633882 0.987115 0.203943
O O3 0.763277 0.693291 0.871612
O O4 0.500000 0.000000 0.000000
O O5 0.799821 0.930534 0.548471
O O6 0.806552 0.243470 0.956096
O O7 0.183153 0.999558 0.925913
O O8 0.500000 0.500000 0.500000
O O9 0.639375 0.608564 0.836744
O O10 0.930978 0.378439 0.672020
O O11 0.406927 0.467471 0.768533
O O12 0.500000 0.500000 0.000000
O O13 0.652611 0.678077 0.203782
O O14 0.340723 0.250526 0.379255
O O15 0.327091 0.596318 0.731989
O O16 0.000000 0.500000 0.500000
O O17 0.627826 0.084135 0.926932
O O18 0.311793 0.272749 0.862869
#
# Coordination Sequence:
#
# PCOD8021021 Si02
#       8
#     2   2   2   2   2   2   2   2
#     4   9  20  37  62  97 122 156 215 269 312 376
#     4  11  22  41  65  92 131 169 221 266 318 392
#     4  11  22  40  68  95 126 171 215 265 329 383
#     4  11  25  43  63  93 131 174 216 265 327 392
#     4  11  24  43  67  95 130 173 220 271 317 386
#     4  10  22  43  66  98 127 168 223 266 327 378
#     4  10  25  42  64  97 136 167 213 275 325 386
#     4  11  24  42  62  95 131 170 211 266 334 384
#
# _framework density 20.130814000000001
#
# number of rings (size 3 to 8) (size 9 to 14) (size 15 to 20)
#    0.000    1.500    1.250    3.750    7.000    2.500 
#    0.000    1.250    0.000    0.000    0.000    0.000 
#    0.000    0.000    0.000    0.000    0.000    0.000 
#
# Total GULP energy -198273.952597 kJ/mol
# GULP energy per Si atom -12392.122037 kJ/mol
# Density = 2.008500 g / cm^3
# Si number density = 20.130814 Si / 1000 Ang^3
#
#
#
# Elastic Constant Matrix: (Units=GPa)
#
#
# Indices 1 2 3 4 5 6 
#
# 1 123.6287 43.6745 57.8170 -4.3984 14.6198 11.3492
# 2 43.6745 89.2758 41.0884 2.8987 8.8449 8.7418
# 3 57.8170 41.0884 139.7563 3.1394 10.8881 7.7165
# 4 -4.3984 2.8987 3.1394 34.1085 -2.9960 4.0601
# 5 14.6198 8.8449 10.8881 -2.9960 32.6603 4.8408
# 6 11.3492 8.7418 7.7165 4.0601 4.8408 38.5116
#
#
#
# Elastic Compliance Matrix: (Units=1/GPa)
#
#
# Indices 1 2 3 4 5 6 
#
# 1 0.011546 -0.003708 -0.003436 0.002106 -0.002563 -0.001772
# 2 -0.003708 0.014486 -0.002512 -0.001434 -0.001354 -0.001371
# 3 -0.003436 -0.002512 0.009425 -0.001181 -0.001024 -0.000052
# 4 0.002106 -0.001434 -0.001181 0.030538 0.003186 -0.003679
# 5 -0.002563 -0.001354 -0.001024 0.003186 0.033247 -0.003247
# 6 -0.001772 -0.001371 -0.000052 -0.003679 -0.003247 0.027606
#
#
# Mechanical properties :
#
#
# Convention : Reuss Voigt Hill
#
# Bulk Modulus (GPa) = 61.93750 70.86893 66.40322
# Shear Modulus (GPa) = 32.99416 35.06146 34.02781
#
# Velocity S-wave (km/s) = 4.05283 4.17787 4.11583
# Velocity P-wave (km/s) = 7.26188 7.65202 7.45950
#
# Compressibility (1/GPa) = 0.01614531
#
# Stress axis : x y z
#
# Youngs Moduli (GPa) = 86.60655 69.03166 106.10612
#
# Poissons Ratio (x) = 0.25597 0.36462
# Poissons Ratio (y) = 0.32114 0.26649
# Poissons Ratio (z) = 0.29761 0.17337
#
# Static dielectric constant tensor:
#      x y z
#    x 4.001730 -0.025560 0.037070 
#    y -0.025560 3.746840 0.257180 
#    z 0.037070 0.257180 3.897030 
# 
# 
# High freq. dielectric constant tensor:
#      x y z
#    x 1.802860 -0.001130 0.004990 
#    y -0.001130 1.784640 0.008970 
#    z 0.004990 0.008970 1.792990 
# 
# From -- ./inp_files/262028.got.cif
#   From: 2010.06.25/outbox.cif.g09.slc.cpg/sg2_132_cif.got.tgz:262028.got - 2010.06.27 13:26:56.
