data_PCOD8021676
_publ_section_title
;
Structure prediction by ZEFSAII (Michael W. Deem and Ramdas Pophale) SiO2 
 PCOD8021676
Probable space group: P -1
;
_chemical_formula_sum "Si O2"
_cell_formula_units_Z 16
_cell_length_a 10.260213
_cell_length_b 14.696720
_cell_length_c 6.870196
_cell_angle_alpha 86.651559
_cell_angle_beta 57.822128
_cell_angle_gamma 114.386596
_cell_volume 744.754511
_symmetry_space_group_name_H-M "P -1"
_symmetry_group_IT_number 2
_symmetry_cell_setting 'triclinic'
loop_
_space_group_symop_operation_xyz
x,y,z
-x,-y,-z
loop_
_atom_site_type_symbol
_atom_site_label
_atom_site_fract_x
_atom_site_fract_y
_atom_site_fract_z
Si Si1 0.144656 0.979833 0.483432
Si Si2 0.340715 0.758509 0.862354
Si Si3 0.037859 0.294391 0.843540
Si Si4 0.347160 0.115446 0.659992
Si Si5 0.832961 0.788146 0.944808
Si Si6 0.397472 0.471882 0.381662
Si Si7 0.496853 0.353087 0.019295
Si Si8 0.258691 0.922470 0.024551
O O1 0.268374 0.968343 0.225829
O O2 0.037659 0.872443 0.708504
O O3 0.265830 0.079200 0.513861
O O4 0.000000 0.000000 0.500000
O O5 0.449390 0.786849 0.566428
O O6 0.388504 0.696446 0.989198
O O7 0.380880 0.869148 0.920159
O O8 0.125886 0.684987 0.989885
O O9 0.183060 0.384702 0.572940
O O10 0.950492 0.172304 0.844468
O O11 0.151436 0.303967 0.946289
O O12 0.241142 0.158067 0.858108
O O13 0.340982 0.018881 0.792323
O O14 0.705388 0.741933 0.863621
O O15 0.500000 0.500000 0.500000
O O16 0.495058 0.426425 0.180615
O O17 0.414623 0.576647 0.255150
#
# Coordination Sequence:
#
# PCOD8021676 Si02
#       8
#     2   2   2   2   2   2   2   2
#     4  12  21  36  63  95 129 182 232 272 307 376
#     4  10  25  44  62 100 140 179 217 273 334 398
#     4  10  22  44  66  95 133 170 220 274 333 389
#     4  12  23  41  63  94 142 183 228 261 324 387
#     4  12  22  41  69  98 133 179 226 277 319 391
#     4  11  23  47  78  98 125 166 222 284 336 403
#     4  11  25  45  72 101 128 169 224 272 347 396
#     4  10  23  42  62  92 141 180 226 262 329 382
#
# _framework density 21.483587
#
# number of rings (size 3 to 8) (size 9 to 14) (size 15 to 20)
#    0.750    0.250    3.750    3.750    0.000    1.000 
#    4.500    0.625    0.000    0.000    0.000    0.000 
#    0.000    0.000    0.000    0.000    0.000    0.000 
#
# Total GULP energy -198356.645513 kJ/mol
# GULP energy per Si atom -12397.290345 kJ/mol
# Density = 2.143469 g / cm^3
# Si number density = 21.483587 Si / 1000 Ang^3
#
#
#
# Elastic Constant Matrix: (Units=GPa)
#
#
# Indices 1 2 3 4 5 6 
#
# 1 138.2969 39.3287 44.6731 -6.9361 12.5602 -22.7299
# 2 39.3287 62.5437 35.4647 -2.3703 11.5953 0.8360
# 3 44.6731 35.4647 123.8346 -12.6720 13.7576 -9.4171
# 4 -6.9361 -2.3703 -12.6720 50.3587 3.6669 2.8819
# 5 12.5602 11.5953 13.7576 3.6669 22.8425 -4.1108
# 6 -22.7299 0.8360 -9.4171 2.8819 -4.1108 31.1425
#
#
#
# Elastic Compliance Matrix: (Units=1/GPa)
#
#
# Indices 1 2 3 4 5 6 
#
# 1 0.010661 -0.005793 -0.001496 0.000455 -0.000772 0.007340
# 2 -0.005793 0.023597 -0.004366 0.000170 -0.007484 -0.007185
# 3 -0.001496 -0.004366 0.010616 0.002423 -0.003465 0.001554
# 4 0.000455 0.000170 0.002423 0.021028 -0.005461 -0.001606
# 5 -0.000772 -0.007484 -0.003465 -0.005461 0.052038 0.005964
# 6 0.007340 -0.007185 0.001554 -0.001606 0.005964 0.039066
#
#
# Mechanical properties :
#
#
# Convention : Reuss Voigt Hill
#
# Bulk Modulus (GPa) = 46.37239 62.62312 54.49775
# Shear Modulus (GPa) = 26.66603 34.54933 30.60768
#
# Velocity S-wave (km/s) = 3.52693 4.01455 3.77862
# Velocity P-wave (km/s) = 6.18203 7.12049 6.66779
#
# Compressibility (1/GPa) = 0.02156456
#
# Stress axis : x y z
#
# Youngs Moduli (GPa) = 93.80048 42.37814 94.19429
#
# Poissons Ratio (x) = 0.24550 0.14094
# Poissons Ratio (y) = 0.54339 0.41121
# Poissons Ratio (z) = 0.14035 0.18501
#
# Static dielectric constant tensor:
#      x y z
#    x 3.779560 0.012890 -0.009080 
#    y 0.012890 3.845240 -0.283780 
#    z -0.009080 -0.283780 4.320800 
# 
# 
# High freq. dielectric constant tensor:
#      x y z
#    x 1.838840 0.000740 0.006680 
#    y 0.000740 1.831410 -0.013050 
#    z 0.006680 -0.013050 1.851440 
# 
# From -- ./inp_files/81448.got.cif
#   From: 2010.06.25/outbox.cif.g09.slc.cpg/sg2_41_cif.got.tgz:81448.got - 2010.06.27 13:26:56.
