data_PCOD8021239
_publ_section_title
;
Structure prediction by ZEFSAII (Michael W. Deem and Ramdas Pophale) SiO2 
 PCOD8021239
Probable space group: P -1
;
_chemical_formula_sum "Si O2"
_cell_formula_units_Z 16
_cell_length_a 8.789583
_cell_length_b 8.093747
_cell_length_c 17.231780
_cell_angle_alpha 66.525286
_cell_angle_beta 129.451117
_cell_angle_gamma 132.140557
_cell_volume 701.053958
_symmetry_space_group_name_H-M "P -1"
_symmetry_group_IT_number 2
_symmetry_cell_setting 'triclinic'
loop_
_space_group_symop_operation_xyz
x,y,z
-x,-y,-z
loop_
_atom_site_type_symbol
_atom_site_label
_atom_site_fract_x
_atom_site_fract_y
_atom_site_fract_z
Si Si1 0.820674 0.104206 0.187949
Si Si2 0.692002 0.778782 0.067468
Si Si3 0.318702 0.937989 0.117644
Si Si4 0.094965 0.721650 0.533937
Si Si5 0.654063 0.414920 0.544922
Si Si6 0.204341 0.058448 0.379534
Si Si7 0.160773 0.473803 0.927252
Si Si8 0.637055 0.054326 0.692040
O O1 0.876250 0.341867 0.146455
O O2 0.045373 0.155524 0.303956
O O3 0.814612 0.976278 0.132938
O O4 0.557906 0.946616 0.174966
O O5 0.827850 0.660626 0.118307
O O6 0.410210 0.588973 0.036028
O O7 0.679097 0.873584 0.962634
O O8 0.294148 0.966661 0.195494
O O9 0.070343 0.696310 0.060841
O O10 0.000000 0.500000 0.500000
O O11 0.912739 0.637898 0.563142
O O12 0.075851 0.880318 0.440497
O O13 0.361648 0.840747 0.631920
O O14 0.500000 0.500000 0.500000
O O15 0.495423 0.235076 0.457972
O O16 0.673909 0.288627 0.647355
O O17 0.185117 0.944981 0.312653
#
# Coordination Sequence:
#
# PCOD8021239 Si02
#       8
#     2   2   2   2   2   2   2   2
#     4  11  26  43  66 100 139 169 224 279 323 396
#     4  10  23  47  68  96 134 174 219 278 326 397
#     4  11  24  41  68 101 131 169 225 273 327 396
#     4  11  21  45  68  92 129 177 217 267 335 391
#     4  11  25  40  69  94 132 173 215 269 331 389
#     4  11  24  43  63 100 132 171 224 270 323 397
#     4  10  22  43  69  91 129 174 218 262 343 384
#     4  11  24  42  66  98 132 171 225 274 318 398
#
# _framework density 22.822780999999999
#
# number of rings (size 3 to 8) (size 9 to 14) (size 15 to 20)
#    0.000    1.250    2.500    3.375    5.250    4.000 
#    6.750    0.000    0.000    0.000    0.000    0.000 
#    0.000    0.000    0.000    0.000    0.000    0.000 
#
# Total GULP energy -198321.145740 kJ/mol
# GULP energy per Si atom -12395.071609 kJ/mol
# Density = 2.277084 g / cm^3
# Si number density = 22.822781 Si / 1000 Ang^3
#
#
#
# Elastic Constant Matrix: (Units=GPa)
#
#
# Indices 1 2 3 4 5 6 
#
# 1 54.6707 42.8358 9.8106 -1.1448 7.4536 10.0708
# 2 42.8358 117.9660 28.4652 -4.8336 9.1590 9.3857
# 3 9.8106 28.4652 72.3887 -4.4065 -2.5846 3.1409
# 4 -1.1448 -4.8336 -4.4065 20.8291 -0.6263 8.5147
# 5 7.4536 9.1590 -2.5846 -0.6263 43.7958 4.4915
# 6 10.0708 9.3857 3.1409 8.5147 4.4915 53.9343
#
#
#
# Elastic Compliance Matrix: (Units=1/GPa)
#
#
# Indices 1 2 3 4 5 6 
#
# 1 0.026345 -0.009140 0.000122 0.000614 -0.002223 -0.003248
# 2 -0.009140 0.012918 -0.003751 0.001872 -0.001288 -0.000511
# 3 0.000122 -0.003751 0.015548 0.002837 0.001811 -0.000874
# 4 0.000614 0.001872 0.002837 0.052822 0.001356 -0.009058
# 5 -0.002223 -0.001288 0.001811 0.001356 0.023778 -0.001660
# 6 -0.003248 -0.000511 -0.000874 -0.009058 -0.001660 0.020856
#
#
# Mechanical properties :
#
#
# Convention : Reuss Voigt Hill
#
# Bulk Modulus (GPa) = 34.15932 45.24985 39.70459
# Shear Modulus (GPa) = 26.65806 34.63943 30.64874
#
# Velocity S-wave (km/s) = 3.42138 3.90007 3.66854
# Velocity P-wave (km/s) = 5.53240 6.33643 5.94802
#
# Compressibility (1/GPa) = 0.02927458
#
# Stress axis : x y z
#
# Youngs Moduli (GPa) = 37.95832 77.40914 64.31673
#
# Poissons Ratio (x) = 0.70750 -0.00788
# Poissons Ratio (y) = 0.34693 0.24125
# Poissons Ratio (z) = -0.00465 0.29036
#
# Static dielectric constant tensor:
#      x y z
#    x 2.997670 0.819770 1.722610 
#    y 0.819770 3.642120 -0.797260 
#    z 1.722610 -0.797260 2.012190 
# 
# 
# High freq. dielectric constant tensor:
#      x y z
#    x 1.906890 0.004530 0.015610 
#    y 0.004530 1.910460 0.011390 
#    z 0.015610 0.011390 1.891340 
# 
# From -- ./inp_files/556161.got.cif
#   From: 2010.06.25/outbox.cif.g09.slc.cpg/sg2_279_cif.got.tgz:556161.got - 2010.06.27 13:26:56.
