data_PCOD8021364
_publ_section_title
;
Structure prediction by ZEFSAII (Michael W. Deem and Ramdas Pophale) SiO2 
 PCOD8021364
Probable space group: P -1
;
_chemical_formula_sum "Si O2"
_cell_formula_units_Z 14
_cell_length_a 5.145606
_cell_length_b 16.656062
_cell_length_c 7.288480
_cell_angle_alpha 102.457156
_cell_angle_beta 85.015038
_cell_angle_gamma 102.425310
_cell_volume 595.133188
_symmetry_space_group_name_H-M "P -1"
_symmetry_group_IT_number 2
_symmetry_cell_setting 'triclinic'
loop_
_space_group_symop_operation_xyz
x,y,z
-x,-y,-z
loop_
_atom_site_type_symbol
_atom_site_label
_atom_site_fract_x
_atom_site_fract_y
_atom_site_fract_z
Si Si1 0.405128 0.231172 0.205286
Si Si2 0.516073 0.373583 0.539714
Si Si3 0.942307 0.251689 0.980629
Si Si4 0.783808 0.482314 0.279405
Si Si5 0.214668 0.600825 0.112630
Si Si6 0.347483 0.085715 0.396351
Si Si7 0.176611 0.897930 0.362622
O O1 0.356969 0.291386 0.406054
O O2 0.334742 0.135356 0.232114
O O3 0.713702 0.255130 0.144627
O O4 0.217781 0.242601 0.052275
O O5 0.772646 0.419292 0.422305
O O6 0.326570 0.438675 0.608346
O O7 0.589515 0.345202 0.723688
O O8 0.988035 0.339867 0.909850
O O9 0.828802 0.173670 0.820428
O O10 0.077097 0.517021 0.194364
O O11 0.631103 0.428802 0.088228
O O12 0.637029 0.117015 0.486048
O O13 0.122433 0.103697 0.556610
O O14 0.300992 0.987064 0.303623
#
# Coordination Sequence:
#
# PCOD8021364 Si02
#       7
#     2   2   2   2   2   2   2
#     4  12  27  43  66 100 140 176 226 278 334 403
#     4  11  24  42  68  94 134 176 227 282 341 399
#     4  12  27  43  66 100 140 176 226 278 334 403
#     4  10  24  42  66  98 128 172 234 280 344 398
#     4  11  24  42  68  94 134 176 227 282 341 399
#     4  10  22  43  71 100 133 177 227 274 334 402
#     4  10  22  43  71 100 133 177 227 274 334 402
#
# _framework density 23.524144
#
# number of rings (size 3 to 8) (size 9 to 14) (size 15 to 20)
#    0.000    1.143    1.429    3.429    6.000    5.714 
#    0.000    0.000    0.000    0.000    0.000    0.000 
#    0.000    0.000    0.000    0.000    0.000    0.000 
#
# Total GULP energy -173564.642427 kJ/mol
# GULP energy per Si atom -12397.474459 kJ/mol
# Density = 2.347060 g / cm^3
# Si number density = 23.524144 Si / 1000 Ang^3
#
#
#
# Elastic Constant Matrix: (Units=GPa)
#
#
# Indices 1 2 3 4 5 6 
#
# 1 53.1520 3.7070 -8.3720 0.0665 2.5896 -6.9095
# 2 3.7070 100.1542 23.6616 4.2021 8.8871 -7.2662
# 3 -8.3720 23.6616 83.8263 13.2656 2.4553 -1.7747
# 4 0.0665 4.2021 13.2656 45.3180 -6.6453 1.3511
# 5 2.5896 8.8871 2.4553 -6.6453 34.7013 -2.1349
# 6 -6.9095 -7.2662 -1.7747 1.3511 -2.1349 24.0523
#
#
#
# Elastic Compliance Matrix: (Units=1/GPa)
#
#
# Indices 1 2 3 4 5 6 
#
# 1 0.020072 -0.000771 0.002551 -0.001070 -0.001337 0.005663
# 2 -0.000771 0.011172 -0.003002 -0.000610 -0.002540 0.002741
# 3 0.002551 -0.003002 0.013705 -0.003925 -0.001084 0.000961
# 4 -0.001070 -0.000610 -0.003925 0.024059 0.005017 -0.001687
# 5 -0.001337 -0.002540 -0.001084 0.005017 0.030679 0.001210
# 6 0.005663 0.002741 0.000961 -0.001687 0.001210 0.044304
#
#
# Mechanical properties :
#
#
# Convention : Reuss Voigt Hill
#
# Bulk Modulus (GPa) = 23.52685 30.56952 27.04819
# Shear Modulus (GPa) = 31.13253 35.35674 33.24463
#
# Velocity S-wave (km/s) = 3.64184 3.88106 3.76335
# Velocity P-wave (km/s) = 5.26373 5.75384 5.51423
#
# Compressibility (1/GPa) = 0.04250462
#
# Stress axis : x y z
#
# Youngs Moduli (GPa) = 49.82038 89.50890 72.96826
#
# Poissons Ratio (x) = 0.06903 -0.18612
# Poissons Ratio (y) = 0.03842 0.21902
# Poissons Ratio (z) = -0.12707 0.26867
#
# Static dielectric constant tensor:
#      x y z
#    x 3.911400 -0.007760 -0.041770 
#    y -0.007760 4.501910 -0.058840 
#    z -0.041770 -0.058840 4.539900 
# 
# 
# High freq. dielectric constant tensor:
#      x y z
#    x 1.912790 -0.002420 -0.001480 
#    y -0.002420 1.942880 0.002350 
#    z -0.001480 0.002350 1.939450 
# 
# From -- ./inp_files/7628.got.cif
#   From: 2010.06.25/outbox.cif.g09.slc.cpg/sg2_4_cif.got.tgz:7628.got - 2010.06.27 13:26:56.
