data_PCOD8021527
_publ_section_title
;
Structure prediction by ZEFSAII (Michael W. Deem and Ramdas Pophale) SiO2 
 PCOD8021527
Probable space group: P -1
;
_chemical_formula_sum "Si O2"
_cell_formula_units_Z 16
_cell_length_a 24.878699
_cell_length_b 11.582819
_cell_length_c 17.269097
_cell_angle_alpha 148.805547
_cell_angle_beta 157.414042
_cell_angle_gamma 29.608748
_cell_volume 907.195196
_symmetry_space_group_name_H-M "P -1"
_symmetry_group_IT_number 2
_symmetry_cell_setting 'triclinic'
loop_
_space_group_symop_operation_xyz
x,y,z
-x,-y,-z
loop_
_atom_site_type_symbol
_atom_site_label
_atom_site_fract_x
_atom_site_fract_y
_atom_site_fract_z
Si Si1 0.325438 0.486899 0.429631
Si Si2 0.179570 0.629092 0.161232
Si Si3 0.699650 0.012443 0.895543
Si Si4 0.810287 0.281054 0.461207
Si Si5 0.668511 0.205976 0.676944
Si Si6 0.833215 0.980690 0.905012
Si Si7 0.842058 0.866971 0.158297
Si Si8 0.351507 0.238388 0.549345
O O1 0.226499 0.662779 0.330397
O O2 0.296499 0.633055 0.555797
O O3 0.502491 0.393270 0.589520
O O4 0.271510 0.267739 0.238346
O O5 0.283932 0.707734 0.288690
O O6 0.214786 0.348685 0.028070
O O7 0.004141 0.796937 0.010298
O O8 0.806907 0.078955 0.014686
O O9 0.527173 0.197292 0.755262
O O10 0.750997 0.043161 0.067975
O O11 0.747794 0.471796 0.415254
O O12 0.979163 0.250351 0.691852
O O13 0.810231 0.026209 0.285476
O O14 0.785578 0.189419 0.894466
O O15 0.671071 0.931451 0.509011
O O16 0.711147 0.851318 0.662095
#
# Coordination Sequence:
#
# PCOD8021527 Si02
#       8
#     2   2   2   2   2   2   2   2
#     4  10  18  31  53  71  98 126 160 203 237 282
#     4  11  19  32  49  76  98 127 164 194 234 285
#     4  10  17  32  50  78  95 120 164 201 245 276
#     4  11  19  35  49  74  98 129 158 194 254 279
#     4   9  19  31  49  76  96 127 158 203 237 277
#     4  10  17  28  52  76  95 124 154 206 238 279
#     4  10  22  31  50  72 104 126 155 201 236 294
#     4   9  18  30  52  72  97 124 155 204 238 285
#
# _framework density 17.636779000000001
#
# number of rings (size 3 to 8) (size 9 to 14) (size 15 to 20)
#    0.750    1.250    2.500    2.625    0.000    2.500 
#    0.000    0.625    0.000    1.500    0.000    6.125 
#    0.000    0.000    0.000    0.000    0.000    0.000 
#
# Total GULP energy -198225.090406 kJ/mol
# GULP energy per Si atom -12389.068150 kJ/mol
# Density = 1.759664 g / cm^3
# Si number density = 17.636779 Si / 1000 Ang^3
#
#
#
# Elastic Constant Matrix: (Units=GPa)
#
#
# Indices 1 2 3 4 5 6 
#
# 1 89.2090 30.8938 32.3390 -1.6508 2.5471 3.3938
# 2 30.8938 72.7755 37.9595 -20.4787 -1.5770 2.2053
# 3 32.3390 37.9595 42.3089 -10.3442 2.3510 -7.8274
# 4 -1.6508 -20.4787 -10.3442 31.2185 2.2168 0.5850
# 5 2.5471 -1.5770 2.3510 2.2168 20.5144 0.1183
# 6 3.3938 2.2053 -7.8274 0.5850 0.1183 19.3932
#
#
#
# Elastic Compliance Matrix: (Units=1/GPa)
#
#
# Indices 1 2 3 4 5 6 
#
# 1 0.017273 0.000244 -0.016196 -0.004132 0.000231 -0.009464
# 2 0.000244 0.033698 -0.030892 0.011846 0.004917 -0.016731
# 3 -0.016196 -0.030892 0.071342 0.002499 -0.009012 0.035121
# 4 -0.004132 0.011846 0.002499 0.040659 -0.003252 -0.000822
# 5 0.000231 0.004917 -0.009012 -0.003252 0.050505 -0.004447
# 6 -0.009464 -0.016731 0.035121 -0.000822 -0.004447 0.069351
#
#
# Mechanical properties :
#
#
# Convention : Reuss Voigt Hill
#
# Bulk Modulus (GPa) = 34.93589 45.18645 40.06117
# Shear Modulus (GPa) = 12.95145 21.09864 17.02504
#
# Velocity S-wave (km/s) = 2.71282 3.46249 3.11032
# Velocity P-wave (km/s) = 5.44647 6.45456 5.97182
#
# Compressibility (1/GPa) = 0.02862386
#
# Stress axis : x y z
#
# Youngs Moduli (GPa) = 57.89301 29.67573 14.01707
#
# Poissons Ratio (x) = -0.00725 0.22702
# Poissons Ratio (y) = -0.01415 0.43302
# Poissons Ratio (z) = 0.93765 0.91676
#
# Static dielectric constant tensor:
#      x y z
#    x 3.150070 0.225140 -0.095280 
#    y 0.225140 3.257110 -0.261990 
#    z -0.095280 -0.261990 3.057070 
# 
# 
# High freq. dielectric constant tensor:
#      x y z
#    x 1.672160 0.015880 -0.004650 
#    y 0.015880 1.676970 -0.037090 
#    z -0.004650 -0.037090 1.656070 
# 
# From -- ./inp_files/189304.got.cif
#   From: 2010.06.25/outbox.cif.g09.slc.cpg/sg2_95_cif.got.tgz:189304.got - 2010.06.27 13:26:56.
