data_PCOD8021635
_publ_section_title
;
Structure prediction by ZEFSAII (Michael W. Deem and Ramdas Pophale) SiO2 
 PCOD8021635
Probable space group: P -1
;
_chemical_formula_sum "Si O2"
_cell_formula_units_Z 16
_cell_length_a 24.226223
_cell_length_b 11.543294
_cell_length_c 9.616427
_cell_angle_alpha 131.009712
_cell_angle_beta 39.147498
_cell_angle_gamma 148.415893
_cell_volume 889.123807
_symmetry_space_group_name_H-M "P -1"
_symmetry_group_IT_number 2
_symmetry_cell_setting 'triclinic'
loop_
_space_group_symop_operation_xyz
x,y,z
-x,-y,-z
loop_
_atom_site_type_symbol
_atom_site_label
_atom_site_fract_x
_atom_site_fract_y
_atom_site_fract_z
Si Si1 0.627304 0.606593 0.003468
Si Si2 0.665110 0.715132 0.706195
Si Si3 0.650970 0.315283 0.835172
Si Si4 0.298423 0.189663 0.693641
Si Si5 0.129032 0.464335 0.224953
Si Si6 0.285340 0.462095 0.737237
Si Si7 0.478818 0.145913 0.296353
Si Si8 0.154653 0.856404 0.482856
O O1 0.680583 0.741805 0.862291
O O2 0.642655 0.441042 0.837955
O O3 0.480678 0.464705 0.196705
O O4 0.712897 0.788964 0.102494
O O5 0.729388 0.638926 0.462334
O O6 0.739926 0.950709 0.677816
O O7 0.789003 0.497296 0.777965
O O8 0.625530 0.114169 0.661288
O O9 0.537727 0.193578 0.068146
O O10 0.310071 0.365930 0.732459
O O11 0.421633 0.242866 0.475222
O O12 0.182798 0.947743 0.658654
O O13 0.160076 0.681739 0.317851
O O14 0.982399 0.251875 0.375992
O O15 0.165601 0.416874 0.975032
O O16 0.411597 0.725355 0.699656
#
# Coordination Sequence:
#
# PCOD8021635 Si02
#       8
#     2   2   2   2   2   2   2   2
#     4  11  21  37  52  82 113 143 175 213 269 328
#     4  10  23  36  54  78 117 144 169 217 273 320
#     4  10  19  31  54  79 110 136 180 222 264 312
#     4  11  18  31  56  78 108 135 179 220 265 313
#     4  10  20  36  57  83 105 135 186 227 263 304
#     4  10  19  32  56  82 106 136 181 223 263 315
#     4  10  17  28  52  85 101 136 172 224 272 302
#     4  10  22  36  58  79 108 140 179 225 268 310
#
# _framework density 17.995244
#
# number of rings (size 3 to 8) (size 9 to 14) (size 15 to 20)
#    0.000    1.750    5.000    1.875    3.500    2.000 
#    0.000    2.500    0.000    1.500    0.000    0.000 
#    0.000    0.000    0.000    0.000    0.000    0.000 
#
# Total GULP energy -198278.192982 kJ/mol
# GULP energy per Si atom -12392.387061 kJ/mol
# Density = 1.795429 g / cm^3
# Si number density = 17.995244 Si / 1000 Ang^3
#
#
#
# Elastic Constant Matrix: (Units=GPa)
#
#
# Indices 1 2 3 4 5 6 
#
# 1 67.9851 24.2689 43.6505 0.8845 5.2913 -0.8278
# 2 24.2689 64.5146 41.5245 3.8808 7.0466 -2.2779
# 3 43.6505 41.5245 87.7541 9.9099 -1.1165 1.0039
# 4 0.8845 3.8808 9.9099 23.4090 0.2669 -3.9996
# 5 5.2913 7.0466 -1.1165 0.2669 33.6885 3.5438
# 6 -0.8278 -2.2779 1.0039 -3.9996 3.5438 15.1171
#
#
#
# Elastic Compliance Matrix: (Units=1/GPa)
#
#
# Indices 1 2 3 4 5 6 
#
# 1 0.022766 -0.000762 -0.011627 0.004958 -0.004285 0.004220
# 2 -0.000762 0.023759 -0.011232 0.001969 -0.005889 0.006186
# 3 -0.011627 -0.011232 0.023684 -0.009104 0.005840 -0.007680
# 4 0.004958 0.001969 -0.009104 0.048635 -0.003439 0.014846
# 5 -0.004285 -0.005889 0.005840 -0.003439 0.032874 -0.010126
# 6 0.004220 0.006186 -0.007680 0.014846 -0.010126 0.074125
#
#
# Mechanical properties :
#
#
# Convention : Reuss Voigt Hill
#
# Bulk Modulus (GPa) = 43.53701 48.79352 46.16527
# Shear Modulus (GPa) = 17.81003 21.83025 19.82014
#
# Velocity S-wave (km/s) = 3.14938 3.48675 3.32235
# Velocity P-wave (km/s) = 6.12135 6.58661 6.35824
#
# Compressibility (1/GPa) = 0.02296896
#
# Stress axis : x y z
#
# Youngs Moduli (GPa) = 43.92433 42.08855 42.22313
#
# Poissons Ratio (x) = 0.03207 0.49091
# Poissons Ratio (y) = 0.03347 0.47424
# Poissons Ratio (z) = 0.51069 0.47273
#
# Static dielectric constant tensor:
#      x y z
#    x 3.182080 0.097080 -0.193940 
#    y 0.097080 3.493980 0.302980 
#    z -0.193940 0.302980 3.374700 
# 
# 
# High freq. dielectric constant tensor:
#      x y z
#    x 1.672800 0.007630 -0.024500 
#    y 0.007630 1.695500 0.026540 
#    z -0.024500 0.026540 1.684540 
# 
# From -- ./inp_files/239298.got.cif
#   From: 2010.06.25/outbox.cif.g09.slc.cpg/sg2_120_cif.got.tgz:239298.got - 2010.06.27 13:26:56.
