data_PCOD8021645
_publ_section_title
;
Structure prediction by ZEFSAII (Michael W. Deem and Ramdas Pophale) SiO2 
 PCOD8021645
Probable space group: P -1
;
_chemical_formula_sum "Si O2"
_cell_formula_units_Z 12
_cell_length_a 14.811509
_cell_length_b 9.005126
_cell_length_c 6.663917
_cell_angle_alpha 130.861029
_cell_angle_beta 112.234230
_cell_angle_gamma 49.743483
_cell_volume 511.492984
_symmetry_space_group_name_H-M "P -1"
_symmetry_group_IT_number 2
_symmetry_cell_setting 'triclinic'
loop_
_space_group_symop_operation_xyz
x,y,z
-x,-y,-z
loop_
_atom_site_type_symbol
_atom_site_label
_atom_site_fract_x
_atom_site_fract_y
_atom_site_fract_z
Si Si1 0.174275 0.707373 0.770104
Si Si2 0.908542 0.897923 0.634510
Si Si3 0.432898 0.891698 0.769040
Si Si4 0.491533 0.485115 0.214941
Si Si5 0.761107 0.339309 0.651229
Si Si6 0.785698 0.659826 0.213819
O O1 0.255325 0.650455 0.593491
O O2 0.242961 0.464256 0.744429
O O3 0.047664 0.768973 0.653126
O O4 0.158604 0.929360 0.076178
O O5 0.888746 0.686272 0.403595
O O6 0.858349 0.063299 0.541471
O O7 0.516747 0.669227 0.495036
O O8 0.409364 0.780916 0.848826
O O9 0.320421 0.074636 0.703119
O O10 0.500000 0.000000 0.000000
O O11 0.362081 0.556896 0.242714
O O12 0.500000 0.500000 0.000000
O O13 0.815282 0.491101 0.895068
#
# Coordination Sequence:
#
# PCOD8021645 Si02
#       6
#     2   2   2   2   2   2
#     4  10  24  41  70  96 138 170 214 269 321 390
#     4  10  22  44  66 100 133 175 215 261 326 385
#     4  11  24  46  65  97 128 169 223 269 327 386
#     4  11  26  46  67  93 130 174 222 272 326 386
#     4  11  23  44  64 101 131 172 218 268 326 384
#     4  11  23  42  67 100 132 169 219 265 325 390
#
# _framework density 23.460730000000002
#
# number of rings (size 3 to 8) (size 9 to 14) (size 15 to 20)
#    0.000    1.333    3.333    1.000    0.000    9.333 
#    0.000    0.000    0.000    0.000    0.000    0.000 
#    0.000    0.000    0.000    0.000    0.000    0.000 
#
# Total GULP energy -148682.702034 kJ/mol
# GULP energy per Si atom -12390.225170 kJ/mol
# Density = 2.340733 g / cm^3
# Si number density = 23.460730 Si / 1000 Ang^3
#
#
#
# Elastic Constant Matrix: (Units=GPa)
#
#
# Indices 1 2 3 4 5 6 
#
# 1 90.7182 26.1044 58.3110 1.6737 2.6966 3.8376
# 2 26.1044 149.4810 32.8410 -15.5902 -25.9799 11.6786
# 3 58.3110 32.8410 144.4178 -3.6580 12.1788 35.4181
# 4 1.6737 -15.5902 -3.6580 43.7697 20.3095 0.8108
# 5 2.6966 -25.9799 12.1788 20.3095 48.5752 -6.9216
# 6 3.8376 11.6786 35.4181 0.8108 -6.9216 32.0541
#
#
#
# Elastic Compliance Matrix: (Units=1/GPa)
#
#
# Indices 1 2 3 4 5 6 
#
# 1 0.016952 -0.001451 -0.009261 -0.003762 0.003544 0.009593
# 2 -0.001451 0.008170 -0.001628 0.000718 0.004553 -0.000039
# 3 -0.009261 -0.001628 0.016664 0.006051 -0.009768 -0.018973
# 4 -0.003762 0.000718 0.006051 0.031117 -0.015448 -0.010620
# 5 0.003544 0.004553 -0.009768 -0.015448 0.034078 0.016460
# 6 0.009593 -0.000039 -0.018973 -0.010620 0.016460 0.054850
#
#
# Mechanical properties :
#
#
# Convention : Reuss Voigt Hill
#
# Bulk Modulus (GPa) = 58.46409 68.79219 63.62814
# Shear Modulus (GPa) = 26.01254 42.70384 34.35819
#
# Velocity S-wave (km/s) = 3.33343 4.27104 3.83103
# Velocity P-wave (km/s) = 6.30791 7.32859 6.83733
#
# Compressibility (1/GPa) = 0.01710452
#
# Stress axis : x y z
#
# Youngs Moduli (GPa) = 58.99000 122.39654 60.00868
#
# Poissons Ratio (x) = 0.17765 0.55577
# Poissons Ratio (y) = 0.08562 0.09770
# Poissons Ratio (z) = 0.54633 0.19927
#
# Static dielectric constant tensor:
#      x y z
#    x 3.831680 0.126420 0.574450 
#    y 0.126420 4.643690 -0.284050 
#    z 0.574450 -0.284050 4.309860 
# 
# 
# High freq. dielectric constant tensor:
#      x y z
#    x 1.900970 -0.002240 0.035180 
#    y -0.002240 1.954360 -0.012110 
#    z 0.035180 -0.012110 1.938040 
# 
# From -- ./inp_files/105998.got.cif
#   From: 2010.06.25/outbox.cif.g09.slc.cpg/sg2_53_cif.got.tgz:105998.got - 2010.06.27 13:26:56.
