data_PCOD8021905
_publ_section_title
;
Structure prediction by ZEFSAII (Michael W. Deem and Ramdas Pophale) SiO2 
 PCOD8021905
Probable space group: P -1
;
_chemical_formula_sum "Si O2"
_cell_formula_units_Z 12
_cell_length_a 14.828610
_cell_length_b 6.076203
_cell_length_c 11.623122
_cell_angle_alpha 81.555597
_cell_angle_beta 150.012334
_cell_angle_gamma 87.729489
_cell_volume 487.400489
_symmetry_space_group_name_H-M "P -1"
_symmetry_group_IT_number 2
_symmetry_cell_setting 'triclinic'
loop_
_space_group_symop_operation_xyz
x,y,z
-x,-y,-z
loop_
_atom_site_type_symbol
_atom_site_label
_atom_site_fract_x
_atom_site_fract_y
_atom_site_fract_z
Si Si1 0.998480 0.383548 0.672017
Si Si2 0.358639 0.763572 0.308255
Si Si3 0.003406 0.627207 0.876638
Si Si4 0.846137 0.874227 0.344032
Si Si5 0.626889 0.263980 0.221522
Si Si6 0.605957 0.007233 0.433593
O O1 0.924043 0.651880 0.528804
O O2 0.827219 0.277763 0.486396
O O3 0.069606 0.404833 0.877854
O O4 0.175543 0.221441 0.801237
O O5 0.500000 0.500000 0.500000
O O6 0.442285 0.899577 0.296135
O O7 0.327722 0.886251 0.388801
O O8 0.155086 0.765956 0.033880
O O9 0.792198 0.807124 0.601517
O O10 0.000000 0.500000 0.000000
O O11 0.653141 0.059628 0.169363
O O12 0.000000 0.000000 0.500000
O O13 0.526000 0.202037 0.228654
O O14 0.500000 0.500000 0.000000
#
# Coordination Sequence:
#
# PCOD8021905 Si02
#       6
#     2   2   2   2   2   2
#     4  10  22  44  70 105 142 187 253 301 367 448
#     4  11  25  48  72 114 147 190 247 304 381 445
#     4  12  23  46  79 105 147 195 233 309 382 438
#     4   9  20  45  67  99 140 182 249 301 356 432
#     4  11  24  46  71 104 147 202 248 305 369 434
#     4  11  25  49  71 108 152 189 251 306 363 461
#
# _framework density 24.620412999999999
#
# number of rings (size 3 to 8) (size 9 to 14) (size 15 to 20)
#    0.000    1.333    3.333    1.500    0.000    0.667 
#   12.000    0.000    0.000    0.000    0.000    0.000 
#    0.000    0.000    0.000    0.000    0.000    0.000 
#
# Total GULP energy -148762.359100 kJ/mol
# GULP energy per Si atom -12396.863258 kJ/mol
# Density = 2.456438 g / cm^3
# Si number density = 24.620413 Si / 1000 Ang^3
#
#
#
# Elastic Constant Matrix: (Units=GPa)
#
#
# Indices 1 2 3 4 5 6 
#
# 1 192.7621 90.0741 59.8783 10.7500 -28.8006 -5.0683
# 2 90.0741 134.0680 36.7156 5.1238 -8.4314 -12.2073
# 3 59.8783 36.7156 82.4768 13.6923 -3.0786 4.2911
# 4 10.7500 5.1238 13.6923 48.4929 12.1656 -5.1427
# 5 -28.8006 -8.4314 -3.0786 12.1656 32.4990 4.5119
# 6 -5.0683 -12.2073 4.2911 -5.1427 4.5119 61.7951
#
#
#
# Elastic Compliance Matrix: (Units=1/GPa)
#
#
# Indices 1 2 3 4 5 6 
#
# 1 0.010411 -0.005203 -0.004430 -0.002736 0.008581 -0.000721
# 2 -0.005203 0.011421 -0.001744 0.001337 -0.002626 0.002254
# 3 -0.004430 -0.001744 0.016759 -0.003485 -0.001198 -0.002074
# 4 -0.002736 0.001337 -0.003485 0.025541 -0.012429 0.003315
# 5 0.008581 -0.002626 -0.001198 -0.012429 0.042772 -0.003889
# 6 -0.000721 0.002254 -0.002074 0.003315 -0.003889 0.017272
#
#
# Mechanical properties :
#
#
# Convention : Reuss Voigt Hill
#
# Bulk Modulus (GPa) = 63.14434 86.96032 75.05233
# Shear Modulus (GPa) = 32.84950 43.40000 38.12475
#
# Velocity S-wave (km/s) = 3.65669 4.20308 3.93937
# Velocity P-wave (km/s) = 6.59782 7.67800 7.15831
#
# Compressibility (1/GPa) = 0.01583673
#
# Stress axis : x y z
#
# Youngs Moduli (GPa) = 96.05472 87.55842 59.66905
#
# Poissons Ratio (x) = 0.45554 0.26434
# Poissons Ratio (y) = 0.49974 0.10408
# Poissons Ratio (z) = 0.42553 0.15273
#
# Static dielectric constant tensor:
#      x y z
#    x 4.996550 -0.303740 0.090130 
#    y -0.303740 5.092440 0.032450 
#    z 0.090130 0.032450 4.198030 
# 
# 
# High freq. dielectric constant tensor:
#      x y z
#    x 2.003450 0.000000 0.000140 
#    y 0.000000 2.001400 0.004290 
#    z 0.000140 0.004290 1.957360 
# 
# From -- ./inp_files/92326.got.cif
#   From: 2010.06.25/outbox.cif.g09.slc.cpg/sg2_47_cif.got.tgz:92326.got - 2010.06.27 13:26:56.
