data_PCOD8021972
_publ_section_title
;
Structure prediction by ZEFSAII (Michael W. Deem and Ramdas Pophale) SiO2 
 PCOD8021972
Probable space group: P -1
;
_chemical_formula_sum "Si O2"
_cell_formula_units_Z 12
_cell_length_a 8.933522
_cell_length_b 9.622780
_cell_length_c 10.145800
_cell_angle_alpha 137.343985
_cell_angle_beta 59.711723
_cell_angle_gamma 111.928270
_cell_volume 510.314146
_symmetry_space_group_name_H-M "P -1"
_symmetry_group_IT_number 2
_symmetry_cell_setting 'triclinic'
loop_
_space_group_symop_operation_xyz
x,y,z
-x,-y,-z
loop_
_atom_site_type_symbol
_atom_site_label
_atom_site_fract_x
_atom_site_fract_y
_atom_site_fract_z
Si Si1 0.498540 0.355252 0.773040
Si Si2 0.108175 0.840501 0.922518
Si Si3 0.869431 0.554260 0.982381
Si Si4 0.221292 0.878031 0.395503
Si Si5 0.347010 0.518821 0.477267
Si Si6 0.843631 0.897756 0.675393
O O1 0.294654 0.307292 0.797182
O O2 0.604908 0.143634 0.607171
O O3 0.581621 0.479976 0.701707
O O4 0.500000 0.500000 0.000000
O O5 0.252337 0.734246 0.694356
O O6 0.970777 0.668619 0.903451
O O7 0.207094 0.946216 0.076200
O O8 0.000000 0.000000 0.000000
O O9 0.798736 0.343123 0.813335
O O10 0.000000 0.500000 0.000000
O O11 0.051848 0.927087 0.591566
O O12 0.247617 0.042606 0.380923
O O13 0.500000 0.500000 0.500000
O O14 0.212062 0.331239 0.422266
#
# Coordination Sequence:
#
# PCOD8021972 Si02
#       6
#     2   2   2   2   2   2
#     4  10  25  43  74 105 145 195 238 302 365 431
#     4  12  27  44  74 109 141 192 249 302 364 437
#     4  11  21  45  72 101 145 187 242 295 364 435
#     4  10  22  44  71 108 141 195 239 297 368 433
#     4  12  28  49  73 109 150 192 244 310 367 432
#     4  11  25  44  77 103 148 196 246 299 370 441
#
# _framework density 23.514927
#
# number of rings (size 3 to 8) (size 9 to 14) (size 15 to 20)
#    0.000    1.000    3.333    2.000    7.000    3.333 
#    0.000    2.500    0.000    0.000    0.000    0.000 
#    0.000    0.000    0.000    0.000    0.000    0.000 
#
# Total GULP energy -148798.325259 kJ/mol
# GULP energy per Si atom -12399.860438 kJ/mol
# Density = 2.346141 g / cm^3
# Si number density = 23.514927 Si / 1000 Ang^3
#
#
#
# Elastic Constant Matrix: (Units=GPa)
#
#
# Indices 1 2 3 4 5 6 
#
# 1 134.6338 51.0388 33.5738 -6.8508 -25.3909 -24.9536
# 2 51.0388 107.5896 40.0794 -28.9546 -13.3011 -25.1305
# 3 33.5738 40.0794 112.3225 -17.6523 -11.3583 -5.5642
# 4 -6.8508 -28.9546 -17.6523 37.4212 -5.2494 -0.9350
# 5 -25.3909 -13.3011 -11.3583 -5.2494 36.1457 8.6309
# 6 -24.9536 -25.1305 -5.5642 -0.9350 8.6309 37.1052
#
#
#
# Elastic Compliance Matrix: (Units=1/GPa)
#
#
# Indices 1 2 3 4 5 6 
#
# 1 0.010538 -0.003125 -0.001422 -0.000384 0.004888 0.003611
# 2 -0.003125 0.017603 -0.002625 0.012472 0.003116 0.009016
# 3 -0.001422 -0.002625 0.010913 0.003139 0.002291 -0.001552
# 4 -0.000384 0.012472 0.003139 0.039264 0.009216 0.007505
# 5 0.004888 0.003116 0.002291 0.009216 0.034812 -0.002124
# 6 0.003611 0.009016 -0.001552 0.007505 -0.002124 0.035936
#
#
# Mechanical properties :
#
#
# Convention : Reuss Voigt Hill
#
# Bulk Modulus (GPa) = 40.47071 67.10334 53.78702
# Shear Modulus (GPa) = 29.12980 37.45799 33.29389
#
# Velocity S-wave (km/s) = 3.52345 3.99550 3.76688
# Velocity P-wave (km/s) = 5.81386 7.06285 6.46857
#
# Compressibility (1/GPa) = 0.02470923
#
# Stress axis : x y z
#
# Youngs Moduli (GPa) = 94.89080 56.80990 91.63580
#
# Poissons Ratio (x) = 0.17754 0.13031
# Poissons Ratio (y) = 0.29654 0.24056
# Poissons Ratio (z) = 0.13494 0.14914
#
# Static dielectric constant tensor:
#      x y z
#    x 4.425590 -0.178610 -0.463110 
#    y -0.178610 4.140160 0.002250 
#    z -0.463110 0.002250 4.511560 
# 
# 
# High freq. dielectric constant tensor:
#      x y z
#    x 1.939260 -0.012710 -0.008660 
#    y -0.012710 1.935340 0.000410 
#    z -0.008660 0.000410 1.940470 
# 
# From -- ./inp_files/160287.got.cif
#   From: 2010.06.25/outbox.cif.g09.slc.cpg/sg2_81_cif.got.tgz:160287.got - 2010.06.27 13:26:56.
