data_PCOD8021460
_publ_section_title
;
Structure prediction by ZEFSAII (Michael W. Deem and Ramdas Pophale) SiO2 
 PCOD8021460
Probable space group: P -1
;
_chemical_formula_sum "Si O2"
_cell_formula_units_Z 14
_cell_length_a 29.191480
_cell_length_b 15.236565
_cell_length_c 11.384393
_cell_angle_alpha 149.708816
_cell_angle_beta 159.705929
_cell_angle_gamma 20.016715
_cell_volume 594.355491
_symmetry_space_group_name_H-M "P -1"
_symmetry_group_IT_number 2
_symmetry_cell_setting 'triclinic'
loop_
_space_group_symop_operation_xyz
x,y,z
-x,-y,-z
loop_
_atom_site_type_symbol
_atom_site_label
_atom_site_fract_x
_atom_site_fract_y
_atom_site_fract_z
Si Si1 0.745557 0.565942 0.413386
Si Si2 0.825623 0.298218 0.891646
Si Si3 0.365742 0.767378 0.818654
Si Si4 0.040861 0.988905 0.450356
Si Si5 0.323749 0.263397 0.809525
Si Si6 0.724026 0.781466 0.824763
Si Si7 0.027281 0.658486 0.915575
O O1 0.927009 0.274518 0.466196
O O2 0.634823 0.760385 0.258866
O O3 0.831188 0.630492 0.783362
O O4 0.596542 0.590139 0.161484
O O5 0.669687 0.332530 0.487037
O O6 0.713645 0.502461 0.965160
O O7 0.910479 0.375281 0.108037
O O8 0.000000 0.000000 0.000000
O O9 0.275281 0.774033 0.730834
O O10 0.233393 0.073371 0.845013
O O11 0.000000 0.000000 0.500000
O O12 0.945162 0.921753 0.071813
O O13 0.132429 0.334235 0.448069
O O14 0.500000 0.000000 0.000000
O O15 0.500000 0.000000 0.500000
O O16 0.779644 0.582216 0.823719
#
# Coordination Sequence:
#
# PCOD8021460 Si02
#       7
#     2   2   2   2   2   2   2
#     4  11  25  46  69 104 145 180 235 292 361 424
#     4  11  25  47  71  97 142 194 237 287 356 419
#     4  10  25  43  71  98 141 182 232 288 353 414
#     4  11  23  43  70 107 140 183 225 285 367 423
#     4  12  29  44  72 106 138 191 242 295 348 421
#     4  10  22  43  73 106 135 180 231 292 363 416
#     4  11  24  45  72 103 141 179 240 296 351 424
#
# _framework density 23.554929000000001
#
# number of rings (size 3 to 8) (size 9 to 14) (size 15 to 20)
#    0.000    1.143    1.429    3.857   10.000    2.286 
#    2.571    0.000    0.000    0.000    0.000    0.000 
#    0.000    0.000    0.000    0.000    0.000    0.000 
#
# Total GULP energy -173433.399342 kJ/mol
# GULP energy per Si atom -12388.099953 kJ/mol
# Density = 2.350132 g / cm^3
# Si number density = 23.554929 Si / 1000 Ang^3
#
#
#
# Elastic Constant Matrix: (Units=GPa)
#
#
# Indices 1 2 3 4 5 6 
#
# 1 117.6006 15.1962 12.1875 -5.0082 0.1454 8.1826
# 2 15.1962 115.8023 10.5841 6.8278 -7.6446 -3.1967
# 3 12.1875 10.5841 53.0628 8.7802 21.0415 -10.6859
# 4 -5.0082 6.8278 8.7802 50.2531 -5.9443 -13.2871
# 5 0.1454 -7.6446 21.0415 -5.9443 31.9663 -2.4357
# 6 8.1826 -3.1967 -10.6859 -13.2871 -2.4357 42.6239
#
#
#
# Elastic Compliance Matrix: (Units=1/GPa)
#
#
# Indices 1 2 3 4 5 6 
#
# 1 0.009173 -0.000894 -0.003393 0.001302 0.002056 -0.002156
# 2 -0.000894 0.009368 -0.003339 -0.000195 0.004423 0.000229
# 3 -0.003393 -0.003339 0.031163 -0.006663 -0.022164 0.004870
# 4 0.001302 -0.000195 -0.006663 0.023912 0.009241 0.006047
# 5 0.002056 0.004423 -0.022164 0.009241 0.048642 0.000041
# 6 -0.002156 0.000229 0.004870 0.006047 0.000041 0.027000
#
#
# Mechanical properties :
#
#
# Convention : Reuss Voigt Hill
#
# Bulk Modulus (GPa) = 29.02619 40.26679 34.64649
# Shear Modulus (GPa) = 28.40995 41.53519 34.97257
#
# Velocity S-wave (km/s) = 3.47668 4.20376 3.85739
# Velocity P-wave (km/s) = 5.33535 6.37919 5.88048
#
# Compressibility (1/GPa) = 0.03445164
#
# Stress axis : x y z
#
# Youngs Moduli (GPa) = 109.01013 106.74970 32.08923
#
# Poissons Ratio (x) = 0.09545 0.10889
# Poissons Ratio (y) = 0.09747 0.10714
# Poissons Ratio (z) = 0.36991 0.35641
#
# Static dielectric constant tensor:
#      x y z
#    x 4.870180 -0.348820 -0.323630 
#    y -0.348820 4.849390 0.506100 
#    z -0.323630 0.506100 4.413990 
# 
# 
# High freq. dielectric constant tensor:
#      x y z
#    x 1.936390 -0.010750 -0.002990 
#    y -0.010750 1.941490 0.021670 
#    z -0.002990 0.021670 1.928150 
# 
# From -- ./inp_files/477699.got.cif
#   From: 2010.06.25/outbox.cif.g09.slc.cpg/sg2_239_cif.got.tgz:477699.got - 2010.06.27 13:26:56.
