data_PCOD8021928
_publ_section_title
;
Structure prediction by ZEFSAII (Michael W. Deem and Ramdas Pophale) SiO2 
 PCOD8021928
Probable space group: P -1
;
_chemical_formula_sum "Si O2"
_cell_formula_units_Z 16
_cell_length_a 15.941510
_cell_length_b 6.173471
_cell_length_c 22.208590
_cell_angle_alpha 65.732660
_cell_angle_beta 22.274187
_cell_angle_gamma 76.273971
_cell_volume 687.488813
_symmetry_space_group_name_H-M "P -1"
_symmetry_group_IT_number 2
_symmetry_cell_setting 'triclinic'
loop_
_space_group_symop_operation_xyz
x,y,z
-x,-y,-z
loop_
_atom_site_type_symbol
_atom_site_label
_atom_site_fract_x
_atom_site_fract_y
_atom_site_fract_z
Si Si1 0.421882 0.626430 0.946868
Si Si2 0.152273 0.225674 0.540997
Si Si3 0.800113 0.360144 0.226008
Si Si4 0.200732 0.550554 0.232192
Si Si5 0.571725 0.397828 0.587490
Si Si6 0.188047 0.877773 0.876521
Si Si7 0.092957 0.712239 0.706932
Si Si8 0.185937 0.995550 0.425871
O O1 0.615377 0.493366 0.838462
O O2 0.557451 0.911166 0.791733
O O3 0.331966 0.651018 0.070224
O O4 0.195564 0.452585 0.075945
O O5 0.348474 0.485379 0.412514
O O6 0.884484 0.228895 0.713297
O O7 0.140307 0.988096 0.616232
O O8 0.236401 0.212821 0.419045
O O9 0.606727 0.487090 0.335916
O O10 0.758127 0.140524 0.228181
O O11 0.778568 0.226922 0.320224
O O12 0.076973 0.585598 0.010362
O O13 0.942097 0.290832 0.425463
O O14 0.800916 0.458503 0.384068
O O15 0.439606 0.078439 0.717314
O O16 0.000000 0.000000 0.000000
O O17 0.000000 0.000000 0.500000
#
# Coordination Sequence:
#
# PCOD8021928 Si02
#       8
#     2   2   2   2   2   2   2   2
#     4  10  22  44  70  96 135 177 226 288 344 408
#     4  12  24  42  69  98 140 182 228 284 361 408
#     4  10  23  42  70  97 134 181 229 279 352 403
#     4  10  22  47  67  97 138 176 226 292 348 410
#     4  11  23  42  68  95 135 184 224 293 339 405
#     4   9  21  43  67  96 133 178 225 290 339 408
#     4  12  25  42  63 101 136 177 235 282 340 421
#     4  10  23  45  71 100 136 179 230 291 347 416
#
# _framework density 23.273108000000001
#
# number of rings (size 3 to 8) (size 9 to 14) (size 15 to 20)
#    0.000    1.500    2.500    1.125    0.000   11.500 
#    2.250    0.000    2.750    0.000    0.000    0.000 
#    0.000    0.000    0.000    0.000    0.000    0.000 
#
# Total GULP energy -198297.165733 kJ/mol
# GULP energy per Si atom -12393.572858 kJ/mol
# Density = 2.322014 g / cm^3
# Si number density = 23.273108 Si / 1000 Ang^3
#
#
#
# Elastic Constant Matrix: (Units=GPa)
#
#
# Indices 1 2 3 4 5 6 
#
# 1 112.3775 48.2910 44.8076 1.1060 9.0182 13.4342
# 2 48.2910 99.0494 48.6434 7.6853 3.1856 8.7357
# 3 44.8076 48.6434 145.3201 -2.7606 6.8358 6.0701
# 4 1.1060 7.6853 -2.7606 31.2678 2.2079 -13.5784
# 5 9.0182 3.1856 6.8358 2.2079 42.3758 0.6157
# 6 13.4342 8.7357 6.0701 -13.5784 0.6157 35.2270
#
#
#
# Elastic Compliance Matrix: (Units=1/GPa)
#
#
# Indices 1 2 3 4 5 6 
#
# 1 0.012231 -0.004523 -0.002041 -0.000893 -0.001836 -0.003503
# 2 -0.004523 0.014716 -0.003526 -0.005283 0.000749 -0.003366
# 3 -0.002041 -0.003526 0.008730 0.002210 -0.000839 0.001015
# 4 -0.000893 -0.005283 0.002210 0.041108 -0.002160 0.017153
# 5 -0.001836 0.000749 -0.000839 -0.002160 0.024189 -0.000597
# 6 -0.003503 -0.003366 0.001015 0.017153 -0.000597 0.037005
#
#
# Mechanical properties :
#
#
# Convention : Reuss Voigt Hill
#
# Bulk Modulus (GPa) = 64.53657 71.13678 67.83668
# Shear Modulus (GPa) = 30.61349 36.10781 33.36065
#
# Velocity S-wave (km/s) = 3.63078 3.94316 3.79019
# Velocity P-wave (km/s) = 6.73551 7.16685 6.95453
#
# Compressibility (1/GPa) = 0.01549509
#
# Stress axis : x y z
#
# Youngs Moduli (GPa) = 81.75745 67.95466 114.54571
#
# Poissons Ratio (x) = 0.30739 0.23384
# Poissons Ratio (y) = 0.36983 0.40390
# Poissons Ratio (z) = 0.16691 0.23961
#
# Static dielectric constant tensor:
#      x y z
#    x 4.110450 0.017790 -0.208970 
#    y 0.017790 4.345950 -0.177990 
#    z -0.208970 -0.177990 4.733400 
# 
# 
# High freq. dielectric constant tensor:
#      x y z
#    x 1.920560 0.001560 -0.009200 
#    y 0.001560 1.904860 0.005210 
#    z -0.009200 0.005210 1.934670 
# 
# From -- ./inp_files/612624.got.cif
#   From: 2010.06.25/outbox.cif.g09.slc.cpg/sg2_307_cif.got.tgz:612624.got - 2010.06.27 13:26:56.
