data_PCOD8021806
_publ_section_title
;
Structure prediction by ZEFSAII (Michael W. Deem and Ramdas Pophale) SiO2 
 PCOD8021806
Probable space group: P -1
;
_chemical_formula_sum "Si O2"
_cell_formula_units_Z 16
_cell_length_a 11.975667
_cell_length_b 18.564530
_cell_length_c 9.836122
_cell_angle_alpha 134.095970
_cell_angle_beta 132.956080
_cell_angle_gamma 26.833810
_cell_volume 696.473442
_symmetry_space_group_name_H-M "P -1"
_symmetry_group_IT_number 2
_symmetry_cell_setting 'triclinic'
loop_
_space_group_symop_operation_xyz
x,y,z
-x,-y,-z
loop_
_atom_site_type_symbol
_atom_site_label
_atom_site_fract_x
_atom_site_fract_y
_atom_site_fract_z
Si Si1 0.530247 0.104271 0.647697
Si Si2 0.090971 0.209095 0.891362
Si Si3 0.505003 0.149858 0.160525
Si Si4 0.513348 0.716411 0.934135
Si Si5 0.770312 0.401797 0.633684
Si Si6 0.081575 0.784624 0.736503
Si Si7 0.296911 0.338665 0.513373
Si Si8 0.247675 0.579604 0.860285
O O1 0.431749 0.188306 0.528252
O O2 0.500000 0.000000 0.500000
O O3 0.392162 0.248281 0.833818
O O4 0.821378 0.980387 0.756828
O O5 0.903825 0.273524 0.699973
O O6 0.228727 0.036415 0.823525
O O7 0.304491 0.174038 0.968504
O O8 0.937364 0.339009 0.058874
O O9 0.590859 0.179269 0.151697
O O10 0.374723 0.272878 0.339315
O O11 0.755990 0.524523 0.834296
O O12 0.307966 0.745958 0.862347
O O13 0.500000 0.500000 0.500000
O O14 0.928415 0.300194 0.494962
O O15 0.090151 0.722323 0.804336
O O16 0.379057 0.408462 0.697796
O O17 0.000000 0.500000 0.500000
O O18 0.500000 0.500000 0.000000
#
# Coordination Sequence:
#
# PCOD8021806 Si02
#       8
#     2   2   2   2   2   2   2   2
#     4  12  27  43  70 102 142 187 231 289 351 413
#     4  11  24  44  68 103 142 184 232 287 355 415
#     4  11  26  43  72 101 144 184 232 289 353 419
#     4  11  25  45  70 104 138 183 232 284 353 416
#     4  10  22  44  68  97 138 178 230 286 345 416
#     4  11  24  46  70 102 142 179 234 288 351 422
#     4  12  25  47  69 103 139 181 243 285 348 423
#     4  12  24  45  76 102 141 186 232 293 348 415
#
# _framework density 22.972877
#
# number of rings (size 3 to 8) (size 9 to 14) (size 15 to 20)
#    0.000    0.750    1.250    6.375    5.250    2.500 
#    0.000    3.750    0.000    0.000    0.000    0.000 
#    0.000    0.000    0.000    0.000    0.000    0.000 
#
# Total GULP energy -198320.978869 kJ/mol
# GULP energy per Si atom -12395.061179 kJ/mol
# Density = 2.292059 g / cm^3
# Si number density = 22.972877 Si / 1000 Ang^3
#
#
#
# Elastic Constant Matrix: (Units=GPa)
#
#
# Indices 1 2 3 4 5 6 
#
# 1 64.8450 10.6255 19.8563 -13.4619 4.7282 18.0144
# 2 10.6255 102.8113 15.3739 -18.3778 4.2383 11.8996
# 3 19.8563 15.3739 121.8000 5.4769 -3.1078 4.4276
# 4 -13.4619 -18.3778 5.4769 47.8938 10.0543 -8.7270
# 5 4.7282 4.2383 -3.1078 10.0543 36.6987 4.2555
# 6 18.0144 11.8996 4.4276 -8.7270 4.2555 30.4078
#
#
#
# Elastic Compliance Matrix: (Units=1/GPa)
#
#
# Indices 1 2 3 4 5 6 
#
# 1 0.020427 0.000610 -0.003367 0.005248 -0.003279 -0.009885
# 2 0.000610 0.011174 -0.001680 0.004656 -0.002461 -0.002809
# 3 -0.003367 -0.001680 0.009163 -0.003086 0.002235 0.000120
# 4 0.005248 0.004656 -0.003086 0.027347 -0.009512 0.004698
# 5 -0.003279 -0.002461 0.002235 -0.009512 0.031276 -0.004527
# 6 -0.009885 -0.002809 0.000120 0.004698 -0.004527 0.041806
#
#
# Mechanical properties :
#
#
# Convention : Reuss Voigt Hill
#
# Bulk Modulus (GPa) = 31.35925 42.35194 36.85560
# Shear Modulus (GPa) = 31.11449 39.24010 35.17729
#
# Velocity S-wave (km/s) = 3.68421 4.13741 3.91737
# Velocity P-wave (km/s) = 5.63720 6.42649 6.04475
#
# Compressibility (1/GPa) = 0.03188852
#
# Stress axis : x y z
#
# Youngs Moduli (GPa) = 48.95414 89.49741 109.13870
#
# Poissons Ratio (x) = -0.05457 0.36751
# Poissons Ratio (y) = -0.02985 0.18333
# Poissons Ratio (z) = 0.16485 0.15034
#
# Static dielectric constant tensor:
#      x y z
#    x 4.065160 -0.116080 -0.266580 
#    y -0.116080 4.427310 0.251750 
#    z -0.266580 0.251750 4.550700 
# 
# 
# High freq. dielectric constant tensor:
#      x y z
#    x 1.894880 0.004140 -0.007880 
#    y 0.004140 1.924820 0.006340 
#    z -0.007880 0.006340 1.923020 
# 
# From -- ./inp_files/279980.got.cif
#   From: 2010.06.25/outbox.cif.g09.slc.cpg/sg2_140_cif.got.tgz:279980.got - 2010.06.27 13:26:56.
