data_PCOD8021249
_publ_section_title
;
Structure prediction by ZEFSAII (Michael W. Deem and Ramdas Pophale) SiO2 
 PCOD8021249
Probable space group: P -1
;
_chemical_formula_sum "Si O2"
_cell_formula_units_Z 16
_cell_length_a 8.972352
_cell_length_b 13.904868
_cell_length_c 17.594307
_cell_angle_alpha 27.206074
_cell_angle_beta 63.113962
_cell_angle_gamma 81.262687
_cell_volume 706.648812
_symmetry_space_group_name_H-M "P -1"
_symmetry_group_IT_number 2
_symmetry_cell_setting 'triclinic'
loop_
_space_group_symop_operation_xyz
x,y,z
-x,-y,-z
loop_
_atom_site_type_symbol
_atom_site_label
_atom_site_fract_x
_atom_site_fract_y
_atom_site_fract_z
Si Si1 0.137809 0.998591 0.857414
Si Si2 0.544528 0.068343 0.736011
Si Si3 0.295807 0.885926 0.675890
Si Si4 0.657154 0.233934 0.857324
Si Si5 0.876848 0.072466 0.576131
Si Si6 0.916403 0.637843 0.291885
Si Si7 0.087769 0.363871 0.172640
Si Si8 0.170661 0.201494 0.555933
O O1 0.371929 0.087437 0.724279
O O2 0.166062 0.209412 0.761931
O O3 0.041735 0.994656 0.801066
O O4 0.979729 0.711579 0.136022
O O5 0.652122 0.011446 0.685159
O O6 0.723229 0.329949 0.557723
O O7 0.427885 0.835517 0.988461
O O8 0.106867 0.734664 0.766556
O O9 0.500000 0.000000 0.500000
O O10 0.316099 0.134941 0.531042
O O11 0.261333 0.680988 0.893638
O O12 0.686054 0.505444 0.644332
O O13 0.882413 0.290885 0.757301
O O14 0.500000 0.000000 0.000000
O O15 0.014738 0.307191 0.317224
O O16 0.007114 0.175126 0.552661
O O17 0.818967 0.793640 0.757801
#
# Coordination Sequence:
#
# PCOD8021249 Si02
#       8
#     2   2   2   2   2   2   2   2
#     4  10  24  40  64  95 127 170 223 269 325 396
#     4  11  23  40  66  92 128 175 222 262 325 398
#     4  10  23  42  69  97 133 167 212 274 325 394
#     4  11  25  41  64  98 133 173 224 275 326 388
#     4  10  22  43  69  94 134 174 209 276 325 390
#     4  10  22  45  65  88 134 173 217 276 334 373
#     4   9  22  45  65  97 134 167 213 263 339 387
#     4  11  24  42  64 100 131 169 226 265 329 388
#
# _framework density 22.64208
#
# number of rings (size 3 to 8) (size 9 to 14) (size 15 to 20)
#    0.000    1.750    1.250    1.125    7.000    3.000 
#    0.000    1.875    0.000    0.000    0.000    0.000 
#    0.000    0.000    0.000    0.000    0.000    0.000 
#
# Total GULP energy -198393.698586 kJ/mol
# GULP energy per Si atom -12399.606162 kJ/mol
# Density = 2.259055 g / cm^3
# Si number density = 22.642080 Si / 1000 Ang^3
#
#
#
# Elastic Constant Matrix: (Units=GPa)
#
#
# Indices 1 2 3 4 5 6 
#
# 1 91.9817 48.2986 51.8456 16.8028 13.9481 -12.2686
# 2 48.2986 102.3300 31.0447 12.3630 1.5514 -18.3091
# 3 51.8456 31.0447 95.6573 14.4936 11.7788 -15.0603
# 4 16.8028 12.3630 14.4936 44.3044 0.8470 1.4799
# 5 13.9481 1.5514 11.7788 0.8470 31.3395 11.4861
# 6 -12.2686 -18.3091 -15.0603 1.4799 11.4861 46.3007
#
#
#
# Elastic Compliance Matrix: (Units=1/GPa)
#
#
# Indices 1 2 3 4 5 6 
#
# 1 0.020269 -0.006462 -0.007174 -0.003484 -0.006741 0.002266
# 2 -0.006462 0.013674 -0.000338 -0.001388 0.001137 0.003347
# 3 -0.007174 -0.000338 0.016050 -0.002497 -0.004347 0.004344
# 4 -0.003484 -0.001388 -0.002497 0.025164 0.003311 -0.003910
# 5 -0.006741 0.001137 -0.004347 0.003311 0.041189 -0.013075
# 6 0.002266 0.003347 0.004344 -0.003910 -0.013075 0.028304
#
#
# Mechanical properties :
#
#
# Convention : Reuss Voigt Hill
#
# Bulk Modulus (GPa) = 45.36189 61.37188 53.36688
# Shear Modulus (GPa) = 27.78609 34.97426 31.38017
#
# Velocity S-wave (km/s) = 3.50692 3.93448 3.72684
# Velocity P-wave (km/s) = 6.03952 6.91406 6.49154
#
# Compressibility (1/GPa) = 0.02204494
#
# Stress axis : x y z
#
# Youngs Moduli (GPa) = 49.33557 73.13019 62.30695
#
# Poissons Ratio (x) = 0.47256 0.44699
# Poissons Ratio (y) = 0.31880 0.02107
# Poissons Ratio (z) = 0.35393 0.02473
#
# Static dielectric constant tensor:
#      x y z
#    x 4.072360 -0.170950 0.248340 
#    y -0.170950 4.061150 0.092200 
#    z 0.248340 0.092200 4.252430 
# 
# 
# High freq. dielectric constant tensor:
#      x y z
#    x 1.889020 -0.011610 0.018960 
#    y -0.011610 1.901270 0.009310 
#    z 0.018960 0.009310 1.891720 
# 
# From -- ./inp_files/561120.got.cif
#   From: 2010.06.25/outbox.cif.g09.slc.cpg/sg2_281_cif.got.tgz:561120.got - 2010.06.27 13:26:56.
