data_PCOD8021943
_publ_section_title
;
Structure prediction by ZEFSAII (Michael W. Deem and Ramdas Pophale) SiO2 
 PCOD8021943
Probable space group: P -1
;
_chemical_formula_sum "Si O2"
_cell_formula_units_Z 12
_cell_length_a 13.932257
_cell_length_b 4.798627
_cell_length_c 14.891498
_cell_angle_alpha 69.815738
_cell_angle_beta 151.606210
_cell_angle_gamma 97.158354
_cell_volume 407.087188
_symmetry_space_group_name_H-M "P -1"
_symmetry_group_IT_number 2
_symmetry_cell_setting 'triclinic'
loop_
_space_group_symop_operation_xyz
x,y,z
-x,-y,-z
loop_
_atom_site_type_symbol
_atom_site_label
_atom_site_fract_x
_atom_site_fract_y
_atom_site_fract_z
Si Si1 0.683388 0.147396 0.639233
Si Si2 0.335735 0.210304 0.111180
Si Si3 0.137418 0.836572 0.768557
Si Si4 0.813970 0.772333 0.372385
Si Si5 0.739797 0.287782 0.476534
Si Si6 0.180146 0.690966 0.084349
O O1 0.675606 0.363988 0.520511
O O2 0.500000 0.000000 0.500000
O O3 0.675582 0.368919 0.696846
O O4 0.919689 0.836843 0.871954
O O5 0.599913 0.090434 0.344892
O O6 0.260547 0.920008 0.063026
O O7 0.238259 0.363052 0.111639
O O8 0.249381 0.467374 0.930923
O O9 0.924388 0.909631 0.523053
O O10 0.005295 0.078509 0.714823
O O11 0.303317 0.947043 0.832402
O O12 0.659791 0.624108 0.314454
O O13 0.000000 0.500000 0.500000
#
# Coordination Sequence:
#
# PCOD8021943 Si02
#       6
#     2   2   2   2   2   2
#     4  11  23  47  71 107 145 196 241 298 357 432
#     4  12  26  46  74 106 145 191 239 301 358 430
#     4  10  22  44  70  99 141 185 237 301 361 427
#     4   9  21  42  69 100 137 185 237 296 366 424
#     4  11  23  43  69 103 137 192 237 292 361 426
#     4  11  27  48  69 108 150 191 243 300 356 426
#
# _framework density 29.477716999999998
#
# number of rings (size 3 to 8) (size 9 to 14) (size 15 to 20)
#    0.000    1.333    3.333    1.000    4.667    4.000 
#    6.000    7.500    0.000    0.000    0.000    0.000 
#    0.000    0.000    0.000    0.000    0.000    0.000 
#
# Total GULP energy -148704.703201 kJ/mol
# GULP energy per Si atom -12392.058600 kJ/mol
# Density = 2.941062 g / cm^3
# Si number density = 29.477717 Si / 1000 Ang^3
#
#
#
# Elastic Constant Matrix: (Units=GPa)
#
#
# Indices 1 2 3 4 5 6 
#
# 1 166.1927 15.3902 33.8324 1.4929 -9.1148 43.8060
# 2 15.3902 45.5495 -6.0275 11.2837 13.9404 16.3614
# 3 33.8324 -6.0275 97.6409 2.6961 -4.0046 32.0175
# 4 1.4929 11.2837 2.6961 43.9730 19.4164 -7.4501
# 5 -9.1148 13.9404 -4.0046 19.4164 34.3200 -0.2192
# 6 43.8060 16.3614 32.0175 -7.4501 -0.2192 52.5327
#
#
#
# Elastic Compliance Matrix: (Units=1/GPa)
#
#
# Indices 1 2 3 4 5 6 
#
# 1 0.008214 -0.000986 -0.000471 -0.002962 0.004160 -0.006658
# 2 -0.000986 0.033161 0.007157 -0.007621 -0.008681 -0.014985
# 3 -0.000471 0.007157 0.014902 -0.005479 0.001732 -0.011688
# 4 -0.002962 -0.007621 -0.005479 0.035436 -0.018294 0.013132
# 5 0.004160 -0.008681 0.001732 -0.018294 0.044293 -0.004230
# 6 -0.006658 -0.014985 -0.011688 0.013132 -0.004230 0.038223
#
#
# Mechanical properties :
#
#
# Convention : Reuss Voigt Hill
#
# Bulk Modulus (GPa) = 14.77613 43.97482 29.37548
# Shear Modulus (GPa) = 26.97032 43.91101 35.44067
#
# Velocity S-wave (km/s) = 3.02808 3.86376 3.47116
# Velocity P-wave (km/s) = 4.15322 5.90384 5.10414
#
# Compressibility (1/GPa) = 0.06767671
#
# Stress axis : x y z
#
# Youngs Moduli (GPa) = 121.74270 30.15548 67.10679
#
# Poissons Ratio (x) = 0.02972 0.03163
# Poissons Ratio (y) = 0.11999 -0.48027
# Poissons Ratio (z) = 0.05739 -0.21582
#
# Static dielectric constant tensor:
#      x y z
#    x 6.621590 0.278140 -0.428160 
#    y 0.278140 5.388640 -0.124670 
#    z -0.428160 -0.124670 5.559120 
# 
# 
# High freq. dielectric constant tensor:
#      x y z
#    x 2.232460 0.016430 -0.016900 
#    y 0.016430 2.196480 -0.000830 
#    z -0.016900 -0.000830 2.195090 
# 
# From -- ./inp_files/95782.got.cif
#   From: 2010.06.25/outbox.cif.g09.slc.cpg/sg2_48_cif.got.tgz:95782.got - 2010.06.27 13:26:56.
