data_PCOD8021052
_publ_section_title
;
Structure prediction by ZEFSAII (Michael W. Deem and Ramdas Pophale) SiO2 
 PCOD8021052
Probable space group: P -1
;
_chemical_formula_sum "Si O2"
_cell_formula_units_Z 16
_cell_length_a 13.107143
_cell_length_b 8.853616
_cell_length_c 10.227866
_cell_angle_alpha 91.206787
_cell_angle_beta 44.605522
_cell_angle_gamma 82.697914
_cell_volume 816.035558
_symmetry_space_group_name_H-M "P -1"
_symmetry_group_IT_number 2
_symmetry_cell_setting 'triclinic'
loop_
_space_group_symop_operation_xyz
x,y,z
-x,-y,-z
loop_
_atom_site_type_symbol
_atom_site_label
_atom_site_fract_x
_atom_site_fract_y
_atom_site_fract_z
Si Si1 0.760248 0.805029 0.469515
Si Si2 0.689897 0.296155 0.790007
Si Si3 0.962010 0.101689 0.664724
Si Si4 0.574453 0.606009 0.787179
Si Si5 0.314786 0.849226 0.479460
Si Si6 0.860240 0.635323 0.110539
Si Si7 0.001280 0.894201 0.870582
Si Si8 0.554743 0.567865 0.321397
O O1 0.650375 0.733088 0.656771
O O2 0.805272 0.698949 0.302362
O O3 0.903807 0.815021 0.423357
O O4 0.675879 0.973522 0.501538
O O5 0.819125 0.237195 0.775142
O O6 0.699157 0.466000 0.729327
O O7 0.704983 0.173190 0.657311
O O8 0.529613 0.307545 0.002380
O O9 0.931109 0.997185 0.813171
O O10 0.000000 0.000000 0.500000
O O11 0.473408 0.535399 0.776290
O O12 0.463224 0.742784 0.396471
O O13 0.170991 0.810953 0.683936
O O14 0.728691 0.569008 0.161730
O O15 0.903757 0.766336 0.981208
O O16 0.000000 0.500000 0.000000
O O17 0.000000 0.000000 0.000000
O O18 0.500000 0.500000 0.500000
#
# Coordination Sequence:
#
# PCOD8021052 Si02
#       8
#     2   2   2   2   2   2   2   2
#     4  11  23  43  66  98 130 168 221 272 322 385
#     4  10  22  44  64  90 132 173 219 267 327 385
#     4  11  22  42  69  96 129 172 216 267 330 382
#     4  10  24  43  64  93 131 172 218 274 321 385
#     4  10  22  43  67  91 134 168 217 278 318 388
#     4  12  26  42  64 100 133 171 217 267 333 397
#     4  11  22  43  67  96 133 168 216 275 324 383
#     4  11  23  43  66  92 131 176 215 265 332 386
#
# _framework density 19.606988000000001
#
# number of rings (size 3 to 8) (size 9 to 14) (size 15 to 20)
#    0.000    1.250    6.250    0.750    3.500    3.500 
#    6.750    0.000    0.000    0.000    0.000    0.000 
#    0.000    0.000    0.000    0.000    0.000    0.000 
#
# Total GULP energy -198446.055623 kJ/mol
# GULP energy per Si atom -12402.878476 kJ/mol
# Density = 1.956236 g / cm^3
# Si number density = 19.606988 Si / 1000 Ang^3
#
#
#
# Elastic Constant Matrix: (Units=GPa)
#
#
# Indices 1 2 3 4 5 6 
#
# 1 110.9612 40.7114 21.5803 -11.7707 -9.8979 -17.1415
# 2 40.7114 89.4756 29.8337 -24.0100 -12.0030 -4.0335
# 3 21.5803 29.8337 100.0622 -14.3400 6.0229 0.2014
# 4 -11.7707 -24.0100 -14.3400 42.4434 3.0268 -7.3923
# 5 -9.8979 -12.0030 6.0229 3.0268 38.7839 1.5962
# 6 -17.1415 -4.0335 0.2014 -7.3923 1.5962 33.1027
#
#
#
# Elastic Compliance Matrix: (Units=1/GPa)
#
#
# Indices 1 2 3 4 5 6 
#
# 1 0.012005 -0.004167 -0.001244 0.001477 0.001606 0.005969
# 2 -0.004167 0.016672 -0.003298 0.007100 0.004001 0.001286
# 3 -0.001244 -0.003298 0.011715 0.001888 -0.003283 -0.000537
# 4 0.001477 0.007100 0.001888 0.030111 -0.000413 0.008362
# 5 0.001606 0.004001 -0.003283 -0.000413 0.027978 -0.000102
# 6 0.005969 0.001286 -0.000537 0.008362 -0.000102 0.035332
#
#
# Mechanical properties :
#
#
# Convention : Reuss Voigt Hill
#
# Bulk Modulus (GPa) = 43.52706 53.86108 48.69407
# Shear Modulus (GPa) = 31.46886 36.75754 34.11320
#
# Velocity S-wave (km/s) = 4.01057 4.33450 4.17568
# Velocity P-wave (km/s) = 6.61016 7.25124 6.93811
#
# Compressibility (1/GPa) = 0.02297422
#
# Stress axis : x y z
#
# Youngs Moduli (GPa) = 83.29999 59.98195 85.36388
#
# Poissons Ratio (x) = 0.24992 0.10618
# Poissons Ratio (y) = 0.34707 0.28153
# Poissons Ratio (z) = 0.10361 0.19782
#
# Static dielectric constant tensor:
#      x y z
#    x 3.889950 0.011430 -0.265630 
#    y 0.011430 3.753630 -0.276380 
#    z -0.265630 -0.276380 4.393400 
# 
# 
# High freq. dielectric constant tensor:
#      x y z
#    x 1.760770 -0.010510 0.006140 
#    y -0.010510 1.769030 0.004530 
#    z 0.006140 0.004530 1.779360 
# 
# From -- ./inp_files/190925.got.cif
#   From: 2010.06.25/outbox.cif.g09.slc.cpg/sg2_96_cif.got.tgz:190925.got - 2010.06.27 13:26:56.
