data_PCOD8021430
_publ_section_title
;
Structure prediction by ZEFSAII (Michael W. Deem and Ramdas Pophale) SiO2 
 PCOD8021430
Probable space group: P -1
;
_chemical_formula_sum "Si O2"
_cell_formula_units_Z 16
_cell_length_a 9.368805
_cell_length_b 11.344569
_cell_length_c 9.449437
_cell_angle_alpha 90.575162
_cell_angle_beta 41.900193
_cell_angle_gamma 83.990400
_cell_volume 661.167115
_symmetry_space_group_name_H-M "P -1"
_symmetry_group_IT_number 2
_symmetry_cell_setting 'triclinic'
loop_
_space_group_symop_operation_xyz
x,y,z
-x,-y,-z
loop_
_atom_site_type_symbol
_atom_site_label
_atom_site_fract_x
_atom_site_fract_y
_atom_site_fract_z
Si Si1 0.375815 0.171052 0.813979
Si Si2 0.177652 0.562354 0.950728
Si Si3 0.307930 0.956427 0.215881
Si Si4 0.112475 0.592445 0.327901
Si Si5 0.211125 0.999374 0.748044
Si Si6 0.583619 0.386600 0.646508
Si Si7 0.062370 0.145717 0.597968
Si Si8 0.115680 0.755005 0.785998
O O1 0.587675 0.143203 0.753118
O O2 0.412247 0.298654 0.731201
O O3 0.398415 0.050444 0.698202
O O4 0.135636 0.191614 0.063270
O O5 0.430254 0.512110 0.724531
O O6 0.135529 0.701566 0.931333
O O7 0.166856 0.545191 0.128081
O O8 0.000000 0.500000 0.000000
O O9 0.177574 0.886444 0.202394
O O10 0.158893 0.073349 0.388747
O O11 0.500000 0.000000 0.000000
O O12 0.326350 0.613732 0.258006
O O13 0.000000 0.500000 0.500000
O O14 0.943138 0.715444 0.431195
O O15 0.263384 0.860741 0.656846
O O16 0.187248 0.100263 0.646253
O O17 0.000000 0.000000 0.000000
O O18 0.793427 0.353603 0.388954
#
# Coordination Sequence:
#
# PCOD8021430 Si02
#       8
#     2   2   2   2   2   2   2   2
#     4  11  23  44  72 102 148 187 236 297 358 434
#     4  12  26  51  76 105 145 192 250 305 360 434
#     4  11  24  41  71 105 144 188 233 288 363 432
#     4  12  28  50  76 106 147 197 248 307 363 432
#     4  10  22  43  72 106 144 187 231 295 364 427
#     4  12  26  47  76 104 145 193 245 304 368 426
#     4  11  25  46  70 106 148 183 237 295 358 437
#     4  11  24  45  79 105 149 190 245 298 365 439
#
# _framework density 24.199628000000001
#
# number of rings (size 3 to 8) (size 9 to 14) (size 15 to 20)
#    0.000    0.750    2.500    5.250    3.500    2.000 
#    4.500    0.000    0.000    0.000    0.000    0.000 
#    0.000    0.000    0.000    0.000    0.000    0.000 
#
# Total GULP energy -198223.433662 kJ/mol
# GULP energy per Si atom -12388.964604 kJ/mol
# Density = 2.414455 g / cm^3
# Si number density = 24.199628 Si / 1000 Ang^3
#
#
#
# Elastic Constant Matrix: (Units=GPa)
#
#
# Indices 1 2 3 4 5 6 
#
# 1 110.7689 31.7732 29.8254 4.6113 0.6253 4.6673
# 2 31.7732 143.2286 32.3634 -6.7765 -3.8690 -7.4862
# 3 29.8254 32.3634 65.6672 6.8918 6.7798 5.3674
# 4 4.6113 -6.7765 6.8918 46.5690 -4.0737 -6.0123
# 5 0.6253 -3.8690 6.7798 -4.0737 36.1063 -1.9267
# 6 4.6673 -7.4862 5.3674 -6.0123 -1.9267 40.4471
#
#
#
# Elastic Compliance Matrix: (Units=1/GPa)
#
#
# Indices 1 2 3 4 5 6 
#
# 1 0.010604 -0.001564 -0.003892 -0.000825 0.000227 -0.001108
# 2 -0.001564 0.008625 -0.004272 0.002600 0.002198 0.002835
# 3 -0.003892 -0.004272 0.020364 -0.004181 -0.004894 -0.003899
# 4 -0.000825 0.002600 -0.004181 0.023523 0.003989 0.004818
# 5 0.000227 0.002198 -0.004894 0.003989 0.029458 0.003026
# 6 -0.001108 0.002835 -0.003899 0.004818 0.003026 0.026754
#
#
# Mechanical properties :
#
#
# Convention : Reuss Voigt Hill
#
# Bulk Modulus (GPa) = 49.65813 56.39876 53.02845
# Shear Modulus (GPa) = 34.36532 39.67133 37.01833
#
# Velocity S-wave (km/s) = 3.77248 4.05326 3.91539
# Velocity P-wave (km/s) = 6.28810 6.72767 6.51159
#
# Compressibility (1/GPa) = 0.02013769
#
# Stress axis : x y z
#
# Youngs Moduli (GPa) = 94.30372 115.94797 49.10621
#
# Poissons Ratio (x) = 0.18132 0.19112
# Poissons Ratio (y) = 0.14747 0.20977
# Poissons Ratio (z) = 0.36702 0.49531
#
# Static dielectric constant tensor:
#      x y z
#    x 4.241940 0.124540 -0.011950 
#    y 0.124540 4.874690 0.102510 
#    z -0.011950 0.102510 4.335140 
# 
# 
# High freq. dielectric constant tensor:
#      x y z
#    x 1.965440 -0.001150 -0.008130 
#    y -0.001150 1.972390 0.005920 
#    z -0.008130 0.005920 1.958360 
# 
# From -- ./inp_files/187256.got.cif
#   From: 2010.06.25/outbox.cif.g09.slc.cpg/sg2_94_cif.got.tgz:187256.got - 2010.06.27 13:26:56.
