data_PCOD8021189
_publ_section_title
;
Structure prediction by ZEFSAII (Michael W. Deem and Ramdas Pophale) SiO2 
 PCOD8021189
Probable space group: P -1
;
_chemical_formula_sum "Si O2"
_cell_formula_units_Z 14
_cell_length_a 7.224716
_cell_length_b 14.009051
_cell_length_c 7.138118
_cell_angle_alpha 61.318286
_cell_angle_beta 117.994806
_cell_angle_gamma 96.983055
_cell_volume 554.612679
_symmetry_space_group_name_H-M "P -1"
_symmetry_group_IT_number 2
_symmetry_cell_setting 'triclinic'
loop_
_space_group_symop_operation_xyz
x,y,z
-x,-y,-z
loop_
_atom_site_type_symbol
_atom_site_label
_atom_site_fract_x
_atom_site_fract_y
_atom_site_fract_z
Si Si1 0.669504 0.347191 0.332615
Si Si2 0.639564 0.368466 0.716854
Si Si3 0.664295 0.796823 0.306391
Si Si4 0.962038 0.720655 0.828105
Si Si5 0.838055 0.877906 0.935973
Si Si6 0.290676 0.884573 0.307159
Si Si7 0.250652 0.484618 0.066873
O O1 0.743412 0.370941 0.557243
O O2 0.688502 0.215439 0.438064
O O3 0.426571 0.397844 0.130698
O O4 0.810019 0.405406 0.194684
O O5 0.415347 0.322079 0.646757
O O6 0.632802 0.486593 0.707831
O O7 0.793073 0.279930 0.001439
O O8 0.888992 0.773933 0.544327
O O9 0.709685 0.851354 0.082961
O O10 0.490671 0.873877 0.271814
O O11 0.946093 0.586740 0.945685
O O12 0.811166 0.789244 0.845889
O O13 0.084393 0.880471 0.086380
O O14 0.730978 0.999228 0.703648
#
# Coordination Sequence:
#
# PCOD8021189 Si02
#       7
#     2   2   2   2   2   2   2
#     4  10  22  43  68  97 137 181 232 281 347 408
#     4  11  24  44  67  98 150 175 228 298 328 416
#     4  11  25  45  72 103 143 181 232 284 352 410
#     4  12  25  44  69 111 134 183 247 269 352 434
#     4  11  25  45  78 100 142 188 224 296 353 400
#     4  10  22  51  70 103 144 177 238 291 339 422
#     4  11  24  40  70 101 135 189 232 275 354 413
#
# _framework density 25.242840000000001
#
# number of rings (size 3 to 8) (size 9 to 14) (size 15 to 20)
#    0.000    1.143    5.714    1.286    6.000    1.143 
#    0.000    5.714    0.000    0.000    0.000    0.000 
#    0.000    0.000    0.000    0.000    0.000    0.000 
#
# Total GULP energy -173561.912183 kJ/mol
# GULP energy per Si atom -12397.279442 kJ/mol
# Density = 2.518539 g / cm^3
# Si number density = 25.242840 Si / 1000 Ang^3
#
#
#
# Elastic Constant Matrix: (Units=GPa)
#
#
# Indices 1 2 3 4 5 6 
#
# 1 67.0935 10.6962 13.4135 -6.9577 -11.1562 3.0311
# 2 10.6962 130.5517 28.0121 -28.6296 -19.2829 -25.8659
# 3 13.4135 28.0121 93.4853 -12.9254 -18.0524 3.3048
# 4 -6.9577 -28.6296 -12.9254 50.5396 3.8133 9.6551
# 5 -11.1562 -19.2829 -18.0524 3.8133 38.6892 -5.6365
# 6 3.0311 -25.8659 3.3048 9.6551 -5.6365 26.1117
#
#
#
# Elastic Compliance Matrix: (Units=1/GPa)
#
#
# Indices 1 2 3 4 5 6 
#
# 1 0.016068 -0.000667 -0.001155 0.001736 0.003253 -0.002319
# 2 -0.000667 0.012478 -0.002378 0.003424 0.006454 0.012866
# 3 -0.001155 -0.002378 0.012720 0.002211 0.003635 -0.003864
# 4 0.001736 0.003424 0.002211 0.023637 0.000061 -0.005817
# 5 0.003253 0.006454 0.003635 0.000061 0.033553 0.012776
# 6 -0.002319 0.012866 -0.003864 -0.005817 0.012776 0.056709
#
#
# Mechanical properties :
#
#
# Convention : Reuss Voigt Hill
#
# Bulk Modulus (GPa) = 30.42867 43.93044 37.17956
# Shear Modulus (GPa) = 28.65001 39.00202 33.82602
#
# Velocity S-wave (km/s) = 3.37260 3.93501 3.66461
# Velocity P-wave (km/s) = 5.21981 6.17143 5.71546
#
# Compressibility (1/GPa) = 0.03286374
#
# Stress axis : x y z
#
# Youngs Moduli (GPa) = 62.23709 80.14129 78.61879
#
# Poissons Ratio (x) = 0.05344 0.09084
# Poissons Ratio (y) = 0.04150 0.18699
# Poissons Ratio (z) = 0.07191 0.19061
#
# Static dielectric constant tensor:
#      x y z
#    x 4.571950 -0.265160 0.147870 
#    y -0.265160 4.860150 -0.215950 
#    z 0.147870 -0.215950 4.564290 
# 
# 
# High freq. dielectric constant tensor:
#      x y z
#    x 2.009960 -0.022540 0.021620 
#    y -0.022540 2.008310 -0.013050 
#    z 0.021620 -0.013050 2.011610 
# 
# From -- ./inp_files/195991.got.cif
#   From: 2010.06.25/outbox.cif.g09.slc.cpg/sg2_98_cif.got.tgz:195991.got - 2010.06.27 13:26:56.
