data_PCOD8021305
_publ_section_title
;
Structure prediction by ZEFSAII (Michael W. Deem and Ramdas Pophale) SiO2 
 PCOD8021305
Probable space group: P -1
;
_chemical_formula_sum "Si O2"
_cell_formula_units_Z 14
_cell_length_a 7.150102
_cell_length_b 16.181706
_cell_length_c 8.865870
_cell_angle_alpha 111.012854
_cell_angle_beta 61.173070
_cell_angle_gamma 66.382882
_cell_volume 598.053099
_symmetry_space_group_name_H-M "P -1"
_symmetry_group_IT_number 2
_symmetry_cell_setting 'triclinic'
loop_
_space_group_symop_operation_xyz
x,y,z
-x,-y,-z
loop_
_atom_site_type_symbol
_atom_site_label
_atom_site_fract_x
_atom_site_fract_y
_atom_site_fract_z
Si Si1 0.881718 0.390031 0.926954
Si Si2 0.475480 0.140566 0.441521
Si Si3 0.947256 0.488688 0.229512
Si Si4 0.669621 0.249956 0.271621
Si Si5 0.345653 0.075182 0.953655
Si Si6 0.668973 0.127220 0.690953
Si Si7 0.508758 0.337366 0.060789
O O1 0.119502 0.256195 0.666964
O O2 0.865507 0.489540 0.917721
O O3 0.967989 0.389258 0.067009
O O4 0.574830 0.422993 0.064684
O O5 0.611184 0.164960 0.276917
O O6 0.604451 0.127866 0.543576
O O7 0.560721 0.017194 0.279563
O O8 0.598884 0.611262 0.468295
O O9 0.146355 0.425473 0.264144
O O10 0.675427 0.257760 0.095040
O O11 0.985263 0.185928 0.181509
O O12 0.456986 0.138790 0.901173
O O13 0.500000 0.000000 0.000000
O O14 0.639338 0.240479 0.809373
O O15 0.000000 0.000000 0.500000
#
# Coordination Sequence:
#
# PCOD8021305 Si02
#       7
#     2   2   2   2   2   2   2
#     4  10  22  43  70 101 130 181 229 281 322 410
#     4  11  22  45  67  95 137 174 229 280 336 400
#     4  10  23  45  67  99 141 176 229 273 339 397
#     4  11  25  42  67  99 140 178 220 284 334 410
#     4  12  25  45  68 102 137 178 225 283 346 396
#     4  12  24  41  69  99 133 179 230 280 334 404
#     4  12  23  43  68 103 137 177 226 277 344 394
#
# _framework density 23.409293000000002
#
# number of rings (size 3 to 8) (size 9 to 14) (size 15 to 20)
#    0.000    0.857    1.429    6.000    0.000    0.571 
#    7.714    0.000    0.000    0.000    0.000    0.000 
#    0.000    0.000    0.000    0.000    0.000    0.000 
#
# Total GULP energy -173574.433335 kJ/mol
# GULP energy per Si atom -12398.173810 kJ/mol
# Density = 2.335601 g / cm^3
# Si number density = 23.409293 Si / 1000 Ang^3
#
#
#
# Elastic Constant Matrix: (Units=GPa)
#
#
# Indices 1 2 3 4 5 6 
#
# 1 149.8969 39.5154 60.1378 9.4628 -2.8327 -8.1632
# 2 39.5154 66.6372 28.0676 8.6379 5.9764 -8.5527
# 3 60.1378 28.0676 97.8462 9.5638 -6.2019 -0.3660
# 4 9.4628 8.6379 9.5638 32.5420 -13.3470 1.3047
# 5 -2.8327 5.9764 -6.2019 -13.3470 47.0246 7.7347
# 6 -8.1632 -8.5527 -0.3660 1.3047 7.7347 48.3421
#
#
#
# Elastic Compliance Matrix: (Units=1/GPa)
#
#
# Indices 1 2 3 4 5 6 
#
# 1 0.009623 -0.003486 -0.004862 -0.000444 0.000096 0.000968
# 2 -0.003486 0.020291 -0.003448 -0.005796 -0.005550 0.004020
# 3 -0.004862 -0.003448 0.014419 -0.001013 0.002026 -0.001619
# 4 -0.000444 -0.005796 -0.001013 0.037762 0.011959 -0.004041
# 5 0.000096 -0.005550 0.002026 0.011959 0.026546 -0.005520
# 6 0.000968 0.004020 -0.001619 -0.004041 -0.005520 0.022541
#
#
# Mechanical properties :
#
#
# Convention : Reuss Voigt Hill
#
# Bulk Modulus (GPa) = 48.21235 63.31355 55.76295
# Shear Modulus (GPa) = 30.92408 38.02570 34.47489
#
# Velocity S-wave (km/s) = 3.63852 4.03474 3.84174
# Velocity P-wave (km/s) = 6.18804 6.98645 6.59933
#
# Compressibility (1/GPa) = 0.02074157
#
# Stress axis : x y z
#
# Youngs Moduli (GPa) = 103.91666 49.28266 69.35469
#
# Poissons Ratio (x) = 0.17178 0.33717
# Poissons Ratio (y) = 0.36222 0.23917
# Poissons Ratio (z) = 0.50520 0.16995
#
# Static dielectric constant tensor:
#      x y z
#    x 1.599650 -1.076010 1.177130 
#    y -1.076010 3.833070 0.470010 
#    z 1.177130 0.470010 3.482790 
# 
# 
# High freq. dielectric constant tensor:
#      x y z
#    x 1.938460 -0.006980 -0.002390 
#    y -0.006980 1.930740 0.007550 
#    z -0.002390 0.007550 1.919170 
# 
# From -- ./inp_files/72545.got.cif
#   From: 2010.06.25/outbox.cif.g09.slc.cpg/sg2_37_cif.got.tgz:72545.got - 2010.06.27 13:26:56.
