data_PCOD8021000
_publ_section_title
;
Structure prediction by ZEFSAII (Michael W. Deem and Ramdas Pophale) SiO2 
 PCOD8021000
Probable space group: P -1
;
_chemical_formula_sum "Si O2"
_cell_formula_units_Z 14
_cell_length_a 6.726674
_cell_length_b 10.509151
_cell_length_c 12.162505
_cell_angle_alpha 100.412992
_cell_angle_beta 130.354195
_cell_angle_gamma 86.712395
_cell_volume 642.368921
_symmetry_space_group_name_H-M "P -1"
_symmetry_group_IT_number 2
_symmetry_cell_setting 'triclinic'
loop_
_space_group_symop_operation_xyz
x,y,z
-x,-y,-z
loop_
_atom_site_type_symbol
_atom_site_label
_atom_site_fract_x
_atom_site_fract_y
_atom_site_fract_z
Si Si1 0.749883 0.597450 0.617913
Si Si2 0.623782 0.683365 0.138750
Si Si3 0.120164 0.527801 0.929322
Si Si4 0.748618 0.082011 0.415438
Si Si5 0.718639 0.877057 0.609148
Si Si6 0.284359 0.021476 0.835619
Si Si7 0.868273 0.703806 0.456348
O O1 0.500000 0.500000 0.500000
O O2 0.700196 0.745424 0.656994
O O3 0.894863 0.600592 0.549448
O O4 0.909557 0.537184 0.761234
O O5 0.721835 0.594561 0.063554
O O6 0.731488 0.827989 0.171649
O O7 0.714008 0.642370 0.286859
O O8 0.308691 0.661047 0.022085
O O9 0.000000 0.500000 0.000000
O O10 0.546206 0.052709 0.440772
O O11 0.848009 0.235374 0.474071
O O12 0.606293 0.047417 0.243812
O O13 0.000000 0.000000 0.500000
O O14 0.718958 0.826425 0.474436
O O15 0.988185 0.963225 0.749309
O O16 0.500000 0.000000 0.000000
#
# Coordination Sequence:
#
# PCOD8021000 Si02
#       7
#     2   2   2   2   2   2   2
#     4  10  22  43  66  95 131 174 222 271 333 390
#     4  11  24  44  67  96 133 178 220 277 329 394
#     4  11  26  44  65  98 134 173 226 272 330 402
#     4  11  22  42  66 100 133 173 224 275 330 400
#     4   9  24  42  67 101 134 170 224 278 328 397
#     4  11  24  43  67  98 137 176 222 271 337 399
#     4   9  22  41  63  98 127 174 221 275 330 389
#
# _framework density 21.794328
#
# number of rings (size 3 to 8) (size 9 to 14) (size 15 to 20)
#    0.857    0.857    1.429    1.714    2.000    5.714 
#    5.143    0.000    0.000    0.000    0.000    0.000 
#    0.000    0.000    0.000    0.000    0.000    0.000 
#
# Total GULP energy -173452.619608 kJ/mol
# GULP energy per Si atom -12389.472829 kJ/mol
# Density = 2.174472 g / cm^3
# Si number density = 21.794328 Si / 1000 Ang^3
#
#
#
# Elastic Constant Matrix: (Units=GPa)
#
#
# Indices 1 2 3 4 5 6 
#
# 1 169.2772 39.1126 67.2140 5.3447 4.0076 19.1939
# 2 39.1126 64.9575 22.4176 15.0543 9.0408 32.6163
# 3 67.2140 22.4176 154.9726 5.7979 -3.4275 20.6938
# 4 5.3447 15.0543 5.7979 36.2179 16.2165 2.7119
# 5 4.0076 9.0408 -3.4275 16.2165 36.8976 3.5524
# 6 19.1939 32.6163 20.6938 2.7119 3.5524 40.4617
#
#
#
# Elastic Compliance Matrix: (Units=1/GPa)
#
#
# Indices 1 2 3 4 5 6 
#
# 1 0.008034 -0.004845 -0.003079 0.001564 -0.000816 0.001636
# 2 -0.004845 0.032391 0.000970 -0.011053 -0.000195 -0.023550
# 3 -0.003079 0.000970 0.008244 -0.001918 0.002051 -0.003589
# 4 0.001564 -0.011053 -0.001918 0.038561 -0.015349 0.007912
# 5 -0.000816 -0.000195 0.002051 -0.015349 0.034415 -0.002497
# 6 0.001636 -0.023550 -0.003589 0.007912 -0.002497 0.044447
#
#
# Mechanical properties :
#
#
# Convention : Reuss Voigt Hill
#
# Bulk Modulus (GPa) = 28.76776 71.85508 50.31142
# Shear Modulus (GPa) = 26.09760 40.07967 33.08864
#
# Velocity S-wave (km/s) = 3.46417 4.29300 3.90066
# Velocity P-wave (km/s) = 5.40638 7.59041 6.58951
#
# Compressibility (1/GPa) = 0.03476113
#
# Stress axis : x y z
#
# Youngs Moduli (GPa) = 124.47370 30.87242 121.29901
#
# Poissons Ratio (x) = 0.14959 0.37342
# Poissons Ratio (y) = 0.60313 -0.11765
# Poissons Ratio (z) = 0.38320 -0.02994
#
# Static dielectric constant tensor:
#      x y z
#    x 4.265220 0.233140 -0.080020 
#    y 0.233140 4.088520 0.042550 
#    z -0.080020 0.042550 4.293090 
# 
# 
# High freq. dielectric constant tensor:
#      x y z
#    x 1.860840 0.023560 -0.004320 
#    y 0.023560 1.858050 0.014520 
#    z -0.004320 0.014520 1.855500 
# 
# From -- ./inp_files/365143.got.cif
#   From: 2010.06.25/outbox.cif.g09.slc.cpg/sg2_183_cif.got.tgz:365143.got - 2010.06.27 13:26:56.
