data_PCOD8021413
_publ_section_title
;
Structure prediction by ZEFSAII (Michael W. Deem and Ramdas Pophale) SiO2 
 PCOD8021413
Probable space group: P -1
;
_chemical_formula_sum "Si O2"
_cell_formula_units_Z 16
_cell_length_a 7.766469
_cell_length_b 13.321876
_cell_length_c 12.968537
_cell_angle_alpha 139.120205
_cell_angle_beta 94.495737
_cell_angle_gamma 59.110000
_cell_volume 628.596473
_symmetry_space_group_name_H-M "P -1"
_symmetry_group_IT_number 2
_symmetry_cell_setting 'triclinic'
loop_
_space_group_symop_operation_xyz
x,y,z
-x,-y,-z
loop_
_atom_site_type_symbol
_atom_site_label
_atom_site_fract_x
_atom_site_fract_y
_atom_site_fract_z
Si Si1 0.371578 0.796095 0.264567
Si Si2 0.404877 0.776918 0.962862
Si Si3 0.816775 0.477951 0.460290
Si Si4 0.757895 0.718199 0.328950
Si Si5 0.598201 0.083111 0.133590
Si Si6 0.862392 0.854635 0.624719
Si Si7 0.895558 0.320276 0.112072
Si Si8 0.223633 0.569093 0.155455
O O1 0.477509 0.878785 0.399072
O O2 0.257838 0.732068 0.278978
O O3 0.146419 0.998423 0.343572
O O4 0.608480 0.605203 0.060980
O O5 0.340355 0.981707 0.171066
O O6 0.344522 0.821736 0.874824
O O7 0.246612 0.741404 0.981020
O O8 0.681868 0.557672 0.828422
O O9 0.564838 0.721347 0.643248
O O10 0.839704 0.380493 0.276948
O O11 0.000000 0.500000 0.500000
O O12 0.882444 0.322677 0.439710
O O13 0.779917 0.757874 0.480008
O O14 0.827210 0.495491 0.166137
O O15 0.941765 0.693521 0.239591
O O16 0.500000 0.000000 0.000000
O O17 0.825858 0.886132 0.054172
#
# Coordination Sequence:
#
# PCOD8021413 Si02
#       8
#     2   2   2   2   2   2   2   2
#     4  10  23  44  70 100 136 181 231 296 353 409
#     4  11  23  44  66 100 144 185 227 295 356 411
#     4  12  23  43  68 103 140 185 234 290 344 417
#     4  12  23  44  71 105 134 184 239 282 355 429
#     4  12  23  41  69  99 137 194 235 278 359 417
#     4  11  23  42  71  96 142 180 230 296 352 409
#     4  12  25  44  70 103 147 182 237 290 347 432
#     4  10  22  43  71  98 138 182 231 292 353 414
#
# _framework density 25.453531999999999
#
# number of rings (size 3 to 8) (size 9 to 14) (size 15 to 20)
#    0.000    0.750    5.000    2.625    0.000    2.000 
#    2.250    0.000    0.000    0.000    0.000    0.000 
#    0.000    0.000    0.000    0.000    0.000    0.000 
#
# Total GULP energy -198232.175495 kJ/mol
# GULP energy per Si atom -12389.510968 kJ/mol
# Density = 2.539560 g / cm^3
# Si number density = 25.453532 Si / 1000 Ang^3
#
#
#
# Elastic Constant Matrix: (Units=GPa)
#
#
# Indices 1 2 3 4 5 6 
#
# 1 113.4116 -2.8144 17.7119 -2.1801 1.2477 8.5341
# 2 -2.8144 67.2862 7.4170 -11.5659 0.1310 -3.5166
# 3 17.7119 7.4170 99.9447 -0.2513 -0.5798 -1.6612
# 4 -2.1801 -11.5659 -0.2513 21.6481 -0.0289 -1.7088
# 5 1.2477 0.1310 -0.5798 -0.0289 31.2558 2.8260
# 6 8.5341 -3.5166 -1.6612 -1.7088 2.8260 34.4355
#
#
#
# Elastic Compliance Matrix: (Units=1/GPa)
#
#
# Indices 1 2 3 4 5 6 
#
# 1 0.009296 0.000649 -0.001731 0.001085 -0.000201 -0.002251
# 2 0.000649 0.016705 -0.001301 0.009129 -0.000289 0.001959
# 3 -0.001731 -0.001301 0.010421 -0.000689 0.000200 0.000748
# 4 0.001085 0.009129 -0.000689 0.051425 -0.000337 0.003210
# 5 -0.000201 -0.000289 0.000200 -0.000337 0.032245 -0.002633
# 6 -0.002251 0.001959 0.000748 0.003210 -0.002633 0.030209
#
#
# Mechanical properties :
#
#
# Convention : Reuss Voigt Hill
#
# Bulk Modulus (GPa) = 31.59053 36.14126 33.86590
# Shear Modulus (GPa) = 30.18974 34.68974 32.43974
#
# Velocity S-wave (km/s) = 3.44768 3.69571 3.57384
# Velocity P-wave (km/s) = 5.31852 5.69568 5.51033
#
# Compressibility (1/GPa) = 0.03165506
#
# Stress axis : x y z
#
# Youngs Moduli (GPa) = 107.56848 59.86377 95.96207
#
# Poissons Ratio (x) = -0.03885 0.16616
# Poissons Ratio (y) = -0.06981 0.12483
# Poissons Ratio (z) = 0.18625 0.07787
#
# Static dielectric constant tensor:
#      x y z
#    x 4.476340 -0.166560 0.251180 
#    y -0.166560 5.508100 0.372320 
#    z 0.251180 0.372320 4.603570 
# 
# 
# High freq. dielectric constant tensor:
#      x y z
#    x 1.997000 0.005190 0.021120 
#    y 0.005190 2.030810 0.016900 
#    z 0.021120 0.016900 2.022190 
# 
# From -- ./inp_files/504439.got.cif
#   From: 2010.06.25/outbox.cif.g09.slc.cpg/sg2_253_cif.got.tgz:504439.got - 2010.06.27 13:26:56.
