data_PCOD8021670
_publ_section_title
;
Structure prediction by ZEFSAII (Michael W. Deem and Ramdas Pophale) SiO2 
 PCOD8021670
Probable space group: P -1
;
_chemical_formula_sum "Si O2"
_cell_formula_units_Z 12
_cell_length_a 12.883213
_cell_length_b 13.461902
_cell_length_c 8.635705
_cell_angle_alpha 99.197287
_cell_angle_beta 67.609473
_cell_angle_gamma 156.370625
_cell_volume 477.318536
_symmetry_space_group_name_H-M "P -1"
_symmetry_group_IT_number 2
_symmetry_cell_setting 'triclinic'
loop_
_space_group_symop_operation_xyz
x,y,z
-x,-y,-z
loop_
_atom_site_type_symbol
_atom_site_label
_atom_site_fract_x
_atom_site_fract_y
_atom_site_fract_z
Si Si1 0.838232 0.241627 0.418348
Si Si2 0.637067 0.168641 0.811268
Si Si3 0.274157 0.016183 0.793219
Si Si4 0.244341 0.113819 0.387173
Si Si5 0.647941 0.488625 0.555573
Si Si6 0.634601 0.574868 0.102396
O O1 0.827898 0.249019 0.612945
O O2 0.857078 0.139113 0.335107
O O3 0.103431 0.524938 0.236674
O O4 0.500000 0.000000 0.500000
O O5 0.328714 0.966541 0.860847
O O6 0.500000 0.000000 0.000000
O O7 0.606870 0.359802 0.666956
O O8 0.017853 0.883302 0.963438
O O9 0.029812 0.832981 0.409823
O O10 0.473972 0.303656 0.453710
O O11 0.479613 0.334066 0.163392
O O12 0.000000 0.000000 0.500000
O O13 0.452948 0.422529 0.708844
O O14 0.500000 0.500000 0.000000
#
# Coordination Sequence:
#
# PCOD8021670 Si02
#       6
#     2   2   2   2   2   2
#     4   9  22  47  70  97 140 175 235 298 369 420
#     4  10  23  48  75 101 139 177 238 302 369 434
#     4  11  24  42  68 104 137 188 235 289 366 424
#     4  10  22  44  66  93 138 197 242 288 348 408
#     4  11  24  44  67  98 149 192 237 293 346 426
#     4  11  24  44  69 101 149 191 238 293 348 426
#
# _framework density 25.140445
#
# number of rings (size 3 to 8) (size 9 to 14) (size 15 to 20)
#    0.000    1.667    0.000    4.500    4.667    4.000 
#   12.000    1.667    0.000    0.000    0.000    0.000 
#    0.000    0.000    0.000    0.000    0.000    0.000 
#
# Total GULP energy -148674.848277 kJ/mol
# GULP energy per Si atom -12389.570690 kJ/mol
# Density = 2.508322 g / cm^3
# Si number density = 25.140445 Si / 1000 Ang^3
#
#
#
# Elastic Constant Matrix: (Units=GPa)
#
#
# Indices 1 2 3 4 5 6 
#
# 1 91.1387 28.6850 48.2123 -7.3571 28.6510 -5.4073
# 2 28.6850 164.8437 60.5147 -20.7394 31.4117 -16.9789
# 3 48.2123 60.5147 136.2976 -25.7246 38.5406 -15.0859
# 4 -7.3571 -20.7394 -25.7246 33.9404 -11.0611 9.2503
# 5 28.6510 31.4117 38.5406 -11.0611 48.4063 -5.0741
# 6 -5.4073 -16.9789 -15.0859 9.2503 -5.0741 43.0633
#
#
#
# Elastic Compliance Matrix: (Units=1/GPa)
#
#
# Indices 1 2 3 4 5 6 
#
# 1 0.014781 -0.000270 -0.003737 -0.001778 -0.005992 0.000116
# 2 -0.000270 0.007777 -0.002092 0.001812 -0.002639 0.001599
# 3 -0.003737 -0.002092 0.012028 0.005154 -0.004698 0.001259
# 4 -0.001778 0.001812 0.005154 0.036674 0.003613 -0.005155
# 5 -0.005992 -0.002639 -0.004698 0.003613 0.030418 -0.000631
# 6 0.000116 0.001599 0.001259 -0.005155 -0.000631 0.025341
#
#
# Mechanical properties :
#
#
# Convention : Reuss Voigt Hill
#
# Bulk Modulus (GPa) = 44.66641 74.12268 59.39455
# Shear Modulus (GPa) = 34.08790 42.07318 38.08054
#
# Velocity S-wave (km/s) = 3.68625 4.09531 3.89615
# Velocity P-wave (km/s) = 5.99360 7.20483 6.62694
#
# Compressibility (1/GPa) = 0.02238819
#
# Stress axis : x y z
#
# Youngs Moduli (GPa) = 67.65317 128.58447 83.13961
#
# Poissons Ratio (x) = 0.03474 0.31068
# Poissons Ratio (y) = 0.01828 0.17393
# Poissons Ratio (z) = 0.25281 0.26900
#
# Static dielectric constant tensor:
#      x y z
#    x 4.838390 -0.945840 0.907090 
#    y -0.945840 6.600680 -1.309110 
#    z 0.907090 -1.309110 7.101910 
# 
# 
# High freq. dielectric constant tensor:
#      x y z
#    x 2.002470 -0.002060 0.006540 
#    y -0.002060 2.018120 -0.018950 
#    z 0.006540 -0.018950 1.987380 
# 
# From -- ./inp_files/313538.got.cif
#   From: 2010.06.25/outbox.cif.g09.slc.cpg/sg2_157_cif.got.tgz:313538.got - 2010.06.27 13:26:56.
