data_PCOD8021233
_publ_section_title
;
Structure prediction by ZEFSAII (Michael W. Deem and Ramdas Pophale) SiO2 
 PCOD8021233
Probable space group: P -1
;
_chemical_formula_sum "Si O2"
_cell_formula_units_Z 14
_cell_length_a 12.377761
_cell_length_b 11.181312
_cell_length_c 8.910054
_cell_angle_alpha 64.451056
_cell_angle_beta 35.544219
_cell_angle_gamma 81.052642
_cell_volume 600.212642
_symmetry_space_group_name_H-M "P -1"
_symmetry_group_IT_number 2
_symmetry_cell_setting 'triclinic'
loop_
_space_group_symop_operation_xyz
x,y,z
-x,-y,-z
loop_
_atom_site_type_symbol
_atom_site_label
_atom_site_fract_x
_atom_site_fract_y
_atom_site_fract_z
Si Si1 0.669822 0.433927 0.859977
Si Si2 0.065272 0.552144 0.170264
Si Si3 0.649152 0.858148 0.600459
Si Si4 0.006632 0.097727 0.582116
Si Si5 0.692545 0.175408 0.407816
Si Si6 0.275718 0.160460 0.810236
Si Si7 0.000921 0.284113 0.237192
O O1 0.781279 0.470453 0.872817
O O2 0.836289 0.502468 0.508837
O O3 0.500000 0.500000 0.000000
O O4 0.567706 0.261617 0.052616
O O5 0.065555 0.454790 0.077520
O O6 0.135686 0.717400 0.952004
O O7 0.729301 0.818503 0.374367
O O8 0.789003 0.856357 0.581674
O O9 0.635033 0.012209 0.511583
O O10 0.987648 0.237667 0.454048
O O11 0.000000 0.000000 0.500000
O O12 0.827681 0.008878 0.943826
O O13 0.499709 0.217921 0.590562
O O14 0.779470 0.200901 0.464287
O O15 0.160702 0.248712 0.974178
#
# Coordination Sequence:
#
# PCOD8021233 Si02
#       7
#     2   2   2   2   2   2   2
#     4  11  27  48  75 107 145 194 240 296 370 425
#     4  11  27  48  70 110 148 190 241 298 359 443
#     4  12  24  47  77 109 142 189 249 306 357 431
#     4  10  22  43  69 105 143 188 235 301 363 419
#     4  12  26  44  74 109 145 189 246 297 366 421
#     4  11  25  43  74 108 145 192 241 299 366 427
#     4  11  26  48  70 106 154 193 239 298 364 433
#
# _framework density 23.325066
#
# number of rings (size 3 to 8) (size 9 to 14) (size 15 to 20)
#    0.000    0.857    4.286    2.143    4.000    5.714 
#    0.000    0.000    0.000    0.000    0.000    0.000 
#    0.000    0.000    0.000    0.000    0.000    0.000 
#
# Total GULP energy -173575.714003 kJ/mol
# GULP energy per Si atom -12398.265286 kJ/mol
# Density = 2.327198 g / cm^3
# Si number density = 23.325066 Si / 1000 Ang^3
#
#
#
# Elastic Constant Matrix: (Units=GPa)
#
#
# Indices 1 2 3 4 5 6 
#
# 1 152.5339 39.0468 51.0942 11.3922 -16.8431 6.5403
# 2 39.0468 118.4928 45.3436 -19.8231 -16.3794 2.2284
# 3 51.0942 45.3436 136.9694 -27.3735 -19.1257 0.5434
# 4 11.3922 -19.8231 -27.3735 35.9063 -5.7906 0.4029
# 5 -16.8431 -16.3794 -19.1257 -5.7906 38.4343 -7.7666
# 6 6.5403 2.2284 0.5434 0.4029 -7.7666 27.0207
#
#
#
# Elastic Compliance Matrix: (Units=1/GPa)
#
#
# Indices 1 2 3 4 5 6 
#
# 1 0.009261 -0.002830 -0.004182 -0.007798 -0.000816 -0.002042
# 2 -0.002830 0.011490 -0.000589 0.007539 0.004698 0.000987
# 3 -0.004182 -0.000589 0.012147 0.011225 0.006140 0.002414
# 4 -0.007798 0.007539 0.011225 0.045095 0.013005 0.004106
# 5 -0.000816 0.004698 0.006140 0.013005 0.034584 0.009433
# 6 -0.002042 0.000987 0.002414 0.004106 0.009433 0.040023
#
#
# Mechanical properties :
#
#
# Convention : Reuss Voigt Hill
#
# Bulk Modulus (GPa) = 56.51370 75.44058 65.97714
# Shear Modulus (GPa) = 28.78501 38.43968 33.61234
#
# Velocity S-wave (km/s) = 3.51676 4.06396 3.80022
# Velocity P-wave (km/s) = 6.38525 7.37797 6.89949
#
# Compressibility (1/GPa) = 0.01769482
#
# Stress axis : x y z
#
# Youngs Moduli (GPa) = 107.97767 87.03590 82.32431
#
# Poissons Ratio (x) = 0.24635 0.34428
# Poissons Ratio (y) = 0.30563 0.04849
# Poissons Ratio (z) = 0.45157 0.05126
#
# Static dielectric constant tensor:
#      x y z
#    x 4.597540 -0.083770 0.210190 
#    y -0.083770 4.194560 -0.467960 
#    z 0.210190 -0.467960 4.467580 
# 
# 
# High freq. dielectric constant tensor:
#      x y z
#    x 1.944130 0.001200 -0.000610 
#    y 0.001200 1.914450 -0.021230 
#    z -0.000610 -0.021230 1.923200 
# 
# From -- ./inp_files/257332.got.cif
#   From: 2010.06.25/outbox.cif.g09.slc.cpg/sg2_129_cif.got.tgz:257332.got - 2010.06.27 13:26:56.
