data_PCOD8021521
_publ_section_title
;
Structure prediction by ZEFSAII (Michael W. Deem and Ramdas Pophale) SiO2 
 PCOD8021521
Probable space group: P -1
;
_chemical_formula_sum "Si O2"
_cell_formula_units_Z 16
_cell_length_a 11.961377
_cell_length_b 11.720530
_cell_length_c 8.819428
_cell_angle_alpha 63.718558
_cell_angle_beta 49.685647
_cell_angle_gamma 53.463246
_cell_volume 754.147350
_symmetry_space_group_name_H-M "P -1"
_symmetry_group_IT_number 2
_symmetry_cell_setting 'triclinic'
loop_
_space_group_symop_operation_xyz
x,y,z
-x,-y,-z
loop_
_atom_site_type_symbol
_atom_site_label
_atom_site_fract_x
_atom_site_fract_y
_atom_site_fract_z
Si Si1 0.692477 0.792768 0.511687
Si Si2 0.612676 0.557990 0.214606
Si Si3 0.064322 0.206524 0.279470
Si Si4 0.697045 0.769801 0.166137
Si Si5 0.023051 0.634605 0.442801
Si Si6 0.641438 0.021289 0.651041
Si Si7 0.354687 0.456950 0.144164
Si Si8 0.283574 0.729406 0.557757
O O1 0.675728 0.807445 0.339123
O O2 0.633134 0.675449 0.686720
O O3 0.879639 0.761964 0.403699
O O4 0.597987 0.939662 0.601297
O O5 0.700774 0.616859 0.222956
O O6 0.414325 0.640214 0.362477
O O7 0.689636 0.387240 0.267576
O O8 0.660672 0.586779 0.988298
O O9 0.000242 0.340205 0.371375
O O10 0.902990 0.188816 0.389488
O O11 0.209845 0.070109 0.312468
O O12 0.136911 0.236551 0.043849
O O13 0.533463 0.894005 0.155966
O O14 0.202243 0.604538 0.245566
O O15 0.000000 0.500000 0.500000
O O16 0.679619 0.146899 0.474935
O O17 0.500000 0.500000 0.000000
#
# Coordination Sequence:
#
# PCOD8021521 Si02
#       8
#     2   2   2   2   2   2   2   2
#     4  10  23  41  63  90 124 165 205 251 307 370
#     4  10  23  40  63  95 127 159 202 257 313 365
#     4  11  22  39  65  93 119 168 208 254 309 363
#     4  11  23  39  67  92 125 162 209 254 308 364
#     4   9  20  37  58  88 128 156 200 247 302 368
#     4  10  22  44  62  85 130 164 208 254 303 369
#     4  11  23  39  65  92 126 162 202 251 316 368
#     4  10  23  39  66  92 128 157 209 259 306 358
#
# _framework density 21.216011999999999
#
# number of rings (size 3 to 8) (size 9 to 14) (size 15 to 20)
#    0.000    1.750    0.000    4.125   10.500    1.500 
#    0.000    3.125    0.000    0.000    0.000    0.000 
#    0.000    0.000    0.000    0.000    0.000    0.000 
#
# Total GULP energy -198228.787904 kJ/mol
# GULP energy per Si atom -12389.299244 kJ/mol
# Density = 2.116772 g / cm^3
# Si number density = 21.216012 Si / 1000 Ang^3
#
#
#
# Elastic Constant Matrix: (Units=GPa)
#
#
# Indices 1 2 3 4 5 6 
#
# 1 88.3732 29.5497 43.0626 3.9939 -13.7492 2.7920
# 2 29.5497 88.4440 47.0132 1.0497 -9.9252 11.5003
# 3 43.0626 47.0132 116.1426 9.5936 -5.9860 -7.6772
# 4 3.9939 1.0497 9.5936 28.3451 -4.4610 -6.2291
# 5 -13.7492 -9.9252 -5.9860 -4.4610 37.1240 -0.0470
# 6 2.7920 11.5003 -7.6772 -6.2291 -0.0470 29.4217
#
#
#
# Elastic Compliance Matrix: (Units=1/GPa)
#
#
# Indices 1 2 3 4 5 6 
#
# 1 0.014940 -0.001730 -0.004734 -0.000208 0.004280 -0.002014
# 2 -0.001730 0.016711 -0.006547 0.000537 0.002825 -0.007958
# 3 -0.004734 -0.006547 0.013544 -0.002615 -0.001627 0.005986
# 4 -0.000208 0.000537 -0.002615 0.038445 0.004274 0.007274
# 5 0.004280 0.002825 -0.001627 0.004274 0.029527 -0.000983
# 6 -0.002014 -0.007958 0.005986 0.007274 -0.000983 0.040391
#
#
# Mechanical properties :
#
#
# Convention : Reuss Voigt Hill
#
# Bulk Modulus (GPa) = 52.16497 59.13457 55.64977
# Shear Modulus (GPa) = 26.88587 30.53378 28.70982
#
# Velocity S-wave (km/s) = 3.56370 3.79778 3.68260
# Velocity P-wave (km/s) = 6.44781 6.86760 6.66101
#
# Compressibility (1/GPa) = 0.01916995
#
# Stress axis : x y z
#
# Youngs Moduli (GPa) = 66.93427 59.84259 73.83544
#
# Poissons Ratio (x) = 0.10355 0.34956
# Poissons Ratio (y) = 0.11582 0.48343
# Poissons Ratio (z) = 0.31689 0.39181
#
# Static dielectric constant tensor:
#      x y z
#    x 3.408140 1.305750 0.737720 
#    y 1.305750 -0.343310 -2.460350 
#    z 0.737720 -2.460350 2.127230 
# 
# 
# High freq. dielectric constant tensor:
#      x y z
#    x 1.831810 -0.002000 -0.010990 
#    y -0.002000 1.838290 0.017530 
#    z -0.010990 0.017530 1.820870 
# 
# From -- ./inp_files/261941.got.cif
#   From: 2010.06.25/outbox.cif.g09.slc.cpg/sg2_131_cif.got.tgz:261941.got - 2010.06.27 13:26:56.
