data_PCOD8021737
_publ_section_title
;
Structure prediction by ZEFSAII (Michael W. Deem and Ramdas Pophale) SiO2 
 PCOD8021737
Probable space group: P -1
;
_chemical_formula_sum "Si O2"
_cell_formula_units_Z 16
_cell_length_a 15.637494
_cell_length_b 15.214016
_cell_length_c 9.149117
_cell_angle_alpha 103.912318
_cell_angle_beta 85.830165
_cell_angle_gamma 27.071007
_cell_volume 731.301410
_symmetry_space_group_name_H-M "P -1"
_symmetry_group_IT_number 2
_symmetry_cell_setting 'triclinic'
loop_
_space_group_symop_operation_xyz
x,y,z
-x,-y,-z
loop_
_atom_site_type_symbol
_atom_site_label
_atom_site_fract_x
_atom_site_fract_y
_atom_site_fract_z
Si Si1 0.349824 0.958903 0.874357
Si Si2 0.319110 0.212648 0.304541
Si Si3 0.015178 0.568710 0.738136
Si Si4 0.287103 0.742071 0.511303
Si Si5 0.285546 0.952108 0.559963
Si Si6 0.268517 0.683037 0.177497
Si Si7 0.740358 0.509301 0.862986
Si Si8 0.424602 0.201023 0.744560
O O1 0.434081 0.978676 0.841054
O O2 0.284149 0.972272 0.741137
O O3 0.555923 0.697309 0.825382
O O4 0.113650 0.208349 0.109736
O O5 0.148361 0.449178 0.516644
O O6 0.179138 0.321995 0.215938
O O7 0.366833 0.074654 0.338129
O O8 0.215034 0.347865 0.750204
O O9 0.500000 0.500000 0.500000
O O10 0.342004 0.789838 0.467946
O O11 0.296148 0.667217 0.341472
O O12 0.006106 0.011999 0.720327
O O13 0.476922 0.822728 0.393378
O O14 0.013038 0.247306 0.655129
O O15 0.292282 0.554601 0.080516
O O16 0.500000 0.500000 0.000000
O O17 0.690643 0.636831 0.036114
#
# Coordination Sequence:
#
# PCOD8021737 Si02
#       8
#     2   2   2   2   2   2   2   2
#     4  12  24  42  62  92 125 166 210 258 308 363
#     4  11  26  41  60  90 125 170 209 256 314 359
#     4  11  24  41  60  90 123 162 218 257 306 367
#     4  10  22  44  67  97 129 166 208 257 320 385
#     4  11  25  41  65  93 128 162 206 258 311 370
#     4  10  22  44  67  97 129 166 208 257 320 385
#     4  11  25  41  65  93 128 162 206 258 311 370
#     4  12  24  42  62  92 125 166 210 258 308 363
#
# _framework density 21.878803999999999
#
# number of rings (size 3 to 8) (size 9 to 14) (size 15 to 20)
#    0.000    1.000    3.750    2.250    3.500    1.000 
#    2.250    0.000    0.000    0.000    0.000    0.000 
#    0.000    0.000    0.000    0.000    0.000    0.000 
#
# Total GULP energy -198355.145089 kJ/mol
# GULP energy per Si atom -12397.196568 kJ/mol
# Density = 2.182901 g / cm^3
# Si number density = 21.878804 Si / 1000 Ang^3
#
#
#
# Elastic Constant Matrix: (Units=GPa)
#
#
# Indices 1 2 3 4 5 6 
#
# 1 77.2649 30.2998 16.1312 4.2291 1.0560 -10.3198
# 2 30.2998 127.2553 39.7006 19.8751 -11.5984 -7.3960
# 3 16.1312 39.7006 62.1807 7.8582 15.1462 5.4132
# 4 4.2291 19.8751 7.8582 24.9708 -3.2287 0.9585
# 5 1.0560 -11.5984 15.1462 -3.2287 22.2322 1.7650
# 6 -10.3198 -7.3960 5.4132 0.9585 1.7650 28.8373
#
#
#
# Elastic Compliance Matrix: (Units=1/GPa)
#
#
# Indices 1 2 3 4 5 6 
#
# 1 0.015211 -0.002567 -0.002593 -0.000014 -0.000720 0.005316
# 2 -0.002567 0.014706 -0.011974 -0.005761 0.014766 0.004388
# 3 -0.002593 -0.011974 0.032398 -0.003537 -0.028055 -0.008246
# 4 -0.000014 -0.005761 -0.003537 0.046682 0.006404 -0.002762
# 5 -0.000720 0.014766 -0.028055 0.006404 0.072431 0.004150
# 6 0.005316 0.004388 -0.008246 -0.002762 0.004150 0.039091
#
#
# Mechanical properties :
#
#
# Convention : Reuss Voigt Hill
#
# Bulk Modulus (GPa) = 35.65415 48.77377 42.21396
# Shear Modulus (GPa) = 18.92960 27.24602 23.08781
#
# Velocity S-wave (km/s) = 2.94462 3.53273 3.25200
# Velocity P-wave (km/s) = 5.28135 6.24351 5.78247
#
# Compressibility (1/GPa) = 0.02804722
#
# Stress axis : x y z
#
# Youngs Moduli (GPa) = 65.74074 68.00037 30.86566
#
# Poissons Ratio (x) = 0.17459 0.08003
# Poissons Ratio (y) = 0.16878 0.36959
# Poissons Ratio (z) = 0.17045 0.81424
#
# Static dielectric constant tensor:
#      x y z
#    x 3.898790 -0.274120 0.197660 
#    y -0.274120 4.024180 0.212600 
#    z 0.197660 0.212600 4.009650 
# 
# 
# High freq. dielectric constant tensor:
#      x y z
#    x 1.851750 -0.024830 0.016970 
#    y -0.024830 1.862850 0.013400 
#    z 0.016970 0.013400 1.870050 
# 
# From -- ./inp_files/315600.got.cif
#   From: 2010.06.25/outbox.cif.g09.slc.cpg/sg2_158_cif.got.tgz:315600.got - 2010.06.27 13:26:56.
