data_PCOD8021693
_publ_section_title
;
Structure prediction by ZEFSAII (Michael W. Deem and Ramdas Pophale) SiO2 
 PCOD8021693
Probable space group: P -1
;
_chemical_formula_sum "Si O2"
_cell_formula_units_Z 16
_cell_length_a 7.925429
_cell_length_b 8.960750
_cell_length_c 23.240980
_cell_angle_alpha 54.851514
_cell_angle_beta 146.346150
_cell_angle_gamma 129.659343
_cell_volume 700.335788
_symmetry_space_group_name_H-M "P -1"
_symmetry_group_IT_number 2
_symmetry_cell_setting 'triclinic'
loop_
_space_group_symop_operation_xyz
x,y,z
-x,-y,-z
loop_
_atom_site_type_symbol
_atom_site_label
_atom_site_fract_x
_atom_site_fract_y
_atom_site_fract_z
Si Si1 0.058778 0.420626 0.111841
Si Si2 0.665596 0.097992 0.584891
Si Si3 0.125306 0.466026 0.481544
Si Si4 0.611153 0.236666 0.653797
Si Si5 0.802578 0.197124 0.980591
Si Si6 0.252776 0.579664 0.721380
Si Si7 0.218532 0.937738 0.811382
Si Si8 0.390693 0.059302 0.187294
O O1 0.054420 0.641204 0.066825
O O2 0.423042 0.467442 0.182564
O O3 0.981114 0.287256 0.177084
O O4 0.801017 0.308798 0.014914
O O5 0.701202 0.321312 0.541103
O O6 0.489461 0.070177 0.604426
O O7 0.500000 0.000000 0.500000
O O8 0.984583 0.042068 0.694968
O O9 0.362806 0.344748 0.575170
O O10 0.000000 0.500000 0.500000
O O11 0.828177 0.355624 0.379301
O O12 0.963636 0.394097 0.704671
O O13 0.646761 0.133514 0.745289
O O14 0.424999 0.060722 0.895990
O O15 0.037194 0.074319 0.081246
O O16 0.321124 0.760068 0.743546
O O17 0.500609 0.953737 0.843377
#
# Coordination Sequence:
#
# PCOD8021693 Si02
#       8
#     2   2   2   2   2   2   2   2
#     4  10  23  41  71  99 130 182 228 290 350 419
#     4  11  25  42  69 101 135 182 235 281 348 413
#     4  11  25  42  68  99 135 188 227 289 350 412
#     4  11  25  47  68  98 147 182 231 292 344 416
#     4  10  22  44  66  98 137 177 235 282 357 408
#     4  10  23  43  65  97 138 177 237 280 353 407
#     4  12  25  42  68 102 140 177 234 290 347 415
#     4  11  26  41  69 103 134 192 226 290 349 420
#
# _framework density 22.846184999999998
#
# number of rings (size 3 to 8) (size 9 to 14) (size 15 to 20)
#    0.000    1.250    0.000    6.000    7.000    5.000 
#    0.000    0.000    0.000    0.000    0.000    0.000 
#    0.000    0.000    0.000    0.000    0.000    0.000 
#
# Total GULP energy -198211.473338 kJ/mol
# GULP energy per Si atom -12388.217084 kJ/mol
# Density = 2.279419 g / cm^3
# Si number density = 22.846185 Si / 1000 Ang^3
#
#
#
# Elastic Constant Matrix: (Units=GPa)
#
#
# Indices 1 2 3 4 5 6 
#
# 1 72.2992 11.2118 16.0364 3.2508 -5.5758 12.8887
# 2 11.2118 89.6679 54.0545 -8.4233 3.2166 11.0200
# 3 16.0364 54.0545 139.0306 -3.9071 2.4824 1.3092
# 4 3.2508 -8.4233 -3.9071 47.5628 -0.3622 -5.0860
# 5 -5.5758 3.2166 2.4824 -0.3622 22.8420 -6.8364
# 6 12.8887 11.0200 1.3092 -5.0860 -6.8364 25.9929
#
#
#
# Elastic Compliance Matrix: (Units=1/GPa)
#
#
# Indices 1 2 3 4 5 6 
#
# 1 0.015843 -0.000252 -0.001748 -0.002070 0.001787 -0.007596
# 2 -0.000252 0.015937 -0.005990 0.001570 -0.003726 -0.007002
# 3 -0.001748 -0.005990 0.009695 0.000180 0.000271 0.003025
# 4 -0.002070 0.001570 0.000180 0.021996 0.001081 0.004940
# 5 0.001787 -0.003726 0.000271 0.001081 0.048839 0.013737
# 6 -0.007596 -0.007002 0.003025 0.004940 0.013737 0.049634
#
#
# Mechanical properties :
#
#
# Convention : Reuss Voigt Hill
#
# Bulk Modulus (GPa) = 39.22522 51.51147 45.36834
# Shear Modulus (GPa) = 26.82074 33.92587 30.37331
#
# Velocity S-wave (km/s) = 3.43004 3.85771 3.65014
# Velocity P-wave (km/s) = 5.73528 6.51449 6.13727
#
# Compressibility (1/GPa) = 0.02549380
#
# Stress axis : x y z
#
# Youngs Moduli (GPa) = 63.11846 62.74795 103.14520
#
# Poissons Ratio (x) = 0.01583 0.18028
# Poissons Ratio (y) = 0.01593 0.61789
# Poissons Ratio (z) = 0.11032 0.37589
#
# Static dielectric constant tensor:
#      x y z
#    x 2.952320 -0.403410 -0.077700 
#    y -0.403410 4.326680 0.213230 
#    z -0.077700 0.213230 3.885250 
# 
# 
# High freq. dielectric constant tensor:
#      x y z
#    x 1.888400 -0.001980 -0.011730 
#    y -0.001980 1.908880 -0.009440 
#    z -0.011730 -0.009440 1.922160 
# 
# From -- ./inp_files/606703.got.cif
#   From: 2010.06.25/outbox.cif.g09.slc.cpg/sg2_304_cif.got.tgz:606703.got - 2010.06.27 13:26:56.
