data_PCOD8021669
_publ_section_title
;
Structure prediction by ZEFSAII (Michael W. Deem and Ramdas Pophale) SiO2 
 PCOD8021669
Probable space group: P -1
;
_chemical_formula_sum "Si O2"
_cell_formula_units_Z 10
_cell_length_a 9.492211
_cell_length_b 13.741953
_cell_length_c 6.530548
_cell_angle_alpha 57.564914
_cell_angle_beta 52.598711
_cell_angle_gamma 30.593969
_cell_volume 344.222089
_symmetry_space_group_name_H-M "P -1"
_symmetry_group_IT_number 2
_symmetry_cell_setting 'triclinic'
loop_
_space_group_symop_operation_xyz
x,y,z
-x,-y,-z
loop_
_atom_site_type_symbol
_atom_site_label
_atom_site_fract_x
_atom_site_fract_y
_atom_site_fract_z
Si Si1 0.743005 0.816551 0.708911
Si Si2 0.914458 0.077557 0.223618
Si Si3 0.720216 0.313770 0.650832
Si Si4 0.140939 0.213215 0.892945
Si Si5 0.343981 0.372367 0.225134
O O1 0.703131 0.708929 0.789788
O O2 0.009279 0.746086 0.440955
O O3 0.439913 0.046044 0.686861
O O4 0.807124 0.767619 0.947445
O O5 0.559577 0.235620 0.384551
O O6 0.123142 0.877685 0.392969
O O7 0.979062 0.175772 0.106693
O O8 0.000000 0.000000 0.000000
O O9 0.500000 0.500000 0.500000
O O10 0.529833 0.375460 0.941849
O O11 0.969620 0.403688 0.701220
#
# Coordination Sequence:
#
# PCOD8021669 Si02
#       5
#     2   2   2   2   2
#     4  11  24  41  67  99 132 166 223 265 317 387
#     4  10  22  44  66  93 136 172 209 270 327 379
#     4  11  23  42  68  96 131 172 215 269 321 383
#     4  11  22  42  70  94 132 175 212 265 329 379
#     4  11  23  47  67  94 136 172 209 271 328 379
#
# _framework density 29.051013000000001
#
# number of rings (size 3 to 8) (size 9 to 14) (size 15 to 20)
#    0.000    1.200    6.000    1.200    0.000    1.600 
#    3.600    1.000    0.000    0.000    0.000    0.000 
#    0.000    0.000    0.000    0.000    0.000    0.000 
#
# Total GULP energy -123993.583966 kJ/mol
# GULP energy per Si atom -12399.358397 kJ/mol
# Density = 2.898489 g / cm^3
# Si number density = 29.051013 Si / 1000 Ang^3
#
#
#
# Elastic Constant Matrix: (Units=GPa)
#
#
# Indices 1 2 3 4 5 6 
#
# 1 169.0139 88.2156 41.6731 -12.4348 -47.8047 -0.6764
# 2 88.2156 256.8044 13.0271 -50.6235 -11.1763 -15.1206
# 3 41.6731 13.0271 57.6602 -9.4975 -11.2490 12.6922
# 4 -12.4348 -50.6235 -9.4975 60.2497 6.1437 -12.1260
# 5 -47.8047 -11.1763 -11.2490 6.1437 25.7131 7.9865
# 6 -0.6764 -15.1206 12.6922 -12.1260 7.9865 39.4895
#
#
#
# Elastic Compliance Matrix: (Units=1/GPa)
#
#
# Indices 1 2 3 4 5 6 
#
# 1 0.023376 -0.008715 -0.005084 -0.010508 0.044138 -0.013456
# 2 -0.008715 0.008417 0.000472 0.008962 -0.017330 0.009179
# 3 -0.005084 0.000472 0.023403 0.001171 0.003102 -0.007696
# 4 -0.010508 0.008962 0.001171 0.028357 -0.027211 0.017086
# 5 0.044138 -0.017330 0.003102 -0.027211 0.134453 -0.042425
# 6 -0.013456 0.009179 -0.007696 0.017086 -0.042425 0.044908
#
#
# Mechanical properties :
#
#
# Convention : Reuss Voigt Hill
#
# Bulk Modulus (GPa) = 35.03624 85.47891 60.25757
# Shear Modulus (GPa) = 16.71784 47.79463 32.25624
#
# Velocity S-wave (km/s) = 2.40149 4.06050 3.33578
# Velocity P-wave (km/s) = 4.44702 7.17434 5.96855
#
# Compressibility (1/GPa) = 0.02854187
#
# Stress axis : x y z
#
# Youngs Moduli (GPa) = 42.77874 118.81128 42.72990
#
# Poissons Ratio (x) = 1.03544 0.21723
# Poissons Ratio (y) = 0.37282 -0.02017
# Poissons Ratio (z) = 0.21748 -0.05607
#
# Static dielectric constant tensor:
#      x y z
#    x 6.143850 -2.569400 0.757890 
#    y -2.569400 13.311440 -2.660120 
#    z 0.757890 -2.660120 6.416300 
# 
# 
# High freq. dielectric constant tensor:
#      x y z
#    x 2.194280 -0.002740 -0.007020 
#    y -0.002740 2.215590 -0.007790 
#    z -0.007020 -0.007790 2.183010 
# 
# From -- ./inp_files/156283.got.cif
#   From: 2010.06.25/outbox.cif.g09.slc.cpg/sg2_79_cif.got.tgz:156283.got - 2010.06.27 13:26:56.
