data_PCOD8021393
_publ_section_title
;
Structure prediction by ZEFSAII (Michael W. Deem and Ramdas Pophale) SiO2 
 PCOD8021393
Probable space group: P -1
;
_chemical_formula_sum "Si O2"
_cell_formula_units_Z 16
_cell_length_a 20.066178
_cell_length_b 8.970985
_cell_length_c 10.159760
_cell_angle_alpha 102.547859
_cell_angle_beta 53.718403
_cell_angle_gamma 143.981167
_cell_volume 723.277038
_symmetry_space_group_name_H-M "P -1"
_symmetry_group_IT_number 2
_symmetry_cell_setting 'triclinic'
loop_
_space_group_symop_operation_xyz
x,y,z
-x,-y,-z
loop_
_atom_site_type_symbol
_atom_site_label
_atom_site_fract_x
_atom_site_fract_y
_atom_site_fract_z
Si Si1 0.747342 0.616530 0.761759
Si Si2 0.034004 0.631186 0.686556
Si Si3 0.395215 0.538742 0.373604
Si Si4 0.981482 0.714428 0.497025
Si Si5 0.706021 0.212971 0.119599
Si Si6 0.596910 0.333532 0.154785
Si Si7 0.816095 0.677422 0.192141
Si Si8 0.381028 0.232571 0.477735
O O1 0.629554 0.450593 0.743936
O O2 0.820044 0.561589 0.667937
O O3 0.634920 0.456094 0.989801
O O4 0.882927 0.965829 0.672531
O O5 0.058752 0.498063 0.582885
O O6 0.042931 0.764506 0.580052
O O7 0.181115 0.909646 0.672236
O O8 0.854282 0.354842 0.908997
O O9 0.241152 0.347605 0.606442
O O10 0.409695 0.380414 0.341546
O O11 0.570757 0.888178 0.282360
O O12 0.611076 0.171504 0.115990
O O13 0.780655 0.438551 0.190947
O O14 0.721079 0.606483 0.169003
O O15 0.423704 0.126967 0.366406
O O16 0.000000 0.000000 0.000000
O O17 0.500000 0.500000 0.500000
#
# Coordination Sequence:
#
# PCOD8021393 Si02
#       8
#     2   2   2   2   2   2   2   2
#     4  11  24  43  70 106 137 179 234 288 353 411
#     4  11  23  46  68 102 138 189 227 289 353 413
#     4  12  25  43  71 101 143 181 233 291 345 415
#     4  10  23  41  70 100 144 176 235 288 350 417
#     4  10  24  44  69 101 137 179 237 281 346 414
#     4  10  25  42  68  97 141 178 233 274 354 406
#     4  10  22  43  71  95 133 188 227 279 344 414
#     4  12  25  46  70 100 143 187 231 288 353 413
#
# _framework density 22.121538000000001
#
# number of rings (size 3 to 8) (size 9 to 14) (size 15 to 20)
#    0.750    0.500    3.750    1.125    7.000    3.000 
#    0.000    0.625    0.000    0.000    0.000    0.000 
#    0.000    0.000    0.000    0.000    0.000    0.000 
#
# Total GULP energy -198219.966729 kJ/mol
# GULP energy per Si atom -12388.747921 kJ/mol
# Density = 2.207119 g / cm^3
# Si number density = 22.121538 Si / 1000 Ang^3
#
#
#
# Elastic Constant Matrix: (Units=GPa)
#
#
# Indices 1 2 3 4 5 6 
#
# 1 85.1678 27.6716 27.6510 5.9406 -15.4027 -0.8909
# 2 27.6716 72.6502 16.4095 -7.3385 -14.3737 -2.2281
# 3 27.6510 16.4095 117.0156 -6.5919 -14.2087 -2.3877
# 4 5.9406 -7.3385 -6.5919 36.5995 4.0797 1.5007
# 5 -15.4027 -14.3737 -14.2087 4.0797 36.1377 4.3796
# 6 -0.8909 -2.2281 -2.3877 1.5007 4.3796 34.8810
#
#
#
# Elastic Compliance Matrix: (Units=1/GPa)
#
#
# Indices 1 2 3 4 5 6 
#
# 1 0.015217 -0.004843 -0.002679 -0.004357 0.004050 -0.000425
# 2 -0.004843 0.016895 -0.000529 0.003621 0.004008 0.000260
# 3 -0.002679 -0.000529 0.009627 0.001809 0.002204 0.000202
# 4 -0.004357 0.003621 0.001809 0.029437 -0.002950 -0.000652
# 5 0.004050 0.004008 0.002204 -0.002950 0.032611 -0.003457
# 6 -0.000425 0.000260 0.000202 -0.000652 -0.003457 0.029151
#
#
# Mechanical properties :
#
#
# Convention : Reuss Voigt Hill
#
# Bulk Modulus (GPa) = 39.00588 46.47754 42.74171
# Shear Modulus (GPa) = 31.72902 35.06375 33.39639
#
# Velocity S-wave (km/s) = 3.79133 3.98559 3.88967
# Velocity P-wave (km/s) = 6.06930 6.49889 6.28776
#
# Compressibility (1/GPa) = 0.02563716
#
# Stress axis : x y z
#
# Youngs Moduli (GPa) = 65.71775 59.18828 103.87709
#
# Poissons Ratio (x) = 0.28663 0.27829
# Poissons Ratio (y) = 0.31825 0.05495
# Poissons Ratio (z) = 0.17606 0.03131
#
# Static dielectric constant tensor:
#      x y z
#    x 4.319640 -0.198330 -0.240180 
#    y -0.198330 4.029980 0.022350 
#    z -0.240180 0.022350 3.751550 
# 
# 
# High freq. dielectric constant tensor:
#      x y z
#    x 1.868460 -0.007740 -0.014120 
#    y -0.007740 1.869620 -0.005410 
#    z -0.014120 -0.005410 1.863220 
# 
# From -- ./inp_files/469443.got.cif
#   From: 2010.06.25/outbox.cif.g09.slc.cpg/sg2_235_cif.got.tgz:469443.got - 2010.06.27 13:26:56.
