data_PCOD8021489
_publ_section_title
;
Structure prediction by ZEFSAII (Michael W. Deem and Ramdas Pophale) SiO2 
 PCOD8021489
Probable space group: P -1
;
_chemical_formula_sum "Si O2"
_cell_formula_units_Z 16
_cell_length_a 11.602049
_cell_length_b 11.628109
_cell_length_c 8.776694
_cell_angle_alpha 131.970988
_cell_angle_beta 55.780469
_cell_angle_gamma 125.838675
_cell_volume 684.399862
_symmetry_space_group_name_H-M "P -1"
_symmetry_group_IT_number 2
_symmetry_cell_setting 'triclinic'
loop_
_space_group_symop_operation_xyz
x,y,z
-x,-y,-z
loop_
_atom_site_type_symbol
_atom_site_label
_atom_site_fract_x
_atom_site_fract_y
_atom_site_fract_z
Si Si1 0.920557 0.680913 0.857631
Si Si2 0.643851 0.751084 0.229627
Si Si3 0.447388 0.130165 0.892178
Si Si4 0.969330 0.342106 0.560902
Si Si5 0.189337 0.872261 0.018202
Si Si6 0.263488 0.955253 0.363693
Si Si7 0.843087 0.472382 0.171454
Si Si8 0.552323 0.472631 0.270052
O O1 0.908169 0.491876 0.714548
O O2 0.996434 0.740705 0.690446
O O3 0.757849 0.692409 0.993511
O O4 0.021232 0.801077 0.018239
O O5 0.549561 0.821851 0.246268
O O6 0.529090 0.598689 0.273490
O O7 0.735709 0.887855 0.402242
O O8 0.572505 0.053609 0.770988
O O9 0.463842 0.287662 0.123397
O O10 0.291864 0.988264 0.917110
O O11 0.842828 0.210414 0.631225
O O12 0.122887 0.407573 0.600834
O O13 0.203828 0.973495 0.254778
O O14 0.239043 0.714930 0.878151
O O15 0.730991 0.513802 0.176181
O O16 0.000000 0.500000 0.000000
O O17 0.500000 0.500000 0.500000
#
# Coordination Sequence:
#
# PCOD8021489 Si02
#       8
#     2   2   2   2   2   2   2   2
#     4  10  24  45  67 105 136 178 232 284 354 407
#     4  12  28  45  69 101 146 178 229 292 350 413
#     4  12  26  47  68  98 143 187 227 281 357 423
#     4  10  22  43  74  98 134 185 229 284 343 422
#     4  11  23  42  76  98 135 181 235 287 334 419
#     4  12  24  44  70 101 134 186 237 280 347 413
#     4  11  21  44  75 104 136 182 236 287 341 415
#     4  12  27  46  71 106 139 181 236 293 354 414
#
# _framework density 23.378146000000001
#
# number of rings (size 3 to 8) (size 9 to 14) (size 15 to 20)
#    0.000    0.750    2.500    4.875    3.500    2.500 
#    2.250    0.000    0.000    0.000    0.000    0.000 
#    0.000    0.000    0.000    0.000    0.000    0.000 
#
# Total GULP energy -198462.090878 kJ/mol
# GULP energy per Si atom -12403.880680 kJ/mol
# Density = 2.332494 g / cm^3
# Si number density = 23.378146 Si / 1000 Ang^3
#
#
#
# Elastic Constant Matrix: (Units=GPa)
#
#
# Indices 1 2 3 4 5 6 
#
# 1 60.6260 13.6048 24.7432 -4.8846 16.5516 -3.7730
# 2 13.6048 123.8172 21.6637 -7.3043 -6.8284 -5.4781
# 3 24.7432 21.6637 114.9668 -1.6472 15.8494 3.0965
# 4 -4.8846 -7.3043 -1.6472 39.4610 -0.4384 10.2417
# 5 16.5516 -6.8284 15.8494 -0.4384 31.9465 -2.7776
# 6 -3.7730 -5.4781 3.0965 10.2417 -2.7776 28.5950
#
#
#
# Elastic Compliance Matrix: (Units=1/GPa)
#
#
# Indices 1 2 3 4 5 6 
#
# 1 0.021017 -0.002227 -0.002746 0.001684 -0.009886 0.001080
# 2 -0.002227 0.008997 -0.001819 0.000919 0.004140 0.001700
# 3 -0.002746 -0.001819 0.010289 0.000316 -0.004271 -0.002353
# 4 0.001684 0.000919 0.000316 0.028287 -0.001305 -0.009894
# 5 -0.009886 0.004140 -0.004271 -0.001305 0.039783 0.004283
# 6 0.001080 0.001700 -0.002353 -0.009894 0.004283 0.039654
#
#
# Mechanical properties :
#
#
# Convention : Reuss Voigt Hill
#
# Bulk Modulus (GPa) = 37.42739 46.60373 42.01556
# Shear Modulus (GPa) = 29.32276 35.96037 32.64156
#
# Velocity S-wave (km/s) = 3.54542 3.92625 3.74069
# Velocity P-wave (km/s) = 5.72751 6.36647 6.05542
#
# Compressibility (1/GPa) = 0.02671840
#
# Stress axis : x y z
#
# Youngs Moduli (GPa) = 47.58104 111.14605 97.19432
#
# Poissons Ratio (x) = 0.24751 0.26687
# Poissons Ratio (y) = 0.10596 0.17684
# Poissons Ratio (z) = 0.13065 0.20223
#
# Static dielectric constant tensor:
#      x y z
#    x 4.308340 -0.146180 0.386740 
#    y -0.146180 4.213180 0.063990 
#    z 0.386740 0.063990 4.332300 
# 
# 
# High freq. dielectric constant tensor:
#      x y z
#    x 1.918210 -0.002930 0.022930 
#    y -0.002930 1.934760 0.001480 
#    z 0.022930 0.001480 1.926300 
# 
# From -- ./inp_files/263374.got.cif
#   From: 2010.06.25/outbox.cif.g09.slc.cpg/sg2_132_cif.got.tgz:263374.got - 2010.06.27 13:26:56.
