data_PCOD8021265
_publ_section_title
;
Structure prediction by ZEFSAII (Michael W. Deem and Ramdas Pophale) SiO2 
 PCOD8021265
Probable space group: P -1
;
_chemical_formula_sum "Si O2"
_cell_formula_units_Z 14
_cell_length_a 5.049869
_cell_length_b 24.831147
_cell_length_c 17.779226
_cell_angle_alpha 15.387538
_cell_angle_beta 107.048134
_cell_angle_gamma 105.852916
_cell_volume 565.175144
_symmetry_space_group_name_H-M "P -1"
_symmetry_group_IT_number 2
_symmetry_cell_setting 'triclinic'
loop_
_space_group_symop_operation_xyz
x,y,z
-x,-y,-z
loop_
_atom_site_type_symbol
_atom_site_label
_atom_site_fract_x
_atom_site_fract_y
_atom_site_fract_z
Si Si1 0.687800 0.550292 0.876910
Si Si2 0.797522 0.258746 0.496859
Si Si3 0.572386 0.128339 0.164582
Si Si4 0.408406 0.785504 0.308124
Si Si5 0.696904 0.506887 0.436268
Si Si6 0.049799 0.900511 0.424230
Si Si7 0.213045 0.568079 0.110847
O O1 0.513251 0.736934 0.569885
O O2 0.714775 0.386170 0.032059
O O3 0.987928 0.665540 0.765025
O O4 0.500000 0.500000 0.000000
O O5 0.817445 0.174000 0.698105
O O6 0.895801 0.495129 0.186734
O O7 0.973962 0.109439 0.655682
O O8 0.819874 0.055677 0.228549
O O9 0.361140 0.953032 0.407224
O O10 0.370703 0.289249 0.889687
O O11 0.724727 0.226674 0.116054
O O12 0.299642 0.685083 0.359339
O O13 0.636104 0.631931 0.570768
O O14 0.500000 0.000000 0.000000
O O15 0.500000 0.500000 0.500000
O O16 0.000000 0.500000 0.500000
#
# Coordination Sequence:
#
# PCOD8021265 Si02
#       7
#     2   2   2   2   2   2   2
#     4  10  22  45  72 102 134 170 223 277 333 408
#     4  10  22  43  69  96 131 179 225 266 344 392
#     4  11  24  43  67  94 139 174 223 276 333 398
#     4  10  24  42  63  96 133 174 229 276 323 392
#     4  11  26  42  63  94 130 177 224 278 333 380
#     4  11  23  42  70  99 128 177 219 270 335 395
#     4   9  23  40  67  96 132 180 219 273 339 390
#
# _framework density 24.771080999999999
#
# number of rings (size 3 to 8) (size 9 to 14) (size 15 to 20)
#    0.000    1.714    1.429    0.857   12.000    6.286 
#    0.000    1.429    0.000    0.000    0.000    0.000 
#    0.000    0.000    0.000    0.000    0.000    0.000 
#
# Total GULP energy -173444.602689 kJ/mol
# GULP energy per Si atom -12388.900192 kJ/mol
# Density = 2.471470 g / cm^3
# Si number density = 24.771081 Si / 1000 Ang^3
#
#
#
# Elastic Constant Matrix: (Units=GPa)
#
#
# Indices 1 2 3 4 5 6 
#
# 1 151.2811 102.6320 33.1939 -14.0286 -31.3384 -21.2871
# 2 102.6320 252.0065 77.5263 -20.6379 -25.4075 -31.1656
# 3 33.1939 77.5263 91.3070 -15.7967 -23.9853 -12.3059
# 4 -14.0286 -20.6379 -15.7967 43.3187 -1.2721 -4.9415
# 5 -31.3384 -25.4075 -23.9853 -1.2721 42.9906 4.1357
# 6 -21.2871 -31.1656 -12.3059 -4.9415 4.1357 51.3004
#
#
#
# Elastic Compliance Matrix: (Units=1/GPa)
#
#
# Indices 1 2 3 4 5 6 
#
# 1 0.010664 -0.003723 0.001765 0.002779 0.006416 0.002337
# 2 -0.003723 0.007050 -0.004615 0.000637 -0.001276 0.001795
# 3 0.001765 -0.004615 0.017598 0.005261 0.008342 0.001984
# 4 0.002779 0.000637 0.005261 0.026937 0.005659 0.004941
# 5 0.006416 -0.001276 0.008342 0.005659 0.031826 0.001868
# 6 0.002337 0.001795 0.001984 0.004941 0.001868 0.022355
#
#
# Mechanical properties :
#
#
# Convention : Reuss Voigt Hill
#
# Bulk Modulus (GPa) = 45.11406 102.36657 73.74032
# Shear Modulus (GPa) = 36.50612 46.27142 41.38877
#
# Velocity S-wave (km/s) = 3.84310 4.32668 4.09204
# Velocity P-wave (km/s) = 6.15991 8.14708 7.22217
#
# Compressibility (1/GPa) = 0.02216604
#
# Stress axis : x y z
#
# Youngs Moduli (GPa) = 93.77374 141.85266 56.82384
#
# Poissons Ratio (x) = 0.52805 -0.10029
# Poissons Ratio (y) = 0.34907 0.26226
# Poissons Ratio (z) = -0.16551 0.65469
#
# Static dielectric constant tensor:
#      x y z
#    x 4.848730 0.031730 0.034610 
#    y 0.031730 4.920850 0.121770 
#    z 0.034610 0.121770 4.468480 
# 
# 
# High freq. dielectric constant tensor:
#      x y z
#    x 2.005730 -0.002280 -0.006130 
#    y -0.002280 2.010610 -0.003040 
#    z -0.006130 -0.003040 1.969990 
# 
# From -- ./inp_files/49387.got.cif
#   From: 2010.06.25/outbox.cif.g09.slc.cpg/sg2_25_cif.got.tgz:49387.got - 2010.06.27 13:26:56.
