data_PCOD8021956
_publ_section_title
;
Structure prediction by ZEFSAII (Michael W. Deem and Ramdas Pophale) SiO2 
 PCOD8021956
Probable space group: P -1
;
_chemical_formula_sum "Si O2"
_cell_formula_units_Z 12
_cell_length_a 5.440652
_cell_length_b 12.320516
_cell_length_c 11.646383
_cell_angle_alpha 126.942888
_cell_angle_beta 113.957892
_cell_angle_gamma 59.145879
_cell_volume 530.167795
_symmetry_space_group_name_H-M "P -1"
_symmetry_group_IT_number 2
_symmetry_cell_setting 'triclinic'
loop_
_space_group_symop_operation_xyz
x,y,z
-x,-y,-z
loop_
_atom_site_type_symbol
_atom_site_label
_atom_site_fract_x
_atom_site_fract_y
_atom_site_fract_z
Si Si1 0.309006 0.024724 0.866947
Si Si2 0.158721 0.501014 0.344227
Si Si3 0.468944 0.295910 0.674737
Si Si4 0.625536 0.181563 0.864562
Si Si5 0.446778 0.730814 0.579055
Si Si6 0.294821 0.470741 0.100571
O O1 0.453704 0.101705 0.854239
O O2 0.973175 0.111410 0.888912
O O3 0.313891 0.872400 0.721269
O O4 0.500000 0.000000 0.000000
O O5 0.237595 0.639753 0.484368
O O6 0.243395 0.377833 0.381517
O O7 0.311688 0.421338 0.205622
O O8 0.821124 0.561947 0.295934
O O9 0.498511 0.182283 0.711290
O O10 0.522298 0.216456 0.510878
O O11 0.700926 0.367168 0.796107
O O12 0.548999 0.345862 0.001769
O O13 0.000000 0.500000 0.000000
#
# Coordination Sequence:
#
# PCOD8021956 Si02
#       6
#     2   2   2   2   2   2
#     4  12  29  50  72 102 145 193 233 288 357 439
#     4  10  22  44  71 101 137 183 239 299 346 410
#     4  11  24  41  73 102 137 181 239 298 355 402
#     4  12  27  45  74 107 143 186 236 289 359 425
#     4  10  25  44  68 100 141 186 240 286 354 417
#     4  11  22  41  70 107 141 177 237 300 350 412
#
# _framework density 22.634346000000001
#
# number of rings (size 3 to 8) (size 9 to 14) (size 15 to 20)
#    0.000    1.000    1.667    3.500    9.333    1.333 
#    0.000    0.000    0.000    0.000    0.000    0.000 
#    0.000    0.000    0.000    0.000    0.000    0.000 
#
# Total GULP energy -148756.265190 kJ/mol
# GULP energy per Si atom -12396.355432 kJ/mol
# Density = 2.258283 g / cm^3
# Si number density = 22.634346 Si / 1000 Ang^3
#
#
#
# Elastic Constant Matrix: (Units=GPa)
#
#
# Indices 1 2 3 4 5 6 
#
# 1 113.7431 50.7342 42.7252 -7.7250 -6.5730 -13.7868
# 2 50.7342 116.5432 66.3485 -16.7534 -7.8110 -9.0221
# 3 42.7252 66.3485 154.5973 -13.2057 -24.6118 -6.9072
# 4 -7.7250 -16.7534 -13.2057 37.6497 -6.3795 -9.0777
# 5 -6.5730 -7.8110 -24.6118 -6.3795 30.3429 -4.5169
# 6 -13.7868 -9.0221 -6.9072 -9.0777 -4.5169 50.2283
#
#
#
# Elastic Compliance Matrix: (Units=1/GPa)
#
#
# Indices 1 2 3 4 5 6 
#
# 1 0.011395 -0.003922 -0.001073 0.001038 0.001189 0.002570
# 2 -0.003922 0.013409 -0.004209 0.004099 0.000276 0.001519
# 3 -0.001073 -0.004209 0.010166 0.003195 0.007844 0.001630
# 4 0.001038 0.004099 0.003195 0.033897 0.012292 0.008692
# 5 0.001189 0.000276 0.007844 0.012292 0.043360 0.007575
# 6 0.002570 0.001519 0.001630 0.008692 0.007575 0.023364
#
#
# Mechanical properties :
#
#
# Convention : Reuss Voigt Hill
#
# Bulk Modulus (GPa) = 60.37907 78.27772 69.32840
# Shear Modulus (GPa) = 31.34427 38.64924 34.99676
#
# Velocity S-wave (km/s) = 3.72534 4.13673 3.93641
# Velocity P-wave (km/s) = 6.72592 7.58125 7.16636
#
# Compressibility (1/GPa) = 0.01656203
#
# Stress axis : x y z
#
# Youngs Moduli (GPa) = 87.75923 74.57542 98.36735
#
# Poissons Ratio (x) = 0.29245 0.10558
# Poissons Ratio (y) = 0.34415 0.41404
# Poissons Ratio (z) = 0.09420 0.31390
#
# Static dielectric constant tensor:
#      x y z
#    x 4.054710 0.100410 -0.179260 
#    y 0.100410 4.336610 -0.238750 
#    z -0.179260 -0.238750 4.380630 
# 
# 
# High freq. dielectric constant tensor:
#      x y z
#    x 1.891010 -0.000320 -0.007140 
#    y -0.000320 1.892660 -0.020840 
#    z -0.007140 -0.020840 1.909330 
# 
# From -- ./inp_files/62609.got.cif
#   From: 2010.06.25/outbox.cif.g09.slc.cpg/sg2_32_cif.got.tgz:62609.got - 2010.06.27 13:26:56.
