data_PCOD8021791
_publ_section_title
;
Structure prediction by ZEFSAII (Michael W. Deem and Ramdas Pophale) SiO2 
 PCOD8021791
Probable space group: P -1
;
_chemical_formula_sum "Si O2"
_cell_formula_units_Z 14
_cell_length_a 14.189331
_cell_length_b 14.534512
_cell_length_c 6.658037
_cell_angle_alpha 86.771592
_cell_angle_beta 99.626069
_cell_angle_gamma 30.525000
_cell_volume 630.170636
_symmetry_space_group_name_H-M "P -1"
_symmetry_group_IT_number 2
_symmetry_cell_setting 'triclinic'
loop_
_space_group_symop_operation_xyz
x,y,z
-x,-y,-z
loop_
_atom_site_type_symbol
_atom_site_label
_atom_site_fract_x
_atom_site_fract_y
_atom_site_fract_z
Si Si1 0.145022 0.192625 0.239129
Si Si2 0.754701 0.256289 0.498746
Si Si3 0.986339 0.892515 0.732992
Si Si4 0.797278 0.678510 0.541514
Si Si5 0.526320 0.078707 0.920869
Si Si6 0.723974 0.608094 0.885925
Si Si7 0.650881 0.466406 0.790554
O O1 0.145236 0.088814 0.336441
O O2 0.256258 0.169112 0.435215
O O3 0.243742 0.103249 0.060384
O O4 0.914804 0.427005 0.121297
O O5 0.675726 0.408564 0.581954
O O6 0.581807 0.367999 0.262497
O O7 0.938380 0.145465 0.456151
O O8 0.831852 0.109289 0.698239
O O9 0.174335 0.721969 0.976455
O O10 0.615814 0.786719 0.339986
O O11 0.806852 0.612668 0.758246
O O12 0.000000 0.500000 0.500000
O O13 0.466622 0.197687 0.066269
O O14 0.500000 0.000000 0.000000
O O15 0.655978 0.572097 0.760805
#
# Coordination Sequence:
#
# PCOD8021791 Si02
#       7
#     2   2   2   2   2   2   2
#     4  11  24  45  66  98 133 174 220 270 328 392
#     4  10  22  44  68  92 133 168 221 275 334 398
#     4  10  23  43  65 100 129 169 221 275 332 394
#     4  12  24  41  69  94 135 175 213 272 322 391
#     4  12  25  43  65  95 136 177 221 268 320 396
#     4  11  25  45  64 100 132 173 222 266 333 392
#     4  10  23  42  68  96 128 174 216 273 335 395
#
# _framework density 22.216204999999999
#
# number of rings (size 3 to 8) (size 9 to 14) (size 15 to 20)
#    0.000    1.143    2.857    2.571    4.000    0.000 
#   18.000    0.000    0.000    0.000    0.000    0.000 
#    0.000    0.000    0.000    0.000    0.000    0.000 
#
# Total GULP energy -173527.976603 kJ/mol
# GULP energy per Si atom -12394.855472 kJ/mol
# Density = 2.216564 g / cm^3
# Si number density = 22.216205 Si / 1000 Ang^3
#
#
#
# Elastic Constant Matrix: (Units=GPa)
#
#
# Indices 1 2 3 4 5 6 
#
# 1 153.8960 51.0786 38.1760 19.1480 -2.5928 22.3583
# 2 51.0786 117.5768 22.5548 19.7933 -0.2232 10.0095
# 3 38.1760 22.5548 65.7448 3.5733 4.8580 14.6134
# 4 19.1480 19.7933 3.5733 36.0912 -2.4886 -0.4634
# 5 -2.5928 -0.2232 4.8580 -2.4886 33.3225 6.1706
# 6 22.3583 10.0095 14.6134 -0.4634 6.1706 33.4793
#
#
#
# Elastic Compliance Matrix: (Units=1/GPa)
#
#
# Indices 1 2 3 4 5 6 
#
# 1 0.009221 -0.002434 -0.003533 -0.003140 0.001770 -0.004258
# 2 -0.002434 0.010731 -0.001840 -0.004424 -0.000025 -0.000837
# 3 -0.003533 -0.001840 0.019126 0.000782 -0.002083 -0.005044
# 4 -0.003140 -0.004424 0.000782 0.031860 0.001387 0.003264
# 5 0.001770 -0.000025 -0.002083 0.001387 0.031682 -0.006086
# 6 -0.004258 -0.000837 -0.005044 0.003264 -0.006086 0.036331
#
#
# Mechanical properties :
#
#
# Convention : Reuss Voigt Hill
#
# Bulk Modulus (GPa) = 42.61793 62.31516 52.46654
# Shear Modulus (GPa) = 30.79056 35.60580 33.19818
#
# Velocity S-wave (km/s) = 3.72687 4.00771 3.86984
# Velocity P-wave (km/s) = 6.14364 7.03747 6.60569
#
# Compressibility (1/GPa) = 0.02346430
#
# Stress axis : x y z
#
# Youngs Moduli (GPa) = 108.44450 93.18511 52.28531
#
# Poissons Ratio (x) = 0.22678 0.18474
# Poissons Ratio (y) = 0.26392 0.09621
# Poissons Ratio (z) = 0.38316 0.17147
#
# Static dielectric constant tensor:
#      x y z
#    x 4.066120 0.061340 0.069100 
#    y 0.061340 4.229460 0.031490 
#    z 0.069100 0.031490 3.799910 
# 
# 
# High freq. dielectric constant tensor:
#      x y z
#    x 1.880380 0.002210 0.001960 
#    y 0.002210 1.889580 -0.002690 
#    z 0.001960 -0.002690 1.859160 
# 
# From -- ./inp_files/40078.got.cif
#   From: 2010.06.25/outbox.cif.g09.slc.cpg/sg2_21_cif.got.tgz:40078.got - 2010.06.27 13:26:56.
