data_PCOD8021412
_publ_section_title
;
Structure prediction by ZEFSAII (Michael W. Deem and Ramdas Pophale) SiO2 
 PCOD8021412
Probable space group: P -1
;
_chemical_formula_sum "Si O2"
_cell_formula_units_Z 14
_cell_length_a 7.149304
_cell_length_b 17.429823
_cell_length_c 8.914142
_cell_angle_alpha 129.069130
_cell_angle_beta 117.757872
_cell_angle_gamma 98.951798
_cell_volume 577.513008
_symmetry_space_group_name_H-M "P -1"
_symmetry_group_IT_number 2
_symmetry_cell_setting 'triclinic'
loop_
_space_group_symop_operation_xyz
x,y,z
-x,-y,-z
loop_
_atom_site_type_symbol
_atom_site_label
_atom_site_fract_x
_atom_site_fract_y
_atom_site_fract_z
Si Si1 0.835408 0.109871 0.253748
Si Si2 0.763004 0.366252 0.881737
Si Si3 0.782658 0.635955 0.827590
Si Si4 0.111583 0.650342 0.405915
Si Si5 0.724687 0.887978 0.445605
Si Si6 0.414887 0.222439 0.048194
Si Si7 0.024884 0.865409 0.007090
O O1 0.942142 0.250389 0.516880
O O2 0.975237 0.073923 0.373201
O O3 0.947998 0.121260 0.143461
O O4 0.500000 0.000000 0.000000
O O5 0.701206 0.337546 0.645933
O O6 0.504315 0.251680 0.738138
O O7 0.042989 0.387060 0.038256
O O8 0.825361 0.498979 0.116126
O O9 0.500000 0.500000 0.500000
O O10 0.677460 0.699632 0.961040
O O11 0.985901 0.740077 0.896606
O O12 0.263597 0.683407 0.664799
O O13 0.655145 0.879414 0.231850
O O14 0.716220 0.995386 0.647514
O O15 0.241486 0.152226 0.052057
#
# Coordination Sequence:
#
# PCOD8021412 Si02
#       7
#     2   2   2   2   2   2   2
#     4  12  26  45  71  98 137 181 229 281 340 405
#     4  11  24  44  71  98 139 179 227 281 338 407
#     4  10  22  43  71  98 135 179 221 276 343 398
#     4  11  24  44  68 101 135 180 228 279 341 400
#     4  12  25  43  68 103 135 179 231 279 343 398
#     4  10  23  42  69  97 139 172 223 284 333 403
#     4  10  24  43  69  96 138 174 227 279 335 403
#
# _framework density 24.241878
#
# number of rings (size 3 to 8) (size 9 to 14) (size 15 to 20)
#    0.857    0.286    1.429    4.286    2.000    2.857 
#    0.000    0.000    0.000    0.000    0.000    0.000 
#    0.000    0.000    0.000    0.000    0.000    0.000 
#
# Total GULP energy -173454.580285 kJ/mol
# GULP energy per Si atom -12389.612878 kJ/mol
# Density = 2.418670 g / cm^3
# Si number density = 24.241878 Si / 1000 Ang^3
#
#
#
# Elastic Constant Matrix: (Units=GPa)
#
#
# Indices 1 2 3 4 5 6 
#
# 1 55.4486 19.8137 38.4905 6.7779 -1.2214 11.5395
# 2 19.8137 86.2586 55.9176 13.1899 2.1617 10.8423
# 3 38.4905 55.9176 166.0749 11.5384 -17.5818 10.3883
# 4 6.7779 13.1899 11.5384 55.7265 1.1178 0.0079
# 5 -1.2214 2.1617 -17.5818 1.1178 39.6170 -3.7702
# 6 11.5395 10.8423 10.3883 0.0079 -3.7702 48.5940
#
#
#
# Elastic Compliance Matrix: (Units=1/GPa)
#
#
# Indices 1 2 3 4 5 6 
#
# 1 0.022763 -0.001461 -0.004591 -0.001439 -0.001617 -0.004223
# 2 -0.001461 0.015981 -0.005072 -0.002488 -0.003325 -0.002392
# 3 -0.004591 -0.005072 0.009228 -0.000238 0.004292 0.000582
# 4 -0.001439 -0.002488 -0.000238 0.018767 -0.000457 0.000909
# 5 -0.001617 -0.003325 0.004292 -0.000457 0.027514 0.002343
# 6 -0.004223 -0.002392 0.000582 0.000909 0.002343 0.022172
#
#
# Mechanical properties :
#
#
# Convention : Reuss Voigt Hill
#
# Bulk Modulus (GPa) = 38.87439 59.58066 49.22753
# Shear Modulus (GPa) = 33.95668 41.69153 37.82410
#
# Velocity S-wave (km/s) = 3.74671 4.15156 3.95432
# Velocity P-wave (km/s) = 5.89814 6.90011 6.41871
#
# Compressibility (1/GPa) = 0.02572388
#
# Stress axis : x y z
#
# Youngs Moduli (GPa) = 43.93141 62.57501 108.37145
#
# Poissons Ratio (x) = 0.09144 0.49750
# Poissons Ratio (y) = 0.06420 0.54962
# Poissons Ratio (z) = 0.20167 0.31736
#
# Static dielectric constant tensor:
#      x y z
#    x 4.065680 -0.097950 -0.128360 
#    y -0.097950 4.335090 0.197250 
#    z -0.128360 0.197250 4.652520 
# 
# 
# High freq. dielectric constant tensor:
#      x y z
#    x 1.935830 -0.000350 -0.008020 
#    y -0.000350 1.961190 0.015720 
#    z -0.008020 0.015720 1.982020 
# 
# From -- ./inp_files/213665.got.cif
#   From: 2010.06.25/outbox.cif.g09.slc.cpg/sg2_107_cif.got.tgz:213665.got - 2010.06.27 13:26:56.
