data_PCOD8021603
_publ_section_title
;
Structure prediction by ZEFSAII (Michael W. Deem and Ramdas Pophale) SiO2 
 PCOD8021603
Probable space group: P -1
;
_chemical_formula_sum "Si O2"
_cell_formula_units_Z 16
_cell_length_a 20.394586
_cell_length_b 22.192440
_cell_length_c 8.070314
_cell_angle_alpha 146.071854
_cell_angle_beta 137.925162
_cell_angle_gamma 20.324230
_cell_volume 695.937100
_symmetry_space_group_name_H-M "P -1"
_symmetry_group_IT_number 2
_symmetry_cell_setting 'triclinic'
loop_
_space_group_symop_operation_xyz
x,y,z
-x,-y,-z
loop_
_atom_site_type_symbol
_atom_site_label
_atom_site_fract_x
_atom_site_fract_y
_atom_site_fract_z
Si Si1 0.281063 0.226748 0.661503
Si Si2 0.952975 0.879211 0.820761
Si Si3 0.327745 0.101767 0.824789
Si Si4 0.638862 0.462734 0.231663
Si Si5 0.406959 0.630487 0.782931
Si Si6 0.415900 0.333811 0.659688
Si Si7 0.985236 0.332191 0.865117
Si Si8 0.007766 0.303949 0.217336
O O1 0.259634 0.222620 0.805983
O O2 0.132691 0.294420 0.433270
O O3 0.500000 0.000000 0.500000
O O4 0.219098 0.410232 0.933365
O O5 0.996349 0.769331 0.483482
O O6 0.900237 0.860289 0.843532
O O7 0.148812 0.757259 0.948937
O O8 0.791082 0.119731 0.037814
O O9 0.149670 0.266564 0.992175
O O10 0.403920 0.907224 0.489848
O O11 0.500000 0.000000 0.000000
O O12 0.639883 0.439961 0.377130
O O13 0.573969 0.647155 0.477149
O O14 0.500000 0.500000 0.000000
O O15 0.500000 0.500000 0.500000
O O16 0.566411 0.560842 0.997795
O O17 0.217143 0.462978 0.627454
O O18 0.016092 0.250777 0.921244
#
# Coordination Sequence:
#
# PCOD8021603 Si02
#       8
#     2   2   2   2   2   2   2   2
#     4  12  25  45  65 101 144 185 234 282 338 414
#     4  11  24  46  70 101 138 179 233 287 346 422
#     4  12  24  41  71 104 139 182 230 282 345 412
#     4   9  22  43  69  94 135 178 226 288 347 409
#     4  11  23  44  70 102 136 179 229 291 353 407
#     4  10  22  44  65 102 140 173 231 288 338 418
#     4  12  25  42  71 100 138 187 229 283 347 402
#     4  11  24  45  68 100 141 182 229 286 343 413
#
# _framework density 22.990583999999998
#
# number of rings (size 3 to 8) (size 9 to 14) (size 15 to 20)
#    0.000    1.000    2.500    3.375    5.250    1.000 
#    2.250    3.125    0.000    0.000    0.000    0.000 
#    0.000    0.000    0.000    0.000    0.000    0.000 
#
# Total GULP energy -198212.832765 kJ/mol
# GULP energy per Si atom -12388.302048 kJ/mol
# Density = 2.293826 g / cm^3
# Si number density = 22.990584 Si / 1000 Ang^3
#
#
#
# Elastic Constant Matrix: (Units=GPa)
#
#
# Indices 1 2 3 4 5 6 
#
# 1 147.8614 31.2682 44.5248 -1.2777 -19.4628 20.5991
# 2 31.2682 111.2275 33.8826 2.5790 -5.1433 -6.2618
# 3 44.5248 33.8826 90.6262 8.3464 -9.7306 9.8147
# 4 -1.2777 2.5790 8.3464 26.6161 -3.6977 -1.2539
# 5 -19.4628 -5.1433 -9.7306 -3.6977 27.5712 -7.1484
# 6 20.5991 -6.2618 9.8147 -1.2539 -7.1484 53.5406
#
#
#
# Elastic Compliance Matrix: (Units=1/GPa)
#
#
# Indices 1 2 3 4 5 6 
#
# 1 0.009037 -0.001498 -0.003326 0.002149 0.004597 -0.002378
# 2 -0.001498 0.010628 -0.003485 0.000160 0.000368 0.002511
# 3 -0.003326 -0.003485 0.014686 -0.004352 0.001143 -0.001769
# 4 0.002149 0.000160 -0.004352 0.039910 0.005804 0.001699
# 5 0.004597 0.000368 0.001143 0.005804 0.041744 0.003774
# 6 -0.002378 0.002511 -0.001769 0.001699 0.003774 0.020754
#
#
# Mechanical properties :
#
#
# Convention : Reuss Voigt Hill
#
# Bulk Modulus (GPa) = 56.39299 63.22959 59.81129
# Shear Modulus (GPa) = 31.38974 37.54821 34.46898
#
# Velocity S-wave (km/s) = 3.69905 4.04567 3.87623
# Velocity P-wave (km/s) = 6.54415 7.02747 6.79011
#
# Compressibility (1/GPa) = 0.01773270
#
# Stress axis : x y z
#
# Youngs Moduli (GPa) = 110.66201 94.09184 68.08977
#
# Poissons Ratio (x) = 0.14097 0.22649
# Poissons Ratio (y) = 0.16579 0.23727
# Poissons Ratio (z) = 0.36809 0.32788
#
# Static dielectric constant tensor:
#      x y z
#    x 5.460460 -0.129650 0.606870 
#    y -0.129650 4.964450 -0.567720 
#    z 0.606870 -0.567720 4.441870 
# 
# 
# High freq. dielectric constant tensor:
#      x y z
#    x 1.930880 0.001830 0.005600 
#    y 0.001830 1.934000 -0.006900 
#    z 0.005600 -0.006900 1.868810 
# 
# From -- ./inp_files/350063.got.cif
#   From: 2010.06.25/outbox.cif.g09.slc.cpg/sg2_176_cif.got.tgz:350063.got - 2010.06.27 13:26:56.
