data_PCOD8021803
_publ_section_title
;
Structure prediction by ZEFSAII (Michael W. Deem and Ramdas Pophale) SiO2 
 PCOD8021803
Probable space group: P -1
;
_chemical_formula_sum "Si O2"
_cell_formula_units_Z 12
_cell_length_a 7.241823
_cell_length_b 20.808289
_cell_length_c 14.708129
_cell_angle_alpha 19.963772
_cell_angle_beta 54.482482
_cell_angle_gamma 65.834330
_cell_volume 536.300143
_symmetry_space_group_name_H-M "P -1"
_symmetry_group_IT_number 2
_symmetry_cell_setting 'triclinic'
loop_
_space_group_symop_operation_xyz
x,y,z
-x,-y,-z
loop_
_atom_site_type_symbol
_atom_site_label
_atom_site_fract_x
_atom_site_fract_y
_atom_site_fract_z
Si Si1 0.749579 0.605004 0.179044
Si Si2 0.682216 0.173181 0.290403
Si Si3 0.246171 0.610224 0.349841
Si Si4 0.268758 0.392906 0.279252
Si Si5 0.284460 0.787043 0.393017
Si Si6 0.546971 0.913969 0.327438
O O1 0.524241 0.669983 0.143587
O O2 0.779401 0.543250 0.355741
O O3 0.681873 0.413117 0.382867
O O4 0.034606 0.811246 0.802245
O O5 0.545645 0.114603 0.504629
O O6 0.500000 0.000000 0.500000
O O7 0.734803 0.411197 0.924794
O O8 0.000000 0.500000 0.500000
O O9 0.263027 0.832205 0.084881
O O10 0.303271 0.220332 0.559722
O O11 0.999811 0.250069 0.494583
O O12 0.500000 0.500000 0.000000
O O13 0.306903 0.817094 0.455397
O O14 0.500000 0.000000 0.000000
#
# Coordination Sequence:
#
# PCOD8021803 Si02
#       6
#     2   2   2   2   2   2
#     4  10  24  43  62  95 135 164 218 274 317 380
#     4  10  22  44  68  97 132 170 216 272 324 391
#     4  11  24  41  64  94 129 175 217 263 323 390
#     4   9  23  42  65  98 132 166 218 271 319 389
#     4  11  23  42  66  96 132 168 218 273 319 386
#     4  11  24  41  70  94 128 177 214 260 336 383
#
# _framework density 22.375530000000001
#
# number of rings (size 3 to 8) (size 9 to 14) (size 15 to 20)
#    0.000    1.667    1.667    1.000    2.333   14.000 
#    0.000    1.667    0.000    0.000    0.000    0.000 
#    0.000    0.000    0.000    0.000    0.000    0.000 
#
# Total GULP energy -148749.997190 kJ/mol
# GULP energy per Si atom -12395.833099 kJ/mol
# Density = 2.232460 g / cm^3
# Si number density = 22.375530 Si / 1000 Ang^3
#
#
#
# Elastic Constant Matrix: (Units=GPa)
#
#
# Indices 1 2 3 4 5 6 
#
# 1 157.2828 50.8039 72.4055 -13.2898 -30.8629 -1.3909
# 2 50.8039 75.7962 22.0961 -9.9226 -22.6440 10.1490
# 3 72.4055 22.0961 90.7338 -29.8327 -28.9354 -1.1951
# 4 -13.2898 -9.9226 -29.8327 28.6446 1.1883 -6.4005
# 5 -30.8629 -22.6440 -28.9354 1.1883 46.9812 -3.6061
# 6 -1.3909 10.1490 -1.1951 -6.4005 -3.6061 48.9245
#
#
#
# Elastic Compliance Matrix: (Units=1/GPa)
#
#
# Indices 1 2 3 4 5 6 
#
# 1 0.013230 -0.007106 -0.012610 -0.009329 -0.002253 0.000156
# 2 -0.007106 0.020218 0.006789 0.009900 0.008832 -0.002284
# 3 -0.012610 0.006789 0.036250 0.034650 0.016813 0.004891
# 4 -0.009329 0.009900 0.034650 0.071384 0.018889 0.009258
# 5 -0.002253 0.008832 0.016813 0.018889 0.034208 0.003507
# 6 0.000156 -0.002284 0.004891 0.009258 0.003507 0.022507
#
#
# Mechanical properties :
#
#
# Convention : Reuss Voigt Hill
#
# Bulk Modulus (GPa) = 22.80957 68.26929 45.53943
# Shear Modulus (GPa) = 20.98496 36.81056 28.89776
#
# Velocity S-wave (km/s) = 3.06576 4.06042 3.59763
# Velocity P-wave (km/s) = 4.76948 7.24980 6.13627
#
# Compressibility (1/GPa) = 0.04384124
#
# Stress axis : x y z
#
# Youngs Moduli (GPa) = 75.58768 49.46139 27.58635
#
# Poissons Ratio (x) = 0.35150 0.34787
# Poissons Ratio (y) = 0.53716 -0.18728
# Poissons Ratio (z) = 0.95319 -0.33579
#
# Static dielectric constant tensor:
#      x y z
#    x 4.331790 -0.361760 0.062290 
#    y -0.361760 4.197760 -0.215650 
#    z 0.062290 -0.215650 4.268270 
# 
# 
# High freq. dielectric constant tensor:
#      x y z
#    x 1.885980 -0.007690 -0.009300 
#    y -0.007690 1.879610 -0.005520 
#    z -0.009300 -0.005520 1.888410 
# 
# From -- ./inp_files/26321.got.cif
#   From: 2010.06.25/outbox.cif.g09.slc.cpg/sg2_14_cif.got.tgz:26321.got - 2010.06.27 13:26:56.
