data_PCOD8021122
_publ_section_title
;
Structure prediction by ZEFSAII (Michael W. Deem and Ramdas Pophale) SiO2 
 PCOD8021122
Probable space group: P -1
;
_chemical_formula_sum "Si O2"
_cell_formula_units_Z 14
_cell_length_a 18.304421
_cell_length_b 9.102842
_cell_length_c 11.263684
_cell_angle_alpha 55.249425
_cell_angle_beta 29.454194
_cell_angle_gamma 41.720804
_cell_volume 595.571009
_symmetry_space_group_name_H-M "P -1"
_symmetry_group_IT_number 2
_symmetry_cell_setting 'triclinic'
loop_
_space_group_symop_operation_xyz
x,y,z
-x,-y,-z
loop_
_atom_site_type_symbol
_atom_site_label
_atom_site_fract_x
_atom_site_fract_y
_atom_site_fract_z
Si Si1 0.914960 0.865972 0.161520
Si Si2 0.623543 0.689071 0.037355
Si Si3 0.258389 0.039637 0.874441
Si Si4 0.208046 0.129546 0.408635
Si Si5 0.466172 0.459796 0.293187
Si Si6 0.081539 0.896320 0.559314
Si Si7 0.718631 0.597284 0.215243
O O1 0.743502 0.995641 0.249405
O O2 0.843918 0.826024 0.400458
O O3 0.064977 0.619439 0.006132
O O4 0.000000 0.000000 0.000000
O O5 0.632344 0.482128 0.068215
O O6 0.630143 0.691603 0.168404
O O7 0.420236 0.910345 0.184945
O O8 0.797357 0.670127 0.739157
O O9 0.305016 0.207868 0.761884
O O10 0.427613 0.788815 0.802180
O O11 0.053778 0.146282 0.167672
O O12 0.072472 0.088686 0.555577
O O13 0.293275 0.654294 0.364304
O O14 0.383971 0.483557 0.530204
O O15 0.000000 0.000000 0.500000
#
# Coordination Sequence:
#
# PCOD8021122 Si02
#       7
#     2   2   2   2   2   2   2
#     4  12  22  42  72 101 139 183 235 284 344 418
#     4  10  22  43  68 101 137 180 237 281 345 421
#     4  12  25  45  69 106 140 182 234 286 354 411
#     4  10  22  43  70 100 137 183 231 287 347 412
#     4  11  24  45  72 100 139 188 233 285 350 414
#     4  11  24  46  70 103 143 177 230 294 350 419
#     4  12  24  43  71 104 142 181 233 296 344 411
#
# _framework density 23.506853
#
# number of rings (size 3 to 8) (size 9 to 14) (size 15 to 20)
#    0.000    0.857    2.857    4.714    0.000    1.143 
#    2.571    0.000    0.000    0.000    0.000    0.000 
#    0.000    0.000    0.000    0.000    0.000    0.000 
#
# Total GULP energy -173613.229944 kJ/mol
# GULP energy per Si atom -12400.944996 kJ/mol
# Density = 2.345335 g / cm^3
# Si number density = 23.506853 Si / 1000 Ang^3
#
#
#
# Elastic Constant Matrix: (Units=GPa)
#
#
# Indices 1 2 3 4 5 6 
#
# 1 138.6292 48.7205 12.2310 -4.7919 -0.2486 -14.5733
# 2 48.7205 123.0561 31.8714 -2.0432 0.3300 6.6388
# 3 12.2310 31.8714 64.3806 -5.0254 0.3032 -0.9071
# 4 -4.7919 -2.0432 -5.0254 44.8577 -0.5071 8.8394
# 5 -0.2486 0.3300 0.3032 -0.5071 30.1413 -4.2698
# 6 -14.5733 6.6388 -0.9071 8.8394 -4.2698 28.3778
#
#
#
# Elastic Compliance Matrix: (Units=1/GPa)
#
#
# Indices 1 2 3 4 5 6 
#
# 1 0.009230 -0.004064 0.000312 -0.000325 0.000954 0.005945
# 2 -0.004064 0.011279 -0.004838 0.000548 -0.000832 -0.005176
# 3 0.000312 -0.004838 0.018009 0.001556 0.000099 0.001398
# 4 -0.000325 0.000548 0.001556 0.023992 -0.000730 -0.007828
# 5 0.000954 -0.000832 0.000099 -0.000730 0.034036 0.006036
# 6 0.005945 -0.005176 0.001398 -0.007828 0.006036 0.042894
#
#
# Mechanical properties :
#
#
# Convention : Reuss Voigt Hill
#
# Bulk Modulus (GPa) = 46.86293 56.85685 51.85989
# Shear Modulus (GPa) = 30.53794 36.22490 33.38142
#
# Velocity S-wave (km/s) = 3.60822 3.92986 3.77247
# Velocity P-wave (km/s) = 6.11050 6.69564 6.40975
#
# Compressibility (1/GPa) = 0.02133883
#
# Stress axis : x y z
#
# Youngs Moduli (GPa) = 108.34705 88.66142 55.52797
#
# Poissons Ratio (x) = 0.36030 -0.01734
# Poissons Ratio (y) = 0.44030 0.26863
# Poissons Ratio (z) = -0.03383 0.42892
#
# Static dielectric constant tensor:
#      x y z
#    x 4.165230 -0.149770 -0.095490 
#    y -0.149770 4.613520 -0.288340 
#    z -0.095490 -0.288340 4.345910 
# 
# 
# High freq. dielectric constant tensor:
#      x y z
#    x 1.922650 -0.006790 -0.007560 
#    y -0.006790 1.941860 -0.005710 
#    z -0.007560 -0.005710 1.937000 
# 
# From -- ./inp_files/304948.got.cif
#   From: 2010.06.25/outbox.cif.g09.slc.cpg/sg2_153_cif.got.tgz:304948.got - 2010.06.27 13:26:56.
