data_PCOD8021760
_publ_section_title
;
Structure prediction by ZEFSAII (Michael W. Deem and Ramdas Pophale) SiO2 
 PCOD8021760
Probable space group: P -1
;
_chemical_formula_sum "Si O2"
_cell_formula_units_Z 16
_cell_length_a 8.479396
_cell_length_b 15.037774
_cell_length_c 20.712536
_cell_angle_alpha 19.768866
_cell_angle_beta 131.654958
_cell_angle_gamma 131.152252
_cell_volume 661.853496
_symmetry_space_group_name_H-M "P -1"
_symmetry_group_IT_number 2
_symmetry_cell_setting 'triclinic'
loop_
_space_group_symop_operation_xyz
x,y,z
-x,-y,-z
loop_
_atom_site_type_symbol
_atom_site_label
_atom_site_fract_x
_atom_site_fract_y
_atom_site_fract_z
Si Si1 0.783526 0.100100 0.454136
Si Si2 0.322581 0.477904 0.623661
Si Si3 0.222025 0.224541 0.446981
Si Si4 0.324950 0.241122 0.222229
Si Si5 0.626450 0.168865 0.148349
Si Si6 0.449092 0.231461 0.709022
Si Si7 0.805825 0.957529 0.815089
Si Si8 0.849032 0.990334 0.026595
O O1 0.579206 0.243476 0.284195
O O2 0.998255 0.307065 0.357433
O O3 0.790054 0.844039 0.585133
O O4 0.776451 0.995649 0.597152
O O5 0.578344 0.555978 0.637374
O O6 0.278284 0.282460 0.683076
O O7 0.195278 0.728580 0.412571
O O8 0.253736 0.316563 0.780210
O O9 0.248915 0.952119 0.677620
O O10 0.220499 0.200057 0.151454
O O11 0.279071 0.523802 0.044384
O O12 0.655737 0.011702 0.197270
O O13 0.378292 0.143928 0.115157
O O14 0.500000 0.500000 0.500000
O O15 0.666282 0.171145 0.842359
O O16 0.023024 0.909854 0.941956
O O17 0.000000 0.000000 0.000000
#
# Coordination Sequence:
#
# PCOD8021760 Si02
#       8
#     2   2   2   2   2   2   2   2
#     4  10  23  42  69 104 138 192 234 281 363 421
#     4  11  24  47  71 101 146 188 235 298 355 418
#     4  10  22  44  67  99 142 188 231 286 351 430
#     4  11  24  44  70 105 145 182 232 302 349 419
#     4  11  23  43  70  98 144 187 229 294 357 413
#     4  12  24  48  70 100 144 190 235 296 353 420
#     4  11  23  46  69 107 148 182 236 295 359 423
#     4  12  26  45  74 109 136 195 241 292 362 428
#
# _framework density 24.174534999999999
#
# number of rings (size 3 to 8) (size 9 to 14) (size 15 to 20)
#    0.000    1.000    6.250    1.125    1.750    2.500 
#    4.500    0.000    0.000    0.000    0.000    0.000 
#    0.000    0.000    0.000    0.000    0.000    0.000 
#
# Total GULP energy -198410.588723 kJ/mol
# GULP energy per Si atom -12400.661795 kJ/mol
# Density = 2.411951 g / cm^3
# Si number density = 24.174535 Si / 1000 Ang^3
#
#
#
# Elastic Constant Matrix: (Units=GPa)
#
#
# Indices 1 2 3 4 5 6 
#
# 1 90.8363 25.3597 34.8338 -3.3485 -9.0955 -12.2305
# 2 25.3597 125.0302 53.1819 3.1601 3.7638 -14.7641
# 3 34.8338 53.1819 117.8900 -2.5761 -4.8631 -5.8826
# 4 -3.3485 3.1601 -2.5761 40.0068 -5.8327 13.9189
# 5 -9.0955 3.7638 -4.8631 -5.8327 31.5106 -0.8512
# 6 -12.2305 -14.7641 -5.8826 13.9189 -0.8512 31.1688
#
#
#
# Elastic Compliance Matrix: (Units=1/GPa)
#
#
# Indices 1 2 3 4 5 6 
#
# 1 0.013439 -0.000984 -0.003162 0.000034 0.003631 0.004295
# 2 -0.000984 0.010962 -0.004576 -0.003549 -0.002809 0.005451
# 3 -0.003162 -0.004576 0.011490 0.001773 0.001682 -0.001985
# 4 0.000034 -0.003549 0.001773 0.031605 0.006145 -0.015279
# 5 0.003631 -0.002809 0.001682 0.006145 0.034478 -0.001391
# 6 0.004295 0.005451 -0.001985 -0.015279 -0.001391 0.042761
#
#
# Mechanical properties :
#
#
# Convention : Reuss Voigt Hill
#
# Bulk Modulus (GPa) = 54.20844 62.27859 58.24351
# Shear Modulus (GPa) = 29.70392 35.22932 32.46662
#
# Velocity S-wave (km/s) = 3.50912 3.82159 3.66868
# Velocity P-wave (km/s) = 6.23627 6.72984 6.48775
#
# Compressibility (1/GPa) = 0.01844731
#
# Stress axis : x y z
#
# Youngs Moduli (GPa) = 74.40895 91.22539 87.03124
#
# Poissons Ratio (x) = 0.08975 0.27522
# Poissons Ratio (y) = 0.07320 0.39824
# Poissons Ratio (z) = 0.23531 0.41743
#
# Static dielectric constant tensor:
#      x y z
#    x 4.514720 0.008930 -0.045910 
#    y 0.008930 4.436070 0.144770 
#    z -0.045910 0.144770 4.252660 
# 
# 
# High freq. dielectric constant tensor:
#      x y z
#    x 1.962930 -0.001410 -0.002800 
#    y -0.001410 1.961320 0.009740 
#    z -0.002800 0.009740 1.952460 
# 
# From -- ./inp_files/590438.got.cif
#   From: 2010.06.25/outbox.cif.g09.slc.cpg/sg2_296_cif.got.tgz:590438.got - 2010.06.27 13:26:56.
