data_PCOD8021350
_publ_section_title
;
Structure prediction by ZEFSAII (Michael W. Deem and Ramdas Pophale) SiO2 
 PCOD8021350
Probable space group: P -1
;
_chemical_formula_sum "Si O2"
_cell_formula_units_Z 16
_cell_length_a 11.527190
_cell_length_b 13.879799
_cell_length_c 9.472015
_cell_angle_alpha 68.766938
_cell_angle_beta 68.732233
_cell_angle_gamma 126.852600
_cell_volume 710.791004
_symmetry_space_group_name_H-M "P -1"
_symmetry_group_IT_number 2
_symmetry_cell_setting 'triclinic'
loop_
_space_group_symop_operation_xyz
x,y,z
-x,-y,-z
loop_
_atom_site_type_symbol
_atom_site_label
_atom_site_fract_x
_atom_site_fract_y
_atom_site_fract_z
Si Si1 0.769849 0.704654 0.612899
Si Si2 0.091834 0.068351 0.080664
Si Si3 0.426649 0.926650 0.333609
Si Si4 0.792461 0.326582 0.852157
Si Si5 0.986717 0.391877 0.160008
Si Si6 0.070881 0.748778 0.354349
Si Si7 0.763644 0.645243 0.965581
Si Si8 0.562200 0.852005 0.125015
O O1 0.815329 0.736390 0.744534
O O2 0.829706 0.629036 0.576603
O O3 0.507595 0.550383 0.779040
O O4 0.933213 0.899696 0.356399
O O5 0.110685 0.200010 0.052050
O O6 0.355412 0.209145 0.879086
O O7 0.000000 0.000000 0.000000
O O8 0.260002 0.865594 0.328759
O O9 0.456200 0.826208 0.329528
O O10 0.284068 0.830406 0.594561
O O11 0.663325 0.158715 0.109374
O O12 0.929846 0.513789 0.770014
O O13 0.974205 0.387967 0.642851
O O14 0.603630 0.249214 0.880420
O O15 0.140698 0.404360 0.034626
O O16 0.000000 0.500000 0.000000
O O17 0.194854 0.917443 0.109768
#
# Coordination Sequence:
#
# PCOD8021350 Si02
#       8
#     2   2   2   2   2   2   2   2
#     4  10  22  43  70  98 132 171 220 270 321 396
#     4  11  25  43  69  99 129 171 217 277 337 382
#     4   9  18  38  60  88 125 156 204 262 312 364
#     4   9  20  37  64  93 122 161 215 260 315 379
#     4  12  27  40  58  93 131 171 213 259 322 385
#     4   8  15  36  65  95 116 154 208 268 303 366
#     4  11  26  43  64  96 134 178 221 260 326 400
#     4   8  18  35  66  94 115 157 215 260 312 378
#
# _framework density 22.510134000000001
#
# number of rings (size 3 to 8) (size 9 to 14) (size 15 to 20)
#    0.000    2.250    1.250    1.875    3.500    9.000 
#    0.000    0.000    0.000    0.000    0.000    0.000 
#    0.000    0.000    0.000    0.000    0.000    0.000 
#
# Total GULP energy -198240.596302 kJ/mol
# GULP energy per Si atom -12390.037269 kJ/mol
# Density = 2.245890 g / cm^3
# Si number density = 22.510134 Si / 1000 Ang^3
#
#
#
# Elastic Constant Matrix: (Units=GPa)
#
#
# Indices 1 2 3 4 5 6 
#
# 1 113.9024 41.8163 40.2258 13.4380 -21.5606 -24.0913
# 2 41.8163 100.0302 12.1449 5.7947 -9.7058 -22.2156
# 3 40.2258 12.1449 75.8089 4.8702 -25.9301 -8.4432
# 4 13.4380 5.7947 4.8702 24.2067 -7.6100 -0.1990
# 5 -21.5606 -9.7058 -25.9301 -7.6100 37.1349 9.8576
# 6 -24.0913 -22.2156 -8.4432 -0.1990 9.8576 33.0157
#
#
#
# Elastic Compliance Matrix: (Units=1/GPa)
#
#
# Indices 1 2 3 4 5 6 
#
# 1 0.014179 -0.003436 -0.005736 -0.005696 0.000464 0.006395
# 2 -0.003436 0.012828 0.000466 -0.001286 -0.000256 0.006313
# 3 -0.005736 0.000466 0.019748 0.002780 0.011766 -0.002318
# 4 -0.005696 -0.001286 0.002780 0.047255 0.009829 -0.006961
# 5 0.000464 -0.000256 0.011766 0.009829 0.039645 -0.008602
# 6 0.006395 0.006313 -0.002318 -0.006961 -0.008602 0.041136
#
#
# Mechanical properties :
#
#
# Convention : Reuss Voigt Hill
#
# Bulk Modulus (GPa) = 34.07943 53.12396 43.60169
# Shear Modulus (GPa) = 24.75450 31.90843 28.33146
#
# Velocity S-wave (km/s) = 3.31978 3.76907 3.55154
# Velocity P-wave (km/s) = 5.46507 6.52629 6.01911
#
# Compressibility (1/GPa) = 0.02934321
#
# Stress axis : x y z
#
# Youngs Moduli (GPa) = 70.52665 77.95267 50.63845
#
# Poissons Ratio (x) = 0.26782 0.29048
# Poissons Ratio (y) = 0.24231 -0.02360
# Poissons Ratio (z) = 0.40457 -0.03634
#
# Static dielectric constant tensor:
#      x y z
#    x 4.259300 -0.439920 0.055190 
#    y -0.439920 4.022960 -0.176250 
#    z 0.055190 -0.176250 4.822120 
# 
# 
# High freq. dielectric constant tensor:
#      x y z
#    x 1.880560 -0.018060 -0.013240 
#    y -0.018060 1.869470 -0.000490 
#    z -0.013240 -0.000490 1.897950 
# 
# From -- ./inp_files/272469.got.cif
#   From: 2010.06.25/outbox.cif.g09.slc.cpg/sg2_137_cif.got.tgz:272469.got - 2010.06.27 13:26:56.
