data_PCOD8021124
_publ_section_title
;
Structure prediction by ZEFSAII (Michael W. Deem and Ramdas Pophale) SiO2 
 PCOD8021124
Probable space group: P -1
;
_chemical_formula_sum "Si O2"
_cell_formula_units_Z 16
_cell_length_a 19.316573
_cell_length_b 7.691582
_cell_length_c 16.226019
_cell_angle_alpha 50.811126
_cell_angle_beta 21.592163
_cell_angle_gamma 61.595536
_cell_volume 632.537875
_symmetry_space_group_name_H-M "P -1"
_symmetry_group_IT_number 2
_symmetry_cell_setting 'triclinic'
loop_
_space_group_symop_operation_xyz
x,y,z
-x,-y,-z
loop_
_atom_site_type_symbol
_atom_site_label
_atom_site_fract_x
_atom_site_fract_y
_atom_site_fract_z
Si Si1 0.543906 0.692259 0.644257
Si Si2 0.172274 0.610247 0.175063
Si Si3 0.526660 0.833776 0.136308
Si Si4 0.862859 0.942848 0.337634
Si Si5 0.086110 0.175087 0.509213
Si Si6 0.368465 0.733587 0.512474
Si Si7 0.841123 0.205519 0.560811
Si Si8 0.686431 0.798764 0.281636
O O1 0.422530 0.407062 0.846194
O O2 0.732488 0.726204 0.485887
O O3 0.624960 0.854607 0.424123
O O4 0.378445 0.778065 0.847235
O O5 0.222827 0.413521 0.233788
O O6 0.114087 0.787355 0.247182
O O7 0.991657 0.466639 0.352061
O O8 0.499759 0.894125 0.242805
O O9 0.316543 0.771162 0.337728
O O10 0.716688 0.056020 0.822092
O O11 0.793789 0.859957 0.532968
O O12 0.816279 0.178814 0.293453
O O13 0.101974 0.992028 0.046438
O O14 0.031817 0.937989 0.581190
O O15 0.501788 0.771543 0.434941
O O16 0.272830 0.448644 0.681856
#
# Coordination Sequence:
#
# PCOD8021124 Si02
#       8
#     2   2   2   2   2   2   2   2
#     4  11  25  46  66 102 142 184 237 296 354 426
#     4  11  26  45  69 107 147 187 239 295 353 428
#     4  10  22  43  68 102 139 182 242 287 360 428
#     4  12  25  44  72 102 141 185 236 298 358 421
#     4  11  25  44  69 108 140 190 234 291 360 425
#     4  10  23  45  72 104 137 179 239 302 348 433
#     4  11  22  44  72 101 144 194 231 295 359 431
#     4  10  25  47  71 101 137 188 236 295 362 420
#
# _framework density 25.294927999999999
#
# number of rings (size 3 to 8) (size 9 to 14) (size 15 to 20)
#    0.000    1.250    2.500    1.875    3.500    4.000 
#    6.750    0.000    0.000    0.000    0.000    0.000 
#    0.000    0.000    0.000    0.000    0.000    0.000 
#
# Total GULP energy -198406.082860 kJ/mol
# GULP energy per Si atom -12400.380179 kJ/mol
# Density = 2.523736 g / cm^3
# Si number density = 25.294928 Si / 1000 Ang^3
#
#
#
# Elastic Constant Matrix: (Units=GPa)
#
#
# Indices 1 2 3 4 5 6 
#
# 1 151.7126 -9.3567 37.7770 11.7078 16.9856 5.9352
# 2 -9.3567 63.2203 -2.9499 19.8401 5.6774 8.7242
# 3 37.7770 -2.9499 96.2571 12.1831 8.9164 19.0870
# 4 11.7078 19.8401 12.1831 33.8657 -0.5116 2.3527
# 5 16.9856 5.6774 8.9164 -0.5116 35.7356 8.3389
# 6 5.9352 8.7242 19.0870 2.3527 8.3389 36.4710
#
#
#
# Elastic Compliance Matrix: (Units=1/GPa)
#
#
# Indices 1 2 3 4 5 6 
#
# 1 0.007997 0.002421 -0.002372 -0.003417 -0.003745 0.000437
# 2 0.002421 0.021992 0.003015 -0.014503 -0.004368 -0.005298
# 3 -0.002372 0.003015 0.013554 -0.005368 -0.001223 -0.006802
# 4 -0.003417 -0.014503 -0.005368 0.041006 0.005152 0.003011
# 5 -0.003745 -0.004368 -0.001223 0.005152 0.032091 -0.005375
# 6 0.000437 -0.005298 -0.006802 0.003011 -0.005375 0.033210
#
#
# Mechanical properties :
#
#
# Convention : Reuss Voigt Hill
#
# Bulk Modulus (GPa) = 20.13276 40.23675 30.18476
# Shear Modulus (GPa) = 31.19590 40.26243 35.72917
#
# Velocity S-wave (km/s) = 3.51563 3.99396 3.76241
# Velocity P-wave (km/s) = 4.94530 6.10005 5.55277
#
# Compressibility (1/GPa) = 0.04967028
#
# Stress axis : x y z
#
# Youngs Moduli (GPa) = 125.04438 45.47207 73.78133
#
# Poissons Ratio (x) = -0.11010 0.17499
# Poissons Ratio (y) = -0.30276 -0.22241
# Poissons Ratio (z) = 0.29657 -0.13708
#
# Static dielectric constant tensor:
#      x y z
#    x 4.682080 -0.060290 0.262430 
#    y -0.060290 4.718840 0.077940 
#    z 0.262430 0.077940 4.166560 
# 
# 
# High freq. dielectric constant tensor:
#      x y z
#    x 2.026850 -0.003580 0.008880 
#    y -0.003580 2.024620 0.005510 
#    z 0.008880 0.005510 1.985080 
# 
# From -- ./inp_files/577254.got.cif
#   From: 2010.06.25/outbox.cif.g09.slc.cpg/sg2_289_cif.got.tgz:577254.got - 2010.06.27 13:26:56.
