data_PCOD8021726
_publ_section_title
;
Structure prediction by ZEFSAII (Michael W. Deem and Ramdas Pophale) SiO2 
 PCOD8021726
Probable space group: P -1
;
_chemical_formula_sum "Si O2"
_cell_formula_units_Z 16
_cell_length_a 9.781102
_cell_length_b 6.992052
_cell_length_c 21.382507
_cell_angle_alpha 126.563304
_cell_angle_beta 53.621034
_cell_angle_gamma 136.309809
_cell_volume 775.812246
_symmetry_space_group_name_H-M "P -1"
_symmetry_group_IT_number 2
_symmetry_cell_setting 'triclinic'
loop_
_space_group_symop_operation_xyz
x,y,z
-x,-y,-z
loop_
_atom_site_type_symbol
_atom_site_label
_atom_site_fract_x
_atom_site_fract_y
_atom_site_fract_z
Si Si1 0.929259 0.900574 0.429785
Si Si2 0.423640 0.305403 0.180457
Si Si3 0.861280 0.637166 0.639690
Si Si4 0.216780 0.084636 0.839822
Si Si5 0.400753 0.993343 0.461067
Si Si6 0.241844 0.199996 0.075637
Si Si7 0.481647 0.138942 0.893264
Si Si8 0.184422 0.717477 0.662201
O O1 0.926691 0.620607 0.360120
O O2 0.700153 0.827321 0.469226
O O3 0.000000 0.000000 0.500000
O O4 0.095979 0.145048 0.385058
O O5 0.315041 0.403830 0.275261
O O6 0.288681 0.168666 0.128141
O O7 0.651618 0.587841 0.158167
O O8 0.437737 0.064443 0.163974
O O9 0.784507 0.330699 0.570574
O O10 0.074451 0.762133 0.642978
O O11 0.158914 0.853498 0.756882
O O12 0.002982 0.014088 0.911939
O O13 0.340142 0.046866 0.852730
O O14 0.500000 0.000000 0.500000
O O15 0.574843 0.133075 0.387884
O O16 0.321911 0.528573 0.101066
O O17 0.351648 0.094021 0.981651
#
# Coordination Sequence:
#
# PCOD8021726 Si02
#       8
#     2   2   2   2   2   2   2   2
#     4  12  26  43  71  96 124 176 218 265 334 387
#     4  11  24  41  67  96 132 174 216 261 328 387
#     4  12  25  44  65  96 134 166 214 276 323 381
#     4  11  24  41  66  97 132 172 215 267 322 379
#     4  12  24  45  68  92 130 167 213 272 324 385
#     4  10  22  44  67  95 136 173 210 268 322 377
#     4  10  24  41  67 101 131 169 220 265 314 386
#     4  12  25  44  67  96 131 171 216 270 325 385
#
# _framework density 20.623546000000001
#
# number of rings (size 3 to 8) (size 9 to 14) (size 15 to 20)
#    0.000    0.750    5.000    2.250    1.750    4.500 
#    0.000    0.000    0.000    0.000    0.000    0.000 
#    0.000    0.000    0.000    0.000    0.000    0.000 
#
# Total GULP energy -198526.627284 kJ/mol
# GULP energy per Si atom -12407.914205 kJ/mol
# Density = 2.057661 g / cm^3
# Si number density = 20.623546 Si / 1000 Ang^3
#
#
#
# Elastic Constant Matrix: (Units=GPa)
#
#
# Indices 1 2 3 4 5 6 
#
# 1 92.6655 30.6197 20.1005 -3.6973 -1.0507 -7.2126
# 2 30.6197 96.2545 9.2065 -5.4553 -1.1712 -1.8328
# 3 20.1005 9.2065 60.8019 -1.9340 11.3875 -2.0493
# 4 -3.6973 -5.4553 -1.9340 41.1413 2.3941 -6.7409
# 5 -1.0507 -1.1712 11.3875 2.3941 36.0906 -5.6895
# 6 -7.2126 -1.8328 -2.0493 -6.7409 -5.6895 35.1476
#
#
#
# Elastic Compliance Matrix: (Units=1/GPa)
#
#
# Indices 1 2 3 4 5 6 
#
# 1 0.013148 -0.003674 -0.004029 0.000843 0.001911 0.002743
# 2 -0.003674 0.011688 -0.000588 0.001188 0.000397 0.000113
# 3 -0.004029 -0.000588 0.019048 0.000719 -0.006293 -0.000628
# 4 0.000843 0.001188 0.000719 0.025452 -0.001066 0.004986
# 5 0.001911 0.000397 -0.006293 -0.001066 0.030589 0.004793
# 6 0.002743 0.000113 -0.000628 0.004986 0.004793 0.030716
#
#
# Mechanical properties :
#
#
# Convention : Reuss Voigt Hill
#
# Bulk Modulus (GPa) = 36.62633 41.06391 38.84512
# Shear Modulus (GPa) = 31.98474 35.12891 33.55683
#
# Velocity S-wave (km/s) = 3.94240 4.13163 4.03812
# Velocity P-wave (km/s) = 6.20656 6.53566 6.37324
#
# Compressibility (1/GPa) = 0.02730276
#
# Stress axis : x y z
#
# Youngs Moduli (GPa) = 76.05564 85.55493 52.49836
#
# Poissons Ratio (x) = 0.31433 0.21152
# Poissons Ratio (y) = 0.27943 0.03087
# Poissons Ratio (z) = 0.30643 0.05031
#
# Static dielectric constant tensor:
#      x y z
#    x 3.797040 0.040570 0.070100 
#    y 0.040570 3.838800 -0.068340 
#    z 0.070100 -0.068340 3.673440 
# 
# 
# High freq. dielectric constant tensor:
#      x y z
#    x 1.813280 0.002230 0.002870 
#    y 0.002230 1.810200 -0.007230 
#    z 0.002870 -0.007230 1.818480 
# 
# From -- ./inp_files/47271.got.cif
#   From: 2010.06.25/outbox.cif.g09.slc.cpg/sg2_24_cif.got.tgz:47271.got - 2010.06.27 13:26:56.
