data_PCOD8021508
_publ_section_title
;
Structure prediction by ZEFSAII (Michael W. Deem and Ramdas Pophale) SiO2 
 PCOD8021508
Probable space group: P -1
;
_chemical_formula_sum "Si O2"
_cell_formula_units_Z 16
_cell_length_a 9.310420
_cell_length_b 11.158436
_cell_length_c 9.082047
_cell_angle_alpha 119.034956
_cell_angle_beta 127.565264
_cell_angle_gamma 73.310989
_cell_volume 653.854120
_symmetry_space_group_name_H-M "P -1"
_symmetry_group_IT_number 2
_symmetry_cell_setting 'triclinic'
loop_
_space_group_symop_operation_xyz
x,y,z
-x,-y,-z
loop_
_atom_site_type_symbol
_atom_site_label
_atom_site_fract_x
_atom_site_fract_y
_atom_site_fract_z
Si Si1 0.034129 0.020302 0.361691
Si Si2 0.646060 0.117831 0.672606
Si Si3 0.519275 0.206191 0.232055
Si Si4 0.751665 0.599233 0.938996
Si Si5 0.448139 0.399055 0.687711
Si Si6 0.680017 0.054870 0.980963
Si Si7 0.120093 0.328127 0.636441
Si Si8 0.776989 0.444752 0.584049
O O1 0.104212 0.175675 0.470588
O O2 0.857375 0.994728 0.135625
O O3 0.184160 0.911406 0.343766
O O4 0.000000 0.000000 0.500000
O O5 0.548313 0.255946 0.645697
O O6 0.500000 0.000000 0.500000
O O7 0.722577 0.123459 0.891288
O O8 0.330645 0.280132 0.136444
O O9 0.597693 0.173234 0.100058
O O10 0.666388 0.303033 0.463819
O O11 0.472961 0.066466 0.209096
O O12 0.597637 0.515410 0.884496
O O13 0.850030 0.500848 0.821646
O O14 0.877635 0.670959 0.182568
O O15 0.297447 0.398345 0.720531
O O16 0.353394 0.440364 0.498879
O O17 0.937628 0.415916 0.549057
#
# Coordination Sequence:
#
# PCOD8021508 Si02
#       8
#     2   2   2   2   2   2   2   2
#     4  12  28  47  74 105 149 187 236 301 355 428
#     4  12  28  46  74 105 145 187 242 294 360 426
#     4  10  22  43  78 103 140 185 241 283 367 415
#     4  11  25  43  71 105 138 190 238 289 349 422
#     4  11  25  48  70 102 142 190 232 292 354 423
#     4  11  25  46  74 107 145 189 235 298 357 427
#     4  12  24  47  69 107 143 182 238 292 358 412
#     4  11  25  45  76 102 144 185 237 297 345 426
#
# _framework density 24.470291
#
# number of rings (size 3 to 8) (size 9 to 14) (size 15 to 20)
#    0.000    0.750    2.500    4.500    8.750    1.000 
#    4.500    0.000    0.000    0.000    0.000    0.000 
#    0.000    0.000    0.000    0.000    0.000    0.000 
#
# Total GULP energy -198379.494839 kJ/mol
# GULP energy per Si atom -12398.718427 kJ/mol
# Density = 2.441460 g / cm^3
# Si number density = 24.470291 Si / 1000 Ang^3
#
#
#
# Elastic Constant Matrix: (Units=GPa)
#
#
# Indices 1 2 3 4 5 6 
#
# 1 133.4594 41.1292 17.3480 -0.7436 -19.2435 -14.3864
# 2 41.1292 100.5559 28.0166 6.7248 -9.0388 -15.3155
# 3 17.3480 28.0166 93.5630 3.4709 -18.6942 -7.6761
# 4 -0.7436 6.7248 3.4709 26.5958 2.8356 -4.7208
# 5 -19.2435 -9.0388 -18.6942 2.8356 26.9983 -5.3353
# 6 -14.3864 -15.3155 -7.6761 -4.7208 -5.3353 39.1066
#
#
#
# Elastic Compliance Matrix: (Units=1/GPa)
#
#
# Indices 1 2 3 4 5 6 
#
# 1 0.009756 -0.003080 0.000797 0.000831 0.007100 0.003608
# 2 -0.003080 0.012694 -0.002657 -0.002505 0.001103 0.003165
# 3 0.000797 -0.002657 0.013624 -0.001591 0.009889 0.003084
# 4 0.000831 -0.002505 -0.001591 0.039538 -0.004884 0.003119
# 5 0.007100 0.001103 0.009889 -0.004884 0.052103 0.011504
# 6 0.003608 0.003165 0.003084 0.003119 0.011504 0.030689
#
#
# Mechanical properties :
#
#
# Convention : Reuss Voigt Hill
#
# Bulk Modulus (GPa) = 38.17787 55.61845 46.89816
# Shear Modulus (GPa) = 28.24631 34.61244 31.42937
#
# Velocity S-wave (km/s) = 3.40120 3.76502 3.58773
# Velocity P-wave (km/s) = 5.57313 6.45591 6.03070
#
# Compressibility (1/GPa) = 0.02619318
#
# Stress axis : x y z
#
# Youngs Moduli (GPa) = 102.50200 78.78031 73.40248
#
# Poissons Ratio (x) = 0.24267 -0.05852
# Poissons Ratio (y) = 0.31574 0.19502
# Poissons Ratio (z) = -0.08173 0.20931
#
# Static dielectric constant tensor:
#      x y z
#    x 4.628620 -0.477110 -0.185140 
#    y -0.477110 5.154380 0.425450 
#    z -0.185140 0.425450 4.546340 
# 
# 
# High freq. dielectric constant tensor:
#      x y z
#    x 1.979030 -0.012240 -0.006440 
#    y -0.012240 1.972330 0.002550 
#    z -0.006440 0.002550 1.974950 
# 
# From -- ./inp_files/190414.got.cif
#   From: 2010.06.25/outbox.cif.g09.slc.cpg/sg2_96_cif.got.tgz:190414.got - 2010.06.27 13:26:56.
