data_PCOD8021131
_publ_section_title
;
Structure prediction by ZEFSAII (Michael W. Deem and Ramdas Pophale) SiO2 
 PCOD8021131
Probable space group: P -1
;
_chemical_formula_sum "Si O2"
_cell_formula_units_Z 12
_cell_length_a 12.017552
_cell_length_b 15.360698
_cell_length_c 15.419053
_cell_angle_alpha 154.032694
_cell_angle_beta 28.020838
_cell_angle_gamma 153.602591
_cell_volume 508.321529
_symmetry_space_group_name_H-M "P -1"
_symmetry_group_IT_number 2
_symmetry_cell_setting 'triclinic'
loop_
_space_group_symop_operation_xyz
x,y,z
-x,-y,-z
loop_
_atom_site_type_symbol
_atom_site_label
_atom_site_fract_x
_atom_site_fract_y
_atom_site_fract_z
Si Si1 0.220007 0.177010 0.941568
Si Si2 0.574979 0.112466 0.925759
Si Si3 0.016121 0.099097 0.307220
Si Si4 0.005682 0.860608 0.452921
Si Si5 0.167278 0.548916 0.222463
Si Si6 0.757284 0.361619 0.193832
O O1 0.522566 0.261767 0.845101
O O2 0.166095 0.389858 0.158887
O O3 0.202290 0.071820 0.764140
O O4 0.000000 0.000000 0.000000
O O5 0.313581 0.141208 0.115946
O O6 0.776268 0.288981 0.017647
O O7 0.733158 0.171981 0.778365
O O8 0.507975 0.855516 0.774021
O O9 0.944622 0.000679 0.367152
O O10 0.008477 0.335564 0.521071
O O11 0.748973 0.601521 0.411287
O O12 0.000000 0.000000 0.500000
O O13 0.017637 0.397603 0.104352
#
# Coordination Sequence:
#
# PCOD8021131 Si02
#       6
#     2   2   2   2   2   2
#     4  11  25  48  73  98 136 184 238 293 350 408
#     4  11  23  43  71 101 149 184 229 287 349 419
#     4  11  25  45  72 106 140 181 233 289 341 426
#     4  11  25  42  68 106 144 190 229 279 352 421
#     4  10  24  45  71 102 140 177 238 294 339 416
#     4  10  22  43  68 103 144 181 232 284 338 425
#
# _framework density 23.607106999999999
#
# number of rings (size 3 to 8) (size 9 to 14) (size 15 to 20)
#    0.000    1.333    1.667    3.000    4.667    6.667 
#    0.000    8.333    0.000    0.000    0.000    0.000 
#    0.000    0.000    0.000    0.000    0.000    0.000 
#
# Total GULP energy -148730.995095 kJ/mol
# GULP energy per Si atom -12394.249591 kJ/mol
# Density = 2.355338 g / cm^3
# Si number density = 23.607107 Si / 1000 Ang^3
#
#
#
# Elastic Constant Matrix: (Units=GPa)
#
#
# Indices 1 2 3 4 5 6 
#
# 1 106.1761 27.6956 2.0800 13.5739 14.6103 14.0936
# 2 27.6956 109.6290 10.7798 9.2754 8.5866 -4.0173
# 3 2.0800 10.7798 60.8325 8.7377 0.9217 -3.8385
# 4 13.5739 9.2754 8.7377 36.4328 -12.7070 -0.8033
# 5 14.6103 8.5866 0.9217 -12.7070 47.1911 13.9130
# 6 14.0936 -4.0173 -3.8385 -0.8033 13.9130 40.4522
#
#
#
# Elastic Compliance Matrix: (Units=1/GPa)
#
#
# Indices 1 2 3 4 5 6 
#
# 1 0.011605 -0.002377 0.000637 -0.005222 -0.003677 -0.003058
# 2 -0.002377 0.010320 -0.001226 -0.002255 -0.002475 0.002543
# 3 0.000637 -0.001226 0.017488 -0.004844 -0.002203 0.001977
# 4 -0.005222 -0.002255 -0.004844 0.035387 0.012362 -0.002413
# 5 -0.003677 -0.002475 -0.002203 0.012362 0.028750 -0.008816
# 6 -0.003058 0.002543 0.001977 -0.002413 -0.008816 0.029210
#
#
# Mechanical properties :
#
#
# Convention : Reuss Voigt Hill
#
# Bulk Modulus (GPa) = 29.86579 39.74984 34.80781
# Shear Modulus (GPa) = 33.36594 40.55402 36.95998
#
# Velocity S-wave (km/s) = 3.76358 4.14922 3.96110
# Velocity P-wave (km/s) = 5.61825 6.31105 5.97470
#
# Compressibility (1/GPa) = 0.03348313
#
# Stress axis : x y z
#
# Youngs Moduli (GPa) = 86.16802 96.89457 57.18226
#
# Poissons Ratio (x) = 0.23029 -0.03643
# Poissons Ratio (y) = 0.20480 0.07009
# Poissons Ratio (z) = -0.05490 0.11876
#
# Static dielectric constant tensor:
#      x y z
#    x 4.394550 0.088430 -0.016710 
#    y 0.088430 4.310080 0.009960 
#    z -0.016710 0.009960 4.686320 
# 
# 
# High freq. dielectric constant tensor:
#      x y z
#    x 1.945220 0.002890 -0.011480 
#    y 0.002890 1.930160 0.011880 
#    z -0.011480 0.011880 1.935920 
# 
# From -- ./inp_files/521832.got.cif
#   From: 2010.06.25/outbox.cif.g09.slc.cpg/sg2_261_cif.got.tgz:521832.got - 2010.06.27 13:26:56.
