data_PCOD8021299
_publ_section_title
;
Structure prediction by ZEFSAII (Michael W. Deem and Ramdas Pophale) SiO2 
 PCOD8021299
Probable space group: P -1
;
_chemical_formula_sum "Si O2"
_cell_formula_units_Z 12
_cell_length_a 11.814824
_cell_length_b 18.257717
_cell_length_c 20.561313
_cell_angle_alpha 160.098723
_cell_angle_beta 160.409762
_cell_angle_gamma 30.352170
_cell_volume 495.908101
_symmetry_space_group_name_H-M "P -1"
_symmetry_group_IT_number 2
_symmetry_cell_setting 'triclinic'
loop_
_space_group_symop_operation_xyz
x,y,z
-x,-y,-z
loop_
_atom_site_type_symbol
_atom_site_label
_atom_site_fract_x
_atom_site_fract_y
_atom_site_fract_z
Si Si1 0.572731 0.344392 0.762255
Si Si2 0.675568 0.150158 0.277498
Si Si3 0.842521 0.412657 0.101838
Si Si4 0.035913 0.999025 0.891024
Si Si5 0.083765 0.879456 0.346979
Si Si6 0.509887 0.197988 0.941321
O O1 0.762401 0.299382 0.760414
O O2 0.221079 0.163571 0.431567
O O3 0.834894 0.339727 0.960400
O O4 0.445988 0.575889 0.885464
O O5 0.815444 0.402943 0.544080
O O6 0.009811 0.066179 0.413961
O O7 0.500000 0.000000 0.000000
O O8 0.388125 0.131664 0.161652
O O9 0.500000 0.500000 0.000000
O O10 0.845062 0.201269 0.973813
O O11 0.126298 0.853905 0.879384
O O12 0.730468 0.770324 0.100635
O O13 0.355551 0.988097 0.638841
#
# Coordination Sequence:
#
# PCOD8021299 Si02
#       6
#     2   2   2   2   2   2
#     4  12  23  44  71  98 135 181 224 272 341 393
#     4  11  22  44  67  99 135 173 230 278 333 399
#     4  12  25  45  70  98 136 180 224 282 335 395
#     4  11  25  41  66 103 134 174 225 278 331 401
#     4  10  22  43  70 100 133 181 222 276 332 403
#     4  10  23  45  67  99 141 173 227 271 336 398
#
# _framework density 24.198031
#
# number of rings (size 3 to 8) (size 9 to 14) (size 15 to 20)
#    0.000    1.000    1.667    5.000    0.000    0.667 
#    9.000    0.000    0.000    0.000    0.000    0.000 
#    0.000    0.000    0.000    0.000    0.000    0.000 
#
# Total GULP energy -148781.830331 kJ/mol
# GULP energy per Si atom -12398.485861 kJ/mol
# Density = 2.414296 g / cm^3
# Si number density = 24.198031 Si / 1000 Ang^3
#
#
#
# Elastic Constant Matrix: (Units=GPa)
#
#
# Indices 1 2 3 4 5 6 
#
# 1 57.7645 9.7928 5.4017 -6.8329 -21.6753 -14.7767
# 2 9.7928 142.9920 33.5775 9.3899 -7.3360 1.4919
# 3 5.4017 33.5775 136.1695 -0.4084 -12.2906 3.2586
# 4 -6.8329 9.3899 -0.4084 39.2703 4.5047 1.3833
# 5 -21.6753 -7.3360 -12.2906 4.5047 38.1587 -1.2492
# 6 -14.7767 1.4919 3.2586 1.3833 -1.2492 37.7332
#
#
#
# Elastic Compliance Matrix: (Units=1/GPa)
#
#
# Indices 1 2 3 4 5 6 
#
# 1 0.026073 -0.001422 0.000396 0.002823 0.014679 0.010615
# 2 -0.001422 0.007675 -0.001799 -0.002116 0.000318 -0.000617
# 3 0.000396 -0.001799 0.007999 0.000320 0.002404 -0.000397
# 4 0.002823 -0.002116 0.000320 0.026672 -0.001845 0.000123
# 5 0.014679 0.000318 0.002404 -0.001845 0.035820 0.006782
# 6 0.010615 -0.000617 -0.000397 0.000123 0.006782 0.030937
#
#
# Mechanical properties :
#
#
# Convention : Reuss Voigt Hill
#
# Bulk Modulus (GPa) = 27.70305 48.27444 37.98874
# Shear Modulus (GPa) = 32.70995 42.24273 37.47634
#
# Velocity S-wave (km/s) = 3.68062 4.18270 3.93967
# Velocity P-wave (km/s) = 5.43470 6.58177 6.03555
#
# Compressibility (1/GPa) = 0.03609711
#
# Stress axis : x y z
#
# Youngs Moduli (GPa) = 38.35391 130.29482 125.01261
#
# Poissons Ratio (x) = 0.18522 -0.04945
# Poissons Ratio (y) = 0.05452 0.22490
# Poissons Ratio (z) = -0.01517 0.23440
#
# Static dielectric constant tensor:
#      x y z
#    x 4.346980 0.130830 -0.023190 
#    y 0.130830 4.708520 0.044890 
#    z -0.023190 0.044890 4.522880 
# 
# 
# High freq. dielectric constant tensor:
#      x y z
#    x 1.947640 -0.002800 -0.002280 
#    y -0.002800 1.970770 -0.000460 
#    z -0.002280 -0.000460 1.964220 
# 
# From -- ./inp_files/22674.got.cif
#   From: 2010.06.25/outbox.cif.g09.slc.cpg/sg2_12_cif.got.tgz:22674.got - 2010.06.27 13:26:56.
