data_PCOD8021270
_publ_section_title
;
Structure prediction by ZEFSAII (Michael W. Deem and Ramdas Pophale) SiO2 
 PCOD8021270
Probable space group: P -1
;
_chemical_formula_sum "Si O2"
_cell_formula_units_Z 16
_cell_length_a 13.252177
_cell_length_b 9.297978
_cell_length_c 8.307931
_cell_angle_alpha 111.930729
_cell_angle_beta 67.747660
_cell_angle_gamma 132.290626
_cell_volume 690.260061
_symmetry_space_group_name_H-M "P -1"
_symmetry_group_IT_number 2
_symmetry_cell_setting 'triclinic'
loop_
_space_group_symop_operation_xyz
x,y,z
-x,-y,-z
loop_
_atom_site_type_symbol
_atom_site_label
_atom_site_fract_x
_atom_site_fract_y
_atom_site_fract_z
Si Si1 0.021393 0.730681 0.231521
Si Si2 0.784921 0.342919 0.340359
Si Si3 0.695435 0.033564 0.025417
Si Si4 0.590659 0.799587 0.689839
Si Si5 0.612125 0.675841 0.120726
Si Si6 0.610402 0.474546 0.549935
Si Si7 0.111697 0.131963 0.851635
Si Si8 0.175452 0.882960 0.525188
O O1 0.915202 0.493246 0.207265
O O2 0.943909 0.807720 0.230447
O O3 0.156963 0.808559 0.081430
O O4 0.060095 0.796713 0.420764
O O5 0.727639 0.449890 0.503097
O O6 0.834767 0.282966 0.434655
O O7 0.670598 0.157769 0.213566
O O8 0.578972 0.893671 0.899615
O O9 0.699144 0.887358 0.072817
O O10 0.671398 0.703615 0.630671
O O11 0.440488 0.609160 0.638057
O O12 0.671610 0.974878 0.585919
O O13 0.525756 0.669625 0.318796
O O14 0.738370 0.669043 0.090753
O O15 0.500000 0.500000 0.000000
O O16 0.152712 0.002367 0.707109
O O17 0.000000 0.000000 0.000000
#
# Coordination Sequence:
#
# PCOD8021270 Si02
#       8
#     2   2   2   2   2   2   2   2
#     4  11  25  43  71 101 140 185 245 294 357 420
#     4  12  25  43  69 103 145 190 231 293 368 424
#     4  11  23  44  69 101 141 185 233 301 350 424
#     4  10  22  43  69  96 137 182 238 292 344 417
#     4  12  24  44  71 105 145 178 238 296 353 422
#     4  11  24  42  71  98 142 186 236 289 359 426
#     4  12  23  44  73 104 137 191 243 298 353 420
#     4  11  23  43  67 100 140 184 239 298 352 421
#
# _framework density 23.179669000000001
#
# number of rings (size 3 to 8) (size 9 to 14) (size 15 to 20)
#    0.000    0.750    5.000    1.875    1.750    4.500 
#    0.000    5.000    0.000    0.000    0.000    0.000 
#    0.000    0.000    0.000    0.000    0.000    0.000 
#
# Total GULP energy -198225.804057 kJ/mol
# GULP energy per Si atom -12389.112754 kJ/mol
# Density = 2.312691 g / cm^3
# Si number density = 23.179669 Si / 1000 Ang^3
#
#
#
# Elastic Constant Matrix: (Units=GPa)
#
#
# Indices 1 2 3 4 5 6 
#
# 1 85.1745 26.5047 26.3234 -3.2812 20.2210 -4.6574
# 2 26.5047 111.2509 30.1378 -18.7234 17.7859 -10.0512
# 3 26.3234 30.1378 88.8719 -4.9997 19.2423 2.5861
# 4 -3.2812 -18.7234 -4.9997 47.9321 6.2064 8.5658
# 5 20.2210 17.7859 19.2423 6.2064 30.7914 1.0217
# 6 -4.6574 -10.0512 2.5861 8.5658 1.0217 42.9847
#
#
#
# Elastic Compliance Matrix: (Units=1/GPa)
#
#
# Indices 1 2 3 4 5 6 
#
# 1 0.014824 -0.001390 -0.002216 0.001000 -0.007795 0.001400
# 2 -0.001390 0.011744 -0.002173 0.004634 -0.005511 0.001934
# 3 -0.002216 -0.002173 0.014178 0.001626 -0.006419 -0.001773
# 4 0.001000 0.004634 0.001626 0.024751 -0.009218 -0.003619
# 5 -0.007795 -0.005511 -0.006419 -0.009218 0.046682 -0.001020
# 6 0.001400 0.001934 -0.001773 -0.003619 -0.001020 0.024720
#
#
# Mechanical properties :
#
#
# Convention : Reuss Voigt Hill
#
# Bulk Modulus (GPa) = 34.26180 50.13656 42.19918
# Shear Modulus (GPa) = 31.60797 37.83041 34.71919
#
# Velocity S-wave (km/s) = 3.69671 4.04425 3.87438
# Velocity P-wave (km/s) = 5.74752 6.59427 6.18540
#
# Compressibility (1/GPa) = 0.02918702
#
# Stress axis : x y z
#
# Youngs Moduli (GPa) = 67.45923 85.14811 70.53003
#
# Poissons Ratio (x) = 0.11839 0.15630
# Poissons Ratio (y) = 0.09380 0.15328
# Poissons Ratio (z) = 0.14949 0.18505
#
# Static dielectric constant tensor:
#      x y z
#    x 3.593020 -0.275720 0.975890 
#    y -0.275720 4.141170 0.415580 
#    z 0.975890 0.415580 3.870490 
# 
# 
# High freq. dielectric constant tensor:
#      x y z
#    x 1.897460 0.003560 0.022680 
#    y 0.003560 1.927940 -0.007960 
#    z 0.022680 -0.007960 1.923200 
# 
# From -- ./inp_files/299130.got.cif
#   From: 2010.06.25/outbox.cif.g09.slc.cpg/sg2_150_cif.got.tgz:299130.got - 2010.06.27 13:26:56.
