data_PCOD8021756
_publ_section_title
;
Structure prediction by ZEFSAII (Michael W. Deem and Ramdas Pophale) SiO2 
 PCOD8021756
Probable space group: P -1
;
_chemical_formula_sum "Si O2"
_cell_formula_units_Z 16
_cell_length_a 10.041669
_cell_length_b 17.300586
_cell_length_c 8.635430
_cell_angle_alpha 70.987107
_cell_angle_beta 31.279357
_cell_angle_gamma 62.410381
_cell_volume 682.307776
_symmetry_space_group_name_H-M "P -1"
_symmetry_group_IT_number 2
_symmetry_cell_setting 'triclinic'
loop_
_space_group_symop_operation_xyz
x,y,z
-x,-y,-z
loop_
_atom_site_type_symbol
_atom_site_label
_atom_site_fract_x
_atom_site_fract_y
_atom_site_fract_z
Si Si1 0.848086 0.924209 0.547163
Si Si2 0.770955 0.974738 0.944061
Si Si3 0.850582 0.799115 0.140917
Si Si4 0.101828 0.524844 0.139904
Si Si5 0.270542 0.635735 0.690685
Si Si6 0.293440 0.581274 0.368726
Si Si7 0.610104 0.682594 0.569149
Si Si8 0.858387 0.254654 0.786846
O O1 0.824415 0.932558 0.749293
O O2 0.043713 0.824620 0.381156
O O3 0.993344 0.986086 0.284180
O O4 0.535700 0.950698 0.777303
O O5 0.785636 0.900207 0.102790
O O6 0.588388 0.768776 0.429526
O O7 0.956575 0.776322 0.225307
O O8 0.056742 0.736872 0.849177
O O9 0.926740 0.463160 0.350254
O O10 0.922324 0.616605 0.348599
O O11 0.146937 0.560114 0.901676
O O12 0.400159 0.480489 0.960602
O O13 0.377062 0.618772 0.420667
O O14 0.500244 0.623447 0.604061
O O15 0.129173 0.660153 0.365802
O O16 0.456791 0.718209 0.859712
#
# Coordination Sequence:
#
# PCOD8021756 Si02
#       8
#     2   2   2   2   2   2   2   2
#     4  10  24  45  72 103 133 163 220 275 324 392
#     4  10  23  46  73 102 130 171 214 271 332 386
#     4  10  24  43  68  95 140 179 217 262 333 397
#     4  11  24  43  67  98 130 171 229 279 334 384
#     4  10  22  44  67  99 130 172 225 282 328 390
#     4  12  26  40  71  96 129 176 225 283 328 382
#     4  10  24  45  64  96 137 177 221 270 327 399
#     4  11  27  45  62 101 137 177 221 266 330 398
#
# _framework density 23.449828
#
# number of rings (size 3 to 8) (size 9 to 14) (size 15 to 20)
#    0.000    1.500    1.250    1.500   10.500    2.000 
#    2.250    0.000    0.000    0.000    0.000    0.000 
#    0.000    0.000    0.000    0.000    0.000    0.000 
#
# Total GULP energy -198220.337827 kJ/mol
# GULP energy per Si atom -12388.771114 kJ/mol
# Density = 2.339646 g / cm^3
# Si number density = 23.449828 Si / 1000 Ang^3
#
#
#
# Elastic Constant Matrix: (Units=GPa)
#
#
# Indices 1 2 3 4 5 6 
#
# 1 56.4282 31.0553 42.1881 1.1317 -8.8238 -9.1101
# 2 31.0553 128.1078 58.5270 -15.3094 -2.1126 -19.4657
# 3 42.1881 58.5270 129.8064 -3.8434 -13.4550 -2.1528
# 4 1.1317 -15.3094 -3.8434 32.4305 1.9526 -2.7357
# 5 -8.8238 -2.1126 -13.4550 1.9526 26.1862 -8.3099
# 6 -9.1101 -19.4657 -2.1528 -2.7357 -8.3099 24.5060
#
#
#
# Elastic Compliance Matrix: (Units=1/GPa)
#
#
# Indices 1 2 3 4 5 6 
#
# 1 0.027137 -0.001911 -0.006912 -0.002304 0.009027 0.010767
# 2 -0.001911 0.012663 -0.004673 0.006284 0.000635 0.009854
# 3 -0.006912 -0.004673 0.012175 -0.001040 0.002170 -0.004592
# 4 -0.002304 0.006284 -0.001040 0.034455 -0.000974 0.007560
# 5 0.009027 0.000635 0.002170 -0.000974 0.048992 0.020555
# 6 0.010767 0.009854 -0.004592 0.007560 0.020555 0.060047
#
#
# Mechanical properties :
#
#
# Convention : Reuss Voigt Hill
#
# Bulk Modulus (GPa) = 40.02724 64.20924 52.11824
# Shear Modulus (GPa) = 21.66484 28.79601 25.23042
#
# Velocity S-wave (km/s) = 3.04284 3.50806 3.28370
# Velocity P-wave (km/s) = 5.42692 6.62191 6.05397
#
# Compressibility (1/GPa) = 0.02498299
#
# Stress axis : x y z
#
# Youngs Moduli (GPa) = 36.84974 78.97145 82.13408
#
# Poissons Ratio (x) = 0.15092 0.56772
# Poissons Ratio (y) = 0.07042 0.38381
# Poissons Ratio (z) = 0.25471 0.36903
#
# Static dielectric constant tensor:
#      x y z
#    x 3.913820 0.099730 -0.166640 
#    y 0.099730 4.263520 0.023550 
#    z -0.166640 0.023550 4.649760 
# 
# 
# High freq. dielectric constant tensor:
#      x y z
#    x 1.903260 0.002710 -0.007810 
#    y 0.002710 1.932300 -0.001870 
#    z -0.007810 -0.001870 1.942650 
# 
# From -- ./inp_files/279177.got.cif
#   From: 2010.06.25/outbox.cif.g09.slc.cpg/sg2_140_cif.got.tgz:279177.got - 2010.06.27 13:26:56.
