data_PCOD8021254
_publ_section_title
;
Structure prediction by ZEFSAII (Michael W. Deem and Ramdas Pophale) SiO2 
 PCOD8021254
Probable space group: P -1
;
_chemical_formula_sum "Si O2"
_cell_formula_units_Z 14
_cell_length_a 11.847454
_cell_length_b 14.261553
_cell_length_c 9.144532
_cell_angle_alpha 131.327411
_cell_angle_beta 98.698853
_cell_angle_gamma 120.220468
_cell_volume 668.455993
_symmetry_space_group_name_H-M "P -1"
_symmetry_group_IT_number 2
_symmetry_cell_setting 'triclinic'
loop_
_space_group_symop_operation_xyz
x,y,z
-x,-y,-z
loop_
_atom_site_type_symbol
_atom_site_label
_atom_site_fract_x
_atom_site_fract_y
_atom_site_fract_z
Si Si1 0.691052 0.335389 0.851391
Si Si2 0.129111 0.282278 0.533058
Si Si3 0.258464 0.899430 0.354934
Si Si4 0.378346 0.512909 0.542388
Si Si5 0.279827 0.055504 0.790001
Si Si6 0.155992 0.388112 0.090666
Si Si7 0.708943 0.711532 0.186038
O O1 0.756427 0.260193 0.851363
O O2 0.786040 0.440748 0.819480
O O3 0.458049 0.135829 0.575031
O O4 0.758414 0.500439 0.149848
O O5 0.223309 0.330534 0.446402
O O6 0.139698 0.171946 0.530367
O O7 0.896394 0.097811 0.284929
O O8 0.266226 0.913749 0.551076
O O9 0.080287 0.816649 0.158169
O O10 0.500000 0.500000 0.500000
O O11 0.253923 0.476213 0.359774
O O12 0.523074 0.745364 0.877152
O O13 0.267106 0.134866 0.727094
O O14 0.243888 0.344000 0.988657
O O15 0.500000 0.500000 0.000000
#
# Coordination Sequence:
#
# PCOD8021254 Si02
#       7
#     2   2   2   2   2   2   2
#     4  10  22  43  69  95 119 162 220 268 307 363
#     4  11  23  38  65  92 125 167 210 261 311 377
#     4  11  22  40  73  93 119 163 222 264 305 374
#     4  12  25  43  57  95 138 165 200 262 320 376
#     4  12  22  38  66  94 124 167 213 251 319 371
#     4  11  23  40  64  93 128 164 208 262 317 370
#     4  11  19  38  63  91 122 165 212 259 301 372
#
# _framework density 20.943788000000001
#
# number of rings (size 3 to 8) (size 9 to 14) (size 15 to 20)
#    0.000    0.857    7.143    1.714    0.000    1.714 
#    0.000    1.429    0.000    0.000    0.000    0.000 
#    0.000    0.000    0.000    0.000    0.000    0.000 
#
# Total GULP energy -173510.187233 kJ/mol
# GULP energy per Si atom -12393.584802 kJ/mol
# Density = 2.089612 g / cm^3
# Si number density = 20.943788 Si / 1000 Ang^3
#
#
#
# Elastic Constant Matrix: (Units=GPa)
#
#
# Indices 1 2 3 4 5 6 
#
# 1 79.2950 21.5665 34.9239 2.4684 6.5119 12.4553
# 2 21.5665 93.2610 33.9120 -2.1993 0.9253 16.9832
# 3 34.9239 33.9120 95.4225 -11.9291 26.9113 2.3217
# 4 2.4684 -2.1993 -11.9291 39.4682 3.4590 5.2468
# 5 6.5119 0.9253 26.9113 3.4590 28.1365 6.7295
# 6 12.4553 16.9832 2.3217 5.2468 6.7295 33.2871
#
#
#
# Elastic Compliance Matrix: (Units=1/GPa)
#
#
# Indices 1 2 3 4 5 6 
#
# 1 0.016746 0.000067 -0.007984 -0.003103 0.005671 -0.006400
# 2 0.000067 0.015103 -0.007976 -0.001216 0.009390 -0.008881
# 3 -0.007984 -0.007976 0.023720 0.008117 -0.023707 0.008916
# 4 -0.003103 -0.001216 0.008117 0.028986 -0.010263 -0.001279
# 5 0.005671 0.009390 -0.023707 -0.010263 0.061711 -0.016117
# 6 -0.006400 -0.008881 0.008916 -0.001279 -0.016117 0.039806
#
#
# Mechanical properties :
#
#
# Convention : Reuss Voigt Hill
#
# Bulk Modulus (GPa) = 42.04777 49.86480 45.95628
# Shear Modulus (GPa) = 22.14501 32.01678 27.08089
#
# Velocity S-wave (km/s) = 3.25523 3.91410 3.59977
# Velocity P-wave (km/s) = 5.85224 6.65488 6.26643
#
# Compressibility (1/GPa) = 0.02378247
#
# Stress axis : x y z
#
# Youngs Moduli (GPa) = 59.71728 66.21300 42.15840
#
# Poissons Ratio (x) = -0.00443 0.33659
# Poissons Ratio (y) = -0.00399 0.33625
# Poissons Ratio (z) = 0.47678 0.52811
#
# Static dielectric constant tensor:
#      x y z
#    x 3.954310 0.138230 0.083880 
#    y 0.138230 3.876440 0.137020 
#    z 0.083880 0.137020 3.771160 
# 
# 
# High freq. dielectric constant tensor:
#      x y z
#    x 1.823160 0.020550 0.007090 
#    y 0.020550 1.811640 0.021940 
#    z 0.007090 0.021940 1.814750 
# 
# From -- ./inp_files/199929.got.cif
#   From: 2010.06.25/outbox.cif.g09.slc.cpg/sg2_100_cif.got.tgz:199929.got - 2010.06.27 13:26:56.
