data_PCOD8021755
_publ_section_title
;
Structure prediction by ZEFSAII (Michael W. Deem and Ramdas Pophale) SiO2 
 PCOD8021755
Probable space group: P -1
;
_chemical_formula_sum "Si O2"
_cell_formula_units_Z 14
_cell_length_a 8.942308
_cell_length_b 18.622038
_cell_length_c 16.823386
_cell_angle_alpha 18.952166
_cell_angle_beta 137.817075
_cell_angle_gamma 130.104218
_cell_volume 589.999238
_symmetry_space_group_name_H-M "P -1"
_symmetry_group_IT_number 2
_symmetry_cell_setting 'triclinic'
loop_
_space_group_symop_operation_xyz
x,y,z
-x,-y,-z
loop_
_atom_site_type_symbol
_atom_site_label
_atom_site_fract_x
_atom_site_fract_y
_atom_site_fract_z
Si Si1 0.364256 0.946497 0.858246
Si Si2 0.609226 0.704157 0.348648
Si Si3 0.543596 0.183111 0.551253
Si Si4 0.485437 0.129305 0.275599
Si Si5 0.130976 0.591533 0.640158
Si Si6 0.887707 0.301419 0.304264
Si Si7 0.259586 0.499125 0.222871
O O1 0.559977 0.012001 0.811460
O O2 0.443217 0.925331 0.005466
O O3 0.356474 0.700270 0.080347
O O4 0.101474 0.086841 0.593854
O O5 0.500000 0.500000 0.500000
O O6 0.642769 0.713370 0.449293
O O7 0.858226 0.640948 0.470229
O O8 0.776003 0.262407 0.543157
O O9 0.351476 0.414677 0.259993
O O10 0.461370 0.066708 0.564590
O O11 0.675829 0.277213 0.191891
O O12 0.500000 0.000000 0.500000
O O13 0.242109 0.316011 0.968332
O O14 0.196840 0.687467 0.649672
O O15 0.980718 0.530165 0.082574
#
# Coordination Sequence:
#
# PCOD8021755 Si02
#       7
#     2   2   2   2   2   2   2
#     4  10  22  44  67  99 130 168 214 259 325 382
#     4   9  21  42  73  92 127 171 212 265 316 385
#     4  11  24  41  64  99 133 169 211 267 321 383
#     4  12  26  42  66  94 131 172 218 266 321 379
#     4  11  24  43  65  99 128 168 218 267 319 378
#     4  10  23  39  69  94 124 172 217 262 311 382
#     4   9  21  41  65  95 133 166 213 263 314 377
#
# _framework density 23.728846000000001
#
# number of rings (size 3 to 8) (size 9 to 14) (size 15 to 20)
#    0.000    1.714    1.429    1.286    6.000    8.000 
#    0.000   13.571    0.000    0.000    0.000    0.000 
#    0.000    0.000    0.000    0.000    0.000    0.000 
#
# Total GULP energy -173464.026984 kJ/mol
# GULP energy per Si atom -12390.287642 kJ/mol
# Density = 2.367484 g / cm^3
# Si number density = 23.728846 Si / 1000 Ang^3
#
#
#
# Elastic Constant Matrix: (Units=GPa)
#
#
# Indices 1 2 3 4 5 6 
#
# 1 156.3325 51.9428 18.4696 -7.9974 -5.2470 7.4432
# 2 51.9428 114.7619 0.2972 -4.7764 -3.5535 2.3190
# 3 18.4696 0.2972 73.6393 -3.6947 -1.8296 5.6902
# 4 -7.9974 -4.7764 -3.6947 28.3577 9.3768 4.2460
# 5 -5.2470 -3.5535 -1.8296 9.3768 33.3391 -4.7137
# 6 7.4432 2.3190 5.6902 4.2460 -4.7137 54.5926
#
#
#
# Elastic Compliance Matrix: (Units=1/GPa)
#
#
# Indices 1 2 3 4 5 6 
#
# 1 0.007891 -0.003482 -0.001822 0.001444 0.000247 -0.000829
# 2 -0.003482 0.010332 0.000886 0.000762 0.000376 -0.000083
# 3 -0.001822 0.000886 0.014227 0.001734 -0.000099 -0.001415
# 4 0.001444 0.000762 0.001734 0.040562 -0.011651 -0.004571
# 5 0.000247 0.000376 -0.000099 -0.011651 0.033881 0.003792
# 6 -0.000829 -0.000083 -0.001415 -0.004571 0.003792 0.019265
#
#
# Mechanical properties :
#
#
# Convention : Reuss Voigt Hill
#
# Bulk Modulus (GPa) = 42.35059 54.01699 48.18379
# Shear Modulus (GPa) = 34.99769 41.52615 38.26192
#
# Velocity S-wave (km/s) = 3.84461 4.18787 4.01991
# Velocity P-wave (km/s) = 6.13144 6.79692 6.47273
#
# Compressibility (1/GPa) = 0.02361242
#
# Stress axis : x y z
#
# Youngs Moduli (GPa) = 126.73456 96.78208 70.28842
#
# Poissons Ratio (x) = 0.33701 0.12809
# Poissons Ratio (y) = 0.44131 -0.06225
# Poissons Ratio (z) = 0.23096 -0.08572
#
# Static dielectric constant tensor:
#      x y z
#    x 4.472170 0.050450 -0.243930 
#    y 0.050450 4.583000 -0.228570 
#    z -0.243930 -0.228570 4.334690 
# 
# 
# High freq. dielectric constant tensor:
#      x y z
#    x 1.948600 0.000190 -0.011080 
#    y 0.000190 1.964290 -0.030400 
#    z -0.011080 -0.030400 1.928990 
# 
# From -- ./inp_files/562589.got.cif
#   From: 2010.06.25/outbox.cif.g09.slc.cpg/sg2_282_cif.got.tgz:562589.got - 2010.06.27 13:26:56.
