data_PCOD8021745
_publ_section_title
;
Structure prediction by ZEFSAII (Michael W. Deem and Ramdas Pophale) SiO2 
 PCOD8021745
Probable space group: P -1
;
_chemical_formula_sum "Si O2"
_cell_formula_units_Z 16
_cell_length_a 19.626681
_cell_length_b 11.242971
_cell_length_c 17.115024
_cell_angle_alpha 149.379460
_cell_angle_beta 156.998687
_cell_angle_gamma 30.996502
_cell_volume 710.373075
_symmetry_space_group_name_H-M "P -1"
_symmetry_group_IT_number 2
_symmetry_cell_setting 'triclinic'
loop_
_space_group_symop_operation_xyz
x,y,z
-x,-y,-z
loop_
_atom_site_type_symbol
_atom_site_label
_atom_site_fract_x
_atom_site_fract_y
_atom_site_fract_z
Si Si1 0.720774 0.213999 0.823385
Si Si2 0.565573 0.911160 0.933766
Si Si3 0.433607 0.426092 0.003894
Si Si4 0.908584 0.666246 0.706489
Si Si5 0.289318 0.379195 0.675490
Si Si6 0.408086 0.811428 0.494404
Si Si7 0.995431 0.762205 0.314456
Si Si8 0.295008 0.658224 0.440977
O O1 0.581311 0.379531 0.832721
O O2 0.648597 0.287667 0.702139
O O3 0.751933 0.925097 0.709537
O O4 0.899161 0.291148 0.067659
O O5 0.461884 0.721988 0.694473
O O6 0.494555 0.145962 0.936569
O O7 0.500000 0.000000 0.000000
O O8 0.786068 0.778070 0.085293
O O9 0.601139 0.449604 0.144472
O O10 0.253611 0.468652 0.779914
O O11 0.883696 0.580381 0.542632
O O12 0.900263 0.469320 0.651291
O O13 0.408274 0.088800 0.640947
O O14 0.262022 0.787116 0.393346
O O15 0.617096 0.641387 0.642930
O O16 0.105779 0.738896 0.336028
O O17 0.000000 0.000000 0.500000
#
# Coordination Sequence:
#
# PCOD8021745 Si02
#       8
#     2   2   2   2   2   2   2   2
#     4  10  23  42  71  91 133 177 225 280 341 405
#     4  12  23  43  69 100 142 175 225 284 338 411
#     4  11  23  42  67 101 125 184 223 277 345 399
#     4  10  23  43  62 103 130 171 224 279 337 405
#     4  10  23  41  68  95 135 169 230 282 334 407
#     4  10  22  44  67  97 136 184 225 279 346 402
#     4  12  25  40  69 107 137 180 228 278 344 414
#     4  11  24  42  69  98 138 186 224 281 343 410
#
# _framework density 22.523377
#
# number of rings (size 3 to 8) (size 9 to 14) (size 15 to 20)
#    0.000    1.250    2.500    3.000    3.500    1.500 
#    0.000   15.625    0.000    0.000    0.000    0.000 
#    0.000    0.000    0.000    0.000    0.000    0.000 
#
# Total GULP energy -198268.941756 kJ/mol
# GULP energy per Si atom -12391.808860 kJ/mol
# Density = 2.247211 g / cm^3
# Si number density = 22.523377 Si / 1000 Ang^3
#
#
#
# Elastic Constant Matrix: (Units=GPa)
#
#
# Indices 1 2 3 4 5 6 
#
# 1 141.2653 40.7997 28.5689 -7.0767 -12.9356 4.1715
# 2 40.7997 72.8965 -2.2493 2.6781 10.3713 17.6773
# 3 28.5689 -2.2493 77.6140 -2.6293 -14.5086 3.6852
# 4 -7.0767 2.6781 -2.6293 28.1196 1.4569 5.2048
# 5 -12.9356 10.3713 -14.5086 1.4569 44.2098 -4.7248
# 6 4.1715 17.6773 3.6852 5.2048 -4.7248 39.2578
#
#
#
# Elastic Compliance Matrix: (Units=1/GPa)
#
#
# Indices 1 2 3 4 5 6 
#
# 1 0.010147 -0.007010 -0.003285 0.002251 0.003733 0.002537
# 2 -0.007010 0.021141 0.002248 -0.001401 -0.007261 -0.009674
# 3 -0.003285 0.002248 0.014853 0.000505 0.003183 -0.001741
# 4 0.002251 -0.001401 0.000505 0.037201 -0.000570 -0.004657
# 5 0.003733 -0.007261 0.003183 -0.000570 0.027110 0.005912
# 6 0.002537 -0.009674 -0.001741 -0.004657 0.005912 0.031051
#
#
# Mechanical properties :
#
#
# Convention : Reuss Voigt Hill
#
# Bulk Modulus (GPa) = 33.28033 47.33495 40.30764
# Shear Modulus (GPa) = 29.83033 37.29453 33.56243
#
# Velocity S-wave (km/s) = 3.64320 4.07358 3.86439
# Velocity P-wave (km/s) = 5.70133 6.57168 6.15192
#
# Compressibility (1/GPa) = 0.03004778
#
# Stress axis : x y z
#
# Youngs Moduli (GPa) = 98.54782 47.30113 67.32471
#
# Poissons Ratio (x) = 0.33157 0.22115
# Poissons Ratio (y) = 0.69080 -0.15131
# Poissons Ratio (z) = 0.32371 -0.10631
#
# Static dielectric constant tensor:
#      x y z
#    x 4.570960 0.136060 -0.641130 
#    y 0.136060 4.229650 0.192430 
#    z -0.641130 0.192430 4.427760 
# 
# 
# High freq. dielectric constant tensor:
#      x y z
#    x 1.896050 0.020900 -0.021290 
#    y 0.020900 1.890650 0.018080 
#    z -0.021290 0.018080 1.887030 
# 
# From -- ./inp_files/578049.got.cif
#   From: 2010.06.25/outbox.cif.g09.slc.cpg/sg2_290_cif.got.tgz:578049.got - 2010.06.27 13:26:56.
