data_PCOD8021730
_publ_section_title
;
Structure prediction by ZEFSAII (Michael W. Deem and Ramdas Pophale) SiO2 
 PCOD8021730
Probable space group: P -1
;
_chemical_formula_sum "Si O2"
_cell_formula_units_Z 14
_cell_length_a 8.213337
_cell_length_b 12.517384
_cell_length_c 16.474683
_cell_angle_alpha 156.364111
_cell_angle_beta 108.111762
_cell_angle_gamma 77.078860
_cell_volume 637.044632
_symmetry_space_group_name_H-M "P -1"
_symmetry_group_IT_number 2
_symmetry_cell_setting 'triclinic'
loop_
_space_group_symop_operation_xyz
x,y,z
-x,-y,-z
loop_
_atom_site_type_symbol
_atom_site_label
_atom_site_fract_x
_atom_site_fract_y
_atom_site_fract_z
Si Si1 0.138691 0.228220 0.721664
Si Si2 0.359997 0.298632 0.067112
Si Si3 0.207768 0.811374 0.140648
Si Si4 0.486412 0.738993 0.263840
Si Si5 0.306033 0.521083 0.388324
Si Si6 0.905769 0.049018 0.314221
Si Si7 0.391263 0.071196 0.198731
O O1 0.318792 0.297613 0.750597
O O2 0.176423 0.129734 0.747872
O O3 0.075298 0.522214 0.917972
O O4 0.000000 0.000000 0.500000
O O5 0.189475 0.077102 0.869911
O O6 0.522506 0.136801 0.988249
O O7 0.390392 0.491820 0.128768
O O8 0.333818 0.466584 0.260159
O O9 0.381219 0.772297 0.188432
O O10 0.110278 0.033312 0.325330
O O11 0.251206 0.908513 0.123867
O O12 0.500000 0.000000 0.500000
O O13 0.291238 0.246014 0.245109
O O14 0.466792 0.740520 0.594299
O O15 0.128534 0.644597 0.462384
#
# Coordination Sequence:
#
# PCOD8021730 Si02
#       7
#     2   2   2   2   2   2   2
#     4  12  25  41  66  98 137 175 217 273 336 390
#     4  11  21  42  67  96 131 172 223 271 330 387
#     4  12  24  43  65  99 138 174 216 272 330 398
#     4  12  23  39  66 100 130 174 218 267 333 402
#     4  10  23  42  69  95 129 176 225 270 329 385
#     4  11  25  40  63  97 136 172 219 273 324 393
#     4  10  22  44  67  96 129 174 226 275 320 394
#
# _framework density 21.976481
#
# number of rings (size 3 to 8) (size 9 to 14) (size 15 to 20)
#    0.000    0.857    2.857    5.571    4.000    0.571 
#    0.000    0.714    0.000    0.000    0.000    0.000 
#    0.000    0.000    0.000    0.000    0.000    0.000 
#
# Total GULP energy -173612.002260 kJ/mol
# GULP energy per Si atom -12400.857304 kJ/mol
# Density = 2.192646 g / cm^3
# Si number density = 21.976481 Si / 1000 Ang^3
#
#
#
# Elastic Constant Matrix: (Units=GPa)
#
#
# Indices 1 2 3 4 5 6 
#
# 1 105.9872 47.0872 42.7586 1.6591 -25.1646 -15.0326
# 2 47.0872 106.3421 17.6163 13.6807 -5.5975 -4.0458
# 3 42.7586 17.6163 98.4976 -1.7828 -14.4298 -4.1551
# 4 1.6591 13.6807 -1.7828 36.7518 -1.8007 -12.0495
# 5 -25.1646 -5.5975 -14.4298 -1.8007 37.7159 7.4391
# 6 -15.0326 -4.0458 -4.1551 -12.0495 7.4391 24.3796
#
#
#
# Elastic Compliance Matrix: (Units=1/GPa)
#
#
# Indices 1 2 3 4 5 6 
#
# 1 0.017234 -0.006739 -0.004768 0.004756 0.007153 0.008863
# 2 -0.006739 0.012885 0.000035 -0.006024 -0.001994 -0.004380
# 3 -0.004768 0.000035 0.012447 0.000532 0.001830 -0.001108
# 4 0.004756 -0.006024 0.000532 0.035694 0.000328 0.019565
# 5 0.007153 -0.001994 0.001830 0.000328 0.032781 -0.005449
# 6 0.008863 -0.004380 -0.001108 0.019565 -0.005449 0.056900
#
#
# Mechanical properties :
#
#
# Convention : Reuss Voigt Hill
#
# Bulk Modulus (GPa) = 50.96432 58.41681 54.69056
# Shear Modulus (GPa) = 25.32593 33.32711 29.32652
#
# Velocity S-wave (km/s) = 3.39840 3.89844 3.65698
# Velocity P-wave (km/s) = 6.21607 6.84857 6.53997
#
# Compressibility (1/GPa) = 0.01962157
#
# Stress axis : x y z
#
# Youngs Moduli (GPa) = 58.02568 77.60816 80.33971
#
# Poissons Ratio (x) = 0.52301 0.38307
# Poissons Ratio (y) = 0.39104 -0.00281
# Poissons Ratio (z) = 0.27667 -0.00272
#
# Static dielectric constant tensor:
#      x y z
#    x 3.925730 -0.225020 -0.288440 
#    y -0.225020 4.004320 0.169460 
#    z -0.288440 0.169460 4.146990 
# 
# 
# High freq. dielectric constant tensor:
#      x y z
#    x 1.860490 -0.004970 -0.023860 
#    y -0.004970 1.861680 0.005100 
#    z -0.023860 0.005100 1.870630 
# 
# From -- ./inp_files/501266.got.cif
#   From: 2010.06.25/outbox.cif.g09.slc.cpg/sg2_251_cif.got.tgz:501266.got - 2010.06.27 13:26:56.
