data_PCOD8021105
_publ_section_title
;
Structure prediction by ZEFSAII (Michael W. Deem and Ramdas Pophale) SiO2 
 PCOD8021105
Probable space group: P -1
;
_chemical_formula_sum "Si O2"
_cell_formula_units_Z 16
_cell_length_a 8.555771
_cell_length_b 16.717077
_cell_length_c 10.866327
_cell_angle_alpha 62.550703
_cell_angle_beta 53.397704
_cell_angle_gamma 33.552044
_cell_volume 687.323247
_symmetry_space_group_name_H-M "P -1"
_symmetry_group_IT_number 2
_symmetry_cell_setting 'triclinic'
loop_
_space_group_symop_operation_xyz
x,y,z
-x,-y,-z
loop_
_atom_site_type_symbol
_atom_site_label
_atom_site_fract_x
_atom_site_fract_y
_atom_site_fract_z
Si Si1 0.124411 0.970134 0.293189
Si Si2 0.809957 0.414447 0.988816
Si Si3 0.855373 0.393474 0.270122
Si Si4 0.971722 0.921454 0.993639
Si Si5 0.595285 0.318187 0.567270
Si Si6 0.303602 0.156447 0.768681
Si Si7 0.406078 0.268835 0.475527
Si Si8 0.317607 0.350016 0.189622
O O1 0.218226 0.830360 0.347414
O O2 0.331204 0.952622 0.304473
O O3 0.765766 0.110117 0.398880
O O4 0.198229 0.989744 0.114995
O O5 0.776120 0.408163 0.153908
O O6 0.500000 0.500000 0.000000
O O7 0.885059 0.491861 0.873972
O O8 0.106214 0.251344 0.916528
O O9 0.835184 0.304379 0.409084
O O10 0.623082 0.552579 0.323313
O O11 0.207597 0.303366 0.193869
O O12 0.761907 0.925403 0.165630
O O13 0.319566 0.756812 0.924430
O O14 0.000000 0.000000 0.000000
O O15 0.387159 0.353791 0.527366
O O16 0.208326 0.252796 0.627420
O O17 0.247755 0.359088 0.360320
#
# Coordination Sequence:
#
# PCOD8021105 Si02
#       8
#     2   2   2   2   2   2   2   2
#     4  10  23  43  69  95 131 175 224 268 320 401
#     4  12  25  43  69  95 133 174 223 276 323 396
#     4  11  26  40  68 100 134 172 218 279 332 391
#     4  11  26  40  62 100 135 170 214 275 329 392
#     4  10  22  43  67  99 130 176 221 274 332 383
#     4  11  23  43  69  96 127 181 220 269 330 385
#     4  10  23  44  70  97 134 174 228 266 323 404
#     4  11  24  43  63  99 135 175 217 270 331 387
#
# _framework density 23.278713
#
# number of rings (size 3 to 8) (size 9 to 14) (size 15 to 20)
#    0.000    1.250    1.250    4.500    5.250    7.000 
#    0.000    2.500    0.000    0.000    0.000    0.000 
#    0.000    0.000    0.000    0.000    0.000    0.000 
#
# Total GULP energy -198399.984025 kJ/mol
# GULP energy per Si atom -12399.999002 kJ/mol
# Density = 2.322573 g / cm^3
# Si number density = 23.278713 Si / 1000 Ang^3
#
#
#
# Elastic Constant Matrix: (Units=GPa)
#
#
# Indices 1 2 3 4 5 6 
#
# 1 76.6261 6.2409 25.4060 -15.0190 -17.0594 5.6155
# 2 6.2409 69.3848 12.7665 -10.8512 -11.7073 7.4984
# 3 25.4060 12.7665 113.0243 -22.8699 -18.6490 6.8636
# 4 -15.0190 -10.8512 -22.8699 26.6125 17.2369 -1.4738
# 5 -17.0594 -11.7073 -18.6490 17.2369 50.1027 -8.8521
# 6 5.6155 7.4984 6.8636 -1.4738 -8.8521 36.6441
#
#
#
# Elastic Compliance Matrix: (Units=1/GPa)
#
#
# Indices 1 2 3 4 5 6 
#
# 1 0.015377 0.000386 -0.001895 0.005518 0.002501 -0.001255
# 2 0.000386 0.015799 -0.000417 0.005254 0.001389 -0.002667
# 3 -0.001895 -0.000417 0.011073 0.007930 0.000425 -0.001277
# 4 0.005518 0.005254 0.007930 0.059189 -0.015132 -0.004681
# 5 0.002501 0.001389 0.000425 -0.015132 0.027430 0.005271
# 6 -0.001255 -0.002667 -0.001277 -0.004681 0.005271 0.029352
#
#
# Mechanical properties :
#
#
# Convention : Reuss Voigt Hill
#
# Bulk Modulus (GPa) = 26.04333 38.65132 32.34733
# Shear Modulus (GPa) = 28.59248 36.97999 32.78623
#
# Velocity S-wave (km/s) = 3.50847 3.99002 3.75697
# Velocity P-wave (km/s) = 5.25589 6.15360 5.72237
#
# Compressibility (1/GPa) = 0.03839754
#
# Stress axis : x y z
#
# Youngs Moduli (GPa) = 65.03029 63.29644 90.30960
#
# Poissons Ratio (x) = -0.02443 0.17112
# Poissons Ratio (y) = -0.02510 0.03766
# Poissons Ratio (z) = 0.12322 0.02640
#
# Static dielectric constant tensor:
#      x y z
#    x 4.193120 0.139910 -0.201220 
#    y 0.139910 3.945070 0.187460 
#    z -0.201220 0.187460 4.487860 
# 
# 
# High freq. dielectric constant tensor:
#      x y z
#    x 1.913750 0.005760 -0.010310 
#    y 0.005760 1.917270 -0.009540 
#    z -0.010310 -0.009540 1.938160 
# 
# From -- ./inp_files/403074.got.cif
#   From: 2010.06.25/outbox.cif.g09.slc.cpg/sg2_202_cif.got.tgz:403074.got - 2010.06.27 13:26:56.
