data_PCOD8021711
_publ_section_title
;
Structure prediction by ZEFSAII (Michael W. Deem and Ramdas Pophale) SiO2 
 PCOD8021711
Probable space group: P -1
;
_chemical_formula_sum "Si O2"
_cell_formula_units_Z 14
_cell_length_a 18.145710
_cell_length_b 9.580312
_cell_length_c 22.313228
_cell_angle_alpha 142.302397
_cell_angle_beta 17.580392
_cell_angle_gamma 132.703246
_cell_volume 652.812208
_symmetry_space_group_name_H-M "P -1"
_symmetry_group_IT_number 2
_symmetry_cell_setting 'triclinic'
loop_
_space_group_symop_operation_xyz
x,y,z
-x,-y,-z
loop_
_atom_site_type_symbol
_atom_site_label
_atom_site_fract_x
_atom_site_fract_y
_atom_site_fract_z
Si Si1 0.225874 0.079244 0.203410
Si Si2 0.804638 0.175402 0.141629
Si Si3 0.069085 0.375376 0.182824
Si Si4 0.580663 0.468160 0.524592
Si Si5 0.302920 0.275746 0.763912
Si Si6 0.600479 0.474614 0.110963
Si Si7 0.008891 0.439100 0.389725
O O1 0.990321 0.295676 0.498176
O O2 0.216252 0.204443 0.187821
O O3 0.500000 0.000000 0.000000
O O4 0.201733 0.815114 0.124493
O O5 0.748203 0.208843 0.268728
O O6 0.528455 0.317813 0.368154
O O7 0.002293 0.301957 0.010676
O O8 0.909735 0.893023 0.944325
O O9 0.769882 0.545930 0.448484
O O10 0.098213 0.394252 0.237151
O O11 0.291279 0.452480 0.008696
O O12 0.337047 0.454217 0.746709
O O13 0.391877 0.343792 0.781207
O O14 0.500000 0.000000 0.500000
O O15 0.293784 0.530663 0.355538
#
# Coordination Sequence:
#
# PCOD8021711 Si02
#       7
#     2   2   2   2   2   2   2
#     4   9  22  45  68  90 123 156 200 259 315 381
#     4  11  24  39  57  90 131 168 214 253 302 360
#     4  12  23  39  64  93 126 164 208 257 304 368
#     4  11  23  39  58  87 128 171 210 256 300 357
#     4  12  21  39  62  86 126 172 211 253 304 357
#     4  11  23  39  64  94 124 160 209 255 307 371
#     4  10  22  44  67  91 121 160 200 258 322 366
#
# _framework density 21.445675999999999
#
# number of rings (size 3 to 8) (size 9 to 14) (size 15 to 20)
#    0.000    1.143    4.286    1.714    2.000    1.714 
#    2.571    6.429    0.000    0.000    0.000    0.000 
#    0.000    0.000    0.000    0.000    0.000    0.000 
#
# Total GULP energy -173536.655912 kJ/mol
# GULP energy per Si atom -12395.475422 kJ/mol
# Density = 2.139687 g / cm^3
# Si number density = 21.445676 Si / 1000 Ang^3
#
#
#
# Elastic Constant Matrix: (Units=GPa)
#
#
# Indices 1 2 3 4 5 6 
#
# 1 150.4182 37.6607 51.7655 16.2119 23.7575 -23.5673
# 2 37.6607 82.0485 42.0130 -6.7090 15.4734 -7.9996
# 3 51.7655 42.0130 76.5206 -8.9827 12.1572 -8.3588
# 4 16.2119 -6.7090 -8.9827 32.9516 -6.6978 11.9155
# 5 23.7575 15.4734 12.1572 -6.6978 35.4165 -5.2116
# 6 -23.5673 -7.9996 -8.3588 11.9155 -5.2116 30.6045
#
#
#
# Elastic Compliance Matrix: (Units=1/GPa)
#
#
# Indices 1 2 3 4 5 6 
#
# 1 0.015297 -0.000905 -0.009026 -0.016955 -0.007864 0.014340
# 2 -0.000905 0.017763 -0.008336 0.000711 -0.004054 0.000702
# 3 -0.009026 -0.008336 0.024005 0.012350 0.002775 -0.006909
# 4 -0.016955 0.000711 0.012350 0.055262 0.013037 -0.028793
# 5 -0.007864 -0.004054 0.002775 0.013037 0.036015 -0.005300
# 6 0.014340 0.000702 -0.006909 -0.028793 -0.005300 0.052322
#
#
# Mechanical properties :
#
#
# Convention : Reuss Voigt Hill
#
# Bulk Modulus (GPa) = 48.70589 63.54062 56.12326
# Shear Modulus (GPa) = 20.48824 31.63105 26.05965
#
# Velocity S-wave (km/s) = 3.09424 3.84466 3.48968
# Velocity P-wave (km/s) = 5.96040 7.02862 6.51643
#
# Compressibility (1/GPa) = 0.02053140
#
# Stress axis : x y z
#
# Youngs Moduli (GPa) = 65.37177 56.29677 41.65734
#
# Poissons Ratio (x) = 0.05094 0.37600
# Poissons Ratio (y) = 0.05915 0.34726
# Poissons Ratio (z) = 0.59005 0.46930
#
# Static dielectric constant tensor:
#      x y z
#    x 4.091660 0.021090 0.080170 
#    y 0.021090 4.088290 0.129350 
#    z 0.080170 0.129350 4.038120 
# 
# 
# High freq. dielectric constant tensor:
#      x y z
#    x 1.860840 -0.005270 0.004060 
#    y -0.005270 1.827720 0.010350 
#    z 0.004060 0.010350 1.837260 
# 
# From -- ./inp_files/337431.got.cif
#   From: 2010.06.25/outbox.cif.g09.slc.cpg/sg2_169_cif.got.tgz:337431.got - 2010.06.27 13:26:56.
