data_PCOD8021919
_publ_section_title
;
Structure prediction by ZEFSAII (Michael W. Deem and Ramdas Pophale) SiO2 
 PCOD8021919
Probable space group: P -1
;
_chemical_formula_sum "Si O2"
_cell_formula_units_Z 16
_cell_length_a 12.024684
_cell_length_b 14.690499
_cell_length_c 5.583949
_cell_angle_alpha 61.480302
_cell_angle_beta 88.308579
_cell_angle_gamma 56.013995
_cell_volume 679.430069
_symmetry_space_group_name_H-M "P -1"
_symmetry_group_IT_number 2
_symmetry_cell_setting 'triclinic'
loop_
_space_group_symop_operation_xyz
x,y,z
-x,-y,-z
loop_
_atom_site_type_symbol
_atom_site_label
_atom_site_fract_x
_atom_site_fract_y
_atom_site_fract_z
Si Si1 0.290508 0.811982 0.972802
Si Si2 0.461799 0.406079 0.058461
Si Si3 0.080358 0.249066 0.480086
Si Si4 0.782942 0.965319 0.623041
Si Si5 0.820514 0.534255 0.046169
Si Si6 0.971666 0.133015 0.913121
Si Si7 0.243669 0.312167 0.645069
Si Si8 0.549272 0.171106 0.678180
O O1 0.189414 0.773607 0.095498
O O2 0.318201 0.878984 0.096213
O O3 0.444050 0.678041 0.069995
O O4 0.212678 0.922625 0.634286
O O5 0.498973 0.307933 0.395045
O O6 0.500000 0.500000 0.000000
O O7 0.296859 0.488840 0.896871
O O8 0.200054 0.142731 0.418101
O O9 0.164800 0.246567 0.709253
O O10 0.977344 0.395873 0.189836
O O11 0.981987 0.206956 0.599828
O O12 0.625030 0.046226 0.648786
O O13 0.918701 0.885631 0.882239
O O14 0.809424 0.605243 0.208410
O O15 0.795324 0.610911 0.704714
O O16 0.000000 0.000000 0.000000
O O17 0.414358 0.198009 0.786542
#
# Coordination Sequence:
#
# PCOD8021919 Si02
#       8
#     2   2   2   2   2   2   2   2
#     4  11  22  43  66  94 143 179 227 292 356 421
#     4  10  24  39  67 104 135 183 234 291 356 425
#     4  12  28  42  73 102 137 190 236 290 356 427
#     4  11  24  42  66 104 133 184 233 283 365 416
#     4  11  26  48  73 106 145 188 236 297 355 416
#     4  12  25  41  65 101 140 178 227 290 354 427
#     4  11  26  51  73 103 144 187 244 295 350 418
#     4  10  22  44  70  94 141 183 228 297 353 414
#
# _framework density 23.549150000000001
#
# number of rings (size 3 to 8) (size 9 to 14) (size 15 to 20)
#    0.000    1.000    3.750    1.125    7.000    2.000 
#    0.000    2.500    0.000    0.000    0.000    0.000 
#    0.000    0.000    0.000    0.000    0.000    0.000 
#
# Total GULP energy -198312.076511 kJ/mol
# GULP energy per Si atom -12394.504782 kJ/mol
# Density = 2.349555 g / cm^3
# Si number density = 23.549150 Si / 1000 Ang^3
#
#
#
# Elastic Constant Matrix: (Units=GPa)
#
#
# Indices 1 2 3 4 5 6 
#
# 1 107.1713 32.2104 8.5910 -6.7119 3.6273 0.6939
# 2 32.2104 137.9131 20.9884 8.4145 0.4947 -2.9571
# 3 8.5910 20.9884 57.0152 14.5336 6.3246 -2.1904
# 4 -6.7119 8.4145 14.5336 26.5839 -3.8355 6.9109
# 5 3.6273 0.4947 6.3246 -3.8355 31.7553 2.9061
# 6 0.6939 -2.9571 -2.1904 6.9109 2.9061 43.9561
#
#
#
# Elastic Compliance Matrix: (Units=1/GPa)
#
#
# Indices 1 2 3 4 5 6 
#
# 1 0.010544 -0.002486 -0.001931 0.004798 -0.000094 -0.001178
# 2 -0.002486 0.008307 -0.002088 -0.002304 0.000215 0.000842
# 3 -0.001931 -0.002088 0.023115 -0.014359 -0.006426 0.003724
# 4 0.004798 -0.002304 -0.014359 0.051270 0.009422 -0.009630
# 5 -0.000094 0.000215 -0.006426 0.009422 0.034287 -0.004052
# 6 -0.001178 0.000842 0.003724 -0.009630 -0.004052 0.024793
#
#
# Mechanical properties :
#
#
# Convention : Reuss Voigt Hill
#
# Bulk Modulus (GPa) = 34.53584 47.29767 40.91676
# Shear Modulus (GPa) = 28.57489 36.47972 32.52731
#
# Velocity S-wave (km/s) = 3.48719 3.94012 3.72055
# Velocity P-wave (km/s) = 5.55979 6.38965 5.98911
#
# Compressibility (1/GPa) = 0.02895542
#
# Stress axis : x y z
#
# Youngs Moduli (GPa) = 94.83849 120.37735 43.26227
#
# Poissons Ratio (x) = 0.29931 0.08356
# Poissons Ratio (y) = 0.23581 0.09032
# Poissons Ratio (z) = 0.18317 0.25131
#
# Static dielectric constant tensor:
#      x y z
#    x 4.694060 -0.245910 -0.002220 
#    y -0.245910 4.474890 0.176400 
#    z -0.002220 0.176400 4.135920 
# 
# 
# High freq. dielectric constant tensor:
#      x y z
#    x 1.943670 -0.012940 0.004410 
#    y -0.012940 1.934630 0.007220 
#    z 0.004410 0.007220 1.923810 
# 
# From -- ./inp_files/70380.got.cif
#   From: 2010.06.25/outbox.cif.g09.slc.cpg/sg2_36_cif.got.tgz:70380.got - 2010.06.27 13:26:56.
