data_PCOD8021736
_publ_section_title
;
Structure prediction by ZEFSAII (Michael W. Deem and Ramdas Pophale) SiO2 
 PCOD8021736
Probable space group: P -1
;
_chemical_formula_sum "Si O2"
_cell_formula_units_Z 12
_cell_length_a 10.838977
_cell_length_b 8.567991
_cell_length_c 14.093430
_cell_angle_alpha 56.317019
_cell_angle_beta 146.369262
_cell_angle_gamma 133.245051
_cell_volume 527.617830
_symmetry_space_group_name_H-M "P -1"
_symmetry_group_IT_number 2
_symmetry_cell_setting 'triclinic'
loop_
_space_group_symop_operation_xyz
x,y,z
-x,-y,-z
loop_
_atom_site_type_symbol
_atom_site_label
_atom_site_fract_x
_atom_site_fract_y
_atom_site_fract_z
Si Si1 0.400014 0.100401 0.223856
Si Si2 0.092035 0.300003 0.891270
Si Si3 0.905061 0.986603 0.338866
Si Si4 0.078900 0.710571 0.421953
Si Si5 0.607135 0.207666 0.829287
Si Si6 0.043476 0.399922 0.179971
O O1 0.613110 0.179742 0.416414
O O2 0.144743 0.934097 0.167620
O O3 0.487604 0.995539 0.231861
O O4 0.350807 0.286498 0.082341
O O5 0.060902 0.362540 0.743660
O O6 0.090472 0.472897 0.903403
O O7 0.597707 0.856360 0.195366
O O8 0.986736 0.862191 0.360609
O O9 0.044502 0.234248 0.312157
O O10 0.000000 0.000000 0.500000
O O11 0.000000 0.500000 0.500000
O O12 0.673469 0.424942 0.736825
O O13 0.874360 0.257864 0.031332
#
# Coordination Sequence:
#
# PCOD8021736 Si02
#       6
#     2   2   2   2   2   2
#     4  10  22  45  68  94 131 170 219 268 323 387
#     4  10  23  43  69  96 129 172 215 270 326 387
#     4  12  24  43  64  95 134 169 216 272 321 388
#     4  12  26  43  63  98 133 171 216 266 330 390
#     4  10  22  44  67  97 127 168 224 264 324 389
#     4  10  23  43  70  97 125 173 217 270 328 382
#
# _framework density 22.743735000000001
#
# number of rings (size 3 to 8) (size 9 to 14) (size 15 to 20)
#    0.000    1.333    1.667    3.000    2.333    2.667 
#    3.000    0.000    0.000    0.000    0.000    0.000 
#    0.000    0.000    0.000    0.000    0.000    0.000 
#
# Total GULP energy -148735.554919 kJ/mol
# GULP energy per Si atom -12394.629577 kJ/mol
# Density = 2.269197 g / cm^3
# Si number density = 22.743735 Si / 1000 Ang^3
#
#
#
# Elastic Constant Matrix: (Units=GPa)
#
#
# Indices 1 2 3 4 5 6 
#
# 1 68.6083 18.0998 21.3695 -11.1318 -0.0227 12.9289
# 2 18.0998 109.1399 18.7317 -28.5712 6.0298 13.9010
# 3 21.3695 18.7317 70.9210 -16.3616 -3.2640 9.2402
# 4 -11.1318 -28.5712 -16.3616 37.9407 4.8930 -9.9040
# 5 -0.0227 6.0298 -3.2640 4.8930 42.4942 -1.0821
# 6 12.9289 13.9010 9.2402 -9.9040 -1.0821 30.2089
#
#
#
# Elastic Compliance Matrix: (Units=1/GPa)
#
#
# Indices 1 2 3 4 5 6 
#
# 1 0.017307 -0.001197 -0.003966 0.001137 -0.000391 -0.005284
# 2 -0.001197 0.012073 -0.000778 0.008182 -0.002772 -0.002222
# 3 -0.003966 -0.000778 0.016890 0.005061 0.000787 -0.001423
# 4 0.001137 0.008182 0.005061 0.037300 -0.004907 0.006253
# 5 -0.000391 -0.002772 0.000787 -0.004907 0.024563 0.000473
# 6 -0.005284 -0.002222 -0.001423 0.006253 0.000473 0.038889
#
#
# Mechanical properties :
#
#
# Convention : Reuss Voigt Hill
#
# Bulk Modulus (GPa) = 29.08104 40.56347 34.82226
# Shear Modulus (GPa) = 29.34850 34.82665 32.08758
#
# Velocity S-wave (km/s) = 3.59611 3.91738 3.76018
# Velocity P-wave (km/s) = 5.48241 6.19152 5.84772
#
# Compressibility (1/GPa) = 0.03438666
#
# Stress axis : x y z
#
# Youngs Moduli (GPa) = 57.78103 82.83097 59.20690
#
# Poissons Ratio (x) = 0.09916 0.23480
# Poissons Ratio (y) = 0.06917 0.04609
# Poissons Ratio (z) = 0.22914 0.06448
#
# Static dielectric constant tensor:
#      x y z
#    x 4.599720 0.477220 0.345470 
#    y 0.477220 4.461100 0.286970 
#    z 0.345470 0.286970 4.917460 
# 
# 
# High freq. dielectric constant tensor:
#      x y z
#    x 1.894020 0.005350 -0.009020 
#    y 0.005350 1.906010 0.001140 
#    z -0.009020 0.001140 1.897060 
# 
# From -- ./inp_files/150331.got.cif
#   From: 2010.06.25/outbox.cif.g09.slc.cpg/sg2_76_cif.got.tgz:150331.got - 2010.06.27 13:26:56.
