data_PCOD8021051
_publ_section_title
;
Structure prediction by ZEFSAII (Michael W. Deem and Ramdas Pophale) SiO2 
 PCOD8021051
Probable space group: P -1
;
_chemical_formula_sum "Si O2"
_cell_formula_units_Z 16
_cell_length_a 14.887938
_cell_length_b 18.576978
_cell_length_c 12.191587
_cell_angle_alpha 132.762255
_cell_angle_beta 28.491733
_cell_angle_gamma 149.443604
_cell_volume 774.424283
_symmetry_space_group_name_H-M "P -1"
_symmetry_group_IT_number 2
_symmetry_cell_setting 'triclinic'
loop_
_space_group_symop_operation_xyz
x,y,z
-x,-y,-z
loop_
_atom_site_type_symbol
_atom_site_label
_atom_site_fract_x
_atom_site_fract_y
_atom_site_fract_z
Si Si1 0.596763 0.741210 0.898482
Si Si2 0.238237 0.824648 0.083203
Si Si3 0.207887 0.936821 0.715835
Si Si4 0.893701 0.946075 0.232708
Si Si5 0.048228 0.627045 0.292407
Si Si6 0.361602 0.341553 0.460222
Si Si7 0.385897 0.693603 0.666170
Si Si8 0.275787 0.368817 0.188530
O O1 0.596619 0.668307 0.721077
O O2 0.576598 0.668825 0.955328
O O3 0.323271 0.705391 0.150739
O O4 0.894160 0.919352 0.767599
O O5 0.150868 0.739143 0.202122
O O6 0.974703 0.786084 0.282036
O O7 0.311387 0.775893 0.859680
O O8 0.500000 0.000000 0.000000
O O9 0.003254 0.769681 0.723396
O O10 0.500000 0.000000 0.500000
O O11 0.252145 0.032554 0.669955
O O12 0.077261 0.938135 0.963055
O O13 0.638464 0.789424 0.405522
O O14 0.899103 0.471408 0.242682
O O15 0.813362 0.588488 0.579127
O O16 0.500000 0.500000 0.500000
O O17 0.512664 0.317342 0.342690
O O18 0.500000 0.500000 0.000000
#
# Coordination Sequence:
#
# PCOD8021051 Si02
#       8
#     2   2   2   2   2   2   2   2
#     4  11  23  41  65  91 133 170 212 269 326 378
#     4  12  26  40  65  97 131 176 221 261 320 389
#     4  10  22  43  67  90 130 165 215 274 328 378
#     4  10  24  41  63  97 126 170 216 267 327 388
#     4  12  24  43  66  96 135 170 217 269 321 385
#     4  12  23  42  65  93 137 178 213 268 322 382
#     4  12  25  42  66  97 137 174 219 265 322 389
#     4  11  24  42  68  95 126 167 220 268 326 388
#
# _framework density 20.660509000000001
#
# number of rings (size 3 to 8) (size 9 to 14) (size 15 to 20)
#    0.000    0.750    3.750    3.375    3.500    3.500 
#    0.000    0.000    0.000    0.000    0.000    0.000 
#    0.000    0.000    0.000    0.000    0.000    0.000 
#
# Total GULP energy -198499.376750 kJ/mol
# GULP energy per Si atom -12406.211047 kJ/mol
# Density = 2.061348 g / cm^3
# Si number density = 20.660509 Si / 1000 Ang^3
#
#
#
# Elastic Constant Matrix: (Units=GPa)
#
#
# Indices 1 2 3 4 5 6 
#
# 1 93.2260 27.3113 39.8252 -12.3371 -11.4984 10.3553
# 2 27.3113 117.4800 35.0526 -10.2950 13.2379 10.5643
# 3 39.8252 35.0526 102.8255 -7.1706 -1.6017 -0.8271
# 4 -12.3371 -10.2950 -7.1706 41.6290 -1.3643 3.0171
# 5 -11.4984 13.2379 -1.6017 -1.3643 44.8424 0.0941
# 6 10.3553 10.5643 -0.8271 3.0171 0.0941 28.6110
#
#
#
# Elastic Compliance Matrix: (Units=1/GPa)
#
#
# Indices 1 2 3 4 5 6 
#
# 1 0.014931 -0.001679 -0.004930 0.003687 0.004272 -0.005329
# 2 -0.001679 0.010669 -0.002948 0.001775 -0.003624 -0.003592
# 3 -0.004930 -0.002948 0.012649 -0.000246 0.000044 0.003264
# 4 0.003687 0.001775 -0.000246 0.025893 0.001210 -0.004731
# 5 0.004272 -0.003624 0.000044 0.001210 0.024505 -0.000415
# 6 -0.005329 -0.003592 0.003264 -0.004731 -0.000415 0.038802
#
#
# Mechanical properties :
#
#
# Convention : Reuss Voigt Hill
#
# Bulk Modulus (GPa) = 52.25993 57.54551 54.90272
# Shear Modulus (GPa) = 32.69212 37.10600 34.89906
#
# Velocity S-wave (km/s) = 3.98219 4.24251 4.11441
# Velocity P-wave (km/s) = 6.81860 7.20499 7.01445
#
# Compressibility (1/GPa) = 0.01913512
#
# Stress axis : x y z
#
# Youngs Moduli (GPa) = 66.97357 93.72940 79.05555
#
# Poissons Ratio (x) = 0.15740 0.38973
# Poissons Ratio (y) = 0.11247 0.23307
# Poissons Ratio (z) = 0.33017 0.27633
#
# Static dielectric constant tensor:
#      x y z
#    x 4.020140 -0.001290 -0.152330 
#    y -0.001290 3.927950 0.081600 
#    z -0.152330 0.081600 3.824200 
# 
# 
# High freq. dielectric constant tensor:
#      x y z
#    x 1.812940 0.009270 -0.007300 
#    y 0.009270 1.820040 0.005650 
#    z -0.007300 0.005650 1.817160 
# 
# From -- ./inp_files/456977.got.cif
#   From: 2010.06.25/outbox.cif.g09.slc.cpg/sg2_229_cif.got.tgz:456977.got - 2010.06.27 13:26:56.
