data_PCOD8021688
_publ_section_title
;
Structure prediction by ZEFSAII (Michael W. Deem and Ramdas Pophale) SiO2 
 PCOD8021688
Probable space group: P -1
;
_chemical_formula_sum "Si O2"
_cell_formula_units_Z 16
_cell_length_a 11.406964
_cell_length_b 15.527290
_cell_length_c 9.725460
_cell_angle_alpha 102.807909
_cell_angle_beta 92.270507
_cell_angle_gamma 27.547827
_cell_volume 728.294378
_symmetry_space_group_name_H-M "P -1"
_symmetry_group_IT_number 2
_symmetry_cell_setting 'triclinic'
loop_
_space_group_symop_operation_xyz
x,y,z
-x,-y,-z
loop_
_atom_site_type_symbol
_atom_site_label
_atom_site_fract_x
_atom_site_fract_y
_atom_site_fract_z
Si Si1 0.959470 0.587187 0.662762
Si Si2 0.215478 0.108768 0.664355
Si Si3 0.840184 0.858662 0.756504
Si Si4 0.189024 0.896302 0.848234
Si Si5 0.607439 0.055352 0.100766
Si Si6 0.362413 0.194092 0.638494
Si Si7 0.605589 0.423536 0.325028
Si Si8 0.908498 0.142695 0.643317
O O1 0.996959 0.663455 0.651298
O O2 0.690660 0.761968 0.799909
O O3 0.000000 0.500000 0.500000
O O4 0.193460 0.398693 0.713549
O O5 0.153123 0.253661 0.675646
O O6 0.036768 0.150884 0.604017
O O7 0.194947 0.112628 0.828671
O O8 0.523317 0.890647 0.543378
O O9 0.075320 0.771779 0.742726
O O10 0.613252 0.033513 0.695907
O O11 0.688145 0.950843 0.927864
O O12 0.369682 0.855785 0.888412
O O13 0.405657 0.671526 0.751929
O O14 0.000264 0.051275 0.765745
O O15 0.000000 0.000000 0.000000
O O16 0.500000 0.500000 0.500000
O O17 0.415380 0.617590 0.292708
O O18 0.000000 0.000000 0.500000
#
# Coordination Sequence:
#
# PCOD8021688 Si02
#       8
#     2   2   2   2   2   2   2   2
#     4  12  25  42  73 101 133 186 234 279 348 407
#     4  10  22  44  66  97 140 175 224 292 340 405
#     4  12  27  46  68 102 145 177 233 290 345 413
#     4  11  25  48  69 103 142 182 232 295 358 411
#     4  11  24  48  68  98 150 176 222 302 347 406
#     4  11  23  42  70 100 132 183 235 276 341 414
#     4  12  26  44  74 104 137 191 234 285 355 425
#     4  11  25  43  72 101 140 180 236 293 349 415
#
# _framework density 21.969138999999998
#
# number of rings (size 3 to 8) (size 9 to 14) (size 15 to 20)
#    0.000    0.750    5.000    1.875    5.250    1.000 
#    0.000    0.000    0.000    0.000    0.000    0.000 
#    0.000    0.000    0.000    0.000    0.000    0.000 
#
# Total GULP energy -198289.783097 kJ/mol
# GULP energy per Si atom -12393.111444 kJ/mol
# Density = 2.191914 g / cm^3
# Si number density = 21.969139 Si / 1000 Ang^3
#
#
#
# Elastic Constant Matrix: (Units=GPa)
#
#
# Indices 1 2 3 4 5 6 
#
# 1 87.9663 29.3066 12.2003 -2.5403 0.9573 2.9175
# 2 29.3066 135.0218 24.5452 0.5020 18.2861 15.7898
# 3 12.2003 24.5452 114.3341 3.5695 -1.2590 7.6131
# 4 -2.5403 0.5020 3.5695 26.7831 3.1446 1.2096
# 5 0.9573 18.2861 -1.2590 3.1446 34.9696 4.6828
# 6 2.9175 15.7898 7.6131 1.2096 4.6828 28.7759
#
#
#
# Elastic Compliance Matrix: (Units=1/GPa)
#
#
# Indices 1 2 3 4 5 6 
#
# 1 0.012395 -0.002702 -0.000786 0.001214 0.000905 0.000236
# 2 -0.002702 0.009298 -0.001522 0.000455 -0.004384 -0.003731
# 3 -0.000786 -0.001522 0.009333 -0.001389 0.001511 -0.001742
# 4 0.001214 0.000455 -0.001389 0.038099 -0.003611 -0.001020
# 5 0.000905 -0.004384 0.001511 -0.003611 0.031656 -0.003086
# 6 0.000236 -0.003731 -0.001742 -0.001020 -0.003086 0.037781
#
#
# Mechanical properties :
#
#
# Convention : Reuss Voigt Hill
#
# Bulk Modulus (GPa) = 47.60689 52.15849 49.88269
# Shear Modulus (GPa) = 32.13738 36.19040 34.16389
#
# Velocity S-wave (km/s) = 3.82886 4.06313 3.94774
# Velocity P-wave (km/s) = 6.42369 6.76796 6.59807
#
# Compressibility (1/GPa) = 0.02100536
#
# Stress axis : x y z
#
# Youngs Moduli (GPa) = 80.68035 107.55405 107.14814
#
# Poissons Ratio (x) = 0.29060 0.08424
# Poissons Ratio (y) = 0.21799 0.16305
# Poissons Ratio (z) = 0.06343 0.16367
#
# Static dielectric constant tensor:
#      x y z
#    x -1.756940 -1.493470 -1.286830 
#    y -1.493470 3.427460 -0.474500 
#    z -1.286830 -0.474500 3.669520 
# 
# 
# High freq. dielectric constant tensor:
#      x y z
#    x 1.875250 0.014070 0.001330 
#    y 0.014070 1.861890 -0.004020 
#    z 0.001330 -0.004020 1.862630 
# 
# From -- ./inp_files/273384.got.cif
#   From: 2010.06.25/outbox.cif.g09.slc.cpg/sg2_137_cif.got.tgz:273384.got - 2010.06.27 13:26:56.
