data_PCOD8021733
_publ_section_title
;
Structure prediction by ZEFSAII (Michael W. Deem and Ramdas Pophale) SiO2 
 PCOD8021733
Probable space group: P -1
;
_chemical_formula_sum "Si O2"
_cell_formula_units_Z 16
_cell_length_a 9.278327
_cell_length_b 10.858661
_cell_length_c 9.279135
_cell_angle_alpha 117.353367
_cell_angle_beta 85.468537
_cell_angle_gamma 114.396931
_cell_volume 749.075135
_symmetry_space_group_name_H-M "P -1"
_symmetry_group_IT_number 2
_symmetry_cell_setting 'triclinic'
loop_
_space_group_symop_operation_xyz
x,y,z
-x,-y,-z
loop_
_atom_site_type_symbol
_atom_site_label
_atom_site_fract_x
_atom_site_fract_y
_atom_site_fract_z
Si Si1 0.090270 0.844934 0.459998
Si Si2 0.631349 0.829187 0.906405
Si Si3 0.729329 0.312822 0.127996
Si Si4 0.175287 0.909271 0.159385
Si Si5 0.244490 0.359221 0.738735
Si Si6 0.823284 0.375461 0.476893
Si Si7 0.850978 0.895488 0.180201
Si Si8 0.574593 0.501978 0.647954
O O1 0.170581 0.890157 0.321182
O O2 0.172053 0.750455 0.482955
O O3 0.897172 0.750790 0.416344
O O4 0.133354 0.000232 0.626264
O O5 0.454015 0.791451 0.950624
O O6 0.653788 0.675341 0.792399
O O7 0.671420 0.939237 0.822336
O O8 0.745175 0.921339 0.078585
O O9 0.778291 0.485157 0.163563
O O10 0.747440 0.301303 0.291416
O O11 0.833589 0.245843 0.995662
O O12 0.025289 0.934882 0.124677
O O13 0.224033 0.281029 0.854491
O O14 0.422901 0.389672 0.692782
O O15 0.714418 0.446374 0.601359
O O16 0.000000 0.500000 0.500000
O O17 0.500000 0.500000 0.500000
#
# Coordination Sequence:
#
# PCOD8021733 Si02
#       8
#     2   2   2   2   2   2   2   2
#     4  11  25  43  67  99 131 175 221 271 323 384
#     4  11  25  44  66  97 135 173 220 267 328 396
#     4  11  24  43  67  97 134 171 215 278 331 379
#     4  11  25  42  68  96 136 177 215 271 329 386
#     4  10  22  44  67  96 134 171 222 271 322 389
#     4  12  24  41  69 100 130 166 219 273 318 396
#     4  11  26  42  69  96 133 178 220 271 319 395
#     4  11  23  41  72  97 127 177 213 268 332 383
#
# _framework density 21.359672
#
# number of rings (size 3 to 8) (size 9 to 14) (size 15 to 20)
#    0.000    1.000    3.750    3.000    7.000    6.000 
#    0.000    1.875    0.000    0.000    0.000    0.000 
#    0.000    0.000    0.000    0.000    0.000    0.000 
#
# Total GULP energy -198420.263398 kJ/mol
# GULP energy per Si atom -12401.266462 kJ/mol
# Density = 2.131106 g / cm^3
# Si number density = 21.359672 Si / 1000 Ang^3
#
#
#
# Elastic Constant Matrix: (Units=GPa)
#
#
# Indices 1 2 3 4 5 6 
#
# 1 97.1797 28.5232 42.6907 6.0678 -8.0597 -17.5939
# 2 28.5232 124.2166 36.7082 -0.0726 0.8064 -6.7134
# 3 42.6907 36.7082 116.8826 8.6574 -11.0714 0.4918
# 4 6.0678 -0.0726 8.6574 22.6379 -1.2345 3.9742
# 5 -8.0597 0.8064 -11.0714 -1.2345 33.5283 1.8391
# 6 -17.5939 -6.7134 0.4918 3.9742 1.8391 24.9697
#
#
#
# Elastic Compliance Matrix: (Units=1/GPa)
#
#
# Indices 1 2 3 4 5 6 
#
# 1 0.015126 -0.001520 -0.004657 -0.004115 0.001386 0.010894
# 2 -0.001520 0.009246 -0.002576 0.001096 -0.001475 0.001400
# 3 -0.004657 -0.002576 0.011526 -0.002300 0.002886 -0.004048
# 4 -0.004115 0.001096 -0.002300 0.047987 0.000553 -0.010238
# 5 0.001386 -0.001475 0.002886 0.000553 0.031270 -0.001868
# 6 0.010894 0.001400 -0.004048 -0.010238 -0.001868 0.049948
#
#
# Mechanical properties :
#
#
# Convention : Reuss Voigt Hill
#
# Bulk Modulus (GPa) = 54.36586 61.56924 57.96755
# Shear Modulus (GPa) = 26.49132 31.58430 29.03781
#
# Velocity S-wave (km/s) = 3.52554 3.84954 3.69110
# Velocity P-wave (km/s) = 6.48694 6.97468 6.73523
#
# Compressibility (1/GPa) = 0.01839390
#
# Stress axis : x y z
#
# Youngs Moduli (GPa) = 66.10932 108.14971 86.75809
#
# Poissons Ratio (x) = 0.16435 0.40406
# Poissons Ratio (y) = 0.10047 0.22346
# Poissons Ratio (z) = 0.30789 0.27855
#
# Static dielectric constant tensor:
#      x y z
#    x 2.887280 -0.632340 0.298970 
#    y -0.632340 3.837240 0.370060 
#    z 0.298970 0.370060 3.884750 
# 
# 
# High freq. dielectric constant tensor:
#      x y z
#    x 1.845430 -0.002700 -0.001410 
#    y -0.002700 1.851350 0.002180 
#    z -0.001410 0.002180 1.832520 
# 
# From -- ./inp_files/190020.got.cif
#   From: 2010.06.25/outbox.cif.g09.slc.cpg/sg2_96_cif.got.tgz:190020.got - 2010.06.27 13:26:56.
