data_PCOD8021967
_publ_section_title
;
Structure prediction by ZEFSAII (Michael W. Deem and Ramdas Pophale) SiO2 
 PCOD8021967
Probable space group: P -1
;
_chemical_formula_sum "Si O2"
_cell_formula_units_Z 16
_cell_length_a 10.298471
_cell_length_b 24.733370
_cell_length_c 5.076358
_cell_angle_alpha 111.925403
_cell_angle_beta 58.504438
_cell_angle_gamma 141.730808
_cell_volume 681.209403
_symmetry_space_group_name_H-M "P -1"
_symmetry_group_IT_number 2
_symmetry_cell_setting 'triclinic'
loop_
_space_group_symop_operation_xyz
x,y,z
-x,-y,-z
loop_
_atom_site_type_symbol
_atom_site_label
_atom_site_fract_x
_atom_site_fract_y
_atom_site_fract_z
Si Si1 0.982095 0.279445 0.989084
Si Si2 0.738532 0.535737 0.795343
Si Si3 0.579992 0.124937 0.852018
Si Si4 0.094734 0.842704 0.770323
Si Si5 0.289295 0.061617 0.539664
Si Si6 0.770064 0.468611 0.143023
Si Si7 0.916440 0.884848 0.379218
Si Si8 0.697702 0.718404 0.593161
O O1 0.212560 0.314435 0.704777
O O2 0.788345 0.230981 0.877083
O O3 0.049056 0.360540 0.185615
O O4 0.858691 0.201927 0.189577
O O5 0.764126 0.520926 0.444193
O O6 0.500000 0.500000 0.000000
O O7 0.748783 0.485654 0.899138
O O8 0.402039 0.096344 0.770323
O O9 0.712647 0.103607 0.569721
O O10 0.448345 0.077189 0.177546
O O11 0.835228 0.765373 0.802420
O O12 0.108701 0.906653 0.035969
O O13 0.231582 0.111717 0.622699
O O14 0.054030 0.956676 0.600458
O O15 0.568116 0.364940 0.218923
O O16 0.000000 0.500000 0.000000
O O17 0.736890 0.786928 0.501432
#
# Coordination Sequence:
#
# PCOD8021967 Si02
#       8
#     2   2   2   2   2   2   2   2
#     4  10  22  44  71 105 139 185 239 283 349 413
#     4  12  25  46  79 101 139 194 240 290 343 428
#     4  11  24  44  69 103 144 176 230 306 330 412
#     4  10  22  45  69 102 138 191 229 283 354 413
#     4  11  26  46  70 104 143 176 248 280 352 411
#     4  12  28  48  70 111 146 181 234 302 356 418
#     4  10  26  45  71 100 139 198 222 290 349 434
#     4  10  23  44  71  99 145 182 234 281 365 418
#
# _framework density 23.487635000000001
#
# number of rings (size 3 to 8) (size 9 to 14) (size 15 to 20)
#    0.000    1.250    2.500    1.500    8.750    3.000 
#    2.250    0.000    0.000    0.000    0.000    0.000 
#    0.000    0.000    0.000    0.000    0.000    0.000 
#
# Total GULP energy -198383.167507 kJ/mol
# GULP energy per Si atom -12398.947969 kJ/mol
# Density = 2.343418 g / cm^3
# Si number density = 23.487635 Si / 1000 Ang^3
#
#
#
# Elastic Constant Matrix: (Units=GPa)
#
#
# Indices 1 2 3 4 5 6 
#
# 1 95.7110 22.3832 10.9814 3.3045 -0.1160 19.3460
# 2 22.3832 99.6802 9.6448 12.2788 -9.0841 5.7502
# 3 10.9814 9.6448 60.2253 -3.0019 -0.1104 -3.6998
# 4 3.3045 12.2788 -3.0019 34.7708 7.0640 0.9521
# 5 -0.1160 -9.0841 -0.1104 7.0640 37.4687 2.4679
# 6 19.3460 5.7502 -3.6998 0.9521 2.4679 34.7886
#
#
#
# Elastic Compliance Matrix: (Units=1/GPa)
#
#
# Indices 1 2 3 4 5 6 
#
# 1 0.012642 -0.002142 -0.002411 -0.000475 0.000058 -0.006924
# 2 -0.002142 0.011687 -0.001780 -0.004820 0.003801 -0.001067
# 3 -0.002411 -0.001780 0.017668 0.002508 -0.001092 0.003523
# 4 -0.000475 -0.004820 0.002508 0.032179 -0.007293 0.000965
# 5 0.000058 0.003801 -0.001092 -0.007293 0.029157 -0.002646
# 6 -0.006924 -0.001067 0.003523 0.000965 -0.002646 0.033308
#
#
# Mechanical properties :
#
#
# Convention : Reuss Voigt Hill
#
# Bulk Modulus (GPa) = 34.09344 37.95947 36.02645
# Shear Modulus (GPa) = 31.43015 35.57943 33.50479
#
# Velocity S-wave (km/s) = 3.66205 3.89629 3.78098
# Velocity P-wave (km/s) = 5.69454 6.03638 5.86795
#
# Compressibility (1/GPa) = 0.02933116
#
# Stress axis : x y z
#
# Youngs Moduli (GPa) = 79.10367 85.56514 56.59823
#
# Poissons Ratio (x) = 0.18329 0.13645
# Poissons Ratio (y) = 0.16945 0.10074
# Poissons Ratio (z) = 0.19071 0.15230
#
# Static dielectric constant tensor:
#      x y z
#    x 4.470400 -0.539060 -0.578940 
#    y -0.539060 5.992600 1.828970 
#    z -0.578940 1.828970 5.851250 
# 
# 
# High freq. dielectric constant tensor:
#      x y z
#    x 1.931500 0.018190 0.009890 
#    y 0.018190 1.922890 0.005430 
#    z 0.009890 0.005430 1.933210 
# 
# From -- ./inp_files/53399.got.cif
#   From: 2010.06.25/outbox.cif.g09.slc.cpg/sg2_27_cif.got.tgz:53399.got - 2010.06.27 13:26:56.
