data_PCOD8021805
_publ_section_title
;
Structure prediction by ZEFSAII (Michael W. Deem and Ramdas Pophale) SiO2 
 PCOD8021805
Probable space group: P -1
;
_chemical_formula_sum "Si O2"
_cell_formula_units_Z 14
_cell_length_a 8.766632
_cell_length_b 8.582570
_cell_length_c 12.009166
_cell_angle_alpha 128.262188
_cell_angle_beta 61.701440
_cell_angle_gamma 113.375169
_cell_volume 617.686042
_symmetry_space_group_name_H-M "P -1"
_symmetry_group_IT_number 2
_symmetry_cell_setting 'triclinic'
loop_
_space_group_symop_operation_xyz
x,y,z
-x,-y,-z
loop_
_atom_site_type_symbol
_atom_site_label
_atom_site_fract_x
_atom_site_fract_y
_atom_site_fract_z
Si Si1 0.983731 0.126601 0.733022
Si Si2 0.584605 0.050535 0.352669
Si Si3 0.237008 0.213895 0.483605
Si Si4 0.544460 0.378488 0.760881
Si Si5 0.256076 0.552621 0.056464
Si Si6 0.874366 0.885356 0.081635
Si Si7 0.796448 0.450571 0.519788
O O1 0.866792 0.296349 0.879673
O O2 0.140979 0.215325 0.635746
O O3 0.058355 0.060153 0.792953
O O4 0.869811 0.935845 0.632651
O O5 0.430066 0.161337 0.409848
O O6 0.738591 0.211639 0.423281
O O7 0.516145 0.852456 0.367631
O O8 0.680160 0.951004 0.172232
O O9 0.249603 0.435694 0.525173
O O10 0.636260 0.344303 0.831080
O O11 0.678616 0.511173 0.690323
O O12 0.381286 0.498716 0.888734
O O13 0.137255 0.348645 0.047115
O O14 0.000000 0.000000 0.000000
O O15 0.000000 0.500000 0.500000
#
# Coordination Sequence:
#
# PCOD8021805 Si02
#       7
#     2   2   2   2   2   2   2
#     4  11  24  46  69 101 140 180 231 279 345 402
#     4  11  25  47  67 100 140 179 231 280 344 409
#     4  11  26  43  71 102 136 184 227 286 339 402
#     4  10  23  43  72  98 137 184 226 276 346 408
#     4  10  22  44  68  97 137 186 225 271 346 413
#     4  11  27  42  70 103 136 180 230 285 338 405
#     4  12  26  42  71 105 138 176 232 290 336 402
#
# _framework density 22.665237999999999
#
# number of rings (size 3 to 8) (size 9 to 14) (size 15 to 20)
#    0.000    1.143    1.429    3.000   14.000    1.143 
#    0.000    1.429    0.000    0.000    0.000    0.000 
#    0.000    0.000    0.000    0.000    0.000    0.000 
#
# Total GULP energy -173607.953350 kJ/mol
# GULP energy per Si atom -12400.568096 kJ/mol
# Density = 2.261365 g / cm^3
# Si number density = 22.665238 Si / 1000 Ang^3
#
#
#
# Elastic Constant Matrix: (Units=GPa)
#
#
# Indices 1 2 3 4 5 6 
#
# 1 120.3348 50.0731 52.3403 -9.9566 -15.1090 1.0693
# 2 50.0731 142.6708 60.1115 -26.9079 -5.6582 11.9280
# 3 52.3403 60.1115 95.8210 -5.0712 -9.5321 -2.1576
# 4 -9.9566 -26.9079 -5.0712 42.8755 5.0891 0.3901
# 5 -15.1090 -5.6582 -9.5321 5.0891 41.7791 5.7423
# 6 1.0693 11.9280 -2.1576 0.3901 5.7423 36.1201
#
#
#
# Elastic Compliance Matrix: (Units=1/GPa)
#
#
# Indices 1 2 3 4 5 6 
#
# 1 0.011589 -0.001681 -0.004970 0.000719 0.002816 -0.000540
# 2 -0.001681 0.011774 -0.006290 0.006370 -0.000650 -0.004180
# 3 -0.004970 -0.006290 0.017116 -0.003251 0.001228 0.003087
# 4 0.000719 0.006370 -0.003251 0.027439 -0.002660 -0.002193
# 5 0.002816 -0.000650 0.001228 -0.002660 0.026006 -0.003901
# 6 -0.000540 -0.004180 0.003087 -0.002193 -0.003901 0.029910
#
#
# Mechanical properties :
#
#
# Convention : Reuss Voigt Hill
#
# Bulk Modulus (GPa) = 68.50034 75.98624 72.24329
# Shear Modulus (GPa) = 32.34524 37.24173 34.79348
#
# Velocity S-wave (km/s) = 3.78178 4.05794 3.92229
# Velocity P-wave (km/s) = 7.02548 7.45346 7.24263
#
# Compressibility (1/GPa) = 0.01459847
#
# Stress axis : x y z
#
# Youngs Moduli (GPa) = 86.28744 84.93063 58.42462
#
# Poissons Ratio (x) = 0.14278 0.29035
# Poissons Ratio (y) = 0.14506 0.36748
# Poissons Ratio (z) = 0.42882 0.53419
#
# Static dielectric constant tensor:
#      x y z
#    x 4.065530 0.237580 -0.199940 
#    y 0.237580 4.095810 0.095340 
#    z -0.199940 0.095340 4.272190 
# 
# 
# High freq. dielectric constant tensor:
#      x y z
#    x 1.897510 0.017340 -0.013780 
#    y 0.017340 1.894060 0.009620 
#    z -0.013780 0.009620 1.905670 
# 
# From -- ./inp_files/383470.got.cif
#   From: 2010.06.25/outbox.cif.g09.slc.cpg/sg2_192_cif.got.tgz:383470.got - 2010.06.27 13:26:56.
