data_PCOD8021283
_publ_section_title
;
Structure prediction by ZEFSAII (Michael W. Deem and Ramdas Pophale) SiO2 
 PCOD8021283
Probable space group: P -1
;
_chemical_formula_sum "Si O2"
_cell_formula_units_Z 14
_cell_length_a 14.272903
_cell_length_b 12.241748
_cell_length_c 11.149868
_cell_angle_alpha 156.073057
_cell_angle_beta 137.143868
_cell_angle_gamma 36.830855
_cell_volume 473.632656
_symmetry_space_group_name_H-M "P -1"
_symmetry_group_IT_number 2
_symmetry_cell_setting 'triclinic'
loop_
_space_group_symop_operation_xyz
x,y,z
-x,-y,-z
loop_
_atom_site_type_symbol
_atom_site_label
_atom_site_fract_x
_atom_site_fract_y
_atom_site_fract_z
Si Si1 0.044953 0.229085 0.614450
Si Si2 0.432478 0.808796 0.178190
Si Si3 0.247108 0.378146 0.134533
Si Si4 0.669310 0.381671 0.758412
Si Si5 0.416551 0.159935 0.305458
Si Si6 0.905951 0.344254 0.095324
Si Si7 0.838495 0.274135 0.216674
O O1 0.873460 0.324700 0.604402
O O2 0.141168 0.865278 0.320299
O O3 0.152128 0.250865 0.843232
O O4 0.029212 0.450854 0.707565
O O5 0.500000 0.000000 0.500000
O O6 0.469078 0.821822 0.079127
O O7 0.500000 0.500000 0.000000
O O8 0.247395 0.917123 0.109278
O O9 0.365251 0.423464 0.200073
O O10 0.363234 0.136650 0.098819
O O11 0.566890 0.211681 0.504142
O O12 0.714216 0.494064 0.038720
O O13 0.282943 0.417461 0.519810
O O14 0.913431 0.370360 0.272831
O O15 0.027744 0.967643 0.809796
#
# Coordination Sequence:
#
# PCOD8021283 Si02
#       7
#     2   2   2   2   2   2   2
#     4  10  22  43  69  98 143 187 247 303 374 432
#     4  12  26  46  71 106 148 196 240 297 372 439
#     4  10  23  44  68 103 140 192 247 302 373 435
#     4  11  24  41  71 103 145 190 244 306 373 440
#     4  12  26  43  73 108 148 196 242 310 370 447
#     4  10  24  44  69 105 141 196 242 308 360 448
#     4  11  25  45  72 105 148 191 253 295 372 441
#
# _framework density 29.558776000000002
#
# number of rings (size 3 to 8) (size 9 to 14) (size 15 to 20)
#    0.000    1.143    1.429    3.429    2.000    6.286 
#    0.000    3.571    0.000    0.000    0.000    0.000 
#    0.000    0.000    0.000    0.000    0.000    0.000 
#
# Total GULP energy -173439.282268 kJ/mol
# GULP energy per Si atom -12388.520162 kJ/mol
# Density = 2.949150 g / cm^3
# Si number density = 29.558776 Si / 1000 Ang^3
#
#
#
# Elastic Constant Matrix: (Units=GPa)
#
#
# Indices 1 2 3 4 5 6 
#
# 1 142.6827 55.7503 0.4644 -5.3509 12.5776 35.1031
# 2 55.7503 203.4203 24.2756 8.8314 9.8206 33.6502
# 3 0.4644 24.2756 52.2331 11.4319 21.8825 14.7398
# 4 -5.3509 8.8314 11.4319 35.5630 0.4519 5.7946
# 5 12.5776 9.8206 21.8825 0.4519 52.4781 1.5662
# 6 35.1031 33.6502 14.7398 5.7946 1.5662 56.8206
#
#
#
# Elastic Compliance Matrix: (Units=1/GPa)
#
#
# Indices 1 2 3 4 5 6 
#
# 1 0.009520 -0.002000 0.003373 0.001809 -0.003160 -0.005669
# 2 -0.002000 0.006031 -0.002292 -0.000794 0.000363 -0.001671
# 3 0.003373 -0.002292 0.028770 -0.006852 -0.012104 -0.007157
# 4 0.001809 -0.000794 -0.006852 0.031104 0.002367 -0.002107
# 5 -0.003160 0.000363 -0.012104 0.002367 0.024654 0.003956
# 6 -0.005669 -0.001671 -0.007157 -0.002107 0.003956 0.024054
#
#
# Mechanical properties :
#
#
# Convention : Reuss Voigt Hill
#
# Bulk Modulus (GPa) = 23.53877 62.14628 42.84253
# Shear Modulus (GPa) = 35.68080 50.16207 42.92143
#
# Velocity S-wave (km/s) = 3.47812 4.12397 3.81474
# Velocity P-wave (km/s) = 4.91024 6.61411 5.82481
#
# Compressibility (1/GPa) = 0.04248310
#
# Stress axis : x y z
#
# Youngs Moduli (GPa) = 105.04046 165.81535 34.75830
#
# Poissons Ratio (x) = 0.33159 -0.11723
# Poissons Ratio (y) = 0.21005 0.07966
# Poissons Ratio (z) = -0.35427 0.38004
#
# Static dielectric constant tensor:
#      x y z
#    x 6.250630 -0.179190 -0.639570 
#    y -0.179190 6.711730 -0.041150 
#    z -0.639570 -0.041150 5.821380 
# 
# 
# High freq. dielectric constant tensor:
#      x y z
#    x 2.221770 -0.004190 -0.016790 
#    y -0.004190 2.266350 -0.007950 
#    z -0.016790 -0.007950 2.198440 
# 
# From -- ./inp_files/452000.got.cif
#   From: 2010.06.25/outbox.cif.g09.slc.cpg/sg2_226_cif.got.tgz:452000.got - 2010.06.27 13:26:56.
