data_PCOD8021707
_publ_section_title
;
Structure prediction by ZEFSAII (Michael W. Deem and Ramdas Pophale) SiO2 
 PCOD8021707
Probable space group: P -1
;
_chemical_formula_sum "Si O2"
_cell_formula_units_Z 16
_cell_length_a 8.797328
_cell_length_b 12.503397
_cell_length_c 10.606339
_cell_angle_alpha 118.557266
_cell_angle_beta 85.473381
_cell_angle_gamma 135.409825
_cell_volume 651.488292
_symmetry_space_group_name_H-M "P -1"
_symmetry_group_IT_number 2
_symmetry_cell_setting 'triclinic'
loop_
_space_group_symop_operation_xyz
x,y,z
-x,-y,-z
loop_
_atom_site_type_symbol
_atom_site_label
_atom_site_fract_x
_atom_site_fract_y
_atom_site_fract_z
Si Si1 0.721714 0.362297 0.440156
Si Si2 0.739804 0.391422 0.946970
Si Si3 0.170815 0.977632 0.921174
Si Si4 0.075441 0.044861 0.708442
Si Si5 0.534244 0.036780 0.826405
Si Si6 0.395921 0.298595 0.606347
Si Si7 0.049204 0.265925 0.988155
Si Si8 0.455637 0.621591 0.790170
O O1 0.634731 0.381730 0.581162
O O2 0.671839 0.412408 0.348136
O O3 0.000000 0.500000 0.500000
O O4 0.573785 0.146695 0.336192
O O5 0.678067 0.407759 0.096421
O O6 0.739191 0.502148 0.906894
O O7 0.565053 0.170751 0.800878
O O8 0.000000 0.500000 0.000000
O O9 0.117032 0.978457 0.782495
O O10 0.357209 0.979061 0.913336
O O11 0.934474 0.788015 0.906101
O O12 0.276127 0.155715 0.096956
O O13 0.299486 0.173866 0.669871
O O14 0.075130 0.184844 0.829432
O O15 0.821797 0.848866 0.560536
O O16 0.790739 0.168007 0.942030
O O17 0.457992 0.478235 0.720484
#
# Coordination Sequence:
#
# PCOD8021707 Si02
#       8
#     2   2   2   2   2   2   2   2
#     4  12  27  47  73 105 146 204 248 296 360 438
#     4   9  21  37  72 108 138 186 228 299 372 422
#     4  11  24  41  73 111 148 181 239 306 366 435
#     4  11  24  44  75 110 144 192 237 305 374 437
#     4  10  22  44  67 103 147 184 238 298 357 429
#     4  11  25  50  72 102 152 194 246 299 365 444
#     4  11  19  43  70 109 144 185 234 299 376 425
#     4  11  23  47  72 104 147 191 243 299 361 434
#
# _framework density 24.559152000000001
#
# number of rings (size 3 to 8) (size 9 to 14) (size 15 to 20)
#    0.000    1.250    3.750    1.125    5.250    0.500 
#    9.000    0.625    0.000    0.000    0.000    0.000 
#    0.000    0.000    0.000    0.000    0.000    0.000 
#
# Total GULP energy -198268.760995 kJ/mol
# GULP energy per Si atom -12391.797562 kJ/mol
# Density = 2.450325 g / cm^3
# Si number density = 24.559152 Si / 1000 Ang^3
#
#
#
# Elastic Constant Matrix: (Units=GPa)
#
#
# Indices 1 2 3 4 5 6 
#
# 1 93.3850 54.5319 20.7044 -7.2894 -26.8353 -1.1767
# 2 54.5319 187.5560 50.5706 -10.1079 -7.8669 -13.5475
# 3 20.7044 50.5706 61.0734 5.1434 -14.8110 -12.4307
# 4 -7.2894 -10.1079 5.1434 49.2375 -6.2017 -0.1606
# 5 -26.8353 -7.8669 -14.8110 -6.2017 44.0574 3.2307
# 6 -1.1767 -13.5475 -12.4307 -0.1606 3.2307 33.2900
#
#
#
# Elastic Compliance Matrix: (Units=1/GPa)
#
#
# Indices 1 2 3 4 5 6 
#
# 1 0.016176 -0.004216 -0.000361 0.002760 0.009528 -0.002190
# 2 -0.004216 0.008194 -0.005938 0.001303 -0.003010 0.001267
# 3 -0.000361 -0.005938 0.024368 -0.003037 0.006040 0.006069
# 4 0.002760 0.001303 -0.003037 0.021807 0.004020 -0.000791
# 5 0.009528 -0.003010 0.006040 0.004020 0.030676 -0.001591
# 6 -0.002190 0.001267 0.006069 -0.000791 -0.001591 0.032894
#
#
# Mechanical properties :
#
#
# Convention : Reuss Voigt Hill
#
# Bulk Modulus (GPa) = 36.08760 65.95871 51.02316
# Shear Modulus (GPa) = 30.41737 39.73081 35.07409
#
# Velocity S-wave (km/s) = 3.52310 4.02650 3.78318
# Velocity P-wave (km/s) = 5.59247 6.96652 6.31696
#
# Compressibility (1/GPa) = 0.02771035
#
# Stress axis : x y z
#
# Youngs Moduli (GPa) = 61.82077 122.04248 41.03697
#
# Poissons Ratio (x) = 0.51449 0.01480
# Poissons Ratio (y) = 0.26062 0.24366
# Poissons Ratio (z) = 0.02229 0.72463
#
# Static dielectric constant tensor:
#      x y z
#    x 4.732570 -0.061640 -0.203380 
#    y -0.061640 5.497510 0.269750 
#    z -0.203380 0.269750 4.229510 
# 
# 
# High freq. dielectric constant tensor:
#      x y z
#    x 2.001430 0.003540 -0.008850 
#    y 0.003540 2.006560 0.010710 
#    z -0.008850 0.010710 1.952430 
# 
# From -- ./inp_files/392851.got.cif
#   From: 2010.06.25/outbox.cif.g09.slc.cpg/sg2_197_cif.got.tgz:392851.got - 2010.06.27 13:26:56.
