data_PCOD8021723
_publ_section_title
;
Structure prediction by ZEFSAII (Michael W. Deem and Ramdas Pophale) SiO2 
 PCOD8021723
Probable space group: P -1
;
_chemical_formula_sum "Si O2"
_cell_formula_units_Z 16
_cell_length_a 8.800219
_cell_length_b 20.918539
_cell_length_c 18.924171
_cell_angle_alpha 159.510793
_cell_angle_beta 36.942842
_cell_angle_gamma 140.785555
_cell_volume 727.217792
_symmetry_space_group_name_H-M "P -1"
_symmetry_group_IT_number 2
_symmetry_cell_setting 'triclinic'
loop_
_space_group_symop_operation_xyz
x,y,z
-x,-y,-z
loop_
_atom_site_type_symbol
_atom_site_label
_atom_site_fract_x
_atom_site_fract_y
_atom_site_fract_z
Si Si1 0.774396 0.981529 0.645573
Si Si2 0.155743 0.621967 0.772923
Si Si3 0.940000 0.691960 0.190652
Si Si4 0.745506 0.896736 0.019426
Si Si5 0.787180 0.503299 0.912575
Si Si6 0.796057 0.088275 0.479409
Si Si7 0.012084 0.986503 0.149330
Si Si8 0.297962 0.332461 0.325814
O O1 0.750052 0.785164 0.410141
O O2 0.007551 0.005720 0.640796
O O3 0.500225 0.998607 0.800397
O O4 0.818605 0.149779 0.746138
O O5 0.121500 0.483568 0.574748
O O6 0.412497 0.592328 0.686983
O O7 0.929649 0.575291 0.863350
O O8 0.171179 0.829247 0.954966
O O9 0.833044 0.651348 0.110625
O O10 0.000000 0.500000 0.000000
O O11 0.787315 0.890617 0.081826
O O12 0.712803 0.696604 0.785608
O O13 0.000000 0.000000 0.000000
O O14 0.839714 0.300772 0.707404
O O15 0.500000 0.500000 0.000000
O O16 0.500000 0.000000 0.500000
O O17 0.878276 0.080710 0.360016
O O18 0.210423 0.137493 0.193810
#
# Coordination Sequence:
#
# PCOD8021723 Si02
#       8
#     2   2   2   2   2   2   2   2
#     4  11  25  45  70  96 144 177 223 287 336 407
#     4  11  23  42  68  97 129 177 222 282 334 402
#     4  11  24  43  68 102 132 181 224 275 347 404
#     4  10  24  44  67  99 135 178 228 276 331 401
#     4  12  25  42  65 100 139 173 228 285 336 415
#     4  12  25  44  68 100 136 181 226 280 347 411
#     4  11  23  41  67  95 134 175 221 272 340 395
#     4  10  22  44  67  95 134 169 231 278 333 395
#
# _framework density 22.001662
#
# number of rings (size 3 to 8) (size 9 to 14) (size 15 to 20)
#    0.000    1.000    2.500    4.125    5.250    2.500 
#    0.000    0.000    0.000    0.000    0.000    0.000 
#    0.000    0.000    0.000    0.000    0.000    0.000 
#
# Total GULP energy -198306.870732 kJ/mol
# GULP energy per Si atom -12394.179421 kJ/mol
# Density = 2.195158 g / cm^3
# Si number density = 22.001662 Si / 1000 Ang^3
#
#
#
# Elastic Constant Matrix: (Units=GPa)
#
#
# Indices 1 2 3 4 5 6 
#
# 1 75.3296 20.9744 44.0550 -20.5301 7.8458 11.9988
# 2 20.9744 90.0669 42.8538 -9.7868 -10.1728 8.2227
# 3 44.0550 42.8538 135.5476 -9.3613 29.4217 5.2699
# 4 -20.5301 -9.7868 -9.3613 46.2983 -9.9036 -7.7907
# 5 7.8458 -10.1728 29.4217 -9.9036 45.7509 -1.8386
# 6 11.9988 8.2227 5.2699 -7.7907 -1.8386 29.2388
#
#
#
# Elastic Compliance Matrix: (Units=1/GPa)
#
#
# Indices 1 2 3 4 5 6 
#
# 1 0.019246 -0.000322 -0.005859 0.006829 0.001680 -0.004826
# 2 -0.000322 0.015650 -0.006340 0.003365 0.008272 -0.001710
# 3 -0.005859 -0.006340 0.013116 -0.003266 -0.009532 0.000354
# 4 0.006829 0.003365 -0.003266 0.027096 0.007725 0.004545
# 5 0.001680 0.008272 -0.009532 0.007725 0.031321 0.002730
# 6 -0.004826 -0.001710 0.000354 0.004545 0.002730 0.037981
#
#
# Mechanical properties :
#
#
# Convention : Reuss Voigt Hill
#
# Bulk Modulus (GPa) = 43.53337 57.41229 50.47283
# Shear Modulus (GPa) = 28.23131 37.12834 32.67982
#
# Velocity S-wave (km/s) = 3.58599 4.11241 3.85818
# Velocity P-wave (km/s) = 6.08071 6.97856 6.54505
#
# Compressibility (1/GPa) = 0.02297089
#
# Stress axis : x y z
#
# Youngs Moduli (GPa) = 51.95909 63.89601 76.24360
#
# Poissons Ratio (x) = 0.02057 0.44670
# Poissons Ratio (y) = 0.01672 0.48338
# Poissons Ratio (z) = 0.30442 0.40510
#
# Static dielectric constant tensor:
#      x y z
#    x 4.150590 -0.064310 0.404420 
#    y -0.064310 3.758210 -0.190700 
#    z 0.404420 -0.190700 4.424960 
# 
# 
# High freq. dielectric constant tensor:
#      x y z
#    x 1.856730 0.002370 0.019940 
#    y 0.002370 1.857520 -0.007960 
#    z 0.019940 -0.007960 1.891390 
# 
# From -- ./inp_files/562975.got.cif
#   From: 2010.06.25/outbox.cif.g09.slc.cpg/sg2_282_cif.got.tgz:562975.got - 2010.06.27 13:26:56.
