data_PCOD8021040
_publ_section_title
;
Structure prediction by ZEFSAII (Michael W. Deem and Ramdas Pophale) SiO2 
 PCOD8021040
Probable space group: P -1
;
_chemical_formula_sum "Si O2"
_cell_formula_units_Z 16
_cell_length_a 11.083946
_cell_length_b 15.034518
_cell_length_c 8.541824
_cell_angle_alpha 129.118846
_cell_angle_beta 42.202921
_cell_angle_gamma 128.085450
_cell_volume 710.695517
_symmetry_space_group_name_H-M "P -1"
_symmetry_group_IT_number 2
_symmetry_cell_setting 'triclinic'
loop_
_space_group_symop_operation_xyz
x,y,z
-x,-y,-z
loop_
_atom_site_type_symbol
_atom_site_label
_atom_site_fract_x
_atom_site_fract_y
_atom_site_fract_z
Si Si1 0.783527 0.847838 0.700838
Si Si2 0.976710 0.425745 0.187663
Si Si3 0.965571 0.071020 0.962305
Si Si4 0.620448 0.527806 0.071491
Si Si5 0.671390 0.788710 0.394732
Si Si6 0.591246 0.283717 0.932268
Si Si7 0.015024 0.667671 0.259140
Si Si8 0.309022 0.772266 0.572381
O O1 0.729950 0.844874 0.568790
O O2 0.908577 0.760332 0.524606
O O3 0.900615 0.982310 0.779815
O O4 0.595719 0.815485 0.948535
O O5 0.798924 0.347763 0.365134
O O6 0.935621 0.547047 0.302945
O O7 0.023251 0.354475 0.913167
O O8 0.158326 0.453738 0.157236
O O9 0.154682 0.172055 0.847842
O O10 0.808762 0.134291 0.226000
O O11 0.000000 0.000000 0.000000
O O12 0.594172 0.644443 0.312171
O O13 0.500000 0.500000 0.000000
O O14 0.556545 0.414703 0.125575
O O15 0.501345 0.836834 0.550357
O O16 0.761652 0.276676 0.872244
O O17 0.641144 0.265384 0.686559
#
# Coordination Sequence:
#
# PCOD8021040 Si02
#       8
#     2   2   2   2   2   2   2   2
#     4  12  26  45  74 102 143 188 231 285 346 412
#     4  10  22  43  69 102 142 185 222 284 352 409
#     4  12  28  49  74  99 137 189 239 290 346 406
#     4  11  22  42  69 105 144 174 231 280 351 422
#     4  12  26  47  72 106 138 183 234 289 349 415
#     4  11  26  39  67 109 138 186 230 278 352 414
#     4  10  22  43  67 102 145 178 229 284 342 416
#     4  12  25  46  70 102 142 181 234 294 338 417
#
# _framework density 22.513158000000001
#
# number of rings (size 3 to 8) (size 9 to 14) (size 15 to 20)
#    0.000    0.750    3.750    2.625    1.750    7.000 
#    0.000    0.000    0.000    0.000    0.000    0.000 
#    0.000    0.000    0.000    0.000    0.000    0.000 
#
# Total GULP energy -198493.623538 kJ/mol
# GULP energy per Si atom -12405.851471 kJ/mol
# Density = 2.246192 g / cm^3
# Si number density = 22.513158 Si / 1000 Ang^3
#
#
#
# Elastic Constant Matrix: (Units=GPa)
#
#
# Indices 1 2 3 4 5 6 
#
# 1 153.9901 33.0805 40.4178 -2.1702 -8.5711 9.1141
# 2 33.0805 83.5224 41.5894 1.7863 -5.8184 3.0629
# 3 40.4178 41.5894 95.7611 -5.7520 -10.9276 -7.6061
# 4 -2.1702 1.7863 -5.7520 25.4622 -0.4818 1.4627
# 5 -8.5711 -5.8184 -10.9276 -0.4818 42.6091 1.8305
# 6 9.1141 3.0629 -7.6061 1.4627 1.8305 32.5822
#
#
#
# Elastic Compliance Matrix: (Units=1/GPa)
#
#
# Indices 1 2 3 4 5 6 
#
# 1 0.007748 -0.001584 -0.002689 0.000334 0.000773 -0.002704
# 2 -0.001584 0.016072 -0.006640 -0.002613 0.000252 -0.002515
# 3 -0.002689 -0.006640 0.015304 0.003470 0.002316 0.004663
# 4 0.000334 -0.002613 0.003470 0.040343 0.001095 -0.000910
# 5 0.000773 0.000252 0.002316 0.001095 0.024313 -0.001114
# 6 -0.002704 -0.002515 0.004663 -0.000910 -0.001114 0.032876
#
#
# Mechanical properties :
#
#
# Convention : Reuss Voigt Hill
#
# Bulk Modulus (GPa) = 57.80544 62.60544 60.20544
# Shear Modulus (GPa) = 30.44199 34.67644 32.55921
#
# Velocity S-wave (km/s) = 3.68120 3.92889 3.80706
# Velocity P-wave (km/s) = 6.61818 6.96063 6.79156
#
# Compressibility (1/GPa) = 0.01729941
#
# Stress axis : x y z
#
# Youngs Moduli (GPa) = 129.07112 62.22030 65.34165
#
# Poissons Ratio (x) = 0.09855 0.17569
# Poissons Ratio (y) = 0.20444 0.43384
# Poissons Ratio (z) = 0.34704 0.41311
#
# Static dielectric constant tensor:
#      x y z
#    x 4.339640 0.145200 -0.199970 
#    y 0.145200 4.251680 0.019620 
#    z -0.199970 0.019620 3.988350 
# 
# 
# High freq. dielectric constant tensor:
#      x y z
#    x 1.909660 0.006950 -0.009820 
#    y 0.006950 1.885210 0.003500 
#    z -0.009820 0.003500 1.880770 
# 
# From -- ./inp_files/274253.got.cif
#   From: 2010.06.25/outbox.cif.g09.slc.cpg/sg2_138_cif.got.tgz:274253.got - 2010.06.27 13:26:56.
