data_PCOD8021210
_publ_section_title
;
Structure prediction by ZEFSAII (Michael W. Deem and Ramdas Pophale) SiO2 
 PCOD8021210
Probable space group: P -1
;
_chemical_formula_sum "Si O2"
_cell_formula_units_Z 14
_cell_length_a 8.223517
_cell_length_b 5.245665
_cell_length_c 13.236561
_cell_angle_alpha 91.475208
_cell_angle_beta 106.335897
_cell_angle_gamma 80.989615
_cell_volume 541.082172
_symmetry_space_group_name_H-M "P -1"
_symmetry_group_IT_number 2
_symmetry_cell_setting 'triclinic'
loop_
_space_group_symop_operation_xyz
x,y,z
-x,-y,-z
loop_
_atom_site_type_symbol
_atom_site_label
_atom_site_fract_x
_atom_site_fract_y
_atom_site_fract_z
Si Si1 0.422918 0.201342 0.071065
Si Si2 0.580031 0.697296 0.399926
Si Si3 0.870983 0.482707 0.068736
Si Si4 0.335462 0.828531 0.705852
Si Si5 0.830902 0.882678 0.813883
Si Si6 0.256697 0.460715 0.377252
Si Si7 0.967830 0.807726 0.261623
O O1 0.570333 0.257670 0.172996
O O2 0.274824 0.067762 0.100508
O O3 0.324965 0.476087 0.008729
O O4 0.500000 0.000000 0.000000
O O5 0.669058 0.433909 0.358071
O O6 0.387915 0.668570 0.397691
O O7 0.691709 0.728883 0.520461
O O8 0.573428 0.954813 0.333611
O O9 0.854745 0.702493 0.154588
O O10 0.961432 0.219420 0.134046
O O11 0.000000 0.500000 0.000000
O O12 0.140068 0.956271 0.694811
O O13 0.730439 0.696750 0.727653
O O14 0.853277 0.137884 0.759673
O O15 0.057139 0.595594 0.356179
#
# Coordination Sequence:
#
# PCOD8021210 Si02
#       7
#     2   2   2   2   2   2   2
#     4  11  21  43  67  99 139 184 234 289 348 402
#     4  11  27  48  73 104 139 186 234 292 346 414
#     4   9  21  40  62  93 136 180 234 278 340 409
#     4  12  27  46  69 108 146 178 238 291 344 413
#     4  10  22  43  68  99 138 180 236 280 346 428
#     4  10  24  45  75  97 140 184 232 283 357 414
#     4  11  24  42  68 101 142 186 227 292 346 424
#
# _framework density 25.874075000000001
#
# number of rings (size 3 to 8) (size 9 to 14) (size 15 to 20)
#    0.000    1.429    2.857    0.857    6.000    4.571 
#    2.571    1.429    0.000    0.000    0.000    0.000 
#    0.000    0.000    0.000    0.000    0.000    0.000 
#
# Total GULP energy -173446.685846 kJ/mol
# GULP energy per Si atom -12389.048989 kJ/mol
# Density = 2.581518 g / cm^3
# Si number density = 25.874075 Si / 1000 Ang^3
#
#
#
# Elastic Constant Matrix: (Units=GPa)
#
#
# Indices 1 2 3 4 5 6 
#
# 1 72.8572 15.2820 40.5546 4.2795 17.1483 -31.2506
# 2 15.2820 70.8983 32.9786 -3.3780 6.7567 -22.6159
# 3 40.5546 32.9786 143.2817 -12.9514 26.1117 -27.1779
# 4 4.2795 -3.3780 -12.9514 24.5114 -16.7596 -5.9541
# 5 17.1483 6.7567 26.1117 -16.7596 39.2179 -6.6002
# 6 -31.2506 -22.6159 -27.1779 -5.9541 -6.6002 49.4781
#
#
#
# Elastic Compliance Matrix: (Units=1/GPa)
#
#
# Indices 1 2 3 4 5 6 
#
# 1 0.023193 0.000478 -0.003810 -0.010811 -0.010615 0.010058
# 2 0.000478 0.017709 -0.002698 0.003720 0.001396 0.007548
# 3 -0.003810 -0.002698 0.009868 0.004522 -0.002164 0.002037
# 4 -0.010811 0.003720 0.004522 0.070632 0.032986 0.010256
# 5 -0.010615 0.001396 -0.002164 0.032986 0.045914 0.002840
# 6 0.010058 0.007548 0.002037 0.010256 0.002840 0.032745
#
#
# Mechanical properties :
#
#
# Convention : Reuss Voigt Hill
#
# Bulk Modulus (GPa) = 25.83269 51.62973 38.73121
# Shear Modulus (GPa) = 22.21977 35.85628 29.03803
#
# Velocity S-wave (km/s) = 2.93365 3.72667 3.35368
# Velocity P-wave (km/s) = 4.63473 6.20604 5.47703
#
# Compressibility (1/GPa) = 0.03871064
#
# Stress axis : x y z
#
# Youngs Moduli (GPa) = 43.11590 56.47004 101.33821
#
# Poissons Ratio (x) = -0.02697 0.38606
# Poissons Ratio (y) = -0.02059 0.27336
# Poissons Ratio (z) = 0.16426 0.15233
#
# Static dielectric constant tensor:
#      x y z
#    x 4.578080 -0.431440 0.184000 
#    y -0.431440 4.654820 -0.474540 
#    z 0.184000 -0.474540 5.113970 
# 
# 
# High freq. dielectric constant tensor:
#      x y z
#    x 2.031820 -0.031200 0.008680 
#    y -0.031200 2.021730 -0.017980 
#    z 0.008680 -0.017980 2.049280 
# 
# From -- ./inp_files/40191.got.cif
#   From: 2010.06.25/outbox.cif.g09.slc.cpg/sg2_21_cif.got.tgz:40191.got - 2010.06.27 13:26:56.
