data_PCOD8021307
_publ_section_title
;
Structure prediction by ZEFSAII (Michael W. Deem and Ramdas Pophale) SiO2 
 PCOD8021307
Probable space group: P -1
;
_chemical_formula_sum "Si O2"
_cell_formula_units_Z 14
_cell_length_a 14.098121
_cell_length_b 12.196862
_cell_length_c 20.499283
_cell_angle_alpha 159.088268
_cell_angle_beta 148.790471
_cell_angle_gamma 42.829542
_cell_volume 609.594977
_symmetry_space_group_name_H-M "P -1"
_symmetry_group_IT_number 2
_symmetry_cell_setting 'triclinic'
loop_
_space_group_symop_operation_xyz
x,y,z
-x,-y,-z
loop_
_atom_site_type_symbol
_atom_site_label
_atom_site_fract_x
_atom_site_fract_y
_atom_site_fract_z
Si Si1 0.646488 0.368396 0.944084
Si Si2 0.314283 0.800247 0.499077
Si Si3 0.635364 0.996717 0.220101
Si Si4 0.378380 0.291281 0.157213
Si Si5 0.066511 0.176789 0.533395
Si Si6 0.034828 0.192221 0.378715
Si Si7 0.641636 0.889633 0.566721
O O1 0.458585 0.157014 0.757711
O O2 0.713035 0.128684 0.803580
O O3 0.583256 0.622682 0.004585
O O4 0.824093 0.540953 0.193562
O O5 0.340757 0.500555 0.310979
O O6 0.349342 0.763669 0.575849
O O7 0.101850 0.836892 0.383657
O O8 0.468683 0.027666 0.091256
O O9 0.838660 0.118502 0.369164
O O10 0.525513 0.518884 0.316886
O O11 0.171206 0.105229 0.898360
O O12 0.137597 0.281093 0.559116
O O13 0.168557 0.081853 0.346775
O O14 0.000000 0.500000 0.500000
O O15 0.500000 0.000000 0.500000
#
# Coordination Sequence:
#
# PCOD8021307 Si02
#       7
#     2   2   2   2   2   2   2
#     4  10  23  44  73 101 134 182 237 284 340 416
#     4  10  22  43  70 101 134 185 228 291 341 409
#     4  11  23  41  71 101 141 179 226 294 345 408
#     4  11  27  46  68 106 144 179 237 282 355 415
#     4  11  24  42  70 102 135 180 241 273 347 414
#     4  12  29  45  71 105 145 186 224 294 355 408
#     4  11  27  49  75 102 140 188 234 287 345 413
#
# _framework density 22.966066999999999
#
# number of rings (size 3 to 8) (size 9 to 14) (size 15 to 20)
#    0.000    1.143    0.000    6.429   12.000    2.286 
#    0.000    2.143    0.000    0.000    0.000    0.000 
#    0.000    0.000    0.000    0.000    0.000    0.000 
#
# Total GULP energy -173661.384575 kJ/mol
# GULP energy per Si atom -12404.384612 kJ/mol
# Density = 2.291380 g / cm^3
# Si number density = 22.966067 Si / 1000 Ang^3
#
#
#
# Elastic Constant Matrix: (Units=GPa)
#
#
# Indices 1 2 3 4 5 6 
#
# 1 133.7845 43.9117 41.1208 -9.8029 -4.0972 1.8193
# 2 43.9117 127.7552 39.1687 -8.9750 -0.4967 2.6010
# 3 41.1208 39.1687 89.5839 0.7883 8.1835 -6.2993
# 4 -9.8029 -8.9750 0.7883 30.2888 -0.7667 3.8297
# 5 -4.0972 -0.4967 8.1835 -0.7667 19.4765 -0.8231
# 6 1.8193 2.6010 -6.2993 3.8297 -0.8231 42.4471
#
#
#
# Elastic Compliance Matrix: (Units=1/GPa)
#
#
# Indices 1 2 3 4 5 6 
#
# 1 0.009678 -0.001829 -0.004091 0.002931 0.003777 -0.001101
# 2 -0.001829 0.009803 -0.003693 0.002608 0.001466 -0.001277
# 3 -0.004091 -0.003693 0.015573 -0.003377 -0.007510 0.002872
# 4 0.002931 0.002608 -0.003377 0.035404 0.003330 -0.003916
# 5 0.003777 0.001466 -0.007510 0.003330 0.055437 -0.000592
# 6 -0.001101 -0.001277 0.002872 -0.003916 -0.000592 0.024452
#
#
# Mechanical properties :
#
#
# Convention : Reuss Voigt Hill
#
# Bulk Modulus (GPa) = 63.18086 66.61398 64.89742
# Shear Modulus (GPa) = 28.59580 33.57064 31.08322
#
# Velocity S-wave (km/s) = 3.53247 3.82743 3.68291
# Velocity P-wave (km/s) = 6.64891 6.97142 6.81207
#
# Compressibility (1/GPa) = 0.01582758
#
# Stress axis : x y z
#
# Youngs Moduli (GPa) = 103.32782 102.00491 64.21374
#
# Poissons Ratio (x) = 0.18659 0.26269
# Poissons Ratio (y) = 0.18901 0.23716
# Poissons Ratio (z) = 0.42270 0.37674
#
# Static dielectric constant tensor:
#      x y z
#    x 4.239530 0.087340 -0.060390 
#    y 0.087340 4.014900 -0.084520 
#    z -0.060390 -0.084520 4.149440 
# 
# 
# High freq. dielectric constant tensor:
#      x y z
#    x 1.933810 -0.000940 -0.006640 
#    y -0.000940 1.903290 -0.005090 
#    z -0.006640 -0.005090 1.900490 
# 
# From -- ./inp_files/186219.got.cif
#   From: 2010.06.25/outbox.cif.g09.slc.cpg/sg2_94_cif.got.tgz:186219.got - 2010.06.27 13:26:56.
