data_PCOD8021033
_publ_section_title
;
Structure prediction by ZEFSAII (Michael W. Deem and Ramdas Pophale) SiO2 
 PCOD8021033
Probable space group: P -1
;
_chemical_formula_sum "Si O2"
_cell_formula_units_Z 16
_cell_length_a 11.841966
_cell_length_b 24.618008
_cell_length_c 5.451227
_cell_angle_alpha 67.462518
_cell_angle_beta 120.269237
_cell_angle_gamma 150.076808
_cell_volume 679.347542
_symmetry_space_group_name_H-M "P -1"
_symmetry_group_IT_number 2
_symmetry_cell_setting 'triclinic'
loop_
_space_group_symop_operation_xyz
x,y,z
-x,-y,-z
loop_
_atom_site_type_symbol
_atom_site_label
_atom_site_fract_x
_atom_site_fract_y
_atom_site_fract_z
Si Si1 0.572298 0.059352 0.228182
Si Si2 0.277121 0.065412 0.942096
Si Si3 0.758151 0.852653 0.859864
Si Si4 0.446865 0.324005 0.772879
Si Si5 0.891689 0.520935 0.254941
Si Si6 0.223322 0.406189 0.793907
Si Si7 0.891194 0.700341 0.656596
Si Si8 0.394423 0.714156 0.318888
O O1 0.860626 0.172451 0.348277
O O2 0.500000 0.000000 0.500000
O O3 0.451527 0.076868 0.087625
O O4 0.500000 0.000000 0.000000
O O5 0.395510 0.160172 0.741334
O O6 0.259753 0.087736 0.155167
O O7 0.995560 0.940442 0.787019
O O8 0.491231 0.736575 0.657406
O O9 0.769839 0.801923 0.149015
O O10 0.321433 0.331962 0.491962
O O11 0.606075 0.347830 0.713884
O O12 0.637851 0.421411 0.009367
O O13 0.844645 0.550295 0.368852
O O14 0.000000 0.500000 0.500000
O O15 0.118252 0.633774 0.146055
O O16 0.163798 0.360424 0.536926
O O17 0.500000 0.500000 0.000000
O O18 0.078769 0.322197 0.012201
#
# Coordination Sequence:
#
# PCOD8021033 Si02
#       8
#     2   2   2   2   2   2   2   2
#     4  12  28  47  75 109 144 194 245 310 370 443
#     4  10  24  43  67  97 140 177 242 293 361 432
#     4  10  22  43  67 101 133 186 230 297 363 430
#     4  11  25  43  70 107 141 191 236 306 365 441
#     4  12  26  45  72 106 146 184 249 305 367 435
#     4  12  28  50  76 108 148 205 247 306 373 446
#     4  12  28  49  78 106 154 196 253 300 374 455
#     4  11  24  40  71  98 138 183 235 295 367 426
#
# _framework density 23.552009000000002
#
# number of rings (size 3 to 8) (size 9 to 14) (size 15 to 20)
#    0.000    0.750    2.500    3.375    8.750    1.000 
#    0.000    0.000    0.000    0.000    0.000    0.000 
#    0.000    0.000    0.000    0.000    0.000    0.000 
#
# Total GULP energy -198226.308979 kJ/mol
# GULP energy per Si atom -12389.144311 kJ/mol
# Density = 2.349840 g / cm^3
# Si number density = 23.552009 Si / 1000 Ang^3
#
#
#
# Elastic Constant Matrix: (Units=GPa)
#
#
# Indices 1 2 3 4 5 6 
#
# 1 131.5546 18.6707 19.4882 -1.0627 10.7766 -9.3282
# 2 18.6707 92.4718 7.6190 12.1478 3.8773 12.3724
# 3 19.4882 7.6190 54.7400 -5.6087 -0.2502 -7.8086
# 4 -1.0627 12.1478 -5.6087 34.4571 -0.2897 5.3361
# 5 10.7766 3.8773 -0.2502 -0.2897 44.6811 1.6597
# 6 -9.3282 12.3724 -7.8086 5.3361 1.6597 43.0745
#
#
#
# Elastic Compliance Matrix: (Units=1/GPa)
#
#
# Indices 1 2 3 4 5 6 
#
# 1 0.008518 -0.001707 -0.002513 0.000138 -0.001991 0.001939
# 2 -0.001707 0.012409 -0.002089 -0.004188 -0.000564 -0.003772
# 3 -0.002513 -0.002089 0.020279 0.003460 0.000802 0.003273
# 4 0.000138 -0.004188 0.003460 0.031389 0.000629 -0.002052
# 5 -0.001991 -0.000564 0.000802 0.000629 0.022959 -0.001086
# 6 0.001939 -0.003772 0.003273 -0.002052 -0.001086 0.025608
#
#
# Mechanical properties :
#
#
# Convention : Reuss Voigt Hill
#
# Bulk Modulus (GPa) = 34.98086 41.14692 38.06389
# Shear Modulus (GPa) = 34.88948 39.97509 37.43229
#
# Velocity S-wave (km/s) = 3.85305 4.12431 3.99098
# Velocity P-wave (km/s) = 5.88893 6.33944 6.11833
#
# Compressibility (1/GPa) = 0.02858706
#
# Stress axis : x y z
#
# Youngs Moduli (GPa) = 117.40289 80.58390 49.31277
#
# Poissons Ratio (x) = 0.13754 0.12393
# Poissons Ratio (y) = 0.20038 0.10303
# Poissons Ratio (z) = 0.29506 0.16837
#
# Static dielectric constant tensor:
#      x y z
#    x 4.300870 0.354060 -0.070460 
#    y 0.354060 4.423220 -0.070920 
#    z -0.070460 -0.070920 3.944120 
# 
# 
# High freq. dielectric constant tensor:
#      x y z
#    x 1.946600 0.002950 0.002650 
#    y 0.002950 1.958930 -0.000060 
#    z 0.002650 -0.000060 1.917990 
# 
# From -- ./inp_files/84328.got.cif
#   From: 2010.06.25/outbox.cif.g09.slc.cpg/sg2_43_cif.got.tgz:84328.got - 2010.06.27 13:26:56.
