data_PCOD8021910
_publ_section_title
;
Structure prediction by ZEFSAII (Michael W. Deem and Ramdas Pophale) SiO2 
 PCOD8021910
Probable space group: P -1
;
_chemical_formula_sum "Si O2"
_cell_formula_units_Z 16
_cell_length_a 28.447642
_cell_length_b 6.713176
_cell_length_c 25.777076
_cell_angle_alpha 121.078857
_cell_angle_beta 9.665908
_cell_angle_gamma 121.992267
_cell_volume 700.371875
_symmetry_space_group_name_H-M "P -1"
_symmetry_group_IT_number 2
_symmetry_cell_setting 'triclinic'
loop_
_space_group_symop_operation_xyz
x,y,z
-x,-y,-z
loop_
_atom_site_type_symbol
_atom_site_label
_atom_site_fract_x
_atom_site_fract_y
_atom_site_fract_z
Si Si1 0.206928 0.100156 0.333986
Si Si2 0.545270 0.153965 0.241344
Si Si3 0.356028 0.019351 0.784525
Si Si4 0.724983 0.382124 0.644579
Si Si5 0.806636 0.426370 0.151305
Si Si6 0.134018 0.083520 0.220105
Si Si7 0.898398 0.316390 0.337902
Si Si8 0.200268 0.570254 0.650892
O O1 0.278699 0.380970 0.286938
O O2 0.000000 0.000000 0.500000
O O3 0.056908 0.037755 0.543065
O O4 0.500000 0.000000 0.000000
O O5 0.411589 0.387434 0.409461
O O6 0.674830 0.170080 0.160291
O O7 0.321463 0.920081 0.454848
O O8 0.773847 0.123918 0.943946
O O9 0.666572 0.153940 0.451423
O O10 0.225430 0.859647 0.856925
O O11 0.204331 0.238110 0.995898
O O12 0.838533 0.458564 0.473567
O O13 0.946121 0.234199 0.410444
O O14 0.408060 0.242053 0.968118
O O15 0.500000 0.500000 0.500000
O O16 0.000000 0.500000 0.000000
O O17 0.942935 0.548782 0.967764
O O18 0.892384 0.477653 0.314865
#
# Coordination Sequence:
#
# PCOD8021910 Si02
#       8
#     2   2   2   2   2   2   2   2
#     4  12  28  46  69 103 145 195 247 283 339 428
#     4  10  22  44  70 108 143 174 234 295 374 425
#     4  11  24  45  73 104 140 176 236 292 361 427
#     4  11  25  46  72 106 144 180 237 300 357 422
#     4  12  29  50  70 100 145 194 242 284 339 434
#     4  11  25  44  73 105 141 190 230 297 360 417
#     4  10  23  42  72 109 136 175 234 298 365 426
#     4  11  26  43  75 103 141 191 222 305 363 414
#
# _framework density 22.845005
#
# number of rings (size 3 to 8) (size 9 to 14) (size 15 to 20)
#    0.000    1.000    2.500    2.250    7.000    7.000 
#    0.000    0.000    0.000    0.000    0.000    0.000 
#    0.000    0.000    0.000    0.000    0.000    0.000 
#
# Total GULP energy -198383.651261 kJ/mol
# GULP energy per Si atom -12398.978204 kJ/mol
# Density = 2.279301 g / cm^3
# Si number density = 22.845005 Si / 1000 Ang^3
#
#
#
# Elastic Constant Matrix: (Units=GPa)
#
#
# Indices 1 2 3 4 5 6 
#
# 1 122.8724 53.8288 55.0845 -0.7402 -8.2404 -2.3003
# 2 53.8288 71.3065 41.2327 12.0764 13.3011 -2.4328
# 3 55.0845 41.2327 152.9066 5.7393 7.0387 -6.1567
# 4 -0.7402 12.0764 5.7393 31.1687 -10.0131 -4.0133
# 5 -8.2404 13.3011 7.0387 -10.0131 45.5420 0.6885
# 6 -2.3003 -2.4328 -6.1567 -4.0133 0.6885 41.5839
#
#
#
# Elastic Compliance Matrix: (Units=1/GPa)
#
#
# Indices 1 2 3 4 5 6 
#
# 1 0.016247 -0.013973 -0.002862 0.009442 0.009533 0.000411
# 2 -0.013973 0.031516 -0.002152 -0.017097 -0.015149 -0.000647
# 3 -0.002862 -0.002152 0.008293 -0.001109 -0.001428 0.000860
# 4 0.009442 -0.017097 -0.001109 0.044942 0.016703 0.003419
# 5 0.009533 -0.015149 -0.001428 0.016703 0.031992 0.000512
# 6 0.000411 -0.000647 0.000860 0.003419 0.000512 0.024481
#
#
# Mechanical properties :
#
#
# Convention : Reuss Voigt Hill
#
# Bulk Modulus (GPa) = 55.30122 71.93082 63.61602
# Shear Modulus (GPa) = 24.81740 36.78823 30.80281
#
# Velocity S-wave (km/s) = 3.29954 4.01726 3.67596
# Velocity P-wave (km/s) = 6.22701 7.28510 6.77673
#
# Compressibility (1/GPa) = 0.01808278
#
# Stress axis : x y z
#
# Youngs Moduli (GPa) = 61.55100 31.73027 120.58312
#
# Poissons Ratio (x) = 0.44337 0.34506
# Poissons Ratio (y) = 0.86006 0.25945
# Poissons Ratio (z) = 0.17613 0.06827
#
# Static dielectric constant tensor:
#      x y z
#    x 4.548260 0.038100 0.124960 
#    y 0.038100 4.132360 -0.212380 
#    z 0.124960 -0.212380 4.376260 
# 
# 
# High freq. dielectric constant tensor:
#      x y z
#    x 1.909250 0.003230 -0.001310 
#    y 0.003230 1.909180 -0.012210 
#    z -0.001310 -0.012210 1.916050 
# 
# From -- ./inp_files/13117.got.cif
#   From: 2010.06.25/outbox.cif.g09.slc.cpg/sg2_7_cif.got.tgz:13117.got - 2010.06.27 13:26:56.
