data_PCOD8021381
_publ_section_title
;
Structure prediction by ZEFSAII (Michael W. Deem and Ramdas Pophale) SiO2 
 PCOD8021381
Probable space group: P -1
;
_chemical_formula_sum "Si O2"
_cell_formula_units_Z 8
_cell_length_a 8.319286
_cell_length_b 6.512487
_cell_length_c 12.242700
_cell_angle_alpha 46.943358
_cell_angle_beta 146.154161
_cell_angle_gamma 130.644533
_cell_volume 264.075953
_symmetry_space_group_name_H-M "P -1"
_symmetry_group_IT_number 2
_symmetry_cell_setting 'triclinic'
loop_
_space_group_symop_operation_xyz
x,y,z
-x,-y,-z
loop_
_atom_site_type_symbol
_atom_site_label
_atom_site_fract_x
_atom_site_fract_y
_atom_site_fract_z
Si Si1 0.562417 0.621958 0.161023
Si Si2 0.726444 0.123291 0.678299
Si Si3 0.287788 0.887244 0.086915
Si Si4 0.947934 0.266065 0.442399
O O1 0.326318 0.621978 0.125126
O O2 0.893770 0.764087 0.341432
O O3 0.601653 0.299614 0.262833
O O4 0.505658 0.821541 0.955262
O O5 0.577784 0.158522 0.701272
O O6 0.906862 0.443467 0.643196
O O7 0.500000 0.000000 0.500000
O O8 0.945932 0.900815 0.897957
O O9 0.000000 0.000000 0.500000
#
# Coordination Sequence:
#
# PCOD8021381 Si02
#       4
#     2   2   2   2
#     4   9  20  42  70 101 139 187 238 290 351 423
#     4  10  22  44  74 106 143 188 237 294 356 421
#     4   9  20  43  71 104 141 187 243 294 346 421
#     4  10  22  43  71 104 144 188 234 291 360 427
#
# _framework density 30.294314
#
# number of rings (size 3 to 8) (size 9 to 14) (size 15 to 20)
#    0.000    2.500    0.000    0.000    0.000    7.000 
#    0.000   37.500    0.000    1.500    0.000    0.000 
#    0.000    0.000    0.000    0.000    0.000    0.000 
#
# Total GULP energy -99111.108681 kJ/mol
# GULP energy per Si atom -12388.888585 kJ/mol
# Density = 3.022536 g / cm^3
# Si number density = 30.294314 Si / 1000 Ang^3
#
#
#
# Elastic Constant Matrix: (Units=GPa)
#
#
# Indices 1 2 3 4 5 6 
#
# 1 235.1370 73.6891 86.9043 -11.6869 -0.8873 -73.1049
# 2 73.6891 147.5637 49.1236 -31.3899 -1.0715 -52.6250
# 3 86.9043 49.1236 128.6851 -12.7145 -5.8398 -42.2231
# 4 -11.6869 -31.3899 -12.7145 50.8398 -18.9788 14.3260
# 5 -0.8873 -1.0715 -5.8398 -18.9788 84.2832 1.0309
# 6 -73.1049 -52.6250 -42.2231 14.3260 1.0309 49.4468
#
#
#
# Elastic Compliance Matrix: (Units=1/GPa)
#
#
# Indices 1 2 3 4 5 6 
#
# 1 0.008466 0.000139 -0.002289 -0.001965 -0.000648 0.011293
# 2 0.000139 0.011731 -0.000491 0.004427 0.000979 0.010968
# 3 -0.002289 -0.000491 0.011473 0.000773 0.000870 0.005648
# 4 -0.001965 0.004427 0.000773 0.025820 0.005966 -0.005138
# 5 -0.000648 0.000979 0.000870 0.005966 0.013288 -0.001179
# 6 0.011293 0.010968 0.005648 -0.005138 -0.001179 0.054929
#
#
# Mechanical properties :
#
#
# Convention : Reuss Voigt Hill
#
# Bulk Modulus (GPa) = 37.89558 103.42443 70.66001
# Shear Modulus (GPa) = 35.76882 57.02520 46.39701
#
# Velocity S-wave (km/s) = 3.43987 4.34334 3.91774
# Velocity P-wave (km/s) = 5.32102 7.70498 6.62118
#
# Compressibility (1/GPa) = 0.02638830
#
# Stress axis : x y z
#
# Youngs Moduli (GPa) = 118.11805 85.24217 87.15999
#
# Poissons Ratio (x) = -0.01184 0.19947
# Poissons Ratio (y) = -0.01641 0.04284
# Poissons Ratio (z) = 0.27032 0.04190
#
# Static dielectric constant tensor:
#      x y z
#    x 6.608420 -0.358280 0.110570 
#    y -0.358280 5.585290 -0.211010 
#    z 0.110570 -0.211010 5.965400 
# 
# 
# High freq. dielectric constant tensor:
#      x y z
#    x 2.270180 -0.026250 -0.004520 
#    y -0.026250 2.242160 -0.007940 
#    z -0.004520 -0.007940 2.242080 
# 
# From -- ./inp_files/19377.got.cif
#   From: 2010.06.25/outbox.cif.g09.slc.cpg/sg2_10_cif.got.tgz:19377.got - 2010.06.27 13:26:56.
