data_PCOD8021432
_publ_section_title
;
Structure prediction by ZEFSAII (Michael W. Deem and Ramdas Pophale) SiO2 
 PCOD8021432
Probable space group: P -1
;
_chemical_formula_sum "Si O2"
_cell_formula_units_Z 14
_cell_length_a 14.618165
_cell_length_b 7.013150
_cell_length_c 8.387080
_cell_angle_alpha 128.330354
_cell_angle_beta 87.096347
_cell_angle_gamma 62.061697
_cell_volume 518.648558
_symmetry_space_group_name_H-M "P -1"
_symmetry_group_IT_number 2
_symmetry_cell_setting 'triclinic'
loop_
_space_group_symop_operation_xyz
x,y,z
-x,-y,-z
loop_
_atom_site_type_symbol
_atom_site_label
_atom_site_fract_x
_atom_site_fract_y
_atom_site_fract_z
Si Si1 0.902410 0.112664 0.437587
Si Si2 0.179271 0.372381 0.544618
Si Si3 0.329540 0.399446 0.129023
Si Si4 0.524869 0.452089 0.657260
Si Si5 0.038248 0.201492 0.040714
Si Si6 0.635931 0.792240 0.329263
Si Si7 0.718389 0.041609 0.952348
O O1 0.880421 0.389282 0.476096
O O2 0.781990 0.255901 0.617455
O O3 0.000000 0.000000 0.500000
O O4 0.947793 0.819679 0.163990
O O5 0.261446 0.429678 0.662684
O O6 0.259172 0.026124 0.275239
O O7 0.073135 0.441866 0.703435
O O8 0.445980 0.335983 0.157183
O O9 0.326953 0.127882 0.048852
O O10 0.329886 0.399325 0.936989
O O11 0.500000 0.500000 0.500000
O O12 0.638581 0.083736 0.471392
O O13 0.395932 0.579820 0.816749
O O14 0.162486 0.069263 0.034143
O O15 0.000000 0.000000 0.000000
O O16 0.500000 0.000000 0.500000
#
# Coordination Sequence:
#
# PCOD8021432 Si02
#       7
#     2   2   2   2   2   2   2
#     4  10  22  44  74 103 141 193 240 296 359 437
#     4  10  24  45  68 106 147 184 240 301 363 425
#     4  11  25  47  72 109 146 191 250 298 360 440
#     4  12  26  46  76 107 147 193 252 296 362 439
#     4  10  22  43  72 108 145 186 240 305 367 425
#     4  12  28  46  74 109 151 192 240 307 369 428
#     4  11  23  44  76 103 146 197 241 301 362 433
#
# _framework density 26.993230000000001
#
# number of rings (size 3 to 8) (size 9 to 14) (size 15 to 20)
#    0.000    1.143    1.429    3.429    8.000    2.286 
#   10.286    3.571    0.000    0.000    0.000    0.000 
#    0.000    0.000    0.000    0.000    0.000    0.000 
#
# Total GULP energy -173525.388706 kJ/mol
# GULP energy per Si atom -12394.670622 kJ/mol
# Density = 2.693179 g / cm^3
# Si number density = 26.993230 Si / 1000 Ang^3
#
#
#
# Elastic Constant Matrix: (Units=GPa)
#
#
# Indices 1 2 3 4 5 6 
#
# 1 153.5753 31.4434 64.4612 -20.5023 -6.2787 -50.8271
# 2 31.4434 70.6930 54.5886 -26.0758 2.0606 -36.4891
# 3 64.4612 54.5886 286.7722 -24.6324 -24.2256 -33.0717
# 4 -20.5023 -26.0758 -24.6324 56.3375 -11.5205 5.4116
# 5 -6.2787 2.0606 -24.2256 -11.5205 54.0288 -3.9984
# 6 -50.8271 -36.4891 -33.0717 5.4116 -3.9984 47.4319
#
#
#
# Elastic Compliance Matrix: (Units=1/GPa)
#
#
# Indices 1 2 3 4 5 6 
#
# 1 0.012086 0.006016 -0.001232 0.005699 0.003046 0.016326
# 2 0.006016 0.034124 -0.002937 0.014574 0.003354 0.029270
# 3 -0.001232 -0.002937 0.004518 0.000629 0.002104 -0.000325
# 4 0.005699 0.014574 0.000629 0.026856 0.007247 0.015303
# 5 0.003046 0.003354 0.002104 0.007247 0.021840 0.008326
# 6 0.016326 0.029270 -0.000325 0.015303 0.008326 0.059825
#
#
# Mechanical properties :
#
#
# Convention : Reuss Voigt Hill
#
# Bulk Modulus (GPa) = 18.37543 90.22521 54.30032
# Shear Modulus (GPa) = 28.78614 55.59613 42.19113
#
# Velocity S-wave (km/s) = 3.26915 4.54324 3.95780
# Velocity P-wave (km/s) = 4.59043 7.81147 6.40668
#
# Compressibility (1/GPa) = 0.05442050
#
# Stress axis : x y z
#
# Youngs Moduli (GPa) = 82.74375 29.30489 221.35846
#
# Poissons Ratio (x) = -0.17631 0.27277
# Poissons Ratio (y) = -0.49781 0.65019
# Poissons Ratio (z) = 0.10196 0.08608
#
# Static dielectric constant tensor:
#      x y z
#    x 5.347150 -0.106370 -0.494330 
#    y -0.106370 5.593620 1.244460 
#    z -0.494330 1.244460 7.538860 
# 
# 
# High freq. dielectric constant tensor:
#      x y z
#    x 2.093030 -0.004660 -0.002880 
#    y -0.004660 2.083980 0.009230 
#    z -0.002880 0.009230 2.123800 
# 
# From -- ./inp_files/296764.got.cif
#   From: 2010.06.25/outbox.cif.g09.slc.cpg/sg2_149_cif.got.tgz:296764.got - 2010.06.27 13:26:56.
