data_PCOD8021488
_publ_section_title
;
Structure prediction by ZEFSAII (Michael W. Deem and Ramdas Pophale) SiO2 
 PCOD8021488
Probable space group: P -1
;
_chemical_formula_sum "Si O2"
_cell_formula_units_Z 16
_cell_length_a 7.827640
_cell_length_b 16.480097
_cell_length_c 23.279058
_cell_angle_alpha 17.833928
_cell_angle_beta 65.814659
_cell_angle_gamma 58.957866
_cell_volume 749.307859
_symmetry_space_group_name_H-M "P -1"
_symmetry_group_IT_number 2
_symmetry_cell_setting 'triclinic'
loop_
_space_group_symop_operation_xyz
x,y,z
-x,-y,-z
loop_
_atom_site_type_symbol
_atom_site_label
_atom_site_fract_x
_atom_site_fract_y
_atom_site_fract_z
Si Si1 0.530086 0.223093 0.014257
Si Si2 0.860952 0.978381 0.582458
Si Si3 0.681528 0.011732 0.893449
Si Si4 0.730183 0.543559 0.295415
Si Si5 0.847275 0.407691 0.114049
Si Si6 0.937132 0.839858 0.289617
Si Si7 0.534294 0.804370 0.571450
Si Si8 0.110653 0.172076 0.562553
O O1 0.441997 0.053411 0.097907
O O2 0.760320 0.021588 0.144041
O O3 0.383379 0.331553 0.017970
O O4 0.524157 0.500673 0.792724
O O5 0.029981 0.668846 0.791541
O O6 0.778144 0.237240 0.465818
O O7 0.657274 0.965636 0.595167
O O8 0.000000 0.000000 0.500000
O O9 0.509207 0.300183 0.755486
O O10 0.867339 0.082367 0.797268
O O11 0.776483 0.747815 0.105298
O O12 0.882919 0.446251 0.395754
O O13 0.833774 0.135305 0.269252
O O14 0.000000 0.500000 0.000000
O O15 0.855276 0.901923 0.324733
O O16 0.000000 0.500000 0.500000
O O17 0.736973 0.713250 0.565782
O O18 0.500000 0.000000 0.500000
#
# Coordination Sequence:
#
# PCOD8021488 Si02
#       8
#     2   2   2   2   2   2   2   2
#     4  12  25  47  71 102 140 187 233 291 355 412
#     4  11  21  41  67  99 135 173 227 285 352 411
#     4  11  24  47  71 101 135 184 242 290 344 413
#     4  10  22  43  74  97 128 182 238 290 347 406
#     4  11  24  41  66  98 134 180 227 280 352 424
#     4  12  30  46  68 101 147 191 233 289 348 420
#     4  12  23  42  69 104 139 174 231 294 347 417
#     4  11  25  43  66 104 136 180 227 290 355 414
#
# _framework density 21.35304
#
# number of rings (size 3 to 8) (size 9 to 14) (size 15 to 20)
#    0.000    0.750    3.750    3.000    3.500    5.500 
#    0.000    3.125    0.000    0.000    0.000    0.000 
#    0.000    0.000    0.000    0.000    0.000    0.000 
#
# Total GULP energy -198214.149559 kJ/mol
# GULP energy per Si atom -12388.384347 kJ/mol
# Density = 2.130444 g / cm^3
# Si number density = 21.353040 Si / 1000 Ang^3
#
#
#
# Elastic Constant Matrix: (Units=GPa)
#
#
# Indices 1 2 3 4 5 6 
#
# 1 131.6459 44.7523 42.5351 3.5736 -1.5411 -1.6756
# 2 44.7523 113.7367 24.2367 12.1121 -4.3779 -12.0209
# 3 42.5351 24.2367 55.9539 5.6191 2.9578 -0.3473
# 4 3.5736 12.1121 5.6191 36.6011 -6.1104 -0.1899
# 5 -1.5411 -4.3779 2.9578 -6.1104 37.4931 10.5229
# 6 -1.6756 -12.0209 -0.3473 -0.1899 10.5229 43.7896
#
#
#
# Elastic Compliance Matrix: (Units=1/GPa)
#
#
# Indices 1 2 3 4 5 6 
#
# 1 0.010879 -0.002906 -0.007190 0.001177 0.001060 -0.000688
# 2 -0.002906 0.011042 -0.002258 -0.003000 0.000052 0.002877
# 3 -0.007190 -0.002258 0.024759 -0.002849 -0.002978 0.000005
# 4 0.001177 -0.003000 -0.002849 0.029508 0.005277 -0.001941
# 5 0.001060 0.000052 -0.002978 0.005277 0.029812 -0.007110
# 6 -0.000688 0.002877 0.000005 -0.001941 -0.007110 0.025300
#
#
# Mechanical properties :
#
#
# Convention : Reuss Voigt Hill
#
# Bulk Modulus (GPa) = 45.50912 58.26500 51.88706
# Shear Modulus (GPa) = 30.61302 36.23090 33.42196
#
# Velocity S-wave (km/s) = 3.79048 4.12364 3.96056
# Velocity P-wave (km/s) = 6.36521 7.07236 6.72808
#
# Compressibility (1/GPa) = 0.02197362
#
# Stress axis : x y z
#
# Youngs Moduli (GPa) = 91.92405 90.56206 40.38978
#
# Poissons Ratio (x) = 0.26313 0.29038
# Poissons Ratio (y) = 0.26709 0.09119
# Poissons Ratio (z) = 0.66089 0.20447
#
# Static dielectric constant tensor:
#      x y z
#    x 4.476690 0.393610 0.305850 
#    y 0.393610 4.611470 0.068290 
#    z 0.305850 0.068290 4.109910 
# 
# 
# High freq. dielectric constant tensor:
#      x y z
#    x 1.847290 -0.001820 0.010980 
#    y -0.001820 1.854780 0.002540 
#    z 0.010980 0.002540 1.842020 
# 
# From -- ./inp_files/319336.got.cif
#   From: 2010.06.25/outbox.cif.g09.slc.cpg/sg2_160_cif.got.tgz:319336.got - 2010.06.27 13:26:56.
