data_PCOD8021241
_publ_section_title
;
Structure prediction by ZEFSAII (Michael W. Deem and Ramdas Pophale) SiO2 
 PCOD8021241
Probable space group: P -1
;
_chemical_formula_sum "Si O2"
_cell_formula_units_Z 16
_cell_length_a 12.093058
_cell_length_b 14.768800
_cell_length_c 9.194699
_cell_angle_alpha 48.009343
_cell_angle_beta 139.820702
_cell_angle_gamma 131.752110
_cell_volume 745.336702
_symmetry_space_group_name_H-M "P -1"
_symmetry_group_IT_number 2
_symmetry_cell_setting 'triclinic'
loop_
_space_group_symop_operation_xyz
x,y,z
-x,-y,-z
loop_
_atom_site_type_symbol
_atom_site_label
_atom_site_fract_x
_atom_site_fract_y
_atom_site_fract_z
Si Si1 0.415089 0.137482 0.696791
Si Si2 0.215305 0.260768 0.178091
Si Si3 0.854759 0.512005 0.003796
Si Si4 0.259037 0.732582 0.665780
Si Si5 0.265552 0.606928 0.277230
Si Si6 0.560075 0.954280 0.872674
Si Si7 0.104240 0.907628 0.141345
Si Si8 0.562432 0.391385 0.253711
O O1 0.249628 0.189007 0.434423
O O2 0.608386 0.248878 0.787478
O O3 0.435674 0.042702 0.689825
O O4 0.353480 0.066197 0.864666
O O5 0.381955 0.268305 0.229198
O O6 0.240111 0.410145 0.073827
O O7 0.021198 0.188890 0.996086
O O8 0.855019 0.377061 0.219678
O O9 0.059516 0.605952 0.088074
O O10 0.740904 0.486455 0.766131
O O11 0.441184 0.817962 0.835110
O O12 0.142947 0.823079 0.402677
O O13 0.301881 0.658244 0.650566
O O14 0.337680 0.555792 0.549430
O O15 0.711278 0.017424 0.836420
O O16 0.000000 0.000000 0.000000
O O17 0.500000 0.500000 0.000000
#
# Coordination Sequence:
#
# PCOD8021241 Si02
#       8
#     2   2   2   2   2   2   2   2
#     4  10  22  43  69  92 127 174 216 271 317 390
#     4  11  23  41  64  98 130 166 213 266 328 384
#     4  11  23  41  67  96 132 167 213 267 327 388
#     4  12  24  43  68  96 130 173 213 268 323 393
#     4  10  23  43  61  97 130 171 210 266 324 386
#     4  11  23  44  68  92 127 174 225 263 325 372
#     4  12  26  44  65  95 133 171 221 272 318 382
#     4  11  23  39  65  95 134 167 209 255 327 392
#
# _framework density 21.466806999999999
#
# number of rings (size 3 to 8) (size 9 to 14) (size 15 to 20)
#    0.000    1.000    2.500    4.875    1.750    4.500 
#    4.500    0.000    0.000    0.000    0.000    0.000 
#    0.000    0.000    0.000    0.000    0.000    0.000 
#
# Total GULP energy -198392.901870 kJ/mol
# GULP energy per Si atom -12399.556367 kJ/mol
# Density = 2.141795 g / cm^3
# Si number density = 21.466807 Si / 1000 Ang^3
#
#
#
# Elastic Constant Matrix: (Units=GPa)
#
#
# Indices 1 2 3 4 5 6 
#
# 1 76.1117 29.0415 30.6583 -1.8762 -9.9485 -13.8491
# 2 29.0415 91.2423 37.3128 5.5158 -7.2372 -10.6394
# 3 30.6583 37.3128 122.4318 -14.3228 -12.0265 -11.9188
# 4 -1.8762 5.5158 -14.3228 39.1439 -0.6160 5.4311
# 5 -9.9485 -7.2372 -12.0265 -0.6160 25.6560 -1.4319
# 6 -13.8491 -10.6394 -11.9188 5.4311 -1.4319 30.9773
#
#
#
# Elastic Compliance Matrix: (Units=1/GPa)
#
#
# Indices 1 2 3 4 5 6 
#
# 1 0.017039 -0.003438 -0.002191 -0.000237 0.004932 0.005863
# 2 -0.003438 0.014120 -0.003523 -0.003797 0.001056 0.002672
# 3 -0.002191 -0.003523 0.010744 0.004186 0.003370 0.001366
# 4 -0.000237 -0.003797 0.004186 0.028273 0.001216 -0.004700
# 5 0.004932 0.001056 0.003370 0.001216 0.043111 0.005644
# 6 0.005863 0.002672 0.001366 -0.004700 0.005644 0.037431
#
#
# Mechanical properties :
#
#
# Convention : Reuss Voigt Hill
#
# Bulk Modulus (GPa) = 42.37625 53.75677 48.06651
# Shear Modulus (GPa) = 28.26652 32.00699 30.13675
#
# Velocity S-wave (km/s) = 3.63265 3.86553 3.75090
# Velocity P-wave (km/s) = 6.11376 6.70964 6.41862
#
# Compressibility (1/GPa) = 0.02359813
#
# Stress axis : x y z
#
# Youngs Moduli (GPa) = 58.68995 70.82395 93.07690
#
# Poissons Ratio (x) = 0.24349 0.20397
# Poissons Ratio (y) = 0.20177 0.32787
# Poissons Ratio (z) = 0.12861 0.24948
#
# Static dielectric constant tensor:
#      x y z
#    x 3.869440 -0.039710 -0.162140 
#    y -0.039710 3.949550 -0.030360 
#    z -0.162140 -0.030360 3.923310 
# 
# 
# High freq. dielectric constant tensor:
#      x y z
#    x 1.840290 -0.001210 -0.010670 
#    y -0.001210 1.847760 0.001260 
#    z -0.010670 0.001260 1.848430 
# 
# From -- ./inp_files/271719.got.cif
#   From: 2010.06.25/outbox.cif.g09.slc.cpg/sg2_136_cif.got.tgz:271719.got - 2010.06.27 13:26:56.
