data_PCOD8021532
_publ_section_title
;
Structure prediction by ZEFSAII (Michael W. Deem and Ramdas Pophale) SiO2 
 PCOD8021532
Probable space group: P -1
;
_chemical_formula_sum "Si O2"
_cell_formula_units_Z 16
_cell_length_a 10.734283
_cell_length_b 6.527144
_cell_length_c 14.158514
_cell_angle_alpha 101.853684
_cell_angle_beta 116.962808
_cell_angle_gamma 113.176443
_cell_volume 718.104689
_symmetry_space_group_name_H-M "P -1"
_symmetry_group_IT_number 2
_symmetry_cell_setting 'triclinic'
loop_
_space_group_symop_operation_xyz
x,y,z
-x,-y,-z
loop_
_atom_site_type_symbol
_atom_site_label
_atom_site_fract_x
_atom_site_fract_y
_atom_site_fract_z
Si Si1 0.595007 0.360888 0.017059
Si Si2 0.719113 0.157199 0.424312
Si Si3 0.269063 0.209630 0.488650
Si Si4 0.829806 0.800296 0.814863
Si Si5 0.935782 0.656616 0.659413
Si Si6 0.701285 0.179161 0.200857
Si Si7 0.898629 0.627184 0.003519
Si Si8 0.442728 0.205559 0.371910
O O1 0.658561 0.354995 0.144375
O O2 0.500000 0.500000 0.000000
O O3 0.760627 0.476472 0.021588
O O4 0.459340 0.096354 0.898753
O O5 0.861390 0.384829 0.560112
O O6 0.740159 0.244959 0.331260
O O7 0.525927 0.047571 0.375567
O O8 0.736087 0.921362 0.426725
O O9 0.085487 0.164576 0.404345
O O10 0.325035 0.097573 0.414010
O O11 0.399357 0.507117 0.551469
O O12 0.827512 0.637316 0.711036
O O13 0.805444 0.630314 0.879050
O O14 0.671059 0.824638 0.759155
O O15 0.989977 0.085348 0.896130
O O16 0.126262 0.783370 0.773266
O O17 0.000000 0.500000 0.000000
#
# Coordination Sequence:
#
# PCOD8021532 Si02
#       8
#     2   2   2   2   2   2   2   2
#     4  11  27  47  69  95 133 180 223 277 339 385
#     4  11  23  37  66  96 131 174 219 266 327 398
#     4   9  20  37  59  92 128 173 210 256 327 389
#     4  10  23  40  67  95 134 166 218 277 329 395
#     4  10  22  44  62  96 138 172 212 276 326 395
#     4  11  26  43  66  96 133 173 230 272 316 405
#     4  11  25  42  69 100 126 173 228 276 332 388
#     4   9  20  36  57  90 133 162 207 267 321 388
#
# _framework density 22.280871999999999
#
# number of rings (size 3 to 8) (size 9 to 14) (size 15 to 20)
#    0.000    1.750    0.000    3.000    5.250    8.500 
#    0.000    0.000    0.000    0.000    0.000    0.000 
#    0.000    0.000    0.000    0.000    0.000    0.000 
#
# Total GULP energy -198228.448553 kJ/mol
# GULP energy per Si atom -12389.278035 kJ/mol
# Density = 2.223016 g / cm^3
# Si number density = 22.280872 Si / 1000 Ang^3
#
#
#
# Elastic Constant Matrix: (Units=GPa)
#
#
# Indices 1 2 3 4 5 6 
#
# 1 88.1025 36.6996 16.3362 -14.2339 18.5754 -8.3382
# 2 36.6996 104.4701 44.1630 -32.7279 3.8053 -6.4040
# 3 16.3362 44.1630 107.8492 -28.2654 5.2779 -3.0956
# 4 -14.2339 -32.7279 -28.2654 36.4590 -10.7045 8.2743
# 5 18.5754 3.8053 5.2779 -10.7045 40.5510 -5.2390
# 6 -8.3382 -6.4040 -3.0956 8.2743 -5.2390 29.5146
#
#
#
# Elastic Compliance Matrix: (Units=1/GPa)
#
#
# Indices 1 2 3 4 5 6 
#
# 1 0.014897 -0.005249 -0.000085 -0.001359 -0.006381 0.002309
# 2 -0.005249 0.016080 -0.003014 0.011461 0.004213 -0.000775
# 3 -0.000085 -0.003014 0.012369 0.007291 0.000463 -0.001342
# 4 -0.001359 0.011461 0.007291 0.047782 0.010082 -0.008738
# 5 -0.006381 0.004213 0.000463 0.010082 0.030003 0.001659
# 6 0.002309 -0.000775 -0.001342 -0.008738 0.001659 0.036969
#
#
# Mechanical properties :
#
#
# Convention : Reuss Voigt Hill
#
# Bulk Modulus (GPa) = 37.52379 54.97993 46.25186
# Shear Modulus (GPa) = 27.22138 34.85312 31.03725
#
# Velocity S-wave (km/s) = 3.49913 3.95937 3.73634
# Velocity P-wave (km/s) = 5.76221 6.75511 6.27832
#
# Compressibility (1/GPa) = 0.02664976
#
# Stress axis : x y z
#
# Youngs Moduli (GPa) = 67.12766 62.18988 80.84766
#
# Poissons Ratio (x) = 0.32645 0.00685
# Poissons Ratio (y) = 0.35237 0.24368
# Poissons Ratio (z) = 0.00568 0.18744
#
# Static dielectric constant tensor:
#      x y z
#    x 4.178580 -0.146310 0.299710 
#    y -0.146310 3.829600 -0.221280 
#    z 0.299710 -0.221280 4.260810 
# 
# 
# High freq. dielectric constant tensor:
#      x y z
#    x 1.878010 -0.009650 0.019470 
#    y -0.009650 1.869880 -0.015470 
#    z 0.019470 -0.015470 1.885900 
# 
# From -- ./inp_files/511005.got.cif
#   From: 2010.06.25/outbox.cif.g09.slc.cpg/sg2_256_cif.got.tgz:511005.got - 2010.06.27 13:26:56.
