data_PCOD8021294
_publ_section_title
;
Structure prediction by ZEFSAII (Michael W. Deem and Ramdas Pophale) SiO2 
 PCOD8021294
Probable space group: P -1
;
_chemical_formula_sum "Si O2"
_cell_formula_units_Z 16
_cell_length_a 9.401726
_cell_length_b 12.966851
_cell_length_c 15.210529
_cell_angle_alpha 154.014962
_cell_angle_beta 61.430433
_cell_angle_gamma 109.907141
_cell_volume 694.004239
_symmetry_space_group_name_H-M "P -1"
_symmetry_group_IT_number 2
_symmetry_cell_setting 'triclinic'
loop_
_space_group_symop_operation_xyz
x,y,z
-x,-y,-z
loop_
_atom_site_type_symbol
_atom_site_label
_atom_site_fract_x
_atom_site_fract_y
_atom_site_fract_z
Si Si1 0.814753 0.185060 0.986230
Si Si2 0.059165 0.181227 0.186016
Si Si3 0.819600 0.083247 0.578284
Si Si4 0.643477 0.583642 0.970877
Si Si5 0.592958 0.093732 0.820523
Si Si6 0.457181 0.428796 0.554539
Si Si7 0.764121 0.430779 0.578116
Si Si8 0.822310 0.934825 0.276915
O O1 0.727175 0.428270 0.250997
O O2 0.995263 0.209426 0.919014
O O3 0.833272 0.957828 0.871469
O O4 0.709646 0.141074 0.899588
O O5 0.177770 0.334084 0.219255
O O6 0.887691 0.353445 0.400230
O O7 0.000000 0.000000 0.000000
O O8 0.799654 0.354136 0.751116
O O9 0.686706 0.062514 0.675435
O O10 0.803868 0.909520 0.367860
O O11 0.000000 0.000000 0.500000
O O12 0.500000 0.500000 0.000000
O O13 0.685715 0.815268 0.182061
O O14 0.568565 0.675617 0.966222
O O15 0.527055 0.855875 0.673977
O O16 0.500000 0.500000 0.500000
O O17 0.579860 0.499868 0.645130
O O18 0.784597 0.218292 0.480595
#
# Coordination Sequence:
#
# PCOD8021294 Si02
#       8
#     2   2   2   2   2   2   2   2
#     4  11  26  42  71 106 144 188 242 296 359 429
#     4  10  22  43  69  99 138 187 241 295 354 420
#     4  11  25  46  75 106 142 189 240 299 356 432
#     4  10  25  45  72 104 144 191 239 293 361 428
#     4  11  25  47  69 108 148 185 241 296 360 430
#     4  12  26  45  72 104 145 190 237 301 362 422
#     4  10  23  42  67 100 137 185 238 291 350 430
#     4  11  24  46  73 106 143 193 241 294 361 431
#
# _framework density 23.054614999999998
#
# number of rings (size 3 to 8) (size 9 to 14) (size 15 to 20)
#    0.000    1.250    2.500    1.500    3.500   11.500 
#    0.000    0.000    0.000    0.000    0.000    0.000 
#    0.000    0.000    0.000    0.000    0.000    0.000 
#
# Total GULP energy -198387.786487 kJ/mol
# GULP energy per Si atom -12399.236655 kJ/mol
# Density = 2.300214 g / cm^3
# Si number density = 23.054615 Si / 1000 Ang^3
#
#
#
# Elastic Constant Matrix: (Units=GPa)
#
#
# Indices 1 2 3 4 5 6 
#
# 1 146.0411 55.4177 41.3857 19.5860 8.7637 -17.4967
# 2 55.4177 120.1348 38.6458 9.0298 4.4344 -10.5265
# 3 41.3857 38.6458 86.5477 19.9088 -9.5228 -3.9598
# 4 19.5860 9.0298 19.9088 40.7465 -0.8774 6.8220
# 5 8.7637 4.4344 -9.5228 -0.8774 52.0249 6.4437
# 6 -17.4967 -10.5265 -3.9598 6.8220 6.4437 38.6332
#
#
#
# Elastic Compliance Matrix: (Units=1/GPa)
#
#
# Indices 1 2 3 4 5 6 
#
# 1 0.009888 -0.002954 -0.002653 -0.003602 -0.002512 0.004456
# 2 -0.002954 0.011008 -0.003701 0.000526 -0.001283 0.001403
# 3 -0.002653 -0.003701 0.016183 -0.005708 0.003647 -0.000152
# 4 -0.003602 0.000526 -0.005708 0.030234 0.000965 -0.007573
# 5 -0.002512 -0.001283 0.003647 0.000965 0.021031 -0.004792
# 6 0.004456 0.001403 -0.000152 -0.007573 -0.004792 0.030406
#
#
# Mechanical properties :
#
#
# Convention : Reuss Voigt Hill
#
# Bulk Modulus (GPa) = 54.16236 69.29134 61.72685
# Shear Modulus (GPa) = 34.83825 40.76586 37.80206
#
# Velocity S-wave (km/s) = 3.89153 4.20959 4.05368
# Velocity P-wave (km/s) = 6.61332 7.33131 6.98155
#
# Compressibility (1/GPa) = 0.01846300
#
# Stress axis : x y z
#
# Youngs Moduli (GPa) = 101.13381 90.84435 61.79392
#
# Poissons Ratio (x) = 0.26833 0.16395
# Poissons Ratio (y) = 0.29873 0.22869
# Poissons Ratio (z) = 0.26833 0.33620
#
# Static dielectric constant tensor:
#      x y z
#    x 4.333580 -0.031530 -0.255240 
#    y -0.031530 4.436130 0.159690 
#    z -0.255240 0.159690 4.274040 
# 
# 
# High freq. dielectric constant tensor:
#      x y z
#    x 1.921220 -0.007170 -0.010440 
#    y -0.007170 1.919470 0.000070 
#    z -0.010440 0.000070 1.916690 
# 
# From -- ./inp_files/494645.got.cif
#   From: 2010.06.25/outbox.cif.g09.slc.cpg/sg2_248_cif.got.tgz:494645.got - 2010.06.27 13:26:56.
