data_PCOD8021410
_publ_section_title
;
Structure prediction by ZEFSAII (Michael W. Deem and Ramdas Pophale) SiO2 
 PCOD8021410
Probable space group: P -1
;
_chemical_formula_sum "Si O2"
_cell_formula_units_Z 16
_cell_length_a 14.692209
_cell_length_b 9.339589
_cell_length_c 13.832492
_cell_angle_alpha 83.821643
_cell_angle_beta 149.753500
_cell_angle_gamma 77.036334
_cell_volume 735.401784
_symmetry_space_group_name_H-M "P -1"
_symmetry_group_IT_number 2
_symmetry_cell_setting 'triclinic'
loop_
_space_group_symop_operation_xyz
x,y,z
-x,-y,-z
loop_
_atom_site_type_symbol
_atom_site_label
_atom_site_fract_x
_atom_site_fract_y
_atom_site_fract_z
Si Si1 0.385427 0.942596 0.011923
Si Si2 0.302519 0.118351 0.113045
Si Si3 0.880142 0.712402 0.400714
Si Si4 0.991699 0.477126 0.144200
Si Si5 0.903276 0.146178 0.317004
Si Si6 0.173758 0.105683 0.394478
Si Si7 0.632931 0.580911 0.645646
Si Si8 0.795806 0.003406 0.777786
O O1 0.343471 0.802203 0.941162
O O2 0.238507 0.143918 0.808838
O O3 0.287409 0.999203 0.027961
O O4 0.666010 0.816845 0.274026
O O5 0.554540 0.059486 0.333834
O O6 0.260590 0.086162 0.185972
O O7 0.124199 0.337689 0.912811
O O8 0.000000 0.500000 0.500000
O O9 0.092825 0.694221 0.647851
O O10 0.805490 0.489109 0.902577
O O11 0.088655 0.312332 0.321945
O O12 0.215992 0.435265 0.302587
O O13 0.054610 0.057818 0.364054
O O14 0.000000 0.000000 0.500000
O O15 0.103335 0.120262 0.216687
O O16 0.500000 0.500000 0.500000
O O17 0.435900 0.794473 0.476215
O O18 0.000000 0.000000 0.000000
#
# Coordination Sequence:
#
# PCOD8021410 Si02
#       8
#     2   2   2   2   2   2   2   2
#     4  10  23  42  67  97 134 172 220 277 340 402
#     4  12  23  41  66  97 136 178 221 271 336 407
#     4  10  22  43  71  98 129 171 221 281 344 403
#     4  11  24  40  62  94 134 174 225 280 327 397
#     4  10  23  45  70  99 133 171 226 290 335 401
#     4  12  23  43  67  94 136 178 226 276 342 402
#     4  11  22  40  61  95 134 175 233 278 323 396
#     4  12  23  40  66  96 136 185 221 270 337 401
#
# _framework density 21.756816000000001
#
# number of rings (size 3 to 8) (size 9 to 14) (size 15 to 20)
#    0.000    1.000    3.750    4.125    1.750    0.500 
#    0.000    2.500    0.000    0.000    0.000    0.000 
#    0.000    0.000    0.000    0.000    0.000    0.000 
#
# Total GULP energy -198220.128623 kJ/mol
# GULP energy per Si atom -12388.758039 kJ/mol
# Density = 2.170730 g / cm^3
# Si number density = 21.756816 Si / 1000 Ang^3
#
#
#
# Elastic Constant Matrix: (Units=GPa)
#
#
# Indices 1 2 3 4 5 6 
#
# 1 126.1175 32.2058 17.6895 -9.2081 -2.9553 -0.9043
# 2 32.2058 132.5574 37.0245 -0.1992 2.4943 -3.9631
# 3 17.6895 37.0245 79.6942 -7.2806 8.8176 7.8466
# 4 -9.2081 -0.1992 -7.2806 47.1048 -2.4744 5.0153
# 5 -2.9553 2.4943 8.8176 -2.4744 21.2709 8.0222
# 6 -0.9043 -3.9631 7.8466 5.0153 8.0222 32.3315
#
#
#
# Elastic Compliance Matrix: (Units=1/GPa)
#
#
# Indices 1 2 3 4 5 6 
#
# 1 0.008737 -0.001868 -0.001116 0.001707 0.002301 -0.000550
# 2 -0.001868 0.009245 -0.004162 -0.001268 -0.000694 0.002460
# 3 -0.001116 -0.004162 0.015806 0.002350 -0.004587 -0.003604
# 4 0.001707 -0.001268 0.002350 0.022684 0.004008 -0.005191
# 5 0.002301 -0.000694 -0.004587 0.004008 0.054725 -0.013108
# 6 -0.000550 0.002460 -0.003604 -0.005191 -0.013108 0.036148
#
#
# Mechanical properties :
#
#
# Convention : Reuss Voigt Hill
#
# Bulk Modulus (GPa) = 51.29094 56.91206 54.10150
# Shear Modulus (GPa) = 29.73793 36.90475 33.32134
#
# Velocity S-wave (km/s) = 3.70108 4.12301 3.91773
# Velocity P-wave (km/s) = 6.47224 6.99147 6.73686
#
# Compressibility (1/GPa) = 0.01949662
#
# Stress axis : x y z
#
# Youngs Moduli (GPa) = 114.45111 108.16829 63.26686
#
# Poissons Ratio (x) = 0.20209 0.07061
# Poissons Ratio (y) = 0.21382 0.26329
# Poissons Ratio (z) = 0.12773 0.45015
#
# Static dielectric constant tensor:
#      x y z
#    x 4.300700 -0.429410 0.125190 
#    y -0.429410 4.533170 0.027980 
#    z 0.125190 0.027980 4.002410 
# 
# 
# High freq. dielectric constant tensor:
#      x y z
#    x 1.855120 -0.003670 -0.000100 
#    y -0.003670 1.858880 0.011300 
#    z -0.000100 0.011300 1.855790 
# 
# From -- ./inp_files/529715.got.cif
#   From: 2010.06.25/outbox.cif.g09.slc.cpg/sg2_265_cif.got.tgz:529715.got - 2010.06.27 13:26:56.
