data_PCOD8021493
_publ_section_title
;
Structure prediction by ZEFSAII (Michael W. Deem and Ramdas Pophale) SiO2 
 PCOD8021493
Probable space group: P -1
;
_chemical_formula_sum "Si O2"
_cell_formula_units_Z 14
_cell_length_a 13.024743
_cell_length_b 9.579898
_cell_length_c 9.109355
_cell_angle_alpha 109.277649
_cell_angle_beta 114.030872
_cell_angle_gamma 35.542905
_cell_volume 603.464964
_symmetry_space_group_name_H-M "P -1"
_symmetry_group_IT_number 2
_symmetry_cell_setting 'triclinic'
loop_
_space_group_symop_operation_xyz
x,y,z
-x,-y,-z
loop_
_atom_site_type_symbol
_atom_site_label
_atom_site_fract_x
_atom_site_fract_y
_atom_site_fract_z
Si Si1 0.633932 0.270145 0.100163
Si Si2 0.980879 0.490566 0.156186
Si Si3 0.211931 0.661579 0.552714
Si Si4 0.832812 0.031597 0.567969
Si Si5 0.368079 0.211723 0.380274
Si Si6 0.908347 0.938174 0.902887
Si Si7 0.628366 0.037101 0.242501
O O1 0.721774 0.295703 0.269529
O O2 0.551653 0.216724 0.125220
O O3 0.500000 0.500000 0.000000
O O4 0.779980 0.039919 0.001320
O O5 0.167730 0.346118 0.297937
O O6 0.951760 0.345230 0.118997
O O7 0.802581 0.757654 0.205614
O O8 0.000000 0.500000 0.000000
O O9 0.356525 0.389248 0.497925
O O10 0.032891 0.764053 0.546589
O O11 0.171586 0.793053 0.425320
O O12 0.794089 0.064454 0.729780
O O13 0.680058 0.092782 0.423732
O O14 0.500000 0.000000 0.500000
O O15 0.462601 0.110960 0.237590
O O16 0.000000 0.000000 0.000000
#
# Coordination Sequence:
#
# PCOD8021493 Si02
#       7
#     2   2   2   2   2   2   2
#     4  11  26  44  70 113 155 189 253 308 374 449
#     4  12  28  50  76 108 155 192 252 312 379 453
#     4  10  23  44  71 103 145 195 245 304 364 447
#     4  10  22  43  75 102 142 190 253 295 366 441
#     4  12  29  46  77 109 149 198 257 308 377 444
#     4  12  26  44  74 108 142 196 246 305 376 442
#     4  11  26  50  77 107 147 204 244 311 377 444
#
# _framework density 23.199358
#
# number of rings (size 3 to 8) (size 9 to 14) (size 15 to 20)
#    0.000    0.857    4.286    0.857   10.000    2.857 
#    0.000    0.000    0.000    0.000    0.000    0.000 
#    0.000    0.000    0.000    0.000    0.000    0.000 
#
# Total GULP energy -173561.542360 kJ/mol
# GULP energy per Si atom -12397.253026 kJ/mol
# Density = 2.314656 g / cm^3
# Si number density = 23.199358 Si / 1000 Ang^3
#
#
#
# Elastic Constant Matrix: (Units=GPa)
#
#
# Indices 1 2 3 4 5 6 
#
# 1 92.8117 47.1017 27.7672 4.7290 -17.3849 12.1878
# 2 47.1017 155.0531 47.6198 1.0489 -10.9767 16.4094
# 3 27.7672 47.6198 116.8671 -3.2291 -22.0253 19.4172
# 4 4.7290 1.0489 -3.2291 40.7751 1.2619 -6.9641
# 5 -17.3849 -10.9767 -22.0253 1.2619 37.0599 -0.6965
# 6 12.1878 16.4094 19.4172 -6.9641 -0.6965 38.5453
#
#
#
# Elastic Compliance Matrix: (Units=1/GPa)
#
#
# Indices 1 2 3 4 5 6 
#
# 1 0.014196 -0.003433 -0.000515 -0.002292 0.005356 -0.003085
# 2 -0.003433 0.008351 -0.002505 -0.000210 -0.000642 -0.001257
# 3 -0.000515 -0.002505 0.011533 0.000097 0.005784 -0.004459
# 4 -0.002292 -0.000210 0.000097 0.025782 -0.001856 0.005390
# 5 0.005356 -0.000642 0.005784 -0.001856 0.032730 -0.004078
# 6 -0.003085 -0.001257 -0.004459 0.005390 -0.004078 0.030600
#
#
# Mechanical properties :
#
#
# Convention : Reuss Voigt Hill
#
# Bulk Modulus (GPa) = 47.22902 67.74545 57.48723
# Shear Modulus (GPa) = 34.92695 39.42558 37.17627
#
# Velocity S-wave (km/s) = 3.88430 4.12688 4.00743
# Velocity P-wave (km/s) = 6.36547 7.20923 6.80045
#
# Compressibility (1/GPa) = 0.02117342
#
# Stress axis : x y z
#
# Youngs Moduli (GPa) = 70.44170 119.75214 86.70523
#
# Poissons Ratio (x) = 0.41111 0.04469
# Poissons Ratio (y) = 0.24183 0.21719
# Poissons Ratio (z) = 0.03630 0.29997
#
# Static dielectric constant tensor:
#      x y z
#    x 4.299140 0.181280 -0.163940 
#    y 0.181280 4.550090 0.047200 
#    z -0.163940 0.047200 4.241230 
# 
# 
# High freq. dielectric constant tensor:
#      x y z
#    x 1.913260 0.011020 -0.012260 
#    y 0.011020 1.923150 0.004160 
#    z -0.012260 0.004160 1.929350 
# 
# From -- ./inp_files/244605.got.cif
#   From: 2010.06.25/outbox.cif.g09.slc.cpg/sg2_123_cif.got.tgz:244605.got - 2010.06.27 13:26:56.
