data_PCOD8021701
_publ_section_title
;
Structure prediction by ZEFSAII (Michael W. Deem and Ramdas Pophale) SiO2 
 PCOD8021701
Probable space group: P -1
;
_chemical_formula_sum "Si O2"
_cell_formula_units_Z 16
_cell_length_a 8.465844
_cell_length_b 8.807618
_cell_length_c 10.342132
_cell_angle_alpha 83.520713
_cell_angle_beta 114.555863
_cell_angle_gamma 88.807151
_cell_volume 694.965405
_symmetry_space_group_name_H-M "P -1"
_symmetry_group_IT_number 2
_symmetry_cell_setting 'triclinic'
loop_
_space_group_symop_operation_xyz
x,y,z
-x,-y,-z
loop_
_atom_site_type_symbol
_atom_site_label
_atom_site_fract_x
_atom_site_fract_y
_atom_site_fract_z
Si Si1 0.318886 0.340304 0.736642
Si Si2 0.385824 0.156698 0.534329
Si Si3 0.210369 0.349463 0.241961
Si Si4 0.015448 0.911960 0.879849
Si Si5 0.581930 0.156878 0.023284
Si Si6 0.763927 0.115751 0.600477
Si Si7 0.493032 0.411147 0.142673
Si Si8 0.050137 0.586468 0.376999
O O1 0.290506 0.269094 0.594078
O O2 0.486905 0.258572 0.869787
O O3 0.363652 0.518699 0.721556
O O4 0.134216 0.334680 0.748514
O O5 0.349888 0.232978 0.374210
O O6 0.593487 0.139146 0.633178
O O7 0.300234 0.991950 0.527933
O O8 0.307234 0.431108 0.150264
O O9 0.068285 0.251067 0.134584
O O10 0.127837 0.475302 0.301819
O O11 0.214557 0.868438 0.922041
O O12 0.927816 0.026679 0.733312
O O13 0.000000 0.000000 0.000000
O O14 0.543441 0.232893 0.144113
O O15 0.500000 0.000000 0.000000
O O16 0.820551 0.281221 0.558745
O O17 0.500000 0.500000 0.000000
O O18 0.000000 0.500000 0.500000
#
# Coordination Sequence:
#
# PCOD8021701 Si02
#       8
#     2   2   2   2   2   2   2   2
#     4  11  23  43  65  99 140 172 236 274 350 405
#     4  10  22  44  67 101 133 185 225 289 345 408
#     4  11  24  44  71  99 139 183 231 287 344 417
#     4  11  23  44  70 102 135 180 235 287 347 405
#     4  11  23  43  67  98 134 184 230 287 339 410
#     4  10  24  42  66 102 141 176 233 284 342 408
#     4  10  24  44  68  99 136 184 230 284 346 415
#     4  12  25  43  66 107 143 183 225 281 348 416
#
# _framework density 23.022725999999999
#
# number of rings (size 3 to 8) (size 9 to 14) (size 15 to 20)
#    0.000    1.250    1.250    3.750    1.750    5.500 
#    2.250    5.625    0.000    0.000    0.000    0.000 
#    0.000    0.000    0.000    0.000    0.000    0.000 
#
# Total GULP energy -198272.974782 kJ/mol
# GULP energy per Si atom -12392.060924 kJ/mol
# Density = 2.297033 g / cm^3
# Si number density = 23.022726 Si / 1000 Ang^3
#
#
#
# Elastic Constant Matrix: (Units=GPa)
#
#
# Indices 1 2 3 4 5 6 
#
# 1 191.3662 89.9881 67.3787 23.3558 7.0295 -5.7255
# 2 89.9881 179.6200 58.8625 55.4758 -5.1901 12.7883
# 3 67.3787 58.8625 80.3823 13.7680 7.2071 -2.2332
# 4 23.3558 55.4758 13.7680 54.5442 -9.2864 6.0219
# 5 7.0295 -5.1901 7.2071 -9.2864 47.3805 5.2089
# 6 -5.7255 12.7883 -2.2332 6.0219 5.2089 50.7346
#
#
#
# Elastic Compliance Matrix: (Units=1/GPa)
#
#
# Indices 1 2 3 4 5 6 
#
# 1 0.008276 -0.002739 -0.004831 0.000138 -0.000930 0.001491
# 2 -0.002739 0.011398 -0.004690 -0.008812 0.000909 -0.002436
# 3 -0.004831 -0.004690 0.020031 0.001120 -0.002809 0.001674
# 4 0.000138 -0.008812 0.001120 0.027879 0.004471 -0.001482
# 5 -0.000930 0.000909 -0.002809 0.004471 0.023015 -0.003351
# 6 0.001491 -0.002436 0.001674 -0.001482 -0.003351 0.021086
#
#
# Mechanical properties :
#
#
# Convention : Reuss Voigt Hill
#
# Bulk Modulus (GPa) = 65.85394 98.20300 82.02847
# Shear Modulus (GPa) = 35.39381 46.20782 40.80082
#
# Velocity S-wave (km/s) = 3.92515 4.48487 4.21431
# Velocity P-wave (km/s) = 7.01487 8.34064 7.70632
#
# Compressibility (1/GPa) = 0.01518512
#
# Stress axis : x y z
#
# Youngs Moduli (GPa) = 120.82706 87.73499 49.92308
#
# Poissons Ratio (x) = 0.24032 0.24115
# Poissons Ratio (y) = 0.33096 0.23416
# Poissons Ratio (z) = 0.58366 0.41151
#
# Static dielectric constant tensor:
#      x y z
#    x 4.152690 0.240360 0.332540 
#    y 0.240360 4.625700 0.501560 
#    z 0.332540 0.501560 4.232460 
# 
# 
# High freq. dielectric constant tensor:
#      x y z
#    x 1.912890 -0.009150 0.018940 
#    y -0.009150 1.934470 0.023120 
#    z 0.018940 0.023120 1.899970 
# 
# From -- ./inp_files/379302.got.cif
#   From: 2010.06.25/outbox.cif.g09.slc.cpg/sg2_190_cif.got.tgz:379302.got - 2010.06.27 13:26:56.
