data_PCOD8021167
_publ_section_title
;
Structure prediction by ZEFSAII (Michael W. Deem and Ramdas Pophale) SiO2 
 PCOD8021167
Probable space group: P -1
;
_chemical_formula_sum "Si O2"
_cell_formula_units_Z 16
_cell_length_a 9.959158
_cell_length_b 9.086505
_cell_length_c 12.510827
_cell_angle_alpha 52.872965
_cell_angle_beta 64.282443
_cell_angle_gamma 52.879909
_cell_volume 715.424284
_symmetry_space_group_name_H-M "P -1"
_symmetry_group_IT_number 2
_symmetry_cell_setting 'triclinic'
loop_
_space_group_symop_operation_xyz
x,y,z
-x,-y,-z
loop_
_atom_site_type_symbol
_atom_site_label
_atom_site_fract_x
_atom_site_fract_y
_atom_site_fract_z
Si Si1 0.303298 0.597673 0.034200
Si Si2 0.800430 0.586043 0.506023
Si Si3 0.942203 0.880394 0.652831
Si Si4 0.750580 0.029789 0.984267
Si Si5 0.340968 0.746689 0.291674
Si Si6 0.942284 0.326048 0.089343
Si Si7 0.409635 0.161539 0.722625
Si Si8 0.295279 0.239694 0.318795
O O1 0.213570 0.841604 0.991956
O O2 0.267996 0.463561 0.192300
O O3 0.500000 0.500000 0.000000
O O4 0.237802 0.578702 0.948045
O O5 0.736037 0.412146 0.602661
O O6 0.751075 0.700353 0.358144
O O7 0.693462 0.759239 0.556903
O O8 0.000000 0.500000 0.500000
O O9 0.084780 0.735635 0.753272
O O10 0.882460 0.748159 0.657768
O O11 0.788649 0.031822 0.712397
O O12 0.000000 0.000000 0.500000
O O13 0.632215 0.205454 0.861191
O O14 0.926248 0.866012 0.943510
O O15 0.651548 0.915135 0.119127
O O16 0.512224 0.689168 0.326275
O O17 0.000000 0.500000 0.000000
O O18 0.543255 0.960073 0.697675
#
# Coordination Sequence:
#
# PCOD8021167 Si02
#       8
#     2   2   2   2   2   2   2   2
#     4  12  24  44  70 102 139 179 227 282 344 403
#     4  12  26  43  69 100 137 180 226 277 340 405
#     4  10  22  43  68  95 135 177 222 274 336 402
#     4  11  24  43  72 102 134 178 230 284 341 402
#     4  10  23  44  66  98 134 173 223 280 332 401
#     4  11  25  44  71 102 137 179 229 284 340 406
#     4  11  25  44  70  99 135 179 227 278 342 403
#     4  11  23  45  67  96 141 176 225 283 335 404
#
# _framework density 22.364350000000002
#
# number of rings (size 3 to 8) (size 9 to 14) (size 15 to 20)
#    0.000    1.000    3.750    2.250    1.750    5.000 
#    4.500    0.000    0.000    0.000    0.000    0.000 
#    0.000    0.000    0.000    0.000    0.000    0.000 
#
# Total GULP energy -198330.114391 kJ/mol
# GULP energy per Si atom -12395.632149 kJ/mol
# Density = 2.231345 g / cm^3
# Si number density = 22.364350 Si / 1000 Ang^3
#
#
#
# Elastic Constant Matrix: (Units=GPa)
#
#
# Indices 1 2 3 4 5 6 
#
# 1 168.6002 39.9007 67.8724 -11.3300 8.0190 13.4710
# 2 39.9007 62.2443 20.0796 -14.6803 -1.5391 17.0901
# 3 67.8724 20.0796 156.7917 -6.7225 2.1265 4.2657
# 4 -11.3300 -14.6803 -6.7225 21.8840 5.0399 0.6308
# 5 8.0190 -1.5391 2.1265 5.0399 44.8097 -6.3888
# 6 13.4710 17.0901 4.2657 0.6308 -6.3888 36.6007
#
#
#
# Elastic Compliance Matrix: (Units=1/GPa)
#
#
# Indices 1 2 3 4 5 6 
#
# 1 0.008300 -0.003726 -0.002999 0.001330 -0.001806 -0.001304
# 2 -0.003726 0.025288 -0.000637 0.015555 -0.001743 -0.010934
# 3 -0.002999 -0.000637 0.007756 0.000345 0.000182 0.000523
# 4 0.001330 0.015555 0.000345 0.059017 -0.007808 -0.010173
# 5 -0.001806 -0.001743 0.000182 -0.007808 0.024281 0.005830
# 6 -0.001304 -0.010934 0.000523 -0.010173 0.005830 0.034039
#
#
# Mechanical properties :
#
#
# Convention : Reuss Voigt Hill
#
# Bulk Modulus (GPa) = 37.56758 71.48240 54.52499
# Shear Modulus (GPa) = 27.43083 37.97778 32.70431
#
# Velocity S-wave (km/s) = 3.50600 4.12532 3.82821
# Velocity P-wave (km/s) = 5.76401 7.39750 6.63125
#
# Compressibility (1/GPa) = 0.02661869
#
# Stress axis : x y z
#
# Youngs Moduli (GPa) = 120.48848 39.54487 128.93831
#
# Poissons Ratio (x) = 0.14735 0.38663
# Poissons Ratio (y) = 0.44895 0.08219
# Poissons Ratio (z) = 0.36129 0.02521
#
# Static dielectric constant tensor:
#      x y z
#    x 4.352720 0.429140 0.413950 
#    y 0.429140 4.043960 0.114940 
#    z 0.413950 0.114940 4.171040 
# 
# 
# High freq. dielectric constant tensor:
#      x y z
#    x 1.888410 0.020800 0.007500 
#    y 0.020800 1.879730 0.003590 
#    z 0.007500 0.003590 1.888330 
# 
# From -- ./inp_files/242680.got.cif
#   From: 2010.06.25/outbox.cif.g09.slc.cpg/sg2_122_cif.got.tgz:242680.got - 2010.06.27 13:26:56.
