data_PCOD8021970
_publ_section_title
;
Structure prediction by ZEFSAII (Michael W. Deem and Ramdas Pophale) SiO2 
 PCOD8021970
Probable space group: P -1
;
_chemical_formula_sum "Si O2"
_cell_formula_units_Z 14
_cell_length_a 15.002252
_cell_length_b 9.309842
_cell_length_c 22.223114
_cell_angle_alpha 27.187943
_cell_angle_beta 152.670823
_cell_angle_gamma 152.686438
_cell_volume 575.212405
_symmetry_space_group_name_H-M "P -1"
_symmetry_group_IT_number 2
_symmetry_cell_setting 'triclinic'
loop_
_space_group_symop_operation_xyz
x,y,z
-x,-y,-z
loop_
_atom_site_type_symbol
_atom_site_label
_atom_site_fract_x
_atom_site_fract_y
_atom_site_fract_z
Si Si1 0.351714 0.127957 0.017823
Si Si2 0.539199 0.233895 0.878857
Si Si3 0.957498 0.350546 0.792321
Si Si4 0.461896 0.115209 0.603248
Si Si5 0.986984 0.664791 0.041627
Si Si6 0.112878 0.524725 0.692901
Si Si7 0.330611 0.741732 0.543564
O O1 0.166109 0.190833 0.847049
O O2 0.500000 0.500000 0.000000
O O3 0.508677 0.033863 0.105828
O O4 0.224947 0.767840 0.116547
O O5 0.393217 0.434190 0.714118
O O6 0.798255 0.510091 0.936027
O O7 0.500000 0.000000 0.000000
O O8 0.694416 0.132056 0.721902
O O9 0.052667 0.561926 0.834926
O O10 0.045111 0.596877 0.693124
O O11 0.040743 0.062438 0.943791
O O12 0.500000 0.500000 0.500000
O O13 0.332555 0.868800 0.674188
O O14 0.323637 0.959411 0.517038
O O15 0.913935 0.447432 0.558115
O O16 0.500000 0.000000 0.500000
#
# Coordination Sequence:
#
# PCOD8021970 Si02
#       7
#     2   2   2   2   2   2   2
#     4  11  25  46  75 112 144 192 255 306 366 454
#     4  12  27  45  77 110 148 197 249 303 374 445
#     4  10  22  44  71 105 146 187 246 307 362 433
#     4  12  26  45  72 106 145 191 247 306 368 443
#     4  10  22  44  72  98 151 190 236 303 370 431
#     4  11  25  47  77 103 150 198 247 306 381 437
#     4  12  25  52  74 107 157 196 246 312 374 446
#
# _framework density 24.338836000000001
#
# number of rings (size 3 to 8) (size 9 to 14) (size 15 to 20)
#    0.000    0.857    2.857    3.429    6.000    5.143 
#    0.000    0.000    0.000    0.000    0.000    0.000 
#    0.000    0.000    0.000    0.000    0.000    0.000 
#
# Total GULP energy -173480.066958 kJ/mol
# GULP energy per Si atom -12391.433354 kJ/mol
# Density = 2.428344 g / cm^3
# Si number density = 24.338836 Si / 1000 Ang^3
#
#
#
# Elastic Constant Matrix: (Units=GPa)
#
#
# Indices 1 2 3 4 5 6 
#
# 1 168.9773 46.6899 47.7702 -12.8371 -17.5519 5.3616
# 2 46.6899 71.3946 34.3603 0.0767 2.9813 -11.8749
# 3 47.7702 34.3603 108.5823 2.3225 -6.8071 -6.1489
# 4 -12.8371 0.0767 2.3225 44.1629 5.1628 -2.5447
# 5 -17.5519 2.9813 -6.8071 5.1628 35.2431 -0.5109
# 6 5.3616 -11.8749 -6.1489 -2.5447 -0.5109 57.3051
#
#
#
# Elastic Compliance Matrix: (Units=1/GPa)
#
#
# Indices 1 2 3 4 5 6 
#
# 1 0.008528 -0.005082 -0.002049 0.002021 0.003957 -0.001946
# 2 -0.005082 0.020269 -0.004242 -0.000473 -0.004935 0.004156
# 3 -0.002049 -0.004242 0.011625 -0.001380 0.001793 0.000515
# 4 0.002021 -0.000473 -0.001380 0.023651 -0.002676 0.000591
# 5 0.003957 -0.004935 0.001793 -0.002676 0.031486 -0.001039
# 6 -0.001946 0.004156 0.000515 0.000591 -0.001039 0.018566
#
#
# Mechanical properties :
#
#
# Convention : Reuss Voigt Hill
#
# Bulk Modulus (GPa) = 56.57562 67.39945 61.98753
# Shear Modulus (GPa) = 35.02324 42.01780 38.52052
#
# Velocity S-wave (km/s) = 3.79751 4.15947 3.98260
# Velocity P-wave (km/s) = 6.52101 7.12885 6.83169
#
# Compressibility (1/GPa) = 0.01767546
#
# Stress axis : x y z
#
# Youngs Moduli (GPa) = 117.26693 49.33522 86.02447
#
# Poissons Ratio (x) = 0.25071 0.17626
# Poissons Ratio (y) = 0.59592 0.36496
# Poissons Ratio (z) = 0.24027 0.20930
#
# Static dielectric constant tensor:
#      x y z
#    x 5.798300 -0.318220 -0.624410 
#    y -0.318220 4.839800 0.439790 
#    z -0.624410 0.439790 4.605230 
# 
# 
# High freq. dielectric constant tensor:
#      x y z
#    x 1.988940 0.014150 -0.012270 
#    y 0.014150 1.964810 0.018930 
#    z -0.012270 0.018930 1.952730 
# 
# From -- ./inp_files/597303.got.cif
#   From: 2010.06.25/outbox.cif.g09.slc.cpg/sg2_299_cif.got.tgz:597303.got - 2010.06.27 13:26:56.
