data_PCOD8021380
_publ_section_title
;
Structure prediction by ZEFSAII (Michael W. Deem and Ramdas Pophale) SiO2 
 PCOD8021380
Probable space group: P -1
;
_chemical_formula_sum "Si O2"
_cell_formula_units_Z 16
_cell_length_a 8.572963
_cell_length_b 16.849377
_cell_length_c 11.356858
_cell_angle_alpha 149.166840
_cell_angle_beta 57.807940
_cell_angle_gamma 121.615415
_cell_volume 703.076968
_symmetry_space_group_name_H-M "P -1"
_symmetry_group_IT_number 2
_symmetry_cell_setting 'triclinic'
loop_
_space_group_symop_operation_xyz
x,y,z
-x,-y,-z
loop_
_atom_site_type_symbol
_atom_site_label
_atom_site_fract_x
_atom_site_fract_y
_atom_site_fract_z
Si Si1 0.102047 0.106535 0.445648
Si Si2 0.558869 0.661486 0.446752
Si Si3 0.330081 0.772506 0.470455
Si Si4 0.547514 0.307530 0.926021
Si Si5 0.219662 0.619492 0.682952
Si Si6 0.976532 0.709387 0.684392
Si Si7 0.213290 0.072251 0.824233
Si Si8 0.185540 0.818095 0.169253
O O1 0.236882 0.238837 0.486299
O O2 0.012455 0.193534 0.699028
O O3 0.225067 0.982444 0.292248
O O4 0.940629 0.017815 0.315435
O O5 0.475378 0.737142 0.463893
O O6 0.432755 0.680142 0.635717
O O7 0.566247 0.479395 0.192153
O O8 0.364847 0.673532 0.215030
O O9 0.117597 0.723989 0.537127
O O10 0.354141 0.956758 0.664549
O O11 0.332567 0.220978 0.898153
O O12 0.654554 0.194328 0.816507
O O13 0.077611 0.681107 0.729443
O O14 0.188449 0.431525 0.457174
O O15 0.177978 0.675360 0.900321
O O16 0.884411 0.865382 0.941681
#
# Coordination Sequence:
#
# PCOD8021380 Si02
#       8
#     2   2   2   2   2   2   2   2
#     4  11  26  44  71 105 137 178 225 282 343 399
#     4  11  26  46  66 104 136 181 228 280 338 397
#     4  11  25  42  70 101 138 177 228 282 334 403
#     4  12  26  45  69 102 139 181 228 276 339 405
#     4  10  22  45  71  98 139 180 225 280 340 400
#     4  10  22  43  71 104 131 181 229 279 337 400
#     4  12  23  48  70 103 137 178 231 277 338 411
#     4  11  25  45  70 100 138 182 221 282 340 405
#
# _framework density 22.757109
#
# number of rings (size 3 to 8) (size 9 to 14) (size 15 to 20)
#    0.000    1.000    3.750    1.875    5.250    2.500 
#    4.500    0.000    0.000    0.000    0.000    0.000 
#    0.000    0.000    0.000    0.000    0.000    0.000 
#
# Total GULP energy -198443.090374 kJ/mol
# GULP energy per Si atom -12402.693148 kJ/mol
# Density = 2.270531 g / cm^3
# Si number density = 22.757109 Si / 1000 Ang^3
#
#
#
# Elastic Constant Matrix: (Units=GPa)
#
#
# Indices 1 2 3 4 5 6 
#
# 1 74.0146 38.4460 34.8211 4.3007 -1.1831 7.9087
# 2 38.4460 114.3197 36.2708 1.0277 13.0699 22.9425
# 3 34.8211 36.2708 126.6319 -9.7760 0.5151 8.5530
# 4 4.3007 1.0277 -9.7760 42.4535 -7.1232 1.5070
# 5 -1.1831 13.0699 0.5151 -7.1232 31.9566 6.2952
# 6 7.9087 22.9425 8.5530 1.5070 6.2952 34.2012
#
#
#
# Elastic Compliance Matrix: (Units=1/GPa)
#
#
# Indices 1 2 3 4 5 6 
#
# 1 0.018085 -0.005140 -0.003665 -0.002146 0.002384 -0.000162
# 2 -0.005140 0.012801 -0.001881 -0.000737 -0.004359 -0.006093
# 3 -0.003665 -0.001881 0.009707 0.002886 0.001254 -0.000676
# 4 -0.002146 -0.000737 0.002886 0.025579 0.006274 -0.002013
# 5 0.002384 -0.004359 0.001254 0.006274 0.035477 -0.004747
# 6 -0.000162 -0.006093 -0.000676 -0.002013 -0.004747 0.034495
#
#
# Mechanical properties :
#
#
# Convention : Reuss Voigt Hill
#
# Bulk Modulus (GPa) = 52.02741 59.33800 55.68271
# Shear Modulus (GPa) = 30.50219 35.41747 32.95983
#
# Velocity S-wave (km/s) = 3.66503 3.94931 3.80982
# Velocity P-wave (km/s) = 6.38918 6.85034 6.62377
#
# Compressibility (1/GPa) = 0.01922064
#
# Stress axis : x y z
#
# Youngs Moduli (GPa) = 55.29370 78.12193 103.01998
#
# Poissons Ratio (x) = 0.40155 0.37759
# Poissons Ratio (y) = 0.28421 0.19375
# Poissons Ratio (z) = 0.20267 0.14692
#
# Static dielectric constant tensor:
#      x y z
#    x 3.938180 -0.070370 -0.199920 
#    y -0.070370 4.143280 -0.068940 
#    z -0.199920 -0.068940 4.168400 
# 
# 
# High freq. dielectric constant tensor:
#      x y z
#    x 1.886790 0.000140 -0.011270 
#    y 0.000140 1.901280 -0.005830 
#    z -0.011270 -0.005830 1.909700 
# 
# From -- ./inp_files/403490.got.cif
#   From: 2010.06.25/outbox.cif.g09.slc.cpg/sg2_202_cif.got.tgz:403490.got - 2010.06.27 13:26:56.
