data_PCOD8021623
_publ_section_title
;
Structure prediction by ZEFSAII (Michael W. Deem and Ramdas Pophale) SiO2 
 PCOD8021623
Probable space group: P -1
;
_chemical_formula_sum "Si O2"
_cell_formula_units_Z 16
_cell_length_a 10.809955
_cell_length_b 7.078977
_cell_length_c 11.994270
_cell_angle_alpha 74.817803
_cell_angle_beta 105.661196
_cell_angle_gamma 121.691239
_cell_volume 743.870417
_symmetry_space_group_name_H-M "P -1"
_symmetry_group_IT_number 2
_symmetry_cell_setting 'triclinic'
loop_
_space_group_symop_operation_xyz
x,y,z
-x,-y,-z
loop_
_atom_site_type_symbol
_atom_site_label
_atom_site_fract_x
_atom_site_fract_y
_atom_site_fract_z
Si Si1 0.829464 0.168715 0.575272
Si Si2 0.145048 0.969778 0.929784
Si Si3 0.337457 0.331571 0.447243
Si Si4 0.327712 0.452357 0.822381
Si Si5 0.361745 0.455889 0.192451
Si Si6 0.876317 0.011766 0.832054
Si Si7 0.841249 0.594049 0.431396
Si Si8 0.649561 0.222123 0.030636
O O1 0.775154 0.343832 0.504390
O O2 0.983700 0.251705 0.535434
O O3 0.697765 0.922144 0.548833
O O4 0.864794 0.176817 0.714273
O O5 0.264295 0.234176 0.919239
O O6 0.215752 0.830676 0.911159
O O7 0.090197 0.872689 0.056270
O O8 0.000723 0.944473 0.834203
O O9 0.500000 0.500000 0.500000
O O10 0.314147 0.442556 0.312450
O O11 0.225536 0.288972 0.525902
O O12 0.466579 0.467451 0.788972
O O13 0.207384 0.425822 0.705929
O O14 0.368403 0.666472 0.877777
O O15 0.278725 0.210474 0.157798
O O16 0.315198 0.617121 0.092066
O O17 0.500000 0.000000 0.000000
#
# Coordination Sequence:
#
# PCOD8021623 Si02
#       8
#     2   2   2   2   2   2   2   2
#     4  10  24  44  68  96 129 176 221 269 325 394
#     4  11  23  42  67  95 134 170 213 268 330 384
#     4  11  24  44  67  97 133 172 218 275 327 387
#     4  12  23  45  67  94 137 168 216 269 326 390
#     4  11  23  43  65  95 133 168 216 269 324 383
#     4  10  22  44  65  94 136 167 207 280 325 374
#     4  11  24  45  68  97 129 177 221 266 331 391
#     4  12  25  40  68 100 126 178 220 261 325 398
#
# _framework density 21.509122000000001
#
# number of rings (size 3 to 8) (size 9 to 14) (size 15 to 20)
#    0.000    1.000    5.000    1.500    1.750    3.000 
#    9.000    0.000    0.000    0.000    0.000    0.000 
#    0.000    0.000    0.000    0.000    0.000    0.000 
#
# Total GULP energy -198355.035664 kJ/mol
# GULP energy per Si atom -12397.189729 kJ/mol
# Density = 2.146017 g / cm^3
# Si number density = 21.509122 Si / 1000 Ang^3
#
#
#
# Elastic Constant Matrix: (Units=GPa)
#
#
# Indices 1 2 3 4 5 6 
#
# 1 66.5226 14.3279 1.2153 -0.2361 2.5679 0.2111
# 2 14.3279 77.6754 38.2483 -7.7076 -1.5772 1.6567
# 3 1.2153 38.2483 109.8777 -5.8149 -2.1406 -11.0903
# 4 -0.2361 -7.7076 -5.8149 36.8705 -0.8111 1.1461
# 5 2.5679 -1.5772 -2.1406 -0.8111 31.6869 -1.5897
# 6 0.2111 1.6567 -11.0903 1.1461 -1.5897 37.0753
#
#
#
# Elastic Compliance Matrix: (Units=1/GPa)
#
#
# Indices 1 2 3 4 5 6 
#
# 1 0.015820 -0.003509 0.001026 -0.000511 -0.001384 0.000330
# 2 -0.003509 0.016756 -0.005898 0.002644 0.000660 -0.002546
# 3 0.001026 -0.005898 0.011557 0.000494 0.000604 0.003725
# 4 -0.000511 0.002644 0.000494 0.027793 0.000878 -0.000789
# 5 -0.001384 0.000660 0.000604 0.000878 0.031842 0.001497
# 6 0.000330 -0.002546 0.003725 -0.000789 0.001497 0.028287
#
#
# Mechanical properties :
#
#
# Convention : Reuss Voigt Hill
#
# Bulk Modulus (GPa) = 36.53671 40.18429 38.36050
# Shear Modulus (GPa) = 31.65746 34.47883 33.06814
#
# Velocity S-wave (km/s) = 3.84059 4.00807 3.92522
# Velocity P-wave (km/s) = 6.05725 6.33581 6.19810
#
# Compressibility (1/GPa) = 0.02736973
#
# Stress axis : x y z
#
# Youngs Moduli (GPa) = 63.21067 59.68111 86.52997
#
# Poissons Ratio (x) = 0.20943 -0.08877
# Poissons Ratio (y) = 0.22182 0.51036
# Poissons Ratio (z) = -0.06485 0.35201
#
# Static dielectric constant tensor:
#      x y z
#    x 3.927940 0.143920 -0.036900 
#    y 0.143920 3.823670 -0.202090 
#    z -0.036900 -0.202090 4.127010 
# 
# 
# High freq. dielectric constant tensor:
#      x y z
#    x 1.842700 0.017000 -0.002160 
#    y 0.017000 1.835380 -0.011750 
#    z -0.002160 -0.011750 1.852930 
# 
# From -- ./inp_files/68678.got.cif
#   From: 2010.06.25/outbox.cif.g09.slc.cpg/sg2_35_cif.got.tgz:68678.got - 2010.06.27 13:26:56.
