data_PCOD8021386
_publ_section_title
;
Structure prediction by ZEFSAII (Michael W. Deem and Ramdas Pophale) SiO2 
 PCOD8021386
Probable space group: P -1
;
_chemical_formula_sum "Si O2"
_cell_formula_units_Z 16
_cell_length_a 8.649433
_cell_length_b 15.287497
_cell_length_c 11.501615
_cell_angle_alpha 152.770527
_cell_angle_beta 77.353493
_cell_angle_gamma 95.659863
_cell_volume 663.085546
_symmetry_space_group_name_H-M "P -1"
_symmetry_group_IT_number 2
_symmetry_cell_setting 'triclinic'
loop_
_space_group_symop_operation_xyz
x,y,z
-x,-y,-z
loop_
_atom_site_type_symbol
_atom_site_label
_atom_site_fract_x
_atom_site_fract_y
_atom_site_fract_z
Si Si1 0.107816 0.066105 0.683064
Si Si2 0.315618 0.182957 0.991856
Si Si3 0.926123 0.310054 0.627274
Si Si4 0.605059 0.989550 0.584298
Si Si5 0.649595 0.552990 0.104520
Si Si6 0.822271 0.119398 0.202885
Si Si7 0.312819 0.561011 0.573509
Si Si8 0.834632 0.427265 0.138650
O O1 0.205807 0.169159 0.881111
O O2 0.220147 0.977384 0.448193
O O3 0.037668 0.893503 0.548989
O O4 0.962984 0.230578 0.850584
O O5 0.506701 0.145930 0.878296
O O6 0.289920 0.023813 0.903015
O O7 0.259822 0.396530 0.308222
O O8 0.837377 0.280708 0.487276
O O9 0.093579 0.377896 0.659762
O O10 0.810275 0.484176 0.920925
O O11 0.618495 0.782719 0.400073
O O12 0.500000 0.000000 0.500000
O O13 0.678667 0.449741 0.104799
O O14 0.500000 0.500000 0.000000
O O15 0.731322 0.231223 0.238853
O O16 0.000000 0.000000 0.000000
O O17 0.500000 0.500000 0.500000
O O18 0.210773 0.587185 0.738182
#
# Coordination Sequence:
#
# PCOD8021386 Si02
#       8
#     2   2   2   2   2   2   2   2
#     4  10  22  45  74 113 141 188 244 298 368 429
#     4  10  23  46  73 104 151 194 241 298 363 441
#     4  11  24  45  79 105 142 188 242 305 360 431
#     4  10  22  43  71 105 144 186 241 296 362 435
#     4  12  26  46  72 104 145 193 239 298 373 434
#     4  11  24  47  76 105 144 201 252 292 364 437
#     4  12  29  45  72 110 151 199 242 304 368 437
#     4  12  27  48  70 109 149 183 248 310 359 433
#
# _framework density 24.129617
#
# number of rings (size 3 to 8) (size 9 to 14) (size 15 to 20)
#    0.000    1.000    1.250    5.625    5.250    3.500 
#    6.750    0.000    0.000    0.000    0.000    0.000 
#    0.000    0.000    0.000    0.000    0.000    0.000 
#
# Total GULP energy -198438.605147 kJ/mol
# GULP energy per Si atom -12402.412822 kJ/mol
# Density = 2.407470 g / cm^3
# Si number density = 24.129617 Si / 1000 Ang^3
#
#
#
# Elastic Constant Matrix: (Units=GPa)
#
#
# Indices 1 2 3 4 5 6 
#
# 1 92.8238 61.5040 28.6400 18.2039 -3.7951 -6.2604
# 2 61.5040 155.6574 34.7149 4.8274 -16.5011 -6.0293
# 3 28.6400 34.7149 66.5234 -2.4128 -22.9081 -6.5761
# 4 18.2039 4.8274 -2.4128 44.3559 -0.8191 -7.3172
# 5 -3.7951 -16.5011 -22.9081 -0.8191 35.4130 4.6288
# 6 -6.2604 -6.0293 -6.5761 -7.3172 4.6288 44.8642
#
#
#
# Elastic Compliance Matrix: (Units=1/GPa)
#
#
# Indices 1 2 3 4 5 6 
#
# 1 0.017993 -0.005949 -0.006748 -0.007186 -0.005389 0.000106
# 2 -0.005949 0.009320 -0.001227 0.001443 0.002922 0.000177
# 3 -0.006748 -0.001227 0.023716 0.004731 0.013933 0.001704
# 4 -0.007186 0.001443 0.004731 0.026287 0.003067 0.003856
# 5 -0.005389 0.002922 0.013933 0.003067 0.038338 -0.001772
# 6 0.000106 0.000177 0.001704 0.003856 -0.001772 0.023389
#
#
# Mechanical properties :
#
#
# Convention : Reuss Voigt Hill
#
# Bulk Modulus (GPa) = 43.13618 62.74692 52.94155
# Shear Modulus (GPa) = 28.63405 37.60300 33.11853
#
# Velocity S-wave (km/s) = 3.44855 3.95191 3.70878
# Velocity P-wave (km/s) = 5.81140 6.84719 6.35045
#
# Compressibility (1/GPa) = 0.02318240
#
# Stress axis : x y z
#
# Youngs Moduli (GPa) = 55.57782 107.29308 42.16627
#
# Poissons Ratio (x) = 0.63826 0.28453
# Poissons Ratio (y) = 0.33062 0.05172
# Poissons Ratio (z) = 0.37503 0.13160
#
# Static dielectric constant tensor:
#      x y z
#    x 4.445300 0.127670 -0.229320 
#    y 0.127670 4.734320 -0.139760 
#    z -0.229320 -0.139760 4.623060 
# 
# 
# High freq. dielectric constant tensor:
#      x y z
#    x 1.954460 -0.000280 -0.003700 
#    y -0.000280 1.972740 0.003340 
#    z -0.003700 0.003340 1.964070 
# 
# From -- ./inp_files/399943.got.cif
#   From: 2010.06.25/outbox.cif.g09.slc.cpg/sg2_200_cif.got.tgz:399943.got - 2010.06.27 13:26:56.
