data_PCOD8021012
_publ_section_title
;
Structure prediction by ZEFSAII (Michael W. Deem and Ramdas Pophale) SiO2 
 PCOD8021012
Probable space group: P -1
;
_chemical_formula_sum "Si O2"
_cell_formula_units_Z 16
_cell_length_a 22.008036
_cell_length_b 8.505085
_cell_length_c 15.695788
_cell_angle_alpha 117.325429
_cell_angle_beta 20.315863
_cell_angle_gamma 126.700783
_cell_volume 761.628593
_symmetry_space_group_name_H-M "P -1"
_symmetry_group_IT_number 2
_symmetry_cell_setting 'triclinic'
loop_
_space_group_symop_operation_xyz
x,y,z
-x,-y,-z
loop_
_atom_site_type_symbol
_atom_site_label
_atom_site_fract_x
_atom_site_fract_y
_atom_site_fract_z
Si Si1 0.853476 0.568836 0.963862
Si Si2 0.956239 0.951780 0.208277
Si Si3 0.854334 0.577820 0.509409
Si Si4 0.117051 0.018431 0.195559
Si Si5 0.828406 0.554465 0.728681
Si Si6 0.584766 0.303556 0.643918
Si Si7 0.497679 0.393453 0.262595
Si Si8 0.032524 0.662103 0.925628
O O1 0.977473 0.486046 0.730101
O O2 0.856115 0.534025 0.053180
O O3 0.619842 0.444492 0.204036
O O4 0.962637 0.813560 0.863832
O O5 0.708378 0.836233 0.516347
O O6 0.057572 0.932267 0.156326
O O7 0.016030 0.849931 0.029390
O O8 0.751730 0.525436 0.724780
O O9 0.671855 0.450337 0.649420
O O10 0.972828 0.828602 0.401663
O O11 0.076911 0.205150 0.307049
O O12 0.359282 0.099245 0.912225
O O13 0.000000 0.500000 0.500000
O O14 0.632472 0.397712 0.006446
O O15 0.562915 0.434433 0.629221
O O16 0.740269 0.235226 0.391267
O O17 0.000000 0.500000 0.000000
#
# Coordination Sequence:
#
# PCOD8021012 Si02
#       8
#     2   2   2   2   2   2   2   2
#     4  11  24  43  65  95 133 168 213 272 312 386
#     4  12  22  43  66  95 133 172 210 266 326 377
#     4  11  22  44  67  95 133 170 216 269 318 378
#     4  11  23  41  69  94 134 170 212 269 319 380
#     4  11  22  44  66  96 133 170 215 267 321 383
#     4  10  22  43  66  97 129 168 216 267 319 380
#     4  11  22  42  68  92 135 169 214 265 325 374
#     4  11  23  43  68  95 130 170 216 264 322 384
#
# _framework density 21.007615999999999
#
# number of rings (size 3 to 8) (size 9 to 14) (size 15 to 20)
#    0.000    1.000    6.250    1.500    0.000    5.000 
#    2.250    1.250    0.000    0.000    0.000    0.000 
#    0.000    0.000    0.000    0.000    0.000    0.000 
#
# Total GULP energy -198453.490436 kJ/mol
# GULP energy per Si atom -12403.343152 kJ/mol
# Density = 2.095980 g / cm^3
# Si number density = 21.007616 Si / 1000 Ang^3
#
#
#
# Elastic Constant Matrix: (Units=GPa)
#
#
# Indices 1 2 3 4 5 6 
#
# 1 152.7124 23.0247 53.3814 -6.4985 -10.0582 13.1246
# 2 23.0247 78.2930 50.4597 1.6729 0.4647 7.5995
# 3 53.3814 50.4597 123.3610 -4.4081 -12.9120 13.6161
# 4 -6.4985 1.6729 -4.4081 42.6447 6.9578 0.3185
# 5 -10.0582 0.4647 -12.9120 6.9578 36.7301 -1.4900
# 6 13.1246 7.5995 13.6161 0.3185 -1.4900 32.7080
#
#
#
# Elastic Compliance Matrix: (Units=1/GPa)
#
#
# Indices 1 2 3 4 5 6 
#
# 1 0.007877 -0.000233 -0.002991 0.000769 0.000889 -0.001829
# 2 -0.000233 0.017722 -0.007351 -0.001039 -0.002719 -0.001078
# 3 -0.002991 -0.007351 0.013074 0.000605 0.003659 -0.002374
# 4 0.000769 -0.001039 0.000605 0.024362 -0.004209 -0.000748
# 5 0.000889 -0.002719 0.003659 -0.004209 0.029593 0.000141
# 6 -0.001829 -0.001078 -0.002374 -0.000748 0.000141 0.032560
#
#
# Mechanical properties :
#
#
# Convention : Reuss Voigt Hill
#
# Bulk Modulus (GPa) = 57.06760 67.56646 62.31703
# Shear Modulus (GPa) = 32.85619 37.58327 35.21973
#
# Velocity S-wave (km/s) = 3.95905 4.23428 4.09898
# Velocity P-wave (km/s) = 6.93707 7.49254 7.22015
#
# Compressibility (1/GPa) = 0.01752308
#
# Stress axis : x y z
#
# Youngs Moduli (GPa) = 126.94627 56.42837 76.48798
#
# Poissons Ratio (x) = 0.01315 0.22878
# Poissons Ratio (y) = 0.02959 0.56224
# Poissons Ratio (z) = 0.37970 0.41479
#
# Static dielectric constant tensor:
#      x y z
#    x 4.256670 0.020690 -0.102320 
#    y 0.020690 3.746900 0.154730 
#    z -0.102320 0.154730 3.957480 
# 
# 
# High freq. dielectric constant tensor:
#      x y z
#    x 1.841780 -0.000540 -0.004710 
#    y -0.000540 1.815920 0.008230 
#    z -0.004710 0.008230 1.817650 
# 
# From -- ./inp_files/214825.got.cif
#   From: 2010.06.25/outbox.cif.g09.slc.cpg/sg2_108_cif.got.tgz:214825.got - 2010.06.27 13:26:56.
