data_PCOD8021156
_publ_section_title
;
Structure prediction by ZEFSAII (Michael W. Deem and Ramdas Pophale) SiO2 
 PCOD8021156
Probable space group: P -1
;
_chemical_formula_sum "Si O2"
_cell_formula_units_Z 14
_cell_length_a 16.013780
_cell_length_b 10.978944
_cell_length_c 10.956301
_cell_angle_alpha 116.988144
_cell_angle_beta 40.161353
_cell_angle_gamma 144.405627
_cell_volume 646.987681
_symmetry_space_group_name_H-M "P -1"
_symmetry_group_IT_number 2
_symmetry_cell_setting 'triclinic'
loop_
_space_group_symop_operation_xyz
x,y,z
-x,-y,-z
loop_
_atom_site_type_symbol
_atom_site_label
_atom_site_fract_x
_atom_site_fract_y
_atom_site_fract_z
Si Si1 0.937150 0.589344 0.989319
Si Si2 0.902125 0.047937 0.195145
Si Si3 0.052715 0.324577 0.369784
Si Si4 0.652768 0.180836 0.799669
Si Si5 0.914770 0.777912 0.460870
Si Si6 0.578482 0.444578 0.473372
Si Si7 0.216799 0.828882 0.013089
O O1 0.732117 0.473683 0.241016
O O2 0.151851 0.767121 0.916265
O O3 0.878254 0.388959 0.912645
O O4 0.995519 0.728346 0.872273
O O5 0.984346 0.129439 0.280749
O O6 0.639414 0.825141 0.368264
O O7 0.000000 0.000000 0.000000
O O8 0.825382 0.210561 0.592762
O O9 0.224977 0.567332 0.212255
O O10 0.154486 0.361409 0.401459
O O11 0.500000 0.000000 0.000000
O O12 0.482401 0.056082 0.821327
O O13 0.702721 0.605052 0.529032
O O14 0.117815 0.875430 0.212786
O O15 0.000000 0.000000 0.500000
O O16 0.500000 0.500000 0.500000
#
# Coordination Sequence:
#
# PCOD8021156 Si02
#       7
#     2   2   2   2   2   2   2
#     4  10  23  43  66  97 133 170 229 271 325 395
#     4  12  25  42  68  95 135 178 224 269 329 400
#     4  11  26  42  68 105 133 174 228 276 335 400
#     4  11  22  44  71  97 137 174 220 276 342 398
#     4  11  25  44  69  99 139 171 223 284 334 398
#     4  11  23  45  70  97 134 179 221 273 334 390
#     4  10  22  43  68  94 131 178 217 277 330 390
#
# _framework density 21.638743000000002
#
# number of rings (size 3 to 8) (size 9 to 14) (size 15 to 20)
#    0.000    1.143    2.857    2.571    6.000    1.143 
#    0.000    4.286    0.000    0.000    0.000    0.000 
#    0.000    0.000    0.000    0.000    0.000    0.000 
#
# Total GULP energy -173582.803674 kJ/mol
# GULP energy per Si atom -12398.771691 kJ/mol
# Density = 2.158949 g / cm^3
# Si number density = 21.638743 Si / 1000 Ang^3
#
#
#
# Elastic Constant Matrix: (Units=GPa)
#
#
# Indices 1 2 3 4 5 6 
#
# 1 120.8985 54.7328 40.2691 -6.1877 -12.7360 12.8633
# 2 54.7328 148.5329 55.5875 6.6395 -7.8757 13.1405
# 3 40.2691 55.5875 91.7221 -16.7675 -4.5636 9.1996
# 4 -6.1877 6.6395 -16.7675 32.5574 -1.7634 -7.6128
# 5 -12.7360 -7.8757 -4.5636 -1.7634 31.6883 -5.9549
# 6 12.8633 13.1405 9.1996 -7.6128 -5.9549 40.3516
#
#
#
# Elastic Compliance Matrix: (Units=1/GPa)
#
#
# Indices 1 2 3 4 5 6 
#
# 1 0.010947 -0.002842 -0.002578 0.001202 0.003147 -0.001285
# 2 -0.002842 0.010540 -0.006079 -0.006386 -0.000200 -0.002375
# 3 -0.002578 -0.006079 0.017498 0.009984 0.000678 0.000796
# 4 0.001202 -0.006386 0.009984 0.039335 0.003917 0.007419
# 5 0.003147 -0.000200 0.000678 0.003917 0.033964 0.004658
# 6 -0.001285 -0.002375 0.000796 0.007419 0.004658 0.027871
#
#
# Mechanical properties :
#
#
# Convention : Reuss Voigt Hill
#
# Bulk Modulus (GPa) = 62.55733 73.59249 68.07491
# Shear Modulus (GPa) = 29.67702 34.95708 32.31705
#
# Velocity S-wave (km/s) = 3.70736 4.02367 3.86875
# Velocity P-wave (km/s) = 6.87740 7.46123 7.17526
#
# Compressibility (1/GPa) = 0.01598534
#
# Stress axis : x y z
#
# Youngs Moduli (GPa) = 91.35256 94.87875 57.15029
#
# Poissons Ratio (x) = 0.26964 0.14735
# Poissons Ratio (y) = 0.25962 0.34742
# Poissons Ratio (z) = 0.23554 0.57678
#
# Static dielectric constant tensor:
#      x y z
#    x 4.275550 0.188340 -0.139840 
#    y 0.188340 4.089630 -0.278710 
#    z -0.139840 -0.278710 4.020380 
# 
# 
# High freq. dielectric constant tensor:
#      x y z
#    x 1.862450 0.007510 -0.003830 
#    y 0.007510 1.866530 -0.001970 
#    z -0.003830 -0.001970 1.838470 
# 
# From -- ./inp_files/256062.got.cif
#   From: 2010.06.25/outbox.cif.g09.slc.cpg/sg2_129_cif.got.tgz:256062.got - 2010.06.27 13:26:56.
