data_PCOD8021470
_publ_section_title
;
Structure prediction by ZEFSAII (Michael W. Deem and Ramdas Pophale) SiO2 
 PCOD8021470
Probable space group: P -1
;
_chemical_formula_sum "Si O2"
_cell_formula_units_Z 12
_cell_length_a 23.685269
_cell_length_b 9.228620
_cell_length_c 26.067220
_cell_angle_alpha 31.019967
_cell_angle_beta 11.007451
_cell_angle_gamma 30.628296
_cell_volume 549.792246
_symmetry_space_group_name_H-M "P -1"
_symmetry_group_IT_number 2
_symmetry_cell_setting 'triclinic'
loop_
_space_group_symop_operation_xyz
x,y,z
-x,-y,-z
loop_
_atom_site_type_symbol
_atom_site_label
_atom_site_fract_x
_atom_site_fract_y
_atom_site_fract_z
Si Si1 0.668761 0.439420 0.813928
Si Si2 0.145220 0.703343 0.488296
Si Si3 0.855805 0.307299 0.296902
Si Si4 0.788849 0.747577 0.142535
Si Si5 0.858469 0.196646 0.875990
Si Si6 0.194074 0.217205 0.126613
O O1 0.000000 0.500000 0.500000
O O2 0.677706 0.118585 0.886235
O O3 0.500000 0.500000 0.000000
O O4 0.485033 0.639795 0.873858
O O5 0.074783 0.425387 0.605495
O O6 0.996332 0.695626 0.679022
O O7 0.507694 0.645759 0.184869
O O8 0.000000 0.000000 0.500000
O O9 0.812934 0.636821 0.213414
O O10 0.538792 0.212338 0.602872
O O11 0.964673 0.321698 0.253351
O O12 0.088980 0.060853 0.134191
O O13 0.000000 0.500000 0.000000
O O14 0.895085 0.049839 0.945050
#
# Coordination Sequence:
#
# PCOD8021470 Si02
#       6
#     2   2   2   2   2   2
#     4  12  24  38  67 103 131 170 230 283 323 388
#     4  12  28  45  63  98 146 187 215 269 342 407
#     4  10  22  43  73  98 129 173 233 286 332 395
#     4   9  21  41  71  99 129 168 229 286 344 386
#     4  11  24  41  68  95 136 181 226 270 343 402
#     4  12  26  44  68 100 140 176 227 276 332 398
#
# _framework density 21.826426000000001
#
# number of rings (size 3 to 8) (size 9 to 14) (size 15 to 20)
#    0.000    1.000    3.333    2.500    7.000    0.000 
#    0.000    1.667    0.000    0.000    0.000    0.000 
#    0.000    0.000    0.000    0.000    0.000    0.000 
#
# Total GULP energy -148725.264982 kJ/mol
# GULP energy per Si atom -12393.772082 kJ/mol
# Density = 2.177675 g / cm^3
# Si number density = 21.826426 Si / 1000 Ang^3
#
#
#
# Elastic Constant Matrix: (Units=GPa)
#
#
# Indices 1 2 3 4 5 6 
#
# 1 115.5774 39.3184 41.2402 2.3590 1.3066 -20.9356
# 2 39.3184 91.7705 38.0111 -16.9004 -5.3070 -35.6209
# 3 41.2402 38.0111 135.6202 3.0416 2.4759 -13.2230
# 4 2.3590 -16.9004 3.0416 40.3801 -3.9341 1.7457
# 5 1.3066 -5.3070 2.4759 -3.9341 37.9343 6.4493
# 6 -20.9356 -35.6209 -13.2230 1.7457 6.4493 38.5778
#
#
#
# Elastic Compliance Matrix: (Units=1/GPa)
#
#
# Indices 1 2 3 4 5 6 
#
# 1 0.011060 -0.003374 -0.002102 -0.002140 -0.001361 0.002491
# 2 -0.003374 0.022163 -0.003797 0.009194 0.001587 0.016650
# 3 -0.002102 -0.003797 0.009021 -0.002194 -0.001058 -0.001279
# 4 -0.002140 0.009194 -0.002194 0.029066 0.003729 0.004637
# 5 -0.001361 0.001587 -0.001058 0.003729 0.027844 -0.004459
# 6 0.002491 0.016650 -0.001279 0.004637 -0.004459 0.042744
#
#
# Mechanical properties :
#
#
# Convention : Reuss Voigt Hill
#
# Bulk Modulus (GPa) = 42.19955 64.45640 53.32797
# Shear Modulus (GPa) = 29.70092 38.33833 34.01963
#
# Velocity S-wave (km/s) = 3.69287 4.19562 3.95225
# Velocity P-wave (km/s) = 6.12856 7.28467 6.73148
#
# Compressibility (1/GPa) = 0.02369694
#
# Stress axis : x y z
#
# Youngs Moduli (GPa) = 90.41330 45.12011 110.85440
#
# Poissons Ratio (x) = 0.15225 0.23300
# Poissons Ratio (y) = 0.30508 0.42097
# Poissons Ratio (z) = 0.19004 0.17134
#
# Static dielectric constant tensor:
#      x y z
#    x 4.290400 -0.715510 0.227260 
#    y -0.715510 4.655860 -0.176040 
#    z 0.227260 -0.176040 4.207140 
# 
# 
# High freq. dielectric constant tensor:
#      x y z
#    x 1.847050 -0.024500 0.012740 
#    y -0.024500 1.863210 0.005350 
#    z 0.012740 0.005350 1.871560 
# 
# From -- ./inp_files/20032.got.cif
#   From: 2010.06.25/outbox.cif.g09.slc.cpg/sg2_11_cif.got.tgz:20032.got - 2010.06.27 13:26:56.
