data_PCOD8021232
_publ_section_title
;
Structure prediction by ZEFSAII (Michael W. Deem and Ramdas Pophale) SiO2 
 PCOD8021232
Probable space group: P -1
;
_chemical_formula_sum "Si O2"
_cell_formula_units_Z 12
_cell_length_a 7.652043
_cell_length_b 13.730955
_cell_length_c 10.028919
_cell_angle_alpha 54.626760
_cell_angle_beta 95.790921
_cell_angle_gamma 135.083555
_cell_volume 511.860804
_symmetry_space_group_name_H-M "P -1"
_symmetry_group_IT_number 2
_symmetry_cell_setting 'triclinic'
loop_
_space_group_symop_operation_xyz
x,y,z
-x,-y,-z
loop_
_atom_site_type_symbol
_atom_site_label
_atom_site_fract_x
_atom_site_fract_y
_atom_site_fract_z
Si Si1 0.249103 0.816326 0.533205
Si Si2 0.830544 0.806119 0.479470
Si Si3 0.627834 0.785740 0.935764
Si Si4 0.660196 0.048884 0.841833
Si Si5 0.350751 0.615488 0.776288
Si Si6 0.269874 0.382836 0.753030
O O1 0.364240 0.871001 0.345166
O O2 0.170283 0.638972 0.713030
O O3 0.988642 0.769824 0.567404
O O4 0.500000 0.000000 0.500000
O O5 0.687139 0.801704 0.595763
O O6 0.547396 0.603559 0.531125
O O7 0.041382 0.009621 0.254464
O O8 0.395800 0.622097 0.932786
O O9 0.514329 0.846063 0.944886
O O10 0.632314 0.691879 0.126140
O O11 0.008052 0.223783 0.755670
O O12 0.500000 0.000000 0.000000
O O13 0.174553 0.409773 0.856650
#
# Coordination Sequence:
#
# PCOD8021232 Si02
#       6
#     2   2   2   2   2   2
#     4  11  22  43  71 102 133 185 238 271 345 420
#     4   9  23  40  72  98 135 180 228 282 347 394
#     4  11  21  45  70  96 143 184 227 279 356 405
#     4  11  26  43  67 104 142 185 225 291 350 406
#     4  10  22  43  69 105 132 182 231 285 338 412
#     4  10  25  42  65 108 136 177 234 284 351 408
#
# _framework density 23.443874000000001
#
# number of rings (size 3 to 8) (size 9 to 14) (size 15 to 20)
#    1.000    0.667    3.333    1.500    2.333    4.667 
#    0.000    1.667    0.000    0.000    0.000    0.000 
#    0.000    0.000    0.000    0.000    0.000    0.000 
#
# Total GULP energy -148685.206644 kJ/mol
# GULP energy per Si atom -12390.433887 kJ/mol
# Density = 2.339051 g / cm^3
# Si number density = 23.443874 Si / 1000 Ang^3
#
#
#
# Elastic Constant Matrix: (Units=GPa)
#
#
# Indices 1 2 3 4 5 6 
#
# 1 55.7879 -20.2298 -8.4769 3.7694 2.0599 -0.8029
# 2 -20.2298 62.6780 -9.0634 11.9970 7.2090 1.5924
# 3 -8.4769 -9.0634 65.2964 12.0823 7.2077 10.8439
# 4 3.7694 11.9970 12.0823 34.0593 -6.0427 6.3890
# 5 2.0599 7.2090 7.2077 -6.0427 37.5016 8.2841
# 6 -0.8029 1.5924 10.8439 6.3890 8.2841 30.3053
#
#
#
# Elastic Compliance Matrix: (Units=1/GPa)
#
#
# Indices 1 2 3 4 5 6 
#
# 1 0.024374 0.011836 0.007369 -0.011072 -0.007187 0.001686
# 2 0.011836 0.025064 0.008647 -0.015334 -0.010015 0.001873
# 3 0.007369 0.008647 0.021045 -0.012017 -0.007330 -0.003252
# 4 -0.011072 -0.015334 -0.012017 0.044529 0.014954 -0.008663
# 5 -0.007187 -0.010015 -0.007330 0.014954 0.034958 -0.009750
# 6 0.001686 0.001873 -0.003252 -0.008663 -0.009750 0.038599
#
#
# Mechanical properties :
#
#
# Convention : Reuss Voigt Hill
#
# Bulk Modulus (GPa) = 7.92468 12.02469 9.97469
# Shear Modulus (GPa) = 28.58341 35.14205 31.86273
#
# Velocity S-wave (km/s) = 3.49553 3.87587 3.69061
# Velocity P-wave (km/s) = 4.43613 5.01699 4.73547
#
# Compressibility (1/GPa) = 0.12618800
#
# Stress axis : x y z
#
# Youngs Moduli (GPa) = 41.02678 39.89715 47.51812
#
# Poissons Ratio (x) = -0.47221 -0.35017
# Poissons Ratio (y) = -0.48558 -0.41091
# Poissons Ratio (z) = -0.30234 -0.34501
#
# Static dielectric constant tensor:
#      x y z
#    x 5.547480 -0.080500 0.195680 
#    y -0.080500 4.392320 0.017310 
#    z 0.195680 0.017310 3.900700 
# 
# 
# High freq. dielectric constant tensor:
#      x y z
#    x 1.925190 -0.010170 -0.001330 
#    y -0.010170 1.940810 0.007010 
#    z -0.001330 0.007010 1.905030 
# 
# From -- ./inp_files/205999.got.cif
#   From: 2010.06.25/outbox.cif.g09.slc.cpg/sg2_103_cif.got.tgz:205999.got - 2010.06.27 13:26:56.
