data_PCOD8021296
_publ_section_title
;
Structure prediction by ZEFSAII (Michael W. Deem and Ramdas Pophale) SiO2 
 PCOD8021296
Probable space group: P -1
;
_chemical_formula_sum "Si O2"
_cell_formula_units_Z 16
_cell_length_a 17.616572
_cell_length_b 29.962397
_cell_length_c 24.320691
_cell_angle_alpha 10.315203
_cell_angle_beta 19.159500
_cell_angle_gamma 17.975088
_cell_volume 700.348710
_symmetry_space_group_name_H-M "P -1"
_symmetry_group_IT_number 2
_symmetry_cell_setting 'triclinic'
loop_
_space_group_symop_operation_xyz
x,y,z
-x,-y,-z
loop_
_atom_site_type_symbol
_atom_site_label
_atom_site_fract_x
_atom_site_fract_y
_atom_site_fract_z
Si Si1 0.674066 0.528857 0.796903
Si Si2 0.513127 0.611643 0.083424
Si Si3 0.234927 0.339740 0.668472
Si Si4 0.428547 0.068520 0.246897
Si Si5 0.724029 0.319182 0.672279
Si Si6 0.075091 0.861449 0.675059
Si Si7 0.426762 0.164674 0.905778
Si Si8 0.280921 0.927537 0.761929
O O1 0.589085 0.822284 0.473688
O O2 0.941303 0.441719 0.747055
O O3 0.500000 0.500000 0.000000
O O4 0.698656 0.343930 0.952063
O O5 0.345026 0.436544 0.423053
O O6 0.727188 0.438853 0.104573
O O7 0.331931 0.876761 0.853892
O O8 0.639596 0.682000 0.966049
O O9 0.308454 0.473999 0.507278
O O10 0.362701 0.010843 0.981491
O O11 0.184317 0.033894 0.431340
O O12 0.586970 0.117080 0.028192
O O13 0.590245 0.524844 0.464108
O O14 0.011297 0.154085 0.661412
O O15 0.000000 0.000000 0.500000
O O16 0.841835 0.834685 0.896260
O O17 0.500000 0.000000 0.000000
O O18 0.500000 0.000000 0.500000
#
# Coordination Sequence:
#
# PCOD8021296 Si02
#       8
#     2   2   2   2   2   2   2   2
#     4  12  26  42  71 104 141 189 236 303 364 424
#     4  11  23  45  72 104 141 185 236 299 354 425
#     4  10  22  43  69  99 139 185 238 290 363 422
#     4  11  26  46  73 109 139 188 238 295 368 420
#     4  10  23  43  69 102 141 184 240 294 355 429
#     4  12  25  46  76 105 148 188 244 293 353 433
#     4  10  23  45  72  99 146 194 231 301 352 421
#     4  12  24  41  67 100 145 183 239 298 357 428
#
# _framework density 22.845761
#
# number of rings (size 3 to 8) (size 9 to 14) (size 15 to 20)
#    0.000    1.000    2.500    3.750    5.250    3.500 
#    0.000    2.500    0.000    0.000    0.000    0.000 
#    0.000    0.000    0.000    0.000    0.000    0.000 
#
# Total GULP energy -198337.228181 kJ/mol
# GULP energy per Si atom -12396.076761 kJ/mol
# Density = 2.279376 g / cm^3
# Si number density = 22.845761 Si / 1000 Ang^3
#
#
#
# Elastic Constant Matrix: (Units=GPa)
#
#
# Indices 1 2 3 4 5 6 
#
# 1 81.9220 11.8617 34.4904 -5.3854 22.5125 -11.6050
# 2 11.8617 122.8047 51.5895 6.1799 36.4169 -6.1490
# 3 34.4904 51.5895 143.1831 6.8321 42.0294 -11.5196
# 4 -5.3854 6.1799 6.8321 33.6090 6.7396 3.5761
# 5 22.5125 36.4169 42.0294 6.7396 37.1824 -8.9692
# 6 -11.6050 -6.1490 -11.5196 3.5761 -8.9692 40.4583
#
#
#
# Elastic Compliance Matrix: (Units=1/GPa)
#
#
# Indices 1 2 3 4 5 6 
#
# 1 0.015931 0.002029 -0.001665 0.004357 -0.010111 0.001777
# 2 0.002029 0.011916 -0.001493 0.000817 -0.011518 -0.000658
# 3 -0.001665 -0.001493 0.010774 -0.000287 -0.009592 0.000262
# 4 0.004357 0.000817 -0.000287 0.032766 -0.009974 -0.003815
# 5 -0.010111 -0.011518 -0.009592 -0.009974 0.058509 0.006470
# 6 0.001777 -0.000658 0.000262 -0.003815 0.006470 0.026973
#
#
# Mechanical properties :
#
#
# Convention : Reuss Voigt Hill
#
# Bulk Modulus (GPa) = 27.50158 60.42145 43.96152
# Shear Modulus (GPa) = 29.19755 38.91447 34.05601
#
# Velocity S-wave (km/s) = 3.57883 4.13165 3.86514
# Velocity P-wave (km/s) = 5.39828 7.01895 6.26128
#
# Compressibility (1/GPa) = 0.03636154
#
# Stress axis : x y z
#
# Youngs Moduli (GPa) = 62.77109 83.92220 92.81947
#
# Poissons Ratio (x) = -0.17028 0.15458
# Poissons Ratio (y) = -0.12737 0.13858
# Poissons Ratio (z) = 0.10454 0.12530
#
# Static dielectric constant tensor:
#      x y z
#    x 4.174220 0.098340 0.339230 
#    y 0.098340 4.260000 -0.114310 
#    z 0.339230 -0.114310 4.570620 
# 
# 
# High freq. dielectric constant tensor:
#      x y z
#    x 1.904210 0.004550 0.013640 
#    y 0.004550 1.907080 -0.005570 
#    z 0.013640 -0.005570 1.914110 
# 
# From -- ./inp_files/613343.got.cif
#   From: 2010.06.25/outbox.cif.g09.slc.cpg/sg2_307_cif.got.tgz:613343.got - 2010.06.27 13:26:56.
