data_PCOD8021743
_publ_section_title
;
Structure prediction by ZEFSAII (Michael W. Deem and Ramdas Pophale) SiO2 
 PCOD8021743
Probable space group: P -1
;
_chemical_formula_sum "Si O2"
_cell_formula_units_Z 14
_cell_length_a 15.454367
_cell_length_b 8.038149
_cell_length_c 9.377412
_cell_angle_alpha 65.700223
_cell_angle_beta 67.472595
_cell_angle_gamma 34.340198
_cell_volume 596.778789
_symmetry_space_group_name_H-M "P -1"
_symmetry_group_IT_number 2
_symmetry_cell_setting 'triclinic'
loop_
_space_group_symop_operation_xyz
x,y,z
-x,-y,-z
loop_
_atom_site_type_symbol
_atom_site_label
_atom_site_fract_x
_atom_site_fract_y
_atom_site_fract_z
Si Si1 0.626816 0.513281 0.768932
Si Si2 0.288556 0.998086 0.743347
Si Si3 0.170404 0.205080 0.443607
Si Si4 0.879925 0.018476 0.973426
Si Si5 0.203646 0.458316 0.838735
Si Si6 0.263216 0.390682 0.127268
Si Si7 0.171407 0.790471 0.510572
O O1 0.743588 0.187992 0.882945
O O2 0.604663 0.720591 0.819021
O O3 0.707390 0.468278 0.591764
O O4 0.464101 0.671912 0.783528
O O5 0.283229 0.056830 0.559275
O O6 0.236037 0.250106 0.780680
O O7 0.174143 0.005337 0.841989
O O8 0.209748 0.284853 0.265831
O O9 0.000000 0.500000 0.500000
O O10 0.188496 0.979791 0.443141
O O11 0.882957 0.236160 0.920203
O O12 0.033029 0.695664 0.926527
O O13 0.216498 0.631320 0.689021
O O14 0.317904 0.277005 0.968559
O O15 0.000000 0.000000 0.500000
#
# Coordination Sequence:
#
# PCOD8021743 Si02
#       7
#     2   2   2   2   2   2   2
#     4  10  25  45  69  94 146 176 226 275 340 393
#     4  12  26  43  70 102 136 182 223 279 337 398
#     4  12  25  42  69 101 135 174 231 278 334 402
#     4  10  22  44  67  97 136 176 226 275 332 394
#     4  12  23  40  73 101 133 176 230 278 334 396
#     4  10  24  41  67 102 137 175 227 278 333 393
#     4  12  24  46  71  98 133 179 224 279 337 403
#
# _framework density 23.459278999999999
#
# number of rings (size 3 to 8) (size 9 to 14) (size 15 to 20)
#    0.857    0.000    1.429    6.429    2.000    3.429 
#    0.000    0.000    0.000    0.000    0.000    0.000 
#    0.000    0.000    0.000    0.000    0.000    0.000 
#
# Total GULP energy -173576.852730 kJ/mol
# GULP energy per Si atom -12398.346624 kJ/mol
# Density = 2.340588 g / cm^3
# Si number density = 23.459279 Si / 1000 Ang^3
#
#
#
# Elastic Constant Matrix: (Units=GPa)
#
#
# Indices 1 2 3 4 5 6 
#
# 1 102.4270 25.5455 48.0243 -1.4585 7.1923 25.1808
# 2 25.5455 53.9774 16.3968 3.2880 4.6233 6.3617
# 3 48.0243 16.3968 166.5695 -9.1339 1.3831 18.5199
# 4 -1.4585 3.2880 -9.1339 31.0530 5.1431 -4.3548
# 5 7.1923 4.6233 1.3831 5.1431 47.8034 -0.7422
# 6 25.1808 6.3617 18.5199 -4.3548 -0.7422 33.1767
#
#
#
# Elastic Compliance Matrix: (Units=1/GPa)
#
#
# Indices 1 2 3 4 5 6 
#
# 1 0.014499 -0.004824 -0.002760 -0.000550 -0.001710 -0.008649
# 2 -0.004824 0.021342 -0.000805 -0.002599 -0.001041 -0.000346
# 3 -0.002760 -0.000805 0.007145 0.001837 0.000066 -0.001497
# 4 -0.000550 -0.002599 0.001837 0.034146 -0.003326 0.004298
# 5 -0.001710 -0.001041 0.000066 -0.003326 0.021656 0.001509
# 6 -0.008649 -0.000346 -0.001497 0.004298 0.001509 0.038206
#
#
# Mechanical properties :
#
#
# Convention : Reuss Voigt Hill
#
# Bulk Modulus (GPa) = 38.15669 55.87855 47.01762
# Shear Modulus (GPa) = 30.76752 37.94042 34.35397
#
# Velocity S-wave (km/s) = 3.62543 4.02592 3.83091
# Velocity P-wave (km/s) = 5.81596 6.74402 6.29711
#
# Compressibility (1/GPa) = 0.02620772
#
# Stress axis : x y z
#
# Youngs Moduli (GPa) = 68.97191 46.85541 139.95761
#
# Poissons Ratio (x) = 0.22603 0.38622
# Poissons Ratio (y) = 0.33272 0.11274
# Poissons Ratio (z) = 0.19033 0.03774
#
# Static dielectric constant tensor:
#      x y z
#    x 4.076720 -0.017230 0.212200 
#    y -0.017230 3.972830 -0.134330 
#    z 0.212200 -0.134330 4.625350 
# 
# 
# High freq. dielectric constant tensor:
#      x y z
#    x 1.922130 0.003820 0.012320 
#    y 0.003820 1.910530 -0.006140 
#    z 0.012320 -0.006140 1.950300 
# 
# From -- ./inp_files/325912.got.cif
#   From: 2010.06.25/outbox.cif.g09.slc.cpg/sg2_163_cif.got.tgz:325912.got - 2010.06.27 13:26:56.
