data_PCOD8021559
_publ_section_title
;
Structure prediction by ZEFSAII (Michael W. Deem and Ramdas Pophale) SiO2 
 PCOD8021559
Probable space group: P -1
;
_chemical_formula_sum "Si O2"
_cell_formula_units_Z 14
_cell_length_a 6.735525
_cell_length_b 9.412748
_cell_length_c 15.875687
_cell_angle_alpha 69.560818
_cell_angle_beta 123.043683
_cell_angle_gamma 82.931823
_cell_volume 724.913655
_symmetry_space_group_name_H-M "P -1"
_symmetry_group_IT_number 2
_symmetry_cell_setting 'triclinic'
loop_
_space_group_symop_operation_xyz
x,y,z
-x,-y,-z
loop_
_atom_site_type_symbol
_atom_site_label
_atom_site_fract_x
_atom_site_fract_y
_atom_site_fract_z
Si Si1 0.020411 0.528168 0.134134
Si Si2 0.915759 0.851388 0.504336
Si Si3 0.252168 0.658981 0.308642
Si Si4 0.924525 0.244780 0.259066
Si Si5 0.643233 0.725469 0.865255
Si Si6 0.168927 0.591681 0.485921
Si Si7 0.671188 0.014925 0.710238
O O1 0.105425 0.631327 0.199781
O O2 0.262869 0.414915 0.156440
O O3 0.896258 0.412924 0.172479
O O4 0.800735 0.662191 0.000065
O O5 0.992048 0.741108 0.628955
O O6 0.085193 0.759470 0.483188
O O7 0.613349 0.903262 0.411190
O O8 0.000000 0.000000 0.500000
O O9 0.110205 0.639144 0.364662
O O10 0.535818 0.517813 0.404792
O O11 0.251948 0.841229 0.264723
O O12 0.655491 0.225775 0.196122
O O13 0.135620 0.081982 0.299180
O O14 0.683946 0.889191 0.813872
O O15 0.000000 0.500000 0.500000
#
# Coordination Sequence:
#
# PCOD8021559 Si02
#       7
#     2   2   2   2   2   2   2
#     4  10  23  41  66  89 117 161 207 251 296 357
#     4  12  22  38  64  91 123 163 197 245 308 356
#     4  11  24  39  60  91 126 159 198 244 307 360
#     4  11  22  39  64  90 121 158 204 252 300 351
#     4  10  22  44  64  89 119 157 210 253 294 351
#     4  11  23  40  58  88 129 161 195 242 301 367
#     4  11  24  39  59  93 128 156 198 252 299 366
#
# _framework density 19.312646000000001
#
# number of rings (size 3 to 8) (size 9 to 14) (size 15 to 20)
#    0.000    1.143    2.857    3.429    4.000    0.571 
#    0.000    0.714    0.000    0.000    0.000    0.000 
#    0.000    0.000    0.000    0.000    0.000    0.000 
#
# Total GULP energy -173651.210413 kJ/mol
# GULP energy per Si atom -12403.657887 kJ/mol
# Density = 1.926869 g / cm^3
# Si number density = 19.312646 Si / 1000 Ang^3
#
#
#
# Elastic Constant Matrix: (Units=GPa)
#
#
# Indices 1 2 3 4 5 6 
#
# 1 121.7919 60.5904 59.4905 2.3689 -12.2837 -6.6634
# 2 60.5904 143.0427 65.1772 14.9314 -4.9028 3.2808
# 3 59.4905 65.1772 152.2844 4.7819 -17.4835 -4.2410
# 4 2.3689 14.9314 4.7819 31.9018 -3.3453 -4.1336
# 5 -12.2837 -4.9028 -17.4835 -3.3453 22.8495 -6.7132
# 6 -6.6634 3.2808 -4.2410 -4.1336 -6.7132 32.2022
#
#
#
# Elastic Compliance Matrix: (Units=1/GPa)
#
#
# Indices 1 2 3 4 5 6 
#
# 1 0.012185 -0.004310 -0.002249 0.002562 0.005495 0.004139
# 2 -0.004310 0.010872 -0.003445 -0.005263 -0.004591 -0.004086
# 3 -0.002249 -0.003445 0.009693 0.001351 0.006454 0.002681
# 4 0.002562 -0.005263 0.001351 0.035310 0.008680 0.007586
# 5 0.005495 -0.004591 0.006454 0.008680 0.056449 0.015337
# 6 0.004139 -0.004086 0.002681 0.007586 0.015337 0.036851
#
#
# Mechanical properties :
#
#
# Convention : Reuss Voigt Hill
#
# Bulk Modulus (GPa) = 78.49146 87.51503 83.00324
# Shear Modulus (GPa) = 26.93739 32.84810 29.89274
#
# Velocity S-wave (km/s) = 3.73876 4.12862 3.93852
# Velocity P-wave (km/s) = 7.70510 8.25473 7.98465
#
# Compressibility (1/GPa) = 0.01274024
#
# Stress axis : x y z
#
# Youngs Moduli (GPa) = 82.07016 91.97808 103.16624
#
# Poissons Ratio (x) = 0.39645 0.23207
# Poissons Ratio (y) = 0.35375 0.35542
# Poissons Ratio (z) = 0.18462 0.31687
#
# Static dielectric constant tensor:
#      x y z
#    x 3.586830 0.034960 -0.136860 
#    y 0.034960 3.549300 -0.054820 
#    z -0.136860 -0.054820 3.646460 
# 
# 
# High freq. dielectric constant tensor:
#      x y z
#    x 1.768250 0.000330 -0.007510 
#    y 0.000330 1.758200 -0.006900 
#    z -0.007510 -0.006900 1.751030 
# 
# From -- ./inp_files/26832.got.cif
#   From: 2010.06.25/outbox.cif.g09.slc.cpg/sg2_14_cif.got.tgz:26832.got - 2010.06.27 13:26:56.
