data_PCOD8021699
_publ_section_title
;
Structure prediction by ZEFSAII (Michael W. Deem and Ramdas Pophale) SiO2 
 PCOD8021699
Probable space group: P -1
;
_chemical_formula_sum "Si O2"
_cell_formula_units_Z 16
_cell_length_a 9.332226
_cell_length_b 19.655080
_cell_length_c 9.838602
_cell_angle_alpha 123.930186
_cell_angle_beta 102.977242
_cell_angle_gamma 34.762047
_cell_volume 741.994600
_symmetry_space_group_name_H-M "P -1"
_symmetry_group_IT_number 2
_symmetry_cell_setting 'triclinic'
loop_
_space_group_symop_operation_xyz
x,y,z
-x,-y,-z
loop_
_atom_site_type_symbol
_atom_site_label
_atom_site_fract_x
_atom_site_fract_y
_atom_site_fract_z
Si Si1 0.273069 0.853315 0.298729
Si Si2 0.139592 0.350847 0.808107
Si Si3 0.768152 0.861835 0.302257
Si Si4 0.627133 0.361374 0.795164
Si Si5 0.956966 0.608273 0.460887
Si Si6 0.426146 0.971954 0.837475
Si Si7 0.085845 0.979468 0.843572
Si Si8 0.621662 0.613087 0.468483
O O1 0.522165 0.798977 0.326953
O O2 0.406476 0.699749 0.180571
O O3 0.000000 0.000000 0.500000
O O4 0.193212 0.900743 0.176702
O O5 0.122951 0.285279 0.840317
O O6 0.972726 0.404425 0.694900
O O7 0.000000 0.500000 0.000000
O O8 0.032681 0.789877 0.333761
O O9 0.500000 0.000000 0.500000
O O10 0.687889 0.925556 0.204165
O O11 0.450356 0.427923 0.693052
O O12 0.500000 0.500000 0.000000
O O13 0.715279 0.784371 0.660653
O O14 0.857129 0.561066 0.393789
O O15 0.246653 0.484716 0.472141
O O16 0.182179 0.027435 0.902840
O O17 0.500000 0.000000 0.000000
O O18 0.329848 0.801281 0.645180
O O19 0.000000 0.000000 0.000000
#
# Coordination Sequence:
#
# PCOD8021699 Si02
#       8
#     2   2   2   2   2   2   2   2
#     4  12  22  46  75  95 135 187 243 290 338 422
#     4  12  26  42  71 105 139 185 240 290 348 427
#     4  12  26  45  71 103 143 184 238 295 356 413
#     4  12  25  44  72 106 140 186 237 296 356 413
#     4  10  22  44  67 100 139 185 228 283 356 423
#     4  11  25  44  69 101 141 184 231 293 358 418
#     4  11  25  43  70 103 135 184 241 289 346 423
#     4  10  23  42  71  97 140 183 230 286 352 422
#
# _framework density 21.563499
#
# number of rings (size 3 to 8) (size 9 to 14) (size 15 to 20)
#    0.000    0.750    5.000    2.250    5.250    1.000 
#    0.000    0.625    0.000    0.000    0.000    0.000 
#    0.000    0.000    0.000    0.000    0.000    0.000 
#
# Total GULP energy -198460.106341 kJ/mol
# GULP energy per Si atom -12403.756646 kJ/mol
# Density = 2.151442 g / cm^3
# Si number density = 21.563499 Si / 1000 Ang^3
#
#
#
# Elastic Constant Matrix: (Units=GPa)
#
#
# Indices 1 2 3 4 5 6 
#
# 1 98.3205 60.3550 37.5191 -22.6074 10.0247 7.2799
# 2 60.3550 168.2437 48.9289 -38.6878 13.7479 0.9046
# 3 37.5191 48.9289 101.9289 -32.6186 18.1959 0.3513
# 4 -22.6074 -38.6878 -32.6186 37.8820 1.7789 2.8288
# 5 10.0247 13.7479 18.1959 1.7789 37.6423 -3.5446
# 6 7.2799 0.9046 0.3513 2.8288 -3.5446 45.2576
#
#
#
# Elastic Compliance Matrix: (Units=1/GPa)
#
#
# Indices 1 2 3 4 5 6 
#
# 1 0.014339 -0.003588 -0.002151 0.003320 -0.001867 -0.002572
# 2 -0.003588 0.009169 -0.000365 0.007048 -0.002573 -0.000245
# 3 -0.002151 -0.000365 0.016299 0.012837 -0.007892 -0.001194
# 4 0.003320 0.007048 0.012837 0.047563 -0.012355 -0.004715
# 5 -0.001867 -0.002573 -0.007892 -0.012355 0.032755 0.003751
# 6 -0.002572 -0.000245 -0.001194 -0.004715 0.003751 0.023112
#
#
# Mechanical properties :
#
#
# Convention : Reuss Voigt Hill
#
# Bulk Modulus (GPa) = 36.23421 73.56655 54.90038
# Shear Modulus (GPa) = 30.36853 38.93573 34.65213
#
# Velocity S-wave (km/s) = 3.75684 4.25388 4.01307
# Velocity P-wave (km/s) = 5.97147 7.63660 6.85478
#
# Compressibility (1/GPa) = 0.02759823
#
# Stress axis : x y z
#
# Youngs Moduli (GPa) = 69.74224 109.05800 61.35440
#
# Poissons Ratio (x) = 0.39134 0.13195
# Poissons Ratio (y) = 0.25026 0.02241
# Poissons Ratio (z) = 0.14999 0.03984
#
# Static dielectric constant tensor:
#      x y z
#    x 4.176330 0.030460 0.043720 
#    y 0.030460 4.389970 -0.100300 
#    z 0.043720 -0.100300 3.698150 
# 
# 
# High freq. dielectric constant tensor:
#      x y z
#    x 1.842820 -0.000210 0.007790 
#    y -0.000210 1.868660 -0.000680 
#    z 0.007790 -0.000680 1.840260 
# 
# From -- ./inp_files/205019.got.cif
#   From: 2010.06.25/outbox.cif.g09.slc.cpg/sg2_103_cif.got.tgz:205019.got - 2010.06.27 13:26:56.
