data_PCOD8021309
_publ_section_title
;
Structure prediction by ZEFSAII (Michael W. Deem and Ramdas Pophale) SiO2 
 PCOD8021309
Probable space group: P -1
;
_chemical_formula_sum "Si O2"
_cell_formula_units_Z 16
_cell_length_a 26.284510
_cell_length_b 5.321310
_cell_length_c 9.430696
_cell_angle_alpha 91.361246
_cell_angle_beta 38.970244
_cell_angle_gamma 71.829171
_cell_volume 705.663844
_symmetry_space_group_name_H-M "P -1"
_symmetry_group_IT_number 2
_symmetry_cell_setting 'triclinic'
loop_
_space_group_symop_operation_xyz
x,y,z
-x,-y,-z
loop_
_atom_site_type_symbol
_atom_site_label
_atom_site_fract_x
_atom_site_fract_y
_atom_site_fract_z
Si Si1 0.919159 0.897883 0.713651
Si Si2 0.061340 0.651982 0.850311
Si Si3 0.189877 0.604872 0.817468
Si Si4 0.427449 0.861802 0.011595
Si Si5 0.247199 0.210248 0.941778
Si Si6 0.374650 0.458312 0.283812
Si Si7 0.099896 0.657519 0.447371
Si Si8 0.441610 0.844971 0.657181
O O1 0.942225 0.008198 0.517096
O O2 0.889001 0.121730 0.917340
O O3 0.018190 0.601643 0.554170
O O4 0.827307 0.889215 0.877611
O O5 0.142506 0.526126 0.791036
O O6 0.110352 0.590262 0.589446
O O7 0.000000 0.500000 0.000000
O O8 0.000000 0.000000 0.000000
O O9 0.246090 0.310079 0.785977
O O10 0.271996 0.656890 0.582531
O O11 0.382062 0.677811 0.162940
O O12 0.380149 0.181146 0.190167
O O13 0.541266 0.667290 0.784164
O O14 0.403617 0.917688 0.899235
O O15 0.353862 0.962261 0.741887
O O16 0.205833 0.477710 0.148805
O O17 0.500000 0.500000 0.500000
O O18 0.500000 0.000000 0.500000
#
# Coordination Sequence:
#
# PCOD8021309 Si02
#       8
#     2   2   2   2   2   2   2   2
#     4  10  22  43  70 101 140 185 237 281 353 409
#     4  12  27  45  69 102 143 184 230 287 351 404
#     4  11  25  42  70 103 138 186 236 284 345 421
#     4  10  23  44  65 102 131 180 223 285 348 404
#     4  11  26  42  74  99 140 187 239 282 354 418
#     4  10  23  41  71  94 139 172 227 281 346 411
#     4  10  23  43  68 101 141 182 234 290 345 415
#     4  12  28  47  73 101 143 182 236 293 347 415
#
# _framework density 22.673684999999999
#
# number of rings (size 3 to 8) (size 9 to 14) (size 15 to 20)
#    0.000    1.250    1.250    2.625   10.500    2.000 
#    0.000    0.000    0.000    0.000    0.000    0.000 
#    0.000    0.000    0.000    0.000    0.000    0.000 
#
# Total GULP energy -198323.980328 kJ/mol
# GULP energy per Si atom -12395.248771 kJ/mol
# Density = 2.262208 g / cm^3
# Si number density = 22.673685 Si / 1000 Ang^3
#
#
#
# Elastic Constant Matrix: (Units=GPa)
#
#
# Indices 1 2 3 4 5 6 
#
# 1 112.9353 47.4845 46.0379 -13.5184 -13.0866 -30.6305
# 2 47.4845 121.6495 44.3318 -14.4391 -7.7050 -9.9480
# 3 46.0379 44.3318 118.7863 -19.2812 -17.2126 -13.6236
# 4 -13.5184 -14.4391 -19.2812 40.4797 -8.1079 -0.6460
# 5 -13.0866 -7.7050 -17.2126 -8.1079 44.3170 -7.7149
# 6 -30.6305 -9.9480 -13.6236 -0.6460 -7.7149 42.7413
#
#
#
# Elastic Compliance Matrix: (Units=1/GPa)
#
#
# Indices 1 2 3 4 5 6 
#
# 1 0.015098 -0.003503 -0.001813 0.004250 0.005756 0.010530
# 2 -0.003503 0.010583 -0.002461 0.001413 -0.000034 -0.000816
# 3 -0.001813 -0.002461 0.011994 0.005315 0.005184 0.002967
# 4 0.004250 0.001413 0.005315 0.031403 0.010609 0.007459
# 5 0.005756 -0.000034 0.005184 0.010609 0.030194 0.011380
# 6 0.010530 -0.000816 0.002967 0.007459 0.011380 0.033866
#
#
# Mechanical properties :
#
#
# Convention : Reuss Voigt Hill
#
# Bulk Modulus (GPa) = 45.20380 69.89771 57.55076
# Shear Modulus (GPa) = 32.03784 39.87538 35.95661
#
# Velocity S-wave (km/s) = 3.76306 4.19819 3.98657
# Velocity P-wave (km/s) = 6.23384 7.37525 6.82844
#
# Compressibility (1/GPa) = 0.02212203
#
# Stress axis : x y z
#
# Youngs Moduli (GPa) = 66.23382 94.48781 83.37570
#
# Poissons Ratio (x) = 0.33095 0.15113
# Poissons Ratio (y) = 0.23199 0.20522
# Poissons Ratio (z) = 0.12006 0.23257
#
# Static dielectric constant tensor:
#      x y z
#    x 4.425900 -0.112060 -0.039430 
#    y -0.112060 4.303720 0.121100 
#    z -0.039430 0.121100 4.419230 
# 
# 
# High freq. dielectric constant tensor:
#      x y z
#    x 1.897680 -0.001260 -0.002440 
#    y -0.001260 1.898750 -0.006890 
#    z -0.002440 -0.006890 1.906790 
# 
# From -- ./inp_files/84946.got.cif
#   From: 2010.06.25/outbox.cif.g09.slc.cpg/sg2_43_cif.got.tgz:84946.got - 2010.06.27 13:26:56.
