data_PCOD8021491
_publ_section_title
;
Structure prediction by ZEFSAII (Michael W. Deem and Ramdas Pophale) SiO2 
 PCOD8021491
Probable space group: P -1
;
_chemical_formula_sum "Si O2"
_cell_formula_units_Z 16
_cell_length_a 15.890080
_cell_length_b 9.049303
_cell_length_c 12.211347
_cell_angle_alpha 77.038851
_cell_angle_beta 132.183030
_cell_angle_gamma 63.652906
_cell_volume 719.990972
_symmetry_space_group_name_H-M "P -1"
_symmetry_group_IT_number 2
_symmetry_cell_setting 'triclinic'
loop_
_space_group_symop_operation_xyz
x,y,z
-x,-y,-z
loop_
_atom_site_type_symbol
_atom_site_label
_atom_site_fract_x
_atom_site_fract_y
_atom_site_fract_z
Si Si1 0.799292 0.040049 0.046998
Si Si2 0.003232 0.866684 0.867626
Si Si3 0.891336 0.619610 0.272217
Si Si4 0.660605 0.198497 0.671476
Si Si5 0.413902 0.261528 0.072107
Si Si6 0.845888 0.917662 0.499817
Si Si7 0.298898 0.710538 0.857514
Si Si8 0.588999 0.756611 0.676882
O O1 0.672552 0.234408 0.009903
O O2 0.930570 0.036620 0.121456
O O3 0.921066 0.757700 0.234367
O O4 0.678073 0.110938 0.823982
O O5 0.863521 0.964824 0.628944
O O6 0.872455 0.023130 0.837927
O O7 0.188208 0.549008 0.109246
O O8 0.000000 0.500000 0.500000
O O9 0.990211 0.393611 0.311819
O O10 0.664672 0.799589 0.055243
O O11 0.500000 0.500000 0.500000
O O12 0.575933 0.184326 0.506981
O O13 0.416621 0.203071 0.207852
O O14 0.634138 0.070536 0.261453
O O15 0.259219 0.575495 0.870922
O O16 0.871802 0.022926 0.412376
O O17 0.500000 0.500000 0.000000
O O18 0.500000 0.000000 0.500000
#
# Coordination Sequence:
#
# PCOD8021491 Si02
#       8
#     2   2   2   2   2   2   2   2
#     4  12  25  46  69 106 145 179 235 297 354 413
#     4  12  26  47  76 104 140 190 245 287 354 435
#     4  12  26  44  66 104 147 180 228 297 358 413
#     4  12  26  47  72 105 144 185 237 299 356 413
#     4  11  23  47  68 103 139 185 239 286 346 429
#     4  11  24  45  73 101 137 188 237 285 351 428
#     4  10  22  43  75 101 135 188 237 280 345 428
#     4  12  25  45  74 103 141 188 235 293 353 428
#
# _framework density 22.2225
#
# number of rings (size 3 to 8) (size 9 to 14) (size 15 to 20)
#    0.000    0.500    6.250    1.125    3.500    3.000 
#    2.250    0.000    0.000    0.000    0.000    0.000 
#    0.000    0.000    0.000    0.000    0.000    0.000 
#
# Total GULP energy -198230.744037 kJ/mol
# GULP energy per Si atom -12389.421502 kJ/mol
# Density = 2.217192 g / cm^3
# Si number density = 22.222500 Si / 1000 Ang^3
#
#
#
# Elastic Constant Matrix: (Units=GPa)
#
#
# Indices 1 2 3 4 5 6 
#
# 1 111.2002 58.3503 59.2437 -12.6708 -23.8530 2.3714
# 2 58.3503 100.8061 40.9316 -1.5333 -10.6033 13.2733
# 3 59.2437 40.9316 125.2628 4.9683 -19.8991 11.9217
# 4 -12.6708 -1.5333 4.9683 49.7692 5.7034 -9.7367
# 5 -23.8530 -10.6033 -19.8991 5.7034 40.5713 1.6535
# 6 2.3714 13.2733 11.9217 -9.7367 1.6535 45.5308
#
#
#
# Elastic Compliance Matrix: (Units=1/GPa)
#
#
# Indices 1 2 3 4 5 6 
#
# 1 0.017549 -0.007824 -0.005546 0.004967 0.004703 0.003711
# 2 -0.007824 0.015279 -0.000887 -0.002203 -0.000559 -0.004265
# 3 -0.005546 -0.000887 0.011838 -0.003633 0.002965 -0.003437
# 4 0.004967 -0.002203 -0.003633 0.023247 -0.002967 0.006414
# 5 0.004703 -0.000559 0.002965 -0.002967 0.029242 -0.002555
# 6 0.003711 -0.004265 -0.003437 0.006414 -0.002555 0.025378
#
#
# Mechanical properties :
#
#
# Convention : Reuss Voigt Hill
#
# Bulk Modulus (GPa) = 61.91939 72.70225 67.31082
# Shear Modulus (GPa) = 31.96270 39.09049 35.52659
#
# Velocity S-wave (km/s) = 3.79661 4.19865 4.00268
# Velocity P-wave (km/s) = 6.86607 7.50277 7.19147
#
# Compressibility (1/GPa) = 0.01615003
#
# Stress axis : x y z
#
# Youngs Moduli (GPa) = 56.98324 65.45059 84.47020
#
# Poissons Ratio (x) = 0.51211 0.46849
# Poissons Ratio (y) = 0.44586 0.07496
# Poissons Ratio (z) = 0.31604 0.05808
#
# Static dielectric constant tensor:
#      x y z
#    x 4.354530 -0.196180 -0.022850 
#    y -0.196180 4.211670 0.025170 
#    z -0.022850 0.025170 4.392130 
# 
# 
# High freq. dielectric constant tensor:
#      x y z
#    x 1.872480 0.004170 -0.012840 
#    y 0.004170 1.879790 0.009210 
#    z -0.012840 0.009210 1.890470 
# 
# From -- ./inp_files/272591.got.cif
#   From: 2010.06.25/outbox.cif.g09.slc.cpg/sg2_137_cif.got.tgz:272591.got - 2010.06.27 13:26:56.
