data_PCOD8021481
_publ_section_title
;
Structure prediction by ZEFSAII (Michael W. Deem and Ramdas Pophale) SiO2 
 PCOD8021481
Probable space group: P -1
;
_chemical_formula_sum "Si O2"
_cell_formula_units_Z 16
_cell_length_a 15.732798
_cell_length_b 8.760483
_cell_length_c 11.707701
_cell_angle_alpha 140.861500
_cell_angle_beta 44.244956
_cell_angle_gamma 132.484266
_cell_volume 683.871079
_symmetry_space_group_name_H-M "P -1"
_symmetry_group_IT_number 2
_symmetry_cell_setting 'triclinic'
loop_
_space_group_symop_operation_xyz
x,y,z
-x,-y,-z
loop_
_atom_site_type_symbol
_atom_site_label
_atom_site_fract_x
_atom_site_fract_y
_atom_site_fract_z
Si Si1 0.596450 0.360502 0.877529
Si Si2 0.001655 0.197371 0.240724
Si Si3 0.797025 0.832057 0.560036
Si Si4 0.248655 0.112438 0.937600
Si Si5 0.289659 0.984766 0.590666
Si Si6 0.001174 0.305281 0.556892
Si Si7 0.634001 0.987362 0.997111
Si Si8 0.362950 0.460849 0.656576
O O1 0.653021 0.218746 0.642835
O O2 0.516447 0.156425 0.927331
O O3 0.500000 0.500000 0.000000
O O4 0.709725 0.583723 0.948775
O O5 0.056113 0.289077 0.367846
O O6 0.857318 0.050718 0.314681
O O7 0.020804 0.419568 0.257866
O O8 0.095140 0.027263 0.014515
O O9 0.892901 0.709813 0.462705
O O10 0.739280 0.643920 0.404666
O O11 0.869511 0.100170 0.591718
O O12 0.686851 0.867901 0.769845
O O13 0.310459 0.971625 0.700057
O O14 0.288131 0.037683 0.978954
O O15 0.355905 0.265976 0.652033
O O16 0.654454 0.281296 0.125871
O O17 0.500000 0.500000 0.500000
#
# Coordination Sequence:
#
# PCOD8021481 Si02
#       8
#     2   2   2   2   2   2   2   2
#     4  10  24  44  70 102 137 183 235 292 348 416
#     4  11  22  44  71 106 140 177 245 291 353 415
#     4  11  25  47  72  99 146 188 230 292 357 415
#     4  11  26  45  73 105 139 185 239 292 355 417
#     4  12  26  46  70 105 143 184 237 294 349 420
#     4  10  22  43  74 103 138 188 233 291 353 422
#     4  11  26  45  71 105 138 184 239 284 354 427
#     4  12  28  47  68 104 142 189 235 286 352 423
#
# _framework density 23.396222999999999
#
# number of rings (size 3 to 8) (size 9 to 14) (size 15 to 20)
#    0.000    1.000    3.750    1.875    7.000    2.500 
#    0.000    3.125    0.000    0.000    0.000    0.000 
#    0.000    0.000    0.000    0.000    0.000    0.000 
#
# Total GULP energy -198370.454562 kJ/mol
# GULP energy per Si atom -12398.153410 kJ/mol
# Density = 2.334297 g / cm^3
# Si number density = 23.396223 Si / 1000 Ang^3
#
#
#
# Elastic Constant Matrix: (Units=GPa)
#
#
# Indices 1 2 3 4 5 6 
#
# 1 44.6231 15.0652 3.9966 -5.5094 -9.5178 -6.0613
# 2 15.0652 89.4572 5.4560 -8.3515 -13.3004 2.8469
# 3 3.9966 5.4560 115.1901 -11.6000 -4.6582 1.0300
# 4 -5.5094 -8.3515 -11.6000 32.7868 3.0588 -0.8010
# 5 -9.5178 -13.3004 -4.6582 3.0588 29.5174 -9.3490
# 6 -6.0613 2.8469 1.0300 -0.8010 -9.3490 32.8299
#
#
#
# Elastic Compliance Matrix: (Units=1/GPa)
#
#
# Indices 1 2 3 4 5 6 
#
# 1 0.026957 -0.003092 -0.000175 0.002990 0.009505 0.008030
# 2 -0.003092 0.012565 -0.000085 0.002241 0.004299 -0.000379
# 3 -0.000175 -0.000085 0.009040 0.003052 0.001035 0.000061
# 4 0.002990 0.002241 0.003052 0.032736 -0.000661 0.000872
# 5 0.009505 0.004299 0.001035 -0.000661 0.043453 0.013708
# 6 0.008030 -0.000379 0.000061 0.000872 0.013708 0.035898
#
#
# Mechanical properties :
#
#
# Convention : Reuss Voigt Hill
#
# Bulk Modulus (GPa) = 23.89108 33.14512 28.51810
# Shear Modulus (GPa) = 27.57756 34.01034 30.79395
#
# Velocity S-wave (km/s) = 3.43697 3.81684 3.63187
# Velocity P-wave (km/s) = 5.09745 5.79844 5.45921
#
# Compressibility (1/GPa) = 0.04185663
#
# Stress axis : x y z
#
# Youngs Moduli (GPa) = 37.09645 79.58695 110.61847
#
# Poissons Ratio (x) = 0.24611 0.01938
# Poissons Ratio (y) = 0.11472 0.00940
# Poissons Ratio (z) = 0.00650 0.00676
#
# Static dielectric constant tensor:
#      x y z
#    x 4.610320 -0.233300 -0.075710 
#    y -0.233300 5.304860 0.192710 
#    z -0.075710 0.192710 4.331540 
# 
# 
# High freq. dielectric constant tensor:
#      x y z
#    x 1.927830 0.005470 -0.000220 
#    y 0.005470 1.936650 -0.007340 
#    z -0.000220 -0.007340 1.928190 
# 
# From -- ./inp_files/462558.got.cif
#   From: 2010.06.25/outbox.cif.g09.slc.cpg/sg2_232_cif.got.tgz:462558.got - 2010.06.27 13:26:56.
