data_PCOD8021615
_publ_section_title
;
Structure prediction by ZEFSAII (Michael W. Deem and Ramdas Pophale) SiO2 
 PCOD8021615
Probable space group: P -1
;
_chemical_formula_sum "Si O2"
_cell_formula_units_Z 14
_cell_length_a 15.450992
_cell_length_b 7.961041
_cell_length_c 15.532937
_cell_angle_alpha 109.391430
_cell_angle_beta 26.614800
_cell_angle_gamma 127.185334
_cell_volume 553.691350
_symmetry_space_group_name_H-M "P -1"
_symmetry_group_IT_number 2
_symmetry_cell_setting 'triclinic'
loop_
_space_group_symop_operation_xyz
x,y,z
-x,-y,-z
loop_
_atom_site_type_symbol
_atom_site_label
_atom_site_fract_x
_atom_site_fract_y
_atom_site_fract_z
Si Si1 0.700521 0.696501 0.932236
Si Si2 0.915115 0.713500 0.318915
Si Si3 0.820010 0.167636 0.552840
Si Si4 0.389898 0.609397 0.791202
Si Si5 0.304689 0.681928 0.696074
Si Si6 0.133232 0.923874 0.819675
Si Si7 0.817291 0.560038 0.567394
O O1 0.974971 0.753660 0.695684
O O2 0.500000 0.500000 0.000000
O O3 0.487172 0.540605 0.177792
O O4 0.815305 0.976942 0.874365
O O5 0.623517 0.624059 0.559758
O O6 0.902033 0.556094 0.228971
O O7 0.937389 0.629465 0.376983
O O8 0.754636 0.329124 0.628239
O O9 0.954265 0.198129 0.530285
O O10 0.522989 0.866685 0.764636
O O11 0.227245 0.566288 0.841144
O O12 0.138847 0.356238 0.029595
O O13 0.288695 0.886451 0.738044
O O14 0.636566 0.852951 0.415519
O O15 0.000000 0.000000 0.000000
#
# Coordination Sequence:
#
# PCOD8021615 Si02
#       7
#     2   2   2   2   2   2   2
#     4   9  21  42  65  94 129 172 213 267 322 374
#     4  11  24  41  69  99 128 176 217 264 326 392
#     4   9  22  42  66  95 126 174 217 271 318 385
#     4  11  24  43  67  94 133 172 217 268 330 378
#     4  11  26  45  64  98 135 164 222 272 318 398
#     4  11  25  44  68  95 127 178 217 267 329 383
#     4  10  22  44  65  92 136 166 220 268 322 382
#
# _framework density 25.284842999999999
#
# number of rings (size 3 to 8) (size 9 to 14) (size 15 to 20)
#    0.000    1.714    1.429    0.857    6.000    8.571 
#    0.000    7.857    0.000    0.000    0.000    0.000 
#    0.000    0.000    0.000    0.000    0.000    0.000 
#
# Total GULP energy -173495.439082 kJ/mol
# GULP energy per Si atom -12392.531363 kJ/mol
# Density = 2.522729 g / cm^3
# Si number density = 25.284843 Si / 1000 Ang^3
#
#
#
# Elastic Constant Matrix: (Units=GPa)
#
#
# Indices 1 2 3 4 5 6 
#
# 1 73.8848 24.5051 -0.0844 -1.2720 -4.2898 24.9798
# 2 24.5051 136.0826 38.9890 -23.0664 -1.1843 26.4582
# 3 -0.0844 38.9890 90.3819 -25.8203 4.3419 21.9092
# 4 -1.2720 -23.0664 -25.8203 53.4118 0.3284 -11.8630
# 5 -4.2898 -1.1843 4.3419 0.3284 33.3448 6.5305
# 6 24.9798 26.4582 21.9092 -11.8630 6.5305 29.3941
#
#
#
# Elastic Compliance Matrix: (Units=1/GPa)
#
#
# Indices 1 2 3 4 5 6 
#
# 1 0.022803 -0.001225 0.005446 -0.002976 0.007130 -0.025120
# 2 -0.001225 0.009632 -0.002405 0.001741 0.001554 -0.005478
# 3 0.005446 -0.002405 0.016448 0.004080 0.001040 -0.013308
# 4 -0.002976 0.001741 0.004080 0.023133 -0.002615 0.007838
# 5 0.007130 0.001554 0.001040 -0.002615 0.034158 -0.016877
# 6 -0.025120 -0.005478 -0.013308 0.007838 -0.016877 0.077131
#
#
# Mechanical properties :
#
#
# Convention : Reuss Voigt Hill
#
# Bulk Modulus (GPa) = 19.04205 47.46318 33.25261
# Shear Modulus (GPa) = 25.35772 39.02610 32.19191
#
# Velocity S-wave (km/s) = 3.17027 3.93295 3.57202
# Velocity P-wave (km/s) = 4.57692 6.27983 5.49474
#
# Compressibility (1/GPa) = 0.05251537
#
# Stress axis : x y z
#
# Youngs Moduli (GPa) = 43.85419 103.81960 60.79592
#
# Poissons Ratio (x) = 0.12718 -0.33111
# Poissons Ratio (y) = 0.05372 0.14624
# Poissons Ratio (z) = -0.23884 0.24972
#
# Static dielectric constant tensor:
#      x y z
#    x 4.188170 0.017700 -0.102590 
#    y 0.017700 4.736180 -0.211320 
#    z -0.102590 -0.211320 5.055680 
# 
# 
# High freq. dielectric constant tensor:
#      x y z
#    x 1.979160 -0.000590 -0.015750 
#    y -0.000590 2.016360 -0.007480 
#    z -0.015750 -0.007480 2.036750 
# 
# From -- ./inp_files/529971.got.cif
#   From: 2010.06.25/outbox.cif.g09.slc.cpg/sg2_265_cif.got.tgz:529971.got - 2010.06.27 13:26:56.
