data_PCOD8021108
_publ_section_title
;
Structure prediction by ZEFSAII (Michael W. Deem and Ramdas Pophale) SiO2 
 PCOD8021108
Probable space group: P -1
;
_chemical_formula_sum "Si O2"
_cell_formula_units_Z 10
_cell_length_a 17.339680
_cell_length_b 19.987208
_cell_length_c 12.090190
_cell_angle_alpha 21.896260
_cell_angle_beta 158.952558
_cell_angle_gamma 161.909819
_cell_volume 435.025326
_symmetry_space_group_name_H-M "P -1"
_symmetry_group_IT_number 2
_symmetry_cell_setting 'triclinic'
loop_
_space_group_symop_operation_xyz
x,y,z
-x,-y,-z
loop_
_atom_site_type_symbol
_atom_site_label
_atom_site_fract_x
_atom_site_fract_y
_atom_site_fract_z
Si Si1 0.253277 0.485662 0.643127
Si Si2 0.450595 0.953148 0.278817
Si Si3 0.613973 0.709994 0.250544
Si Si4 0.771736 0.300889 0.415795
Si Si5 0.977748 0.679268 0.637753
O O1 0.259030 0.460102 0.558929
O O2 0.956068 0.269454 0.629463
O O3 0.276763 0.711253 0.353475
O O4 0.500000 0.500000 0.000000
O O5 0.745621 0.111839 0.372100
O O6 0.458692 0.920039 0.475171
O O7 0.313407 0.079056 0.898607
O O8 0.500000 0.500000 0.500000
O O9 0.892054 0.785498 0.448153
O O10 0.379055 0.629921 0.967384
O O11 0.000000 0.500000 0.500000
O O12 0.000000 0.500000 0.000000
#
# Coordination Sequence:
#
# PCOD8021108 Si02
#       5
#     2   2   2   2   2
#     4  11  25  44  71 104 136 175 235 284 330 410
#     4  11  25  45  72 100 139 184 225 276 353 396
#     4  12  24  46  70  99 141 181 223 285 339 406
#     4  10  22  43  67  99 136 175 227 274 334 406
#     4  12  25  46  69 101 141 177 230 283 337 406
#
# _framework density 22.987168
#
# number of rings (size 3 to 8) (size 9 to 14) (size 15 to 20)
#    0.000    0.800    4.000    3.000    2.800    2.400 
#    0.000    5.000    0.000    0.000    0.000    0.000 
#    0.000    0.000    0.000    0.000    0.000    0.000 
#
# Total GULP energy -123926.748358 kJ/mol
# GULP energy per Si atom -12392.674836 kJ/mol
# Density = 2.293485 g / cm^3
# Si number density = 22.987168 Si / 1000 Ang^3
#
#
#
# Elastic Constant Matrix: (Units=GPa)
#
#
# Indices 1 2 3 4 5 6 
#
# 1 159.3783 54.0666 56.1482 -9.8149 25.7613 34.3988
# 2 54.0666 88.0936 50.1603 -12.9312 6.0367 26.8027
# 3 56.1482 50.1603 138.9973 -5.7995 8.0743 21.3623
# 4 -9.8149 -12.9312 -5.7995 38.1702 -1.2205 7.2255
# 5 25.7613 6.0367 8.0743 -1.2205 60.8548 -4.6446
# 6 34.3988 26.8027 21.3623 7.2255 -4.6446 50.8944
#
#
#
# Elastic Compliance Matrix: (Units=1/GPa)
#
#
# Indices 1 2 3 4 5 6 
#
# 1 0.009711 -0.002843 -0.001821 0.002069 -0.003924 -0.004954
# 2 -0.002843 0.018567 -0.004182 0.006239 -0.000495 -0.007032
# 3 -0.001821 -0.004182 0.009512 -0.000345 -0.000123 -0.000522
# 4 0.002069 0.006239 -0.000345 0.030447 -0.001525 -0.009001
# 5 -0.003924 -0.000495 -0.000123 -0.001525 0.018500 0.004869
# 6 -0.004954 -0.007032 -0.000522 -0.009001 0.004869 0.028641
#
#
# Mechanical properties :
#
#
# Convention : Reuss Voigt Hill
#
# Bulk Modulus (GPa) = 49.75779 78.57995 64.16887
# Shear Modulus (GPa) = 35.77280 45.05681 40.41481
#
# Velocity S-wave (km/s) = 3.94916 4.43209 4.19757
# Velocity P-wave (km/s) = 6.51823 7.77494 7.17416
#
# Compressibility (1/GPa) = 0.02009736
#
# Stress axis : x y z
#
# Youngs Moduli (GPa) = 102.97095 53.85903 105.12893
#
# Poissons Ratio (x) = 0.15315 0.19146
# Poissons Ratio (y) = 0.29279 0.43965
# Poissons Ratio (z) = 0.18753 0.22524
#
# Static dielectric constant tensor:
#      x y z
#    x 5.001100 0.293210 0.007360 
#    y 0.293210 3.299550 -0.007950 
#    z 0.007360 -0.007950 4.055660 
# 
# 
# High freq. dielectric constant tensor:
#      x y z
#    x 1.943770 0.011190 0.000950 
#    y 0.011190 1.906850 -0.006430 
#    z 0.000950 -0.006430 1.897410 
# 
# From -- ./inp_files/160886.got.cif
#   From: 2010.06.25/outbox.cif.g09.slc.cpg/sg2_81_cif.got.tgz:160886.got - 2010.06.27 13:26:56.
