data_PCOD8021638
_publ_section_title
;
Structure prediction by ZEFSAII (Michael W. Deem and Ramdas Pophale) SiO2 
 PCOD8021638
Probable space group: P -1
;
_chemical_formula_sum "Si O2"
_cell_formula_units_Z 16
_cell_length_a 17.485965
_cell_length_b 20.102091
_cell_length_c 11.026721
_cell_angle_alpha 152.710037
_cell_angle_beta 38.718420
_cell_angle_gamma 156.977216
_cell_volume 679.496880
_symmetry_space_group_name_H-M "P -1"
_symmetry_group_IT_number 2
_symmetry_cell_setting 'triclinic'
loop_
_space_group_symop_operation_xyz
x,y,z
-x,-y,-z
loop_
_atom_site_type_symbol
_atom_site_label
_atom_site_fract_x
_atom_site_fract_y
_atom_site_fract_z
Si Si1 0.025469 0.714834 0.039005
Si Si2 0.849964 0.664226 0.626825
Si Si3 0.251935 0.323831 0.788428
Si Si4 0.430450 0.202473 0.307064
Si Si5 0.833257 0.896468 0.214657
Si Si6 0.722342 0.157338 0.259492
Si Si7 0.170824 0.748500 0.445618
Si Si8 0.488325 0.204348 0.635163
O O1 0.060203 0.668455 0.788442
O O2 0.899977 0.476855 0.881898
O O3 0.913985 0.763498 0.237338
O O4 0.244789 0.956060 0.217312
O O5 0.649047 0.388440 0.394604
O O6 0.987646 0.688547 0.575147
O O7 0.786850 0.738819 0.910024
O O8 0.966647 0.827133 0.624106
O O9 0.376598 0.322234 0.555368
O O10 0.139822 0.154194 0.771355
O O11 0.403613 0.592582 0.072398
O O12 0.424560 0.113253 0.040555
O O13 0.635346 0.812803 0.334427
O O14 0.728872 0.164130 0.405958
O O15 0.645528 0.241811 0.439024
O O16 0.338778 0.955676 0.482913
#
# Coordination Sequence:
#
# PCOD8021638 Si02
#       8
#     2   2   2   2   2   2   2   2
#     4  10  24  41  65  93 133 169 214 263 324 385
#     4  10  22  44  65  98 130 167 220 265 322 386
#     4  12  22  44  66  96 131 169 218 270 319 387
#     4  10  25  43  62 101 136 164 213 270 335 377
#     4  10  23  40  70  94 128 174 219 262 317 391
#     4  10  23  42  64  98 129 172 213 265 323 380
#     4  11  22  42  69  96 127 176 220 264 311 392
#     4  11  23  40  70  96 127 170 229 260 312 392
#
# _framework density 23.546834
#
# number of rings (size 3 to 8) (size 9 to 14) (size 15 to 20)
#    0.750    0.750    2.500    2.250    1.750    0.500 
#    4.500    3.750    0.000    0.000    0.000    0.000 
#    0.000    0.000    0.000    0.000    0.000    0.000 
#
# Total GULP energy -198288.480264 kJ/mol
# GULP energy per Si atom -12393.030016 kJ/mol
# Density = 2.349324 g / cm^3
# Si number density = 23.546834 Si / 1000 Ang^3
#
#
#
# Elastic Constant Matrix: (Units=GPa)
#
#
# Indices 1 2 3 4 5 6 
#
# 1 65.7981 31.1536 35.2159 13.5693 -13.8890 18.7222
# 2 31.1536 61.6846 30.7705 10.8859 -6.6583 19.1853
# 3 35.2159 30.7705 140.8767 1.5901 -7.8834 14.8504
# 4 13.5693 10.8859 1.5901 48.3947 13.5731 -4.7320
# 5 -13.8890 -6.6583 -7.8834 13.5731 37.7250 6.2211
# 6 18.7222 19.1853 14.8504 -4.7320 6.2211 24.3237
#
#
#
# Elastic Compliance Matrix: (Units=1/GPa)
#
#
# Indices 1 2 3 4 5 6 
#
# 1 0.039237 0.002705 -0.004034 -0.023902 0.029622 -0.042098
# 2 0.002705 0.030625 -0.002935 -0.015272 0.016500 -0.031637
# 3 -0.004034 -0.002935 0.008585 0.001872 -0.001015 0.000802
# 4 -0.023902 -0.015272 0.001872 0.045194 -0.035128 0.047077
# 5 0.029622 0.016500 -0.001015 -0.035128 0.062311 -0.057966
# 6 -0.042098 -0.031637 0.000802 0.047077 -0.057966 0.121963
#
#
# Mechanical properties :
#
#
# Convention : Reuss Voigt Hill
#
# Bulk Modulus (GPa) = 14.30212 51.40437 32.85324
# Shear Modulus (GPa) = 14.71667 33.50329 24.10998
#
# Velocity S-wave (km/s) = 2.50270 3.77614 3.20334
# Velocity P-wave (km/s) = 3.79980 6.39456 5.25970
#
# Compressibility (1/GPa) = 0.06991970
#
# Stress axis : x y z
#
# Youngs Moduli (GPa) = 25.48622 32.65269 116.47745
#
# Poissons Ratio (x) = -0.08832 0.46987
# Poissons Ratio (y) = -0.06893 0.34183
# Poissons Ratio (z) = 0.10281 0.09583
#
# Static dielectric constant tensor:
#      x y z
#    x 3.833190 0.291560 -0.195620 
#    y 0.291560 4.294100 0.011350 
#    z -0.195620 0.011350 4.609000 
# 
# 
# High freq. dielectric constant tensor:
#      x y z
#    x 1.899380 0.025290 -0.006030 
#    y 0.025290 1.930870 0.003800 
#    z -0.006030 0.003800 1.954210 
# 
# From -- ./inp_files/541772.got.cif
#   From: 2010.06.25/outbox.cif.g09.slc.cpg/sg2_271_cif.got.tgz:541772.got - 2010.06.27 13:26:56.
