data_PCOD8021323
_publ_section_title
;
Structure prediction by ZEFSAII (Michael W. Deem and Ramdas Pophale) SiO2 
 PCOD8021323
Probable space group: P -1
;
_chemical_formula_sum "Si O2"
_cell_formula_units_Z 14
_cell_length_a 10.976640
_cell_length_b 8.039657
_cell_length_c 9.206693
_cell_angle_alpha 65.945655
_cell_angle_beta 84.930863
_cell_angle_gamma 45.311913
_cell_volume 502.259596
_symmetry_space_group_name_H-M "P -1"
_symmetry_group_IT_number 2
_symmetry_cell_setting 'triclinic'
loop_
_space_group_symop_operation_xyz
x,y,z
-x,-y,-z
loop_
_atom_site_type_symbol
_atom_site_label
_atom_site_fract_x
_atom_site_fract_y
_atom_site_fract_z
Si Si1 0.513652 0.747201 0.313343
Si Si2 0.901846 0.963055 0.296940
Si Si3 0.522982 0.356768 0.334038
Si Si4 0.386070 0.290527 0.095316
Si Si5 0.255197 0.009762 0.950478
Si Si6 0.885149 0.496035 0.358094
Si Si7 0.007950 0.227628 0.158587
O O1 0.430149 0.657658 0.270458
O O2 0.485725 0.758920 0.483413
O O3 0.725789 0.524537 0.337356
O O4 0.413541 0.043540 0.176903
O O5 0.834061 0.060916 0.100245
O O6 0.017560 0.656355 0.444021
O O7 0.730218 0.165750 0.345601
O O8 0.037545 0.985682 0.289518
O O9 0.417186 0.363655 0.216910
O O10 0.525764 0.224362 0.982895
O O11 0.185620 0.541684 0.976545
O O12 0.205797 0.207030 0.752806
O O13 0.163395 0.139437 0.069598
O O14 0.024417 0.326636 0.268870
#
# Coordination Sequence:
#
# PCOD8021323 Si02
#       7
#     2   2   2   2   2   2   2
#     4  10  22  43  70 107 135 188 237 291 360 413
#     4  11  24  46  67 101 141 182 240 291 347 433
#     4  10  22  43  70 107 135 188 237 291 360 413
#     4  10  25  46  71 103 148 179 243 292 348 440
#     4  10  25  46  73 102 137 189 233 293 365 408
#     4  11  24  46  67 101 141 182 240 291 347 433
#     4  12  25  46  69 106 140 190 226 295 366 409
#
# _framework density 27.874032
#
# number of rings (size 3 to 8) (size 9 to 14) (size 15 to 20)
#    0.000    1.429    1.429    2.143    4.000    4.571 
#    7.714    0.000    0.000    0.000    0.000    0.000 
#    0.000    0.000    0.000    0.000    0.000    0.000 
#
# Total GULP energy -173502.052396 kJ/mol
# GULP energy per Si atom -12393.003743 kJ/mol
# Density = 2.781059 g / cm^3
# Si number density = 27.874032 Si / 1000 Ang^3
#
#
#
# Elastic Constant Matrix: (Units=GPa)
#
#
# Indices 1 2 3 4 5 6 
#
# 1 75.3167 23.5471 21.3145 1.0730 -0.1981 -20.1537
# 2 23.5471 78.6340 27.5565 15.4359 3.4554 -12.4468
# 3 21.3145 27.5565 101.7815 7.9968 -8.4809 -17.9037
# 4 1.0730 15.4359 7.9968 53.9442 -3.8863 -6.7679
# 5 -0.1981 3.4554 -8.4809 -3.8863 36.7801 0.0213
# 6 -20.1537 -12.4468 -17.9037 -6.7679 0.0213 41.8348
#
#
#
# Elastic Compliance Matrix: (Units=1/GPa)
#
#
# Indices 1 2 3 4 5 6 
#
# 1 0.016595 -0.003808 -0.001408 0.001813 0.000310 0.006552
# 2 -0.003808 0.016084 -0.003308 -0.004124 -0.002730 0.000869
# 3 -0.001408 -0.003308 0.011876 -0.000142 0.003025 0.003395
# 4 0.001813 -0.004124 -0.000142 0.020242 0.002502 0.002859
# 5 0.000310 -0.002730 0.003025 0.002502 0.028408 0.001022
# 6 0.006552 0.000869 0.003395 0.002859 0.001022 0.029234
#
#
# Mechanical properties :
#
#
# Convention : Reuss Voigt Hill
#
# Bulk Modulus (GPa) = 36.35559 44.50760 40.43160
# Shear Modulus (GPa) = 33.63516 38.73276 36.18396
#
# Velocity S-wave (km/s) = 3.47751 3.73173 3.60686
# Velocity P-wave (km/s) = 5.40326 5.87961 5.64646
#
# Compressibility (1/GPa) = 0.02750608
#
# Stress axis : x y z
#
# Youngs Moduli (GPa) = 60.26078 62.17451 84.20468
#
# Poissons Ratio (x) = 0.23677 0.11858
# Poissons Ratio (y) = 0.22948 0.27852
# Poissons Ratio (z) = 0.08486 0.20565
#
# Static dielectric constant tensor:
#      x y z
#    x 5.214290 0.116580 -0.090300 
#    y 0.116580 5.009010 -0.064280 
#    z -0.090300 -0.064280 5.521510 
# 
# 
# High freq. dielectric constant tensor:
#      x y z
#    x 2.137360 0.008160 0.000570 
#    y 0.008160 2.122680 -0.004660 
#    z 0.000570 -0.004660 2.150140 
# 
# From -- ./inp_files/242533.got.cif
#   From: 2010.06.25/outbox.cif.g09.slc.cpg/sg2_122_cif.got.tgz:242533.got - 2010.06.27 13:26:56.
