data_PCOD8021900
_publ_section_title
;
Structure prediction by ZEFSAII (Michael W. Deem and Ramdas Pophale) SiO2 
 PCOD8021900
Probable space group: P -1
;
_chemical_formula_sum "Si O2"
_cell_formula_units_Z 16
_cell_length_a 15.128541
_cell_length_b 5.381783
_cell_length_c 14.039054
_cell_angle_alpha 81.638890
_cell_angle_beta 43.018063
_cell_angle_gamma 63.249339
_cell_volume 663.948660
_symmetry_space_group_name_H-M "P -1"
_symmetry_group_IT_number 2
_symmetry_cell_setting 'triclinic'
loop_
_space_group_symop_operation_xyz
x,y,z
-x,-y,-z
loop_
_atom_site_type_symbol
_atom_site_label
_atom_site_fract_x
_atom_site_fract_y
_atom_site_fract_z
Si Si1 0.413489 0.365727 0.994773
Si Si2 0.058573 0.671551 0.005789
Si Si3 0.656885 0.397003 0.272850
Si Si4 0.882424 0.609481 0.839516
Si Si5 0.186417 0.423367 0.529459
Si Si6 0.337438 0.895869 0.894327
Si Si7 0.393923 0.215440 0.210470
Si Si8 0.691095 0.228238 0.465228
O O1 0.257683 0.356702 0.110793
O O2 0.411363 0.433537 0.108100
O O3 0.402946 0.588429 0.913101
O O4 0.571813 0.061802 0.867021
O O5 0.241504 0.480141 0.858550
O O6 0.032090 0.671860 0.140833
O O7 0.000000 0.500000 0.000000
O O8 0.000000 0.000000 0.000000
O O9 0.679621 0.129170 0.203366
O O10 0.728964 0.259513 0.325368
O O11 0.486054 0.649873 0.395558
O O12 0.004762 0.613483 0.671411
O O13 0.822571 0.878319 0.946382
O O14 0.234640 0.384934 0.381849
O O15 0.259884 0.588553 0.516385
O O16 0.232522 0.108213 0.551271
O O17 0.475214 0.948832 0.803266
#
# Coordination Sequence:
#
# PCOD8021900 Si02
#       8
#     2   2   2   2   2   2   2   2
#     4  10  22  44  70 103 132 177 237 290 344 413
#     4  12  25  41  65  96 136 181 224 272 333 401
#     4  11  23  43  70  99 136 183 233 278 346 405
#     4  11  26  40  67  98 142 179 233 283 343 416
#     4  12  26  47  66 101 143 183 226 285 346 406
#     4  11  21  43  69 102 134 180 233 289 340 413
#     4  10  23  42  72 100 135 179 233 290 352 404
#     4  11  27  43  69 101 140 179 231 287 336 413
#
# _framework density 24.09825
#
# number of rings (size 3 to 8) (size 9 to 14) (size 15 to 20)
#    0.000    1.000    2.500    3.375    3.500    4.500 
#    0.000    0.625    0.000    0.000    0.000    0.000 
#    0.000    0.000    0.000    0.000    0.000    0.000 
#
# Total GULP energy -198246.594510 kJ/mol
# GULP energy per Si atom -12390.412157 kJ/mol
# Density = 2.404340 g / cm^3
# Si number density = 24.098250 Si / 1000 Ang^3
#
#
#
# Elastic Constant Matrix: (Units=GPa)
#
#
# Indices 1 2 3 4 5 6 
#
# 1 71.5183 -6.2802 8.1223 3.6633 12.7625 7.0928
# 2 -6.2802 65.6396 -6.7226 7.7810 6.3993 3.8801
# 3 8.1223 -6.7226 141.9223 -0.9835 16.1098 -6.8704
# 4 3.6633 7.7810 -0.9835 31.0379 -0.2733 0.6505
# 5 12.7625 6.3993 16.1098 -0.2733 40.4430 -0.3395
# 6 7.0928 3.8801 -6.8704 0.6505 -0.3395 28.0866
#
#
#
# Elastic Compliance Matrix: (Units=1/GPa)
#
#
# Indices 1 2 3 4 5 6 
#
# 1 0.015757 0.002532 -0.000417 -0.002461 -0.005261 -0.004437
# 2 0.002532 0.016627 0.000920 -0.004416 -0.003849 -0.002655
# 3 -0.000417 0.000920 0.007541 -0.000007 -0.003003 0.001786
# 4 -0.002461 -0.004416 -0.000007 0.033621 0.001709 0.000472
# 5 -0.005261 -0.003849 -0.003003 0.001709 0.028215 0.001427
# 6 -0.004437 -0.002655 0.001786 0.000472 0.001427 0.037535
#
#
# Mechanical properties :
#
#
# Convention : Reuss Voigt Hill
#
# Bulk Modulus (GPa) = 21.74094 29.92437 25.83265
# Shear Modulus (GPa) = 33.65723 38.84423 36.25073
#
# Velocity S-wave (km/s) = 3.74126 4.01922 3.88272
# Velocity P-wave (km/s) = 5.26346 5.82953 5.55371
#
# Compressibility (1/GPa) = 0.04599617
#
# Stress axis : x y z
#
# Youngs Moduli (GPa) = 63.46370 60.14362 132.61091
#
# Poissons Ratio (x) = -0.15228 0.05524
# Poissons Ratio (y) = -0.16068 -0.12205
# Poissons Ratio (z) = 0.02644 -0.05536
#
# Static dielectric constant tensor:
#      x y z
#    x 4.895550 -0.048040 0.053470 
#    y -0.048040 4.282450 -0.066260 
#    z 0.053470 -0.066260 4.710820 
# 
# 
# High freq. dielectric constant tensor:
#      x y z
#    x 1.962050 -0.002440 0.003060 
#    y -0.002440 1.950620 -0.001730 
#    z 0.003060 -0.001730 1.966260 
# 
# From -- ./inp_files/39339.got.cif
#   From: 2010.06.25/outbox.cif.g09.slc.cpg/sg2_20_cif.got.tgz:39339.got - 2010.06.27 13:26:56.
