data_PCOD8021765
_publ_section_title
;
Structure prediction by ZEFSAII (Michael W. Deem and Ramdas Pophale) SiO2 
 PCOD8021765
Probable space group: P -1
;
_chemical_formula_sum "Si O2"
_cell_formula_units_Z 16
_cell_length_a 6.283809
_cell_length_b 16.064491
_cell_length_c 8.294427
_cell_angle_alpha 120.733606
_cell_angle_beta 109.499911
_cell_angle_gamma 68.158035
_cell_volume 657.110990
_symmetry_space_group_name_H-M "P -1"
_symmetry_group_IT_number 2
_symmetry_cell_setting 'triclinic'
loop_
_space_group_symop_operation_xyz
x,y,z
-x,-y,-z
loop_
_atom_site_type_symbol
_atom_site_label
_atom_site_fract_x
_atom_site_fract_y
_atom_site_fract_z
Si Si1 0.363687 0.951467 0.787295
Si Si2 0.819885 0.207492 0.232963
Si Si3 0.900859 0.114307 0.829542
Si Si4 0.787305 0.681124 0.514173
Si Si5 0.631059 0.640680 0.788570
Si Si6 0.086061 0.553718 0.222214
Si Si7 0.074012 0.257058 0.806015
Si Si8 0.558025 0.851172 0.435856
O O1 0.308731 0.846150 0.720398
O O2 0.537234 0.930523 0.656012
O O3 0.117209 0.023856 0.748736
O O4 0.500000 0.000000 0.000000
O O5 0.643647 0.311242 0.233966
O O6 0.049221 0.239512 0.377312
O O7 0.883089 0.125343 0.027196
O O8 0.663293 0.099988 0.681714
O O9 0.931647 0.217754 0.866660
O O10 0.739781 0.656916 0.660107
O O11 0.900483 0.577743 0.346733
O O12 0.564301 0.742493 0.413965
O O13 0.679247 0.521364 0.721877
O O14 0.740585 0.693186 0.010243
O O15 0.111614 0.660799 0.267467
O O16 0.000000 0.500000 0.000000
O O17 0.213532 0.165543 0.637379
#
# Coordination Sequence:
#
# PCOD8021765 Si02
#       8
#     2   2   2   2   2   2   2   2
#     4  12  27  48  69 100 136 179 232 283 335 402
#     4  12  25  45  71 100 135 179 230 279 337 399
#     4  12  25  45  70  99 137 181 224 283 339 402
#     4  11  23  43  71  98 139 181 223 279 334 399
#     4  11  20  44  69  98 140 179 227 270 341 402
#     4   9  22  40  69 103 136 179 222 278 334 403
#     4  10  22  44  68 100 142 173 223 279 347 396
#     4  11  25  43  68  99 134 181 220 281 338 400
#
# _framework density 24.349005999999999
#
# number of rings (size 3 to 8) (size 9 to 14) (size 15 to 20)
#    0.000    1.000    3.750    2.625    3.500    1.000 
#    0.000    3.125    0.000    0.000    0.000    0.000 
#    0.000    0.000    0.000    0.000    0.000    0.000 
#
# Total GULP energy -198266.680670 kJ/mol
# GULP energy per Si atom -12391.667542 kJ/mol
# Density = 2.429359 g / cm^3
# Si number density = 24.349006 Si / 1000 Ang^3
#
#
#
# Elastic Constant Matrix: (Units=GPa)
#
#
# Indices 1 2 3 4 5 6 
#
# 1 48.2179 9.2678 16.1748 2.5603 -8.2145 5.7761
# 2 9.2678 133.0736 -0.0436 -1.1879 -3.7165 -18.5685
# 3 16.1748 -0.0436 120.8072 7.5380 -28.2536 -5.2403
# 4 2.5603 -1.1879 7.5380 35.4223 -8.3411 -8.9179
# 5 -8.2145 -3.7165 -28.2536 -8.3411 35.0978 2.8284
# 6 5.7761 -18.5685 -5.2403 -8.9179 2.8284 29.2584
#
#
#
# Elastic Compliance Matrix: (Units=1/GPa)
#
#
# Indices 1 2 3 4 5 6 
#
# 1 0.023768 -0.002697 -0.002620 -0.002494 0.003216 -0.007944
# 2 -0.002697 0.008692 0.000718 0.002241 0.000854 0.006778
# 3 -0.002620 0.000718 0.010539 0.000379 0.007858 0.002217
# 4 -0.002494 0.002241 0.000379 0.032875 0.006858 0.011340
# 5 0.003216 0.000854 0.007858 0.006858 0.037307 -0.000202
# 6 -0.007944 0.006778 0.002217 0.011340 -0.000202 0.043921
#
#
# Mechanical properties :
#
#
# Convention : Reuss Voigt Hill
#
# Bulk Modulus (GPa) = 29.58479 39.21073 34.39776
# Shear Modulus (GPa) = 28.15813 38.40235 33.28024
#
# Velocity S-wave (km/s) = 3.40433 3.97566 3.70104
# Velocity P-wave (km/s) = 5.25636 6.10025 5.69396
#
# Compressibility (1/GPa) = 0.03380115
#
# Stress axis : x y z
#
# Youngs Moduli (GPa) = 42.07256 115.04369 94.88537
#
# Poissons Ratio (x) = 0.31029 0.24863
# Poissons Ratio (y) = 0.11348 -0.06813
# Poissons Ratio (z) = 0.11024 -0.08261
#
# Static dielectric constant tensor:
#      x y z
#    x 4.025830 -0.227550 -0.325970 
#    y -0.227550 4.945040 -0.103920 
#    z -0.325970 -0.103920 4.508430 
# 
# 
# High freq. dielectric constant tensor:
#      x y z
#    x 1.932810 -0.016480 -0.029390 
#    y -0.016480 1.988240 -0.010530 
#    z -0.029390 -0.010530 1.982150 
# 
# From -- ./inp_files/122878.got.cif
#   From: 2010.06.25/outbox.cif.g09.slc.cpg/sg2_62_cif.got.tgz:122878.got - 2010.06.27 13:26:56.
