data_PCOD8021875
_publ_section_title
;
Structure prediction by ZEFSAII (Michael W. Deem and Ramdas Pophale) SiO2 
 PCOD8021875
Probable space group: P -1
;
_chemical_formula_sum "Si O2"
_cell_formula_units_Z 16
_cell_length_a 11.799459
_cell_length_b 21.704035
_cell_length_c 9.909178
_cell_angle_alpha 34.937071
_cell_angle_beta 114.433125
_cell_angle_gamma 140.997593
_cell_volume 717.658454
_symmetry_space_group_name_H-M "P -1"
_symmetry_group_IT_number 2
_symmetry_cell_setting 'triclinic'
loop_
_space_group_symop_operation_xyz
x,y,z
-x,-y,-z
loop_
_atom_site_type_symbol
_atom_site_label
_atom_site_fract_x
_atom_site_fract_y
_atom_site_fract_z
Si Si1 0.148500 0.716339 0.807521
Si Si2 0.964472 0.297836 0.498102
Si Si3 0.450317 0.557296 0.268567
Si Si4 0.671692 0.671236 0.890531
Si Si5 0.602689 0.959670 0.090848
Si Si6 0.162187 0.973108 0.673479
Si Si7 0.890824 0.435267 0.417146
Si Si8 0.422635 0.117383 0.279415
O O1 0.014429 0.612119 0.786660
O O2 0.320543 0.741222 0.856349
O O3 0.260736 0.915817 0.485381
O O4 0.996296 0.605683 0.067399
O O5 0.940290 0.359227 0.503337
O O6 0.179417 0.375952 0.467629
O O7 0.732644 0.055712 0.836352
O O8 0.500000 0.500000 0.500000
O O9 0.521305 0.571635 0.129552
O O10 0.580578 0.764534 0.997819
O O11 0.899529 0.764894 0.866162
O O12 0.779468 0.862136 0.552365
O O13 0.500000 0.500000 0.000000
O O14 0.374572 0.719895 0.412484
O O15 0.796203 0.067245 0.101193
O O16 0.500000 0.000000 0.000000
O O17 0.346011 0.066101 0.488451
O O18 0.000000 0.500000 0.500000
#
# Coordination Sequence:
#
# PCOD8021875 Si02
#       8
#     2   2   2   2   2   2   2   2
#     4  11  24  42  70 105 141 178 230 281 355 438
#     4  11  24  42  68  99 139 186 227 284 358 415
#     4  11  24  46  69  95 138 186 238 287 345 419
#     4  10  24  45  71 101 126 182 250 291 348 402
#     4  10  23  40  64  99 144 176 219 280 356 414
#     4  10  22  44  69  97 141 180 230 297 347 417
#     4  11  25  41  67 106 144 181 235 279 352 433
#     4  10  23  40  73  98 138 179 228 281 360 411
#
# _framework density 22.294727999999999
#
# number of rings (size 3 to 8) (size 9 to 14) (size 15 to 20)
#    0.000    1.500    1.250    2.625   12.250    0.000 
#    4.500    0.625    0.000    0.000    0.000    0.000 
#    0.000    0.000    0.000    0.000    0.000    0.000 
#
# Total GULP energy -198267.003416 kJ/mol
# GULP energy per Si atom -12391.687713 kJ/mol
# Density = 2.224398 g / cm^3
# Si number density = 22.294728 Si / 1000 Ang^3
#
#
#
# Elastic Constant Matrix: (Units=GPa)
#
#
# Indices 1 2 3 4 5 6 
#
# 1 86.9605 43.5133 63.4235 2.9129 -2.2829 9.7031
# 2 43.5133 140.9442 78.0459 10.6547 -4.9126 14.8017
# 3 63.4235 78.0459 155.8183 13.2240 -17.7946 16.8827
# 4 2.9129 10.6547 13.2240 44.0225 7.7321 -2.2392
# 5 -2.2829 -4.9126 -17.7946 7.7321 43.7878 0.5128
# 6 9.7031 14.8017 16.8827 -2.2392 0.5128 36.6858
#
#
#
# Elastic Compliance Matrix: (Units=1/GPa)
#
#
# Indices 1 2 3 4 5 6 
#
# 1 0.016988 -0.001892 -0.006265 0.001555 -0.002139 -0.000722
# 2 -0.001892 0.010209 -0.004098 -0.001136 -0.000397 -0.001797
# 3 -0.006265 -0.004098 0.012103 -0.003187 0.004725 -0.002520
# 4 0.001555 -0.001136 -0.003187 0.025022 -0.005797 0.003123
# 5 -0.002139 -0.000397 0.004725 -0.005797 0.025650 -0.002161
# 6 -0.000722 -0.001797 -0.002520 0.003123 -0.002161 0.029555
#
#
# Mechanical properties :
#
#
# Convention : Reuss Voigt Hill
#
# Bulk Modulus (GPa) = 67.60738 83.74314 75.67526
# Shear Modulus (GPa) = 33.56463 38.14855 35.85659
#
# Velocity S-wave (km/s) = 3.88428 4.14103 4.01471
# Velocity P-wave (km/s) = 7.10683 7.77866 7.45033
#
# Compressibility (1/GPa) = 0.01479129
#
# Stress axis : x y z
#
# Youngs Moduli (GPa) = 58.86619 97.95529 82.62184
#
# Poissons Ratio (x) = 0.18529 0.51763
# Poissons Ratio (y) = 0.11135 0.33855
# Poissons Ratio (z) = 0.36880 0.40138
#
# Static dielectric constant tensor:
#      x y z
#    x 4.101650 0.179170 -0.325940 
#    y 0.179170 3.968250 -0.365940 
#    z -0.325940 -0.365940 5.029210 
# 
# 
# High freq. dielectric constant tensor:
#      x y z
#    x 1.871550 0.007590 -0.010960 
#    y 0.007590 1.864200 -0.002690 
#    z -0.010960 -0.002690 1.904810 
# 
# From -- ./inp_files/282771.got.cif
#   From: 2010.06.25/outbox.cif.g09.slc.cpg/sg2_142_cif.got.tgz:282771.got - 2010.06.27 13:26:56.
