data_PCOD8021325
_publ_section_title
;
Structure prediction by ZEFSAII (Michael W. Deem and Ramdas Pophale) SiO2 
 PCOD8021325
Probable space group: P -1
;
_chemical_formula_sum "Si O2"
_cell_formula_units_Z 14
_cell_length_a 18.069214
_cell_length_b 10.509441
_cell_length_c 5.020894
_cell_angle_alpha 64.687048
_cell_angle_beta 116.020363
_cell_angle_gamma 143.467618
_cell_volume 504.993019
_symmetry_space_group_name_H-M "P -1"
_symmetry_group_IT_number 2
_symmetry_cell_setting 'triclinic'
loop_
_space_group_symop_operation_xyz
x,y,z
-x,-y,-z
loop_
_atom_site_type_symbol
_atom_site_label
_atom_site_fract_x
_atom_site_fract_y
_atom_site_fract_z
Si Si1 0.602597 0.235536 0.835093
Si Si2 0.107046 0.970630 0.051583
Si Si3 0.833069 0.671856 0.885728
Si Si4 0.295574 0.869049 0.207660
Si Si5 0.137949 0.734558 0.580184
Si Si6 0.490529 0.329972 0.848914
Si Si7 0.687471 0.679068 0.273095
O O1 0.732136 0.423162 0.051360
O O2 0.648735 0.219809 0.648886
O O3 0.533891 0.303059 0.668199
O O4 0.500000 0.000000 0.000000
O O5 0.133506 0.899253 0.401155
O O6 0.132271 0.165684 0.991410
O O7 0.962378 0.765463 0.908302
O O8 0.204567 0.067700 0.877334
O O9 0.758161 0.637597 0.545156
O O10 0.245121 0.818574 0.471008
O O11 0.179069 0.742292 0.932206
O O12 0.409746 0.123668 0.098839
O O13 0.000000 0.500000 0.500000
O O14 0.403874 0.356371 0.626996
O O15 0.613971 0.534738 0.023016
#
# Coordination Sequence:
#
# PCOD8021325 Si02
#       7
#     2   2   2   2   2   2   2
#     4  10  23  45  68 104 147 191 244 299 366 438
#     4  11  24  45  70 102 147 185 248 307 367 444
#     4  11  24  43  70 104 139 196 241 308 372 439
#     4  11  25  47  72 107 149 193 248 299 373 439
#     4  12  26  48  76 109 147 198 247 307 370 441
#     4  10  22  43  70 107 145 188 245 304 368 441
#     4  11  22  43  72 104 144 186 249 302 375 435
#
# _framework density 27.723154999999998
#
# number of rings (size 3 to 8) (size 9 to 14) (size 15 to 20)
#    0.000    1.143    2.857    2.571    0.000    4.000 
#    5.143    5.000    0.000    0.000    0.000    0.000 
#    0.000    0.000    0.000    0.000    0.000    0.000 
#
# Total GULP energy -173449.286298 kJ/mol
# GULP energy per Si atom -12389.234736 kJ/mol
# Density = 2.766006 g / cm^3
# Si number density = 27.723155 Si / 1000 Ang^3
#
#
#
# Elastic Constant Matrix: (Units=GPa)
#
#
# Indices 1 2 3 4 5 6 
#
# 1 139.9171 39.4007 11.7694 3.5032 30.8555 12.8642
# 2 39.4007 180.3004 8.0645 4.0517 10.5198 31.6785
# 3 11.7694 8.0645 69.2993 20.0543 18.1598 7.3530
# 4 3.5032 4.0517 20.0543 29.7220 1.4681 9.6161
# 5 30.8555 10.5198 18.1598 1.4681 31.1878 -5.0994
# 6 12.8642 31.6785 7.3530 9.6161 -5.0994 48.0403
#
#
#
# Elastic Compliance Matrix: (Units=1/GPa)
#
#
# Indices 1 2 3 4 5 6 
#
# 1 0.010088 -0.001024 0.001919 -0.000695 -0.011272 -0.003377
# 2 -0.001024 0.006663 0.000270 0.000596 -0.002157 -0.004509
# 3 0.001919 0.000270 0.022165 -0.013540 -0.014739 -0.002939
# 4 -0.000695 0.000596 -0.013540 0.044632 0.005204 -0.006516
# 5 -0.011272 -0.002157 -0.014739 0.005204 0.054144 0.011402
# 6 -0.003377 -0.004509 -0.002939 -0.006516 0.011402 0.027658
#
#
# Mechanical properties :
#
#
# Convention : Reuss Voigt Hill
#
# Bulk Modulus (GPa) = 24.24494 56.44292 40.34393
# Shear Modulus (GPa) = 28.28566 43.80883 36.04724
#
# Velocity S-wave (km/s) = 3.19766 3.97952 3.60982
# Velocity P-wave (km/s) = 4.73263 6.44353 5.65318
#
# Compressibility (1/GPa) = 0.04124571
#
# Stress axis : x y z
#
# Youngs Moduli (GPa) = 99.13221 150.09236 45.11593
#
# Poissons Ratio (x) = 0.15363 -0.08658
# Poissons Ratio (y) = 0.10147 -0.01217
# Poissons Ratio (z) = -0.19024 -0.04049
#
# Static dielectric constant tensor:
#      x y z
#    x 5.863840 0.114500 0.441220 
#    y 0.114500 5.887230 -0.377170 
#    z 0.441220 -0.377170 4.392450 
# 
# 
# High freq. dielectric constant tensor:
#      x y z
#    x 2.140830 0.012120 0.016930 
#    y 0.012120 2.156540 -0.013470 
#    z 0.016930 -0.013470 2.072410 
# 
# From -- ./inp_files/118571.got.cif
#   From: 2010.06.25/outbox.cif.g09.slc.cpg/sg2_60_cif.got.tgz:118571.got - 2010.06.27 13:26:56.
