data_PCOD8021465
_publ_section_title
;
Structure prediction by ZEFSAII (Michael W. Deem and Ramdas Pophale) SiO2 
 PCOD8021465
Probable space group: P -1
;
_chemical_formula_sum "Si O2"
_cell_formula_units_Z 14
_cell_length_a 8.512879
_cell_length_b 9.182116
_cell_length_c 17.912879
_cell_angle_alpha 149.810758
_cell_angle_beta 55.724843
_cell_angle_gamma 118.999113
_cell_volume 581.814905
_symmetry_space_group_name_H-M "P -1"
_symmetry_group_IT_number 2
_symmetry_cell_setting 'triclinic'
loop_
_space_group_symop_operation_xyz
x,y,z
-x,-y,-z
loop_
_atom_site_type_symbol
_atom_site_label
_atom_site_fract_x
_atom_site_fract_y
_atom_site_fract_z
Si Si1 0.076977 0.385088 0.313299
Si Si2 0.208551 0.900816 0.428021
Si Si3 0.448475 0.103284 0.896650
Si Si4 0.576626 0.725063 0.179142
Si Si5 0.816409 0.775591 0.630980
Si Si6 0.874190 0.126554 0.024258
Si Si7 0.151414 0.223305 0.729269
O O1 0.200099 0.558263 0.296572
O O2 0.177508 0.411062 0.377698
O O3 0.871940 0.552091 0.449881
O O4 0.070223 0.052272 0.143817
O O5 0.380679 0.913595 0.328126
O O6 0.265752 0.079168 0.565897
O O7 0.000000 0.000000 0.500000
O O8 0.335248 0.188702 0.887822
O O9 0.607234 0.890853 0.727219
O O10 0.337777 0.925518 0.911077
O O11 0.535238 0.383629 0.037515
O O12 0.724405 0.782446 0.231358
O O13 0.960668 0.045494 0.715960
O O14 0.908589 0.456428 0.139369
O O15 0.000000 0.000000 0.000000
#
# Coordination Sequence:
#
# PCOD8021465 Si02
#       7
#     2   2   2   2   2   2   2
#     4  10  22  43  73  94 140 178 235 274 350 414
#     4  11  22  45  73 101 141 189 229 283 353 419
#     4  11  26  44  71 100 144 184 231 282 357 413
#     4  11  24  43  70 103 140 184 236 285 345 416
#     4  10  24  46  73 101 132 188 231 288 348 412
#     4  12  27  44  69 106 141 181 231 290 349 413
#     4  11  26  43  74 104 141 177 239 292 343 407
#
# _framework density 24.062635
#
# number of rings (size 3 to 8) (size 9 to 14) (size 15 to 20)
#    0.000    1.143    1.429    3.857    8.000    2.286 
#    2.571    1.429    0.000    0.000    0.000    0.000 
#    0.000    0.000    0.000    0.000    0.000    0.000 
#
# Total GULP energy -173507.305784 kJ/mol
# GULP energy per Si atom -12393.378985 kJ/mol
# Density = 2.400787 g / cm^3
# Si number density = 24.062635 Si / 1000 Ang^3
#
#
#
# Elastic Constant Matrix: (Units=GPa)
#
#
# Indices 1 2 3 4 5 6 
#
# 1 65.3321 8.2717 12.9167 -8.2496 -9.1337 -6.1545
# 2 8.2717 88.6094 18.9576 5.6686 -5.7034 -2.9663
# 3 12.9167 18.9576 112.1817 -6.8856 -10.3108 3.8096
# 4 -8.2496 5.6686 -6.8856 39.9237 -6.6555 2.0647
# 5 -9.1337 -5.7034 -10.3108 -6.6555 33.8611 -6.2020
# 6 -6.1545 -2.9663 3.8096 2.0647 -6.2020 27.0887
#
#
#
# Elastic Compliance Matrix: (Units=1/GPa)
#
#
# Indices 1 2 3 4 5 6 
#
# 1 0.017535 -0.001104 -0.001193 0.004305 0.005955 0.005066
# 2 -0.001104 0.012086 -0.002018 -0.002215 0.001010 0.001756
# 3 -0.001193 -0.002018 0.009808 0.002223 0.002493 -0.001470
# 4 0.004305 -0.002215 0.002223 0.027793 0.006907 -0.000114
# 5 0.005955 0.001010 0.002493 0.006907 0.035001 0.008600
# 6 0.005066 0.001756 -0.001470 -0.000114 0.008600 0.040444
#
#
# Mechanical properties :
#
#
# Convention : Reuss Voigt Hill
#
# Bulk Modulus (GPa) = 32.46877 38.49059 35.47968
# Shear Modulus (GPa) = 30.94779 35.23984 33.09382
#
# Velocity S-wave (km/s) = 3.59016 3.83104 3.71255
# Velocity P-wave (km/s) = 5.54152 5.96656 5.75796
#
# Compressibility (1/GPa) = 0.03079883
#
# Stress axis : x y z
#
# Youngs Moduli (GPa) = 57.02738 82.74192 101.95801
#
# Poissons Ratio (x) = 0.09137 0.12163
# Poissons Ratio (y) = 0.06297 0.20575
# Poissons Ratio (z) = 0.06803 0.16697
#
# Static dielectric constant tensor:
#      x y z
#    x 4.006040 -0.058970 -0.021330 
#    y -0.058970 4.544950 0.076360 
#    z -0.021330 0.076360 4.431700 
# 
# 
# High freq. dielectric constant tensor:
#      x y z
#    x 1.926960 -0.016890 -0.004140 
#    y -0.016890 1.969960 -0.009070 
#    z -0.004140 -0.009070 1.973350 
# 
# From -- ./inp_files/158444.got.cif
#   From: 2010.06.25/outbox.cif.g09.slc.cpg/sg2_80_cif.got.tgz:158444.got - 2010.06.27 13:26:56.
