data_PCOD8021147
_publ_section_title
;
Structure prediction by ZEFSAII (Michael W. Deem and Ramdas Pophale) SiO2 
 PCOD8021147
Probable space group: P -1
;
_chemical_formula_sum "Si O2"
_cell_formula_units_Z 14
_cell_length_a 9.542354
_cell_length_b 8.438817
_cell_length_c 11.936795
_cell_angle_alpha 102.995678
_cell_angle_beta 121.114469
_cell_angle_gamma 51.687933
_cell_volume 639.160642
_symmetry_space_group_name_H-M "P -1"
_symmetry_group_IT_number 2
_symmetry_cell_setting 'triclinic'
loop_
_space_group_symop_operation_xyz
x,y,z
-x,-y,-z
loop_
_atom_site_type_symbol
_atom_site_label
_atom_site_fract_x
_atom_site_fract_y
_atom_site_fract_z
Si Si1 0.288784 0.926194 0.384165
Si Si2 0.493625 0.556280 0.236624
Si Si3 0.793001 0.887995 0.133687
Si Si4 0.565534 0.881717 0.670200
Si Si5 0.161919 0.510564 0.136402
Si Si6 0.486512 0.172067 0.874037
Si Si7 0.878895 0.112330 0.355254
O O1 0.396169 0.724740 0.320691
O O2 0.394456 0.866725 0.541482
O O3 0.313599 0.090238 0.369416
O O4 0.045367 0.049411 0.317088
O O5 0.334483 0.504366 0.134693
O O6 0.529347 0.634360 0.148029
O O7 0.714040 0.356867 0.339116
O O8 0.689600 0.773941 0.100803
O O9 0.034678 0.719741 0.187769
O O10 0.753536 0.031106 0.245324
O O11 0.702576 0.017465 0.001958
O O12 0.730594 0.670189 0.761543
O O13 0.460808 0.068826 0.741815
O O14 0.000000 0.500000 0.000000
O O15 0.000000 0.000000 0.500000
#
# Coordination Sequence:
#
# PCOD8021147 Si02
#       7
#     2   2   2   2   2   2   2
#     4  10  23  45  66  99 129 178 214 275 323 383
#     4  11  26  44  69  98 132 173 223 270 321 396
#     4  11  24  42  66  95 134 176 214 274 332 382
#     4  10  22  43  68  92 138 166 222 269 326 390
#     4  12  24  41  67  98 129 177 215 270 335 387
#     4  10  23  45  64  96 132 172 222 270 324 392
#     4  12  26  43  67  98 135 172 223 269 328 387
#
# _framework density 21.903725999999999
#
# number of rings (size 3 to 8) (size 9 to 14) (size 15 to 20)
#    0.000    1.143    2.857    2.571    6.000    3.429 
#    0.000    2.857    0.000    0.000    0.000    0.000 
#    0.000    0.000    0.000    0.000    0.000    0.000 
#
# Total GULP energy -173576.227372 kJ/mol
# GULP energy per Si atom -12398.301955 kJ/mol
# Density = 2.185387 g / cm^3
# Si number density = 21.903726 Si / 1000 Ang^3
#
#
#
# Elastic Constant Matrix: (Units=GPa)
#
#
# Indices 1 2 3 4 5 6 
#
# 1 114.4623 58.6508 49.5802 -28.6231 6.8722 7.2109
# 2 58.6508 114.5642 32.0581 -26.9202 1.8790 3.5867
# 3 49.5802 32.0581 110.7506 -10.5307 2.1292 23.0839
# 4 -28.6231 -26.9202 -10.5307 44.3879 4.6833 -1.3434
# 5 6.8722 1.8790 2.1292 4.6833 30.4535 -4.0177
# 6 7.2109 3.5867 23.0839 -1.3434 -4.0177 32.7640
#
#
#
# Elastic Compliance Matrix: (Units=1/GPa)
#
#
# Indices 1 2 3 4 5 6 
#
# 1 0.014978 -0.004896 -0.004729 0.005959 -0.003614 0.000373
# 2 -0.004896 0.012532 -0.001177 0.004200 -0.000141 0.000690
# 3 -0.004729 -0.001177 0.013134 -0.000819 -0.000735 -0.008208
# 4 0.005959 0.004200 -0.000819 0.029351 -0.006159 -0.000746
# 5 -0.003614 -0.000141 -0.000735 -0.006159 0.035374 0.005414
# 6 0.000373 0.000690 -0.008208 -0.000746 0.005414 0.036780
#
#
# Mechanical properties :
#
#
# Convention : Reuss Voigt Hill
#
# Bulk Modulus (GPa) = 52.52671 68.92837 60.72754
# Shear Modulus (GPa) = 29.39396 34.82027 32.10712
#
# Velocity S-wave (km/s) = 3.66725 3.99143 3.83277
# Velocity P-wave (km/s) = 6.47800 7.26492 6.88271
#
# Compressibility (1/GPa) = 0.01903793
#
# Stress axis : x y z
#
# Youngs Moduli (GPa) = 66.76564 79.79261 76.13565
#
# Poissons Ratio (x) = 0.39070 0.36008
# Poissons Ratio (y) = 0.32692 0.08965
# Poissons Ratio (z) = 0.31576 0.09395
#
# Static dielectric constant tensor:
#      x y z
#    x 3.842880 0.016260 -0.291300 
#    y 0.016260 3.919340 -0.052530 
#    z -0.291300 -0.052530 3.544350 
# 
# 
# High freq. dielectric constant tensor:
#      x y z
#    x 1.876720 0.001830 0.004200 
#    y 0.001830 1.857150 0.000750 
#    z 0.004200 0.000750 1.862520 
# 
# From -- ./inp_files/185682.got.cif
#   From: 2010.06.25/outbox.cif.g09.slc.cpg/sg2_93_cif.got.tgz:185682.got - 2010.06.27 13:26:56.
