data_PCOD8021609
_publ_section_title
;
Structure prediction by ZEFSAII (Michael W. Deem and Ramdas Pophale) SiO2 
 PCOD8021609
Probable space group: P -1
;
_chemical_formula_sum "Si O2"
_cell_formula_units_Z 14
_cell_length_a 11.611998
_cell_length_b 8.681201
_cell_length_c 13.673070
_cell_angle_alpha 49.446601
_cell_angle_beta 95.191258
_cell_angle_gamma 58.342332
_cell_volume 663.748435
_symmetry_space_group_name_H-M "P -1"
_symmetry_group_IT_number 2
_symmetry_cell_setting 'triclinic'
loop_
_space_group_symop_operation_xyz
x,y,z
-x,-y,-z
loop_
_atom_site_type_symbol
_atom_site_label
_atom_site_fract_x
_atom_site_fract_y
_atom_site_fract_z
Si Si1 0.454521 0.233643 0.611160
Si Si2 0.377420 0.704403 0.541745
Si Si3 0.109763 0.546465 0.525667
Si Si4 0.467172 0.595332 0.119115
Si Si5 0.658480 0.564136 0.966145
Si Si6 0.297872 0.208224 0.873890
Si Si7 0.972007 0.158305 0.282462
O O1 0.473980 0.382504 0.632397
O O2 0.527679 0.216352 0.519807
O O3 0.242755 0.452298 0.489014
O O4 0.577827 0.890567 0.804352
O O5 0.396221 0.659431 0.678934
O O6 0.168316 0.994672 0.371105
O O7 0.256565 0.280322 0.726459
O O8 0.000000 0.500000 0.500000
O O9 0.983422 0.899057 0.413068
O O10 0.579731 0.566609 0.057611
O O11 0.373210 0.527169 0.093958
O O12 0.302795 0.959120 0.999131
O O13 0.875344 0.301936 0.109325
O O14 0.152667 0.544098 0.777074
O O15 0.500000 0.000000 0.000000
#
# Coordination Sequence:
#
# PCOD8021609 Si02
#       7
#     2   2   2   2   2   2   2
#     4  10  22  44  65  91 127 172 201 256 316 383
#     4  10  24  42  66  91 127 166 214 250 313 377
#     4  11  23  37  63  96 125 156 206 266 309 362
#     4  11  23  39  61  95 124 171 203 261 316 377
#     4  11  23  38  64  91 128 162 211 256 321 364
#     4  12  21  37  60  90 125 163 203 257 310 364
#     4  11  23  37  61  98 124 160 214 263 305 369
#
# _framework density 21.092326
#
# number of rings (size 3 to 8) (size 9 to 14) (size 15 to 20)
#    0.000    1.143    2.857    3.857    4.000    1.143 
#    0.000    1.429    0.000    9.429    0.000    0.000 
#    0.000    0.000    0.000    0.000    0.000    0.000 
#
# Total GULP energy -173455.238364 kJ/mol
# GULP energy per Si atom -12389.659883 kJ/mol
# Density = 2.104432 g / cm^3
# Si number density = 21.092326 Si / 1000 Ang^3
#
#
#
# Elastic Constant Matrix: (Units=GPa)
#
#
# Indices 1 2 3 4 5 6 
#
# 1 139.0693 61.4523 75.7364 1.7997 7.2548 7.0377
# 2 61.4523 83.5353 65.3160 2.4656 16.2114 9.5160
# 3 75.7364 65.3160 162.1160 -7.2357 7.2377 9.3004
# 4 1.7997 2.4656 -7.2357 31.8363 -4.8530 4.6790
# 5 7.2548 16.2114 7.2377 -4.8530 18.3694 13.5984
# 6 7.0377 9.5160 9.3004 4.6790 13.5984 21.8177
#
#
#
# Elastic Compliance Matrix: (Units=1/GPa)
#
#
# Indices 1 2 3 4 5 6 
#
# 1 0.011659 -0.007200 -0.002593 0.000426 0.004813 -0.002607
# 2 -0.007200 0.029081 -0.008321 -0.011976 -0.036322 0.018392
# 3 -0.002593 -0.008321 0.011012 0.006732 0.013080 -0.009825
# 4 0.000426 -0.011976 0.006732 0.046709 0.048019 -0.037729
# 5 0.004813 -0.036322 0.013080 0.048019 0.173219 -0.109547
# 6 -0.002607 0.018392 -0.009825 -0.037729 -0.109547 0.119210
#
#
# Mechanical properties :
#
#
# Convention : Reuss Voigt Hill
#
# Bulk Modulus (GPa) = 64.40929 87.74777 76.07853
# Shear Modulus (GPa) = 11.56626 26.55240 19.05933
#
# Velocity S-wave (km/s) = 2.34426 3.55190 3.00928
# Velocity P-wave (km/s) = 6.15878 7.64940 6.94420
#
# Compressibility (1/GPa) = 0.01552571
#
# Stress axis : x y z
#
# Youngs Moduli (GPa) = 85.76883 34.38701 90.80790
#
# Poissons Ratio (x) = 0.24757 0.23542
# Poissons Ratio (y) = 0.61750 0.75563
# Poissons Ratio (z) = 0.22236 0.28614
#
# Static dielectric constant tensor:
#      x y z
#    x 3.562730 0.447730 -0.253230 
#    y 0.447730 4.152910 -0.254270 
#    z -0.253230 -0.254270 4.211750 
# 
# 
# High freq. dielectric constant tensor:
#      x y z
#    x 1.806900 0.029250 0.001810 
#    y 0.029250 1.813270 -0.012530 
#    z 0.001810 -0.012530 1.847080 
# 
# From -- ./inp_files/514011.got.cif
#   From: 2010.06.25/outbox.cif.g09.slc.cpg/sg2_258_cif.got.tgz:514011.got - 2010.06.27 13:26:56.
