data_PCOD8021885
_publ_section_title
;
Structure prediction by ZEFSAII (Michael W. Deem and Ramdas Pophale) SiO2 
 PCOD8021885
Probable space group: P -1
;
_chemical_formula_sum "Si O2"
_cell_formula_units_Z 16
_cell_length_a 17.774450
_cell_length_b 5.847925
_cell_length_c 8.628505
_cell_angle_alpha 72.126278
_cell_angle_beta 77.106952
_cell_angle_gamma 55.195450
_cell_volume 699.566133
_symmetry_space_group_name_H-M "P -1"
_symmetry_group_IT_number 2
_symmetry_cell_setting 'triclinic'
loop_
_space_group_symop_operation_xyz
x,y,z
-x,-y,-z
loop_
_atom_site_type_symbol
_atom_site_label
_atom_site_fract_x
_atom_site_fract_y
_atom_site_fract_z
Si Si1 0.075144 0.330721 0.871273
Si Si2 0.129824 0.663915 0.544724
Si Si3 0.266533 0.858858 0.025209
Si Si4 0.614869 0.019029 0.850960
Si Si5 0.449492 0.329808 0.516494
Si Si6 0.584996 0.598452 0.146089
Si Si7 0.980879 0.784482 0.374055
Si Si8 0.307725 0.414548 0.340926
O O1 0.097029 0.521126 0.713242
O O2 0.029051 0.206385 0.808686
O O3 0.000000 0.500000 0.000000
O O4 0.167617 0.084199 0.958358
O O5 0.234005 0.442768 0.493068
O O6 0.067742 0.793514 0.389581
O O7 0.115832 0.944450 0.575693
O O8 0.259170 0.623997 0.173668
O O9 0.299077 0.005470 0.100443
O O10 0.340478 0.723000 0.878422
O O11 0.638141 0.911126 0.682646
O O12 0.519649 0.333532 0.832399
O O13 0.593609 0.806621 0.987307
O O14 0.500000 0.500000 0.500000
O O15 0.397416 0.348196 0.696129
O O16 0.373407 0.498326 0.381208
O O17 0.500000 0.000000 0.500000
O O18 0.000000 0.500000 0.500000
#
# Coordination Sequence:
#
# PCOD8021885 Si02
#       8
#     2   2   2   2   2   2   2   2
#     4  11  27  44  68 103 142 188 242 302 374 439
#     4  10  24  45  73  98 137 183 238 300 365 442
#     4  11  26  42  68 100 143 190 245 303 363 447
#     4  10  22  44  69  98 141 188 238 295 368 437
#     4  12  27  46  73 110 152 198 252 310 377 445
#     4  10  23  43  68  99 141 189 243 296 369 436
#     4   9  22  45  69  96 130 178 230 296 369 430
#     4  11  26  42  71 106 139 190 247 301 370 443
#
# _framework density 22.871316
#
# number of rings (size 3 to 8) (size 9 to 14) (size 15 to 20)
#    0.000    1.500    1.250    1.125   12.250    2.500 
#    0.000    0.000    0.000    0.000    0.000    0.000 
#    0.000    0.000    0.000    0.000    0.000    0.000 
#
# Total GULP energy -198211.443611 kJ/mol
# GULP energy per Si atom -12388.215226 kJ/mol
# Density = 2.281926 g / cm^3
# Si number density = 22.871316 Si / 1000 Ang^3
#
#
#
# Elastic Constant Matrix: (Units=GPa)
#
#
# Indices 1 2 3 4 5 6 
#
# 1 109.5179 60.7060 65.6213 20.8029 18.4792 -14.1507
# 2 60.7060 137.3460 67.4588 29.6486 5.6133 -17.4831
# 3 65.6213 67.4588 138.2249 34.4941 18.9093 -18.7419
# 4 20.8029 29.6486 34.4941 47.3054 -4.4194 6.5787
# 5 18.4792 5.6133 18.9093 -4.4194 49.7372 2.7612
# 6 -14.1507 -17.4831 -18.7419 6.5787 2.7612 39.0110
#
#
#
# Elastic Compliance Matrix: (Units=1/GPa)
#
#
# Indices 1 2 3 4 5 6 
#
# 1 0.014916 -0.003771 -0.003818 -0.002137 -0.003995 0.002529
# 2 -0.003771 0.011406 -0.002343 -0.004198 0.000449 0.003294
# 3 -0.003818 -0.002343 0.013577 -0.007973 -0.004506 0.005751
# 4 -0.002137 -0.004198 -0.007973 0.033019 0.007933 -0.012616
# 5 -0.003995 0.000449 -0.004506 0.007933 0.024317 -0.006472
# 6 0.002529 0.003294 0.005751 -0.012616 -0.006472 0.033376
#
#
# Mechanical properties :
#
#
# Convention : Reuss Voigt Hill
#
# Bulk Modulus (GPa) = 49.91714 85.85123 67.88418
# Shear Modulus (GPa) = 31.81629 39.96423 35.89026
#
# Velocity S-wave (km/s) = 3.73379 4.18467 3.96564
# Velocity P-wave (km/s) = 6.36089 7.80812 7.12136
#
# Compressibility (1/GPa) = 0.02003320
#
# Stress axis : x y z
#
# Youngs Moduli (GPa) = 67.04409 87.67582 73.65525
#
# Poissons Ratio (x) = 0.33061 0.28122
# Poissons Ratio (y) = 0.25281 0.17261
# Poissons Ratio (z) = 0.25598 0.20547
#
# Static dielectric constant tensor:
#      x y z
#    x 4.333160 0.014550 0.462930 
#    y 0.014550 4.407690 0.297350 
#    z 0.462930 0.297350 4.567860 
# 
# 
# High freq. dielectric constant tensor:
#      x y z
#    x 1.889160 -0.001310 0.016340 
#    y -0.001310 1.907810 0.007920 
#    z 0.016340 0.007920 1.916100 
# 
# From -- ./inp_files/39002.got.cif
#   From: 2010.06.25/outbox.cif.g09.slc.cpg/sg2_20_cif.got.tgz:39002.got - 2010.06.27 13:26:56.
