data_PCOD8021121
_publ_section_title
;
Structure prediction by ZEFSAII (Michael W. Deem and Ramdas Pophale) SiO2 
 PCOD8021121
Probable space group: P -1
;
_chemical_formula_sum "Si O2"
_cell_formula_units_Z 14
_cell_length_a 11.627923
_cell_length_b 8.748142
_cell_length_c 17.939397
_cell_angle_alpha 110.240594
_cell_angle_beta 148.616882
_cell_angle_gamma 50.108184
_cell_volume 629.561382
_symmetry_space_group_name_H-M "P -1"
_symmetry_group_IT_number 2
_symmetry_cell_setting 'triclinic'
loop_
_space_group_symop_operation_xyz
x,y,z
-x,-y,-z
loop_
_atom_site_type_symbol
_atom_site_label
_atom_site_fract_x
_atom_site_fract_y
_atom_site_fract_z
Si Si1 0.784293 0.990631 0.100316
Si Si2 0.139161 0.695864 0.831899
Si Si3 0.711507 0.715170 0.681733
Si Si4 0.189259 0.520067 0.160517
Si Si5 0.903602 0.736976 0.264758
Si Si6 0.218569 0.580791 0.567068
Si Si7 0.163338 0.239714 0.468309
O O1 0.838440 0.928054 0.208039
O O2 0.932288 0.769513 0.097128
O O3 0.966431 0.061608 0.195059
O O4 0.417399 0.200067 0.909639
O O5 0.997318 0.695326 0.829372
O O6 0.046375 0.631016 0.699357
O O7 0.500000 0.500000 0.000000
O O8 0.655086 0.680545 0.727175
O O9 0.790941 0.521411 0.639045
O O10 0.408724 0.974124 0.534225
O O11 0.464244 0.479030 0.266612
O O12 0.000000 0.500000 0.000000
O O13 0.992317 0.743399 0.399046
O O14 0.311235 0.340847 0.581840
O O15 0.028768 0.723941 0.560723
#
# Coordination Sequence:
#
# PCOD8021121 Si02
#       7
#     2   2   2   2   2   2   2
#     4  10  23  42  71 100 137 181 225 290 332 410
#     4  12  23  43  72 102 136 181 230 283 339 412
#     4  11  24  44  68 102 134 180 233 279 335 417
#     4  11  28  46  68 101 141 182 233 284 348 410
#     4  10  22  43  68 101 137 177 235 272 346 405
#     4  11  25  47  68 100 141 183 226 288 347 411
#     4  11  26  43  71 104 139 179 230 286 346 405
#
# _framework density 22.237707
#
# number of rings (size 3 to 8) (size 9 to 14) (size 15 to 20)
#    0.000    1.143    2.857    1.286    8.000    1.714 
#    0.000    1.429    0.000    0.000    0.000    0.000 
#    0.000    0.000    0.000    0.000    0.000    0.000 
#
# Total GULP energy -173545.416507 kJ/mol
# GULP energy per Si atom -12396.101179 kJ/mol
# Density = 2.218709 g / cm^3
# Si number density = 22.237707 Si / 1000 Ang^3
#
#
#
# Elastic Constant Matrix: (Units=GPa)
#
#
# Indices 1 2 3 4 5 6 
#
# 1 132.0407 30.5408 43.4853 7.0996 18.4831 12.7008
# 2 30.5408 79.7626 33.9847 0.8962 6.8766 5.8853
# 3 43.4853 33.9847 105.3938 -0.8044 9.6907 -5.4581
# 4 7.0996 0.8962 -0.8044 38.4012 3.9275 9.3456
# 5 18.4831 6.8766 9.6907 3.9275 35.7496 6.5487
# 6 12.7008 5.8853 -5.4581 9.3456 6.5487 34.5694
#
#
#
# Elastic Compliance Matrix: (Units=1/GPa)
#
#
# Indices 1 2 3 4 5 6 
#
# 1 0.009887 -0.001849 -0.003351 -0.000791 -0.003207 -0.003026
# 2 -0.001849 0.015288 -0.004264 0.000589 -0.000403 -0.002679
# 3 -0.003351 -0.004264 0.012618 0.000123 -0.001656 0.004230
# 4 -0.000791 0.000589 0.000123 0.028056 -0.001522 -0.007087
# 5 -0.003207 -0.000403 -0.001656 -0.001522 0.031149 -0.004504
# 6 -0.003026 -0.002679 0.004230 -0.007087 -0.004504 0.033932
#
#
# Mechanical properties :
#
#
# Convention : Reuss Voigt Hill
#
# Bulk Modulus (GPa) = 53.00935 59.24649 56.12792
# Shear Modulus (GPa) = 32.02118 35.68979 33.85548
#
# Velocity S-wave (km/s) = 3.79878 4.01049 3.90607
# Velocity P-wave (km/s) = 6.56737 6.93870 6.75559
#
# Compressibility (1/GPa) = 0.01886460
#
# Stress axis : x y z
#
# Youngs Moduli (GPa) = 101.14111 65.41152 79.25217
#
# Poissons Ratio (x) = 0.12097 0.26557
# Poissons Ratio (y) = 0.18705 0.33792
# Poissons Ratio (z) = 0.33892 0.27890
#
# Static dielectric constant tensor:
#      x y z
#    x 4.602230 0.612280 0.371490 
#    y 0.612280 4.589030 0.561280 
#    z 0.371490 0.561280 4.822560 
# 
# 
# High freq. dielectric constant tensor:
#      x y z
#    x 1.889520 0.017900 0.006090 
#    y 0.017900 1.879420 -0.009790 
#    z 0.006090 -0.009790 1.865550 
# 
# From -- ./inp_files/150443.got.cif
#   From: 2010.06.25/outbox.cif.g09.slc.cpg/sg2_76_cif.got.tgz:150443.got - 2010.06.27 13:26:56.
