data_PCOD8021758
_publ_section_title
;
Structure prediction by ZEFSAII (Michael W. Deem and Ramdas Pophale) SiO2 
 PCOD8021758
Probable space group: P -1
;
_chemical_formula_sum "Si O2"
_cell_formula_units_Z 16
_cell_length_a 9.166677
_cell_length_b 8.753740
_cell_length_c 15.459570
_cell_angle_alpha 37.017665
_cell_angle_beta 81.181496
_cell_angle_gamma 80.806055
_cell_volume 736.581436
_symmetry_space_group_name_H-M "P -1"
_symmetry_group_IT_number 2
_symmetry_cell_setting 'triclinic'
loop_
_space_group_symop_operation_xyz
x,y,z
-x,-y,-z
loop_
_atom_site_type_symbol
_atom_site_label
_atom_site_fract_x
_atom_site_fract_y
_atom_site_fract_z
Si Si1 0.577163 0.515144 0.392589
Si Si2 0.915715 0.365067 0.760164
Si Si3 0.590765 0.249644 0.861735
Si Si4 0.362036 0.574583 0.037385
Si Si5 0.100440 0.114687 0.578261
Si Si6 0.337539 0.962492 0.501022
Si Si7 0.816181 0.904671 0.223966
Si Si8 0.139990 0.269752 0.261829
O O1 0.500000 0.500000 0.500000
O O2 0.467816 0.599891 0.286058
O O3 0.659851 0.250529 0.476727
O O4 0.705013 0.698061 0.305964
O O5 0.766901 0.207752 0.847263
O O6 0.913736 0.595663 0.585551
O O7 0.952370 0.488613 0.795167
O O8 0.042939 0.146054 0.828090
O O9 0.572404 0.414934 0.876228
O O10 0.500000 0.000000 0.000000
O O11 0.239257 0.362918 0.131241
O O12 0.500000 0.500000 0.000000
O O13 0.273914 0.831992 0.902085
O O14 0.126434 0.124202 0.671991
O O15 0.232103 0.928189 0.609325
O O16 0.949529 0.973576 0.640191
O O17 0.500000 0.000000 0.500000
O O18 0.262725 0.212780 0.351032
#
# Coordination Sequence:
#
# PCOD8021758 Si02
#       8
#     2   2   2   2   2   2   2   2
#     4  12  25  42  70 106 136 181 241 288 346 415
#     4  10  22  44  67  99 137 173 233 289 347 416
#     4  11  24  47  69 100 141 186 222 289 362 412
#     4  11  27  46  67  99 142 184 238 286 349 427
#     4  11  23  42  67 102 135 181 230 292 355 405
#     4  11  22  40  70 100 135 177 230 287 349 413
#     4  12  25  42  67 102 138 182 234 289 346 419
#     4  10  23  43  68  93 136 185 225 291 354 405
#
# _framework density 21.721971
#
# number of rings (size 3 to 8) (size 9 to 14) (size 15 to 20)
#    0.000    1.000    1.250    7.125    5.250    4.500 
#    2.250    0.000    0.000    0.000    0.000    0.000 
#    0.000    0.000    0.000    0.000    0.000    0.000 
#
# Total GULP energy -198223.490509 kJ/mol
# GULP energy per Si atom -12388.968157 kJ/mol
# Density = 2.167253 g / cm^3
# Si number density = 21.721971 Si / 1000 Ang^3
#
#
#
# Elastic Constant Matrix: (Units=GPa)
#
#
# Indices 1 2 3 4 5 6 
#
# 1 143.7456 74.0162 51.3888 2.5583 -24.9192 -9.2151
# 2 74.0162 159.8381 51.0141 20.2833 -11.0898 -19.0253
# 3 51.3888 51.0141 88.8990 6.6090 -21.2226 -6.6615
# 4 2.5583 20.2833 6.6090 38.1947 4.8706 -1.7348
# 5 -24.9192 -11.0898 -21.2226 4.8706 47.9286 1.3699
# 6 -9.2151 -19.0253 -6.6615 -1.7348 1.3699 47.7055
#
#
#
# Elastic Compliance Matrix: (Units=1/GPa)
#
#
# Indices 1 2 3 4 5 6 
#
# 1 0.010617 -0.003835 -0.003331 0.001520 0.003003 0.000025
# 2 -0.003835 0.009808 -0.003079 -0.004207 -0.000735 0.002609
# 3 -0.003331 -0.003079 0.016243 -0.001568 0.004902 0.000199
# 4 0.001520 -0.004207 -0.001568 0.029052 -0.003817 -0.000437
# 5 0.003003 -0.000735 0.004902 -0.003817 0.024810 0.000120
# 6 0.000025 0.002609 0.000199 -0.000437 0.000120 0.022016
#
#
# Mechanical properties :
#
#
# Convention : Reuss Voigt Hill
#
# Bulk Modulus (GPa) = 61.80943 82.81343 72.31143
# Shear Modulus (GPa) = 36.11958 41.16999 38.64479
#
# Velocity S-wave (km/s) = 4.08218 4.35825 4.22247
# Velocity P-wave (km/s) = 7.12289 7.97074 7.55871
#
# Compressibility (1/GPa) = 0.01617876
#
# Stress axis : x y z
#
# Youngs Moduli (GPa) = 94.18532 101.95540 61.56640
#
# Poissons Ratio (x) = 0.39100 0.20508
# Poissons Ratio (y) = 0.36120 0.18954
# Poissons Ratio (z) = 0.31374 0.31389
#
# Static dielectric constant tensor:
#      x y z
#    x 4.161800 -0.085470 -0.171820 
#    y -0.085470 4.038880 0.116470 
#    z -0.171820 0.116470 4.040990 
# 
# 
# High freq. dielectric constant tensor:
#      x y z
#    x 1.864680 -0.002100 -0.014300 
#    y -0.002100 1.858050 0.002960 
#    z -0.014300 0.002960 1.855580 
# 
# From -- ./inp_files/356987.got.cif
#   From: 2010.06.25/outbox.cif.g09.slc.cpg/sg2_179_cif.got.tgz:356987.got - 2010.06.27 13:26:56.
