data_PCOD8021771
_publ_section_title
;
Structure prediction by ZEFSAII (Michael W. Deem and Ramdas Pophale) SiO2 
 PCOD8021771
Probable space group: P -1
;
_chemical_formula_sum "Si O2"
_cell_formula_units_Z 14
_cell_length_a 14.102707
_cell_length_b 7.059103
_cell_length_c 15.127173
_cell_angle_alpha 133.250849
_cell_angle_beta 33.594014
_cell_angle_gamma 139.000917
_cell_volume 539.980442
_symmetry_space_group_name_H-M "P -1"
_symmetry_group_IT_number 2
_symmetry_cell_setting 'triclinic'
loop_
_space_group_symop_operation_xyz
x,y,z
-x,-y,-z
loop_
_atom_site_type_symbol
_atom_site_label
_atom_site_fract_x
_atom_site_fract_y
_atom_site_fract_z
Si Si1 0.740969 0.063032 0.894440
Si Si2 0.334444 0.622128 0.102170
Si Si3 0.832122 0.732734 0.364365
Si Si4 0.976628 0.975416 0.907609
Si Si5 0.713119 0.221415 0.433684
Si Si6 0.765338 0.309880 0.132322
Si Si7 0.360970 0.855273 0.341091
O O1 0.728059 0.172364 0.841836
O O2 0.939846 0.042871 0.745069
O O3 0.727897 0.294206 0.050149
O O4 0.565126 0.739455 0.946879
O O5 0.224808 0.289891 0.050518
O O6 0.280587 0.640851 0.251528
O O7 0.803495 0.493211 0.384789
O O8 0.767507 0.585611 0.270471
O O9 0.710739 0.898331 0.535741
O O10 0.155693 0.946831 0.717639
O O11 0.962344 0.271639 0.984256
O O12 0.000000 0.000000 0.000000
O O13 0.712064 0.326992 0.569210
O O14 0.500000 0.000000 0.500000
O O15 0.591893 0.023394 0.218407
#
# Coordination Sequence:
#
# PCOD8021771 Si02
#       7
#     2   2   2   2   2   2   2
#     4  10  22  44  68 102 134 187 237 288 355 406
#     4  10  24  47  68 102 141 182 243 288 358 425
#     4  12  23  47  72 104 150 181 241 293 349 427
#     4  12  23  47  73 101 141 178 242 301 344 424
#     4  12  25  46  71 109 143 191 236 288 362 415
#     4  11  23  44  72 106 135 190 240 293 354 408
#     4  11  26  46  67 108 149 191 231 291 361 420
#
# _framework density 25.926864999999999
#
# number of rings (size 3 to 8) (size 9 to 14) (size 15 to 20)
#    0.000    0.857    4.286    1.714    0.000    4.571 
#   18.000    0.000    0.000    0.000    0.000    0.000 
#    0.000    0.000    0.000    0.000    0.000    0.000 
#
# Total GULP energy -173622.796384 kJ/mol
# GULP energy per Si atom -12401.628313 kJ/mol
# Density = 2.586785 g / cm^3
# Si number density = 25.926865 Si / 1000 Ang^3
#
#
#
# Elastic Constant Matrix: (Units=GPa)
#
#
# Indices 1 2 3 4 5 6 
#
# 1 118.9812 40.7442 55.3537 8.5364 23.4494 15.4929
# 2 40.7442 120.5638 33.6931 -1.6782 0.6089 17.5175
# 3 55.3537 33.6931 110.6614 -3.4301 14.9340 6.8423
# 4 8.5364 -1.6782 -3.4301 38.7951 1.1509 -3.4944
# 5 23.4494 0.6089 14.9340 1.1509 62.9435 -0.6286
# 6 15.4929 17.5175 6.8423 -3.4944 -0.6286 49.6510
#
#
#
# Elastic Compliance Matrix: (Units=1/GPa)
#
#
# Indices 1 2 3 4 5 6 
#
# 1 0.013015 -0.002584 -0.005185 -0.003575 -0.003555 -0.002731
# 2 -0.002584 0.010013 -0.001756 0.000591 0.001247 -0.002427
# 3 -0.005185 -0.001756 0.012329 0.002247 -0.001011 0.000684
# 4 -0.003575 0.000591 0.002247 0.027003 0.000324 0.002502
# 5 -0.003555 0.001247 -0.001011 0.000324 0.017444 0.001052
# 6 -0.002731 -0.002427 0.000684 0.002502 0.001052 0.021944
#
#
# Mechanical properties :
#
#
# Convention : Reuss Voigt Hill
#
# Bulk Modulus (GPa) = 61.32953 67.75426 64.54189
# Shear Modulus (GPa) = 39.60895 44.97230 42.29063
#
# Velocity S-wave (km/s) = 3.91284 4.16935 4.04313
# Velocity P-wave (km/s) = 6.64229 7.02620 6.83694
#
# Compressibility (1/GPa) = 0.01630536
#
# Stress axis : x y z
#
# Youngs Moduli (GPa) = 76.83533 99.87059 81.11120
#
# Poissons Ratio (x) = 0.25808 0.42060
# Poissons Ratio (y) = 0.19855 0.14243
# Poissons Ratio (z) = 0.39843 0.17537
#
# Static dielectric constant tensor:
#      x y z
#    x 5.067000 0.092770 0.053980 
#    y 0.092770 4.766740 -0.307650 
#    z 0.053980 -0.307650 5.052930 
# 
# 
# High freq. dielectric constant tensor:
#      x y z
#    x 2.054220 0.003420 0.010180 
#    y 0.003420 2.043840 -0.022040 
#    z 0.010180 -0.022040 2.047060 
# 
# From -- ./inp_files/261328.got.cif
#   From: 2010.06.25/outbox.cif.g09.slc.cpg/sg2_131_cif.got.tgz:261328.got - 2010.06.27 13:26:56.
