data_PCOD8021909
_publ_section_title
;
Structure prediction by ZEFSAII (Michael W. Deem and Ramdas Pophale) SiO2 
 PCOD8021909
Probable space group: P -1
;
_chemical_formula_sum "Si O2"
_cell_formula_units_Z 16
_cell_length_a 21.700415
_cell_length_b 5.251077
_cell_length_c 10.715387
_cell_angle_alpha 66.092291
_cell_angle_beta 143.298830
_cell_angle_gamma 102.637955
_cell_volume 654.414465
_symmetry_space_group_name_H-M "P -1"
_symmetry_group_IT_number 2
_symmetry_cell_setting 'triclinic'
loop_
_space_group_symop_operation_xyz
x,y,z
-x,-y,-z
loop_
_atom_site_type_symbol
_atom_site_label
_atom_site_fract_x
_atom_site_fract_y
_atom_site_fract_z
Si Si1 0.434570 0.667691 0.634508
Si Si2 0.672080 0.642006 0.035708
Si Si3 0.599207 0.939295 0.263418
Si Si4 0.734302 0.040576 0.875228
Si Si5 0.774788 0.722122 0.420793
Si Si6 0.961663 0.274089 0.797171
Si Si7 0.871351 0.191914 0.397261
Si Si8 0.131802 0.522269 0.908606
O O1 0.393248 0.376059 0.608917
O O2 0.371800 0.883697 0.391505
O O3 0.412950 0.810368 0.706479
O O4 0.557660 0.601573 0.817002
O O5 0.682637 0.634924 0.204287
O O6 0.756195 0.388769 0.165411
O O7 0.696073 0.939439 0.965412
O O8 0.713702 0.930083 0.386140
O O9 0.500000 0.000000 0.000000
O O10 0.787819 0.311123 0.926964
O O11 0.813138 0.789480 0.984412
O O12 0.854964 0.443659 0.657005
O O13 0.849328 0.873529 0.423127
O O14 0.939063 0.211444 0.627609
O O15 0.048614 0.473008 0.889737
O O16 0.000000 0.000000 0.000000
O O17 0.925504 0.281061 0.339952
#
# Coordination Sequence:
#
# PCOD8021909 Si02
#       8
#     2   2   2   2   2   2   2   2
#     4  12  26  43  71 106 148 195 239 300 363 430
#     4  10  22  44  70 107 144 186 243 297 361 432
#     4  12  26  43  70 104 148 196 242 291 359 440
#     4  11  25  45  73 108 143 190 241 309 358 428
#     4  11  24  44  75 103 145 191 246 294 363 437
#     4  11  28  46  74 108 146 192 243 312 371 436
#     4  10  23  45  74 107 139 196 243 306 363 447
#     4  11  25  49  74 105 148 192 250 296 370 438
#
# _framework density 24.449335999999999
#
# number of rings (size 3 to 8) (size 9 to 14) (size 15 to 20)
#    0.000    1.000    2.500    2.625    7.000    2.000 
#    0.000    3.125    0.000    0.000    0.000    0.000 
#    0.000    0.000    0.000    0.000    0.000    0.000 
#
# Total GULP energy -198336.531526 kJ/mol
# GULP energy per Si atom -12396.033220 kJ/mol
# Density = 2.439369 g / cm^3
# Si number density = 24.449336 Si / 1000 Ang^3
#
#
#
# Elastic Constant Matrix: (Units=GPa)
#
#
# Indices 1 2 3 4 5 6 
#
# 1 78.5365 25.5101 41.5242 -5.9360 7.7052 19.8988
# 2 25.5101 89.1550 23.4905 0.8866 -5.3148 16.8381
# 3 41.5242 23.4905 147.6656 -15.7977 -10.7364 12.3759
# 4 -5.9360 0.8866 -15.7977 37.7317 -1.5888 -2.5730
# 5 7.7052 -5.3148 -10.7364 -1.5888 23.3361 2.7712
# 6 19.8988 16.8381 12.3759 -2.5730 2.7712 40.1914
#
#
#
# Elastic Compliance Matrix: (Units=1/GPa)
#
#
# Indices 1 2 3 4 5 6 
#
# 1 0.018724 -0.003520 -0.004817 0.000264 -0.008504 -0.005709
# 2 -0.003520 0.013426 -0.000621 -0.001224 0.004334 -0.004068
# 3 -0.004817 -0.000621 0.009028 0.003261 0.005864 -0.000331
# 4 0.000264 -0.001224 0.003261 0.028129 0.002934 0.000976
# 5 -0.008504 0.004334 0.005864 0.002934 0.049861 -0.002661
# 6 -0.005709 -0.004068 -0.000331 0.000976 -0.002661 0.029760
#
#
# Mechanical properties :
#
#
# Convention : Reuss Voigt Hill
#
# Bulk Modulus (GPa) = 42.98639 55.15628 49.07134
# Shear Modulus (GPa) = 28.63744 35.24065 31.93904
#
# Velocity S-wave (km/s) = 3.42613 3.80066 3.61825
# Velocity P-wave (km/s) = 5.76812 6.47058 6.12942
#
# Compressibility (1/GPa) = 0.02326318
#
# Stress axis : x y z
#
# Youngs Moduli (GPa) = 53.40794 74.48241 110.76254
#
# Poissons Ratio (x) = 0.26215 0.53353
# Poissons Ratio (y) = 0.18798 0.06878
# Poissons Ratio (z) = 0.25726 0.04625
#
# Static dielectric constant tensor:
#      x y z
#    x 4.398660 0.162960 -0.006250 
#    y 0.162960 4.457440 -0.155270 
#    z -0.006250 -0.155270 4.498800 
# 
# 
# High freq. dielectric constant tensor:
#      x y z
#    x 1.960180 0.007590 0.005780 
#    y 0.007590 1.980320 -0.009260 
#    z 0.005780 -0.009260 1.982170 
# 
# From -- ./inp_files/118366.got.cif
#   From: 2010.06.25/outbox.cif.g09.slc.cpg/sg2_60_cif.got.tgz:118366.got - 2010.06.27 13:26:56.
