data_PCOD8021674
_publ_section_title
;
Structure prediction by ZEFSAII (Michael W. Deem and Ramdas Pophale) SiO2 
 PCOD8021674
Probable space group: P -1
;
_chemical_formula_sum "Si O2"
_cell_formula_units_Z 14
_cell_length_a 18.506075
_cell_length_b 6.094755
_cell_length_c 18.241561
_cell_angle_alpha 65.754693
_cell_angle_beta 18.911046
_cell_angle_gamma 64.860231
_cell_volume 603.390353
_symmetry_space_group_name_H-M "P -1"
_symmetry_group_IT_number 2
_symmetry_cell_setting 'triclinic'
loop_
_space_group_symop_operation_xyz
x,y,z
-x,-y,-z
loop_
_atom_site_type_symbol
_atom_site_label
_atom_site_fract_x
_atom_site_fract_y
_atom_site_fract_z
Si Si1 0.389481 0.469852 0.500618
Si Si2 0.000673 0.082049 0.186964
Si Si3 0.747932 0.170595 0.638178
Si Si4 0.618411 0.079062 0.054861
Si Si5 0.782286 0.682998 0.171518
Si Si6 0.872246 0.266874 0.663869
Si Si7 0.699684 0.673767 0.548712
O O1 0.191047 0.691496 0.653220
O O2 0.617488 0.573942 0.287627
O O3 0.336671 0.273919 0.640816
O O4 0.427651 0.329980 0.406458
O O5 0.903839 0.828625 0.320701
O O6 0.134310 0.083642 0.980301
O O7 0.175487 0.094419 0.083768
O O8 0.727653 0.225089 0.736532
O O9 0.806254 0.406892 0.506914
O O10 0.515279 0.095336 0.841876
O O11 0.947057 0.960686 0.460006
O O12 0.471220 0.214777 0.241199
O O13 0.701562 0.286765 0.893766
O O14 0.000000 0.500000 0.000000
O O15 0.000000 0.500000 0.500000
#
# Coordination Sequence:
#
# PCOD8021674 Si02
#       7
#     2   2   2   2   2   2   2
#     4  10  22  44  66  94 132 172 217 268 323 380
#     4  11  23  42  65  94 132 172 217 268 320 380
#     4  11  25  44  67  95 129 171 213 265 323 383
#     4  12  25  42  65  96 130 168 214 264 324 387
#     4   9  20  41  69  94 128 173 219 268 319 377
#     4  11  25  47  70  95 128 168 216 267 321 384
#     4  12  25  40  65  97 131 169 215 266 320 387
#
# _framework density 23.202226
#
# number of rings (size 3 to 8) (size 9 to 14) (size 15 to 20)
#    0.000    1.143    0.000    6.429    0.000    9.714 
#    0.000   11.429    0.000    0.000    0.000    0.000 
#    0.000    0.000    0.000    0.000    0.000    0.000 
#
# Total GULP energy -173585.122298 kJ/mol
# GULP energy per Si atom -12398.937307 kJ/mol
# Density = 2.314942 g / cm^3
# Si number density = 23.202226 Si / 1000 Ang^3
#
#
#
# Elastic Constant Matrix: (Units=GPa)
#
#
# Indices 1 2 3 4 5 6 
#
# 1 186.7772 73.1695 95.0096 -12.4597 -6.2689 -5.0523
# 2 73.1695 103.6325 75.8211 -31.0414 8.9790 -0.5141
# 3 95.0096 75.8211 149.5190 -35.0586 10.7366 -8.5240
# 4 -12.4597 -31.0414 -35.0586 34.7975 -12.9869 10.1782
# 5 -6.2689 8.9790 10.7366 -12.9869 59.1292 -5.6134
# 6 -5.0523 -0.5141 -8.5240 10.1782 -5.6134 27.3706
#
#
#
# Elastic Compliance Matrix: (Units=1/GPa)
#
#
# Indices 1 2 3 4 5 6 
#
# 1 0.009599 -0.005239 -0.004899 -0.006424 0.001563 0.002858
# 2 -0.005239 0.020721 -0.004199 0.014336 -0.000485 -0.007316
# 3 -0.004899 -0.004199 0.013918 0.008259 -0.000580 0.000161
# 4 -0.006424 0.014336 0.008259 0.054930 0.006042 -0.017532
# 5 0.001563 -0.000485 -0.000580 0.006042 0.018745 0.001696
# 6 0.002858 -0.007316 0.000161 -0.017532 0.001696 0.043843
#
#
# Mechanical properties :
#
#
# Convention : Reuss Voigt Hill
#
# Bulk Modulus (GPa) = 64.25148 103.10323 83.67736
# Shear Modulus (GPa) = 25.56004 37.32137 31.44071
#
# Velocity S-wave (km/s) = 3.32267 4.01499 3.68512
# Velocity P-wave (km/s) = 6.51707 8.12569 7.36543
#
# Compressibility (1/GPa) = 0.01556384
#
# Stress axis : x y z
#
# Youngs Moduli (GPa) = 104.17220 48.26076 71.85170
#
# Poissons Ratio (x) = 0.25285 0.35198
# Poissons Ratio (y) = 0.54577 0.30171
# Poissons Ratio (z) = 0.51031 0.20265
#
# Static dielectric constant tensor:
#      x y z
#    x 4.868810 -0.348620 0.198020 
#    y -0.348620 3.993070 -0.291380 
#    z 0.198020 -0.291380 4.438370 
# 
# 
# High freq. dielectric constant tensor:
#      x y z
#    x 1.947970 -0.020730 0.002940 
#    y -0.020730 1.894710 -0.013790 
#    z 0.002940 -0.013790 1.928490 
# 
# From -- ./inp_files/7462.got.cif
#   From: 2010.06.25/outbox.cif.g09.slc.cpg/sg2_4_cif.got.tgz:7462.got - 2010.06.27 13:26:56.
