data_PCOD8021541
_publ_section_title
;
Structure prediction by ZEFSAII (Michael W. Deem and Ramdas Pophale) SiO2 
 PCOD8021541
Probable space group: P -1
;
_chemical_formula_sum "Si O2"
_cell_formula_units_Z 16
_cell_length_a 17.000614
_cell_length_b 6.777177
_cell_length_c 22.105624
_cell_angle_alpha 104.486026
_cell_angle_beta 159.891209
_cell_angle_gamma 66.042699
_cell_volume 727.142229
_symmetry_space_group_name_H-M "P -1"
_symmetry_group_IT_number 2
_symmetry_cell_setting 'triclinic'
loop_
_space_group_symop_operation_xyz
x,y,z
-x,-y,-z
loop_
_atom_site_type_symbol
_atom_site_label
_atom_site_fract_x
_atom_site_fract_y
_atom_site_fract_z
Si Si1 0.335132 0.082055 0.100543
Si Si2 0.519804 0.172098 0.367390
Si Si3 0.933174 0.341215 0.663211
Si Si4 0.055820 0.315427 0.617696
Si Si5 0.448675 0.162612 0.533163
Si Si6 0.733483 0.384230 0.709962
Si Si7 0.483021 0.186394 0.095309
Si Si8 0.624103 0.556932 0.225154
O O1 0.419063 0.124797 0.229090
O O2 0.470868 0.171373 0.157862
O O3 0.437194 0.805619 0.142756
O O4 0.018248 0.232371 0.872367
O O5 0.778527 0.197627 0.548291
O O6 0.278193 0.407768 0.241699
O O7 0.584206 0.952630 0.439502
O O8 0.813014 0.571520 0.638273
O O9 0.907818 0.433111 0.582669
O O10 0.242193 0.167662 0.890196
O O11 0.245549 0.412952 0.739497
O O12 0.845904 0.370659 0.417261
O O13 0.234690 0.034192 0.739098
O O14 0.696159 0.208110 0.714806
O O15 0.500000 0.000000 0.500000
O O16 0.500000 0.500000 0.500000
O O17 0.455965 0.434928 0.075289
#
# Coordination Sequence:
#
# PCOD8021541 Si02
#       8
#     2   2   2   2   2   2   2   2
#     4  11  24  41  65  96 128 170 216 261 321 384
#     4  11  24  42  64  93 130 172 215 265 315 382
#     4  11  25  41  66  96 130 169 216 263 322 383
#     4  10  22  44  63  94 130 168 213 263 324 381
#     4  11  24  39  66  92 128 171 207 262 323 373
#     4  11  23  42  64  93 131 167 214 264 320 381
#     4  11  24  39  67  95 128 171 211 268 320 381
#     4  10  23  41  67  95 130 165 214 265 319 385
#
# _framework density 22.003948999999999
#
# number of rings (size 3 to 8) (size 9 to 14) (size 15 to 20)
#    0.000    1.250    1.250    4.125    1.750    6.000 
#    0.000    0.000    0.000    0.000    0.000    0.000 
#    0.000    0.000    0.000    0.000    0.000    0.000 
#
# Total GULP energy -198378.856032 kJ/mol
# GULP energy per Si atom -12398.678502 kJ/mol
# Density = 2.195387 g / cm^3
# Si number density = 22.003949 Si / 1000 Ang^3
#
#
#
# Elastic Constant Matrix: (Units=GPa)
#
#
# Indices 1 2 3 4 5 6 
#
# 1 108.2952 36.1552 20.8477 0.6257 -2.2937 4.1370
# 2 36.1552 131.7949 37.4098 -0.7281 8.6924 13.1075
# 3 20.8477 37.4098 92.9517 -1.1483 10.8040 1.5271
# 4 0.6257 -0.7281 -1.1483 22.8480 -3.9473 2.7963
# 5 -2.2937 8.6924 10.8040 -3.9473 36.6204 -3.8864
# 6 4.1370 13.1075 1.5271 2.7963 -3.8864 31.7817
#
#
#
# Elastic Compliance Matrix: (Units=1/GPa)
#
#
# Indices 1 2 3 4 5 6 
#
# 1 0.010409 -0.002537 -0.001511 -0.000149 0.001682 -0.000017
# 2 -0.002537 0.009645 -0.003024 0.000355 -0.001918 -0.003768
# 3 -0.001511 -0.003024 0.012663 -0.000004 -0.003064 0.000461
# 4 -0.000149 0.000355 -0.000004 0.044973 0.004379 -0.003548
# 5 0.001682 -0.001918 -0.003064 0.004379 0.029664 0.003961
# 6 -0.000017 -0.003768 0.000461 -0.003548 0.003961 0.033795
#
#
# Mechanical properties :
#
#
# Convention : Reuss Voigt Hill
#
# Bulk Modulus (GPa) = 53.83753 57.98524 55.91138
# Shear Modulus (GPa) = 30.96309 34.15863 32.56086
#
# Velocity S-wave (km/s) = 3.75528 3.94431 3.85096
# Velocity P-wave (km/s) = 6.58204 6.86679 6.72592
#
# Compressibility (1/GPa) = 0.01857440
#
# Stress axis : x y z
#
# Youngs Moduli (GPa) = 96.07187 103.68214 78.97321
#
# Poissons Ratio (x) = 0.26301 0.11930
# Poissons Ratio (y) = 0.24370 0.23878
# Poissons Ratio (z) = 0.14513 0.31349
#
# Static dielectric constant tensor:
#      x y z
#    x 4.223450 0.133350 0.199450 
#    y 0.133350 4.114520 -0.135490 
#    z 0.199450 -0.135490 3.819620 
# 
# 
# High freq. dielectric constant tensor:
#      x y z
#    x 1.882480 0.004690 0.011850 
#    y 0.004690 1.870180 -0.005950 
#    z 0.011850 -0.005950 1.850550 
# 
# From -- ./inp_files/402833.got.cif
#   From: 2010.06.25/outbox.cif.g09.slc.cpg/sg2_202_cif.got.tgz:402833.got - 2010.06.27 13:26:56.
