data_PCOD8021255
_publ_section_title
;
Structure prediction by ZEFSAII (Michael W. Deem and Ramdas Pophale) SiO2 
 PCOD8021255
Probable space group: P -1
;
_chemical_formula_sum "Si O2"
_cell_formula_units_Z 16
_cell_length_a 25.917141
_cell_length_b 8.761819
_cell_length_c 10.856236
_cell_angle_alpha 134.915887
_cell_angle_beta 146.506375
_cell_angle_gamma 32.681693
_cell_volume 734.523687
_symmetry_space_group_name_H-M "P -1"
_symmetry_group_IT_number 2
_symmetry_cell_setting 'triclinic'
loop_
_space_group_symop_operation_xyz
x,y,z
-x,-y,-z
loop_
_atom_site_type_symbol
_atom_site_label
_atom_site_fract_x
_atom_site_fract_y
_atom_site_fract_z
Si Si1 0.751891 0.615533 0.107940
Si Si2 0.055806 0.246522 0.770843
Si Si3 0.625978 0.392966 0.634919
Si Si4 0.214485 0.252072 0.478480
Si Si5 0.243392 0.593177 0.543526
Si Si6 0.713863 0.010778 0.043415
Si Si7 0.015215 0.960617 0.707876
Si Si8 0.456003 0.300034 0.606023
O O1 0.741998 0.746493 0.295729
O O2 0.889923 0.324638 0.187262
O O3 0.711522 0.846181 0.056582
O O4 0.667314 0.529028 0.882282
O O5 0.931860 0.575366 0.720802
O O6 0.030525 0.111018 0.538206
O O7 0.177568 0.212955 0.966670
O O8 0.079898 0.080831 0.851958
O O9 0.500000 0.500000 0.500000
O O10 0.609345 0.497737 0.523572
O O11 0.723223 0.055419 0.625408
O O12 0.254693 0.387345 0.548154
O O13 0.247225 0.812930 0.742573
O O14 0.355293 0.420615 0.577236
O O15 0.108230 0.787282 0.318615
O O16 0.577715 0.248531 0.855017
O O17 0.500000 0.000000 0.500000
#
# Coordination Sequence:
#
# PCOD8021255 Si02
#       8
#     2   2   2   2   2   2   2   2
#     4  11  23  42  67 100 129 169 216 266 328 373
#     4   8  17  37  65  94 126 166 210 261 321 379
#     4  12  28  45  65  96 131 171 220 269 316 385
#     4  10  23  45  70  97 130 168 218 268 317 384
#     4  10  22  43  69  95 126 173 215 260 324 387
#     4  11  22  39  66  96 126 173 213 261 326 381
#     4   8  17  37  65  95 125 163 214 263 313 382
#     4  12  25  45  59  90 138 168 213 267 321 386
#
# _framework density 21.782826
#
# number of rings (size 3 to 8) (size 9 to 14) (size 15 to 20)
#    0.000    1.750    1.250    4.125    3.500    6.000 
#    2.250    2.500    0.000    0.000    0.000    0.000 
#    0.000    0.000    0.000    0.000    0.000    0.000 
#
# Total GULP energy -198225.945764 kJ/mol
# GULP energy per Si atom -12389.121610 kJ/mol
# Density = 2.173325 g / cm^3
# Si number density = 21.782826 Si / 1000 Ang^3
#
#
#
# Elastic Constant Matrix: (Units=GPa)
#
#
# Indices 1 2 3 4 5 6 
#
# 1 74.8702 42.5326 37.4675 0.0832 30.7458 -27.6491
# 2 42.5326 135.3878 32.2571 15.7565 15.6041 -21.3779
# 3 37.4675 32.2571 66.2884 7.0081 18.3445 -16.9537
# 4 0.0832 15.7565 7.0081 41.0452 3.3634 6.1525
# 5 30.7458 15.6041 18.3445 3.3634 32.7103 -13.4277
# 6 -27.6491 -21.3779 -16.9537 6.1525 -13.4277 47.8743
#
#
#
# Elastic Compliance Matrix: (Units=1/GPa)
#
#
# Indices 1 2 3 4 5 6 
#
# 1 0.030770 -0.004812 -0.008316 0.003809 -0.019609 0.006687
# 2 -0.004812 0.009859 -0.001682 -0.003971 0.002038 0.002109
# 3 -0.008316 -0.001682 0.022189 -0.003199 -0.002692 0.001960
# 4 0.003809 -0.003971 -0.003199 0.027695 -0.005075 -0.005689
# 5 -0.019609 0.002038 -0.002692 -0.005075 0.051604 0.003758
# 6 0.006687 0.002109 0.001960 -0.005689 0.003758 0.028171
#
#
# Mechanical properties :
#
#
# Convention : Reuss Voigt Hill
#
# Bulk Modulus (GPa) = 30.12328 55.67341 42.89834
# Shear Modulus (GPa) = 23.69956 35.27859 29.48908
#
# Velocity S-wave (km/s) = 3.30205 4.02874 3.68336
# Velocity P-wave (km/s) = 5.32888 6.87422 6.15028
#
# Compressibility (1/GPa) = 0.03319692
#
# Stress axis : x y z
#
# Youngs Moduli (GPa) = 32.49960 101.42833 45.06799
#
# Poissons Ratio (x) = 0.48812 0.37477
# Poissons Ratio (y) = 0.15640 0.07581
# Poissons Ratio (z) = 0.27025 0.17062
#
# Static dielectric constant tensor:
#      x y z
#    x 4.005900 0.031260 0.090620 
#    y 0.031260 4.053490 -0.032540 
#    z 0.090620 -0.032540 3.884490 
# 
# 
# High freq. dielectric constant tensor:
#      x y z
#    x 1.851160 -0.003850 0.018220 
#    y -0.003850 1.874000 -0.009250 
#    z 0.018220 -0.009250 1.849830 
# 
# From -- ./inp_files/476415.got.cif
#   From: 2010.06.25/outbox.cif.g09.slc.cpg/sg2_239_cif.got.tgz:476415.got - 2010.06.27 13:26:56.
