data_PCOD8021582
_publ_section_title
;
Structure prediction by ZEFSAII (Michael W. Deem and Ramdas Pophale) SiO2 
 PCOD8021582
Probable space group: P -1
;
_chemical_formula_sum "Si O2"
_cell_formula_units_Z 16
_cell_length_a 13.595286
_cell_length_b 8.995978
_cell_length_c 9.227072
_cell_angle_alpha 88.881648
_cell_angle_beta 133.215467
_cell_angle_gamma 101.082907
_cell_volume 797.114800
_symmetry_space_group_name_H-M "P -1"
_symmetry_group_IT_number 2
_symmetry_cell_setting 'triclinic'
loop_
_space_group_symop_operation_xyz
x,y,z
-x,-y,-z
loop_
_atom_site_type_symbol
_atom_site_label
_atom_site_fract_x
_atom_site_fract_y
_atom_site_fract_z
Si Si1 0.077771 0.402797 0.987043
Si Si2 0.094552 0.915147 0.508631
Si Si3 0.380747 0.393949 0.287310
Si Si4 0.386471 0.545360 0.982340
Si Si5 0.621633 0.960514 0.715051
Si Si6 0.089487 0.416979 0.683228
Si Si7 0.105730 0.929794 0.195656
Si Si8 0.627565 0.102638 0.038578
O O1 0.226318 0.383553 0.199772
O O2 0.109858 0.488622 0.863711
O O3 0.000000 0.500000 0.000000
O O4 0.961859 0.247745 0.855241
O O5 0.137592 0.993800 0.392287
O O6 0.229394 0.898039 0.733680
O O7 0.982652 0.758378 0.372733
O O8 0.000000 0.000000 0.500000
O O9 0.500000 0.500000 0.500000
O O10 0.400265 0.222459 0.293513
O O11 0.400529 0.477575 0.153796
O O12 0.242002 0.452609 0.765052
O O13 0.395432 0.726588 0.995517
O O14 0.500000 0.500000 0.000000
O O15 0.500000 0.000000 0.500000
O O16 0.756498 0.040764 0.759670
O O17 0.631491 0.032819 0.883944
O O18 0.000000 0.500000 0.500000
O O19 0.000000 0.000000 0.000000
O O20 0.500000 0.000000 0.000000
#
# Coordination Sequence:
#
# PCOD8021582 Si02
#       8
#     2   2   2   2   2   2   2   2
#     4  10  24  40  68  96 132 173 217 273 329 399
#     4  11  25  42  69 100 134 178 221 278 334 401
#     4  11  25  46  66  97 135 175 226 273 338 399
#     4  11  25  44  69  96 135 177 221 277 335 400
#     4  12  26  45  71  98 138 178 226 284 333 408
#     4  10  22  44  64  96 132 168 222 268 334 394
#     4  11  23  44  67  99 135 173 224 274 338 395
#     4  12  26  45  70 100 135 178 229 279 341 403
#
# _framework density 20.072389000000001
#
# number of rings (size 3 to 8) (size 9 to 14) (size 15 to 20)
#    0.000    1.000    2.500    3.000   10.500    2.000 
#    0.000    0.000    0.000    0.000    0.000    0.000 
#    0.000    0.000    0.000    0.000    0.000    0.000 
#
# Total GULP energy -198283.408458 kJ/mol
# GULP energy per Si atom -12392.713029 kJ/mol
# Density = 2.002670 g / cm^3
# Si number density = 20.072389 Si / 1000 Ang^3
#
#
#
# Elastic Constant Matrix: (Units=GPa)
#
#
# Indices 1 2 3 4 5 6 
#
# 1 189.6570 74.1336 88.3527 -0.6776 9.2728 -10.5189
# 2 74.1336 139.2929 68.7867 -11.6702 0.3410 -10.4620
# 3 88.3527 68.7867 161.1894 -9.3591 7.8369 -9.8810
# 4 -0.6776 -11.6702 -9.3591 38.5635 0.6796 3.2439
# 5 9.2728 0.3410 7.8369 0.6796 40.6060 2.4603
# 6 -10.5189 -10.4620 -9.8810 3.2439 2.4603 41.5832
#
#
#
# Elastic Compliance Matrix: (Units=1/GPa)
#
#
# Indices 1 2 3 4 5 6 
#
# 1 0.007896 -0.002710 -0.003154 -0.001489 -0.001192 0.000753
# 2 -0.002710 0.010237 -0.002736 0.002285 0.000962 0.001005
# 3 -0.003154 -0.002736 0.009273 0.001330 -0.001110 0.000679
# 4 -0.001489 0.002285 0.001330 0.027057 -0.000293 -0.001579
# 5 -0.001192 0.000962 -0.001110 -0.000293 0.025219 -0.001793
# 6 0.000753 0.001005 0.000679 -0.001579 -0.001793 0.024882
#
#
# Mechanical properties :
#
#
# Convention : Reuss Voigt Hill
#
# Bulk Modulus (GPa) = 97.97554 105.85391 101.91473
# Shear Modulus (GPa) = 39.94721 41.40829 40.67775
#
# Velocity S-wave (km/s) = 4.46596 4.54690 4.50661
# Velocity P-wave (km/s) = 8.68965 8.96751 8.82968
#
# Compressibility (1/GPa) = 0.01020663
#
# Stress axis : x y z
#
# Youngs Moduli (GPa) = 126.64637 97.68525 107.84305
#
# Poissons Ratio (x) = 0.26475 0.34012
# Poissons Ratio (y) = 0.34324 0.29501
# Poissons Ratio (z) = 0.39942 0.26722
#
# Static dielectric constant tensor:
#      x y z
#    x 4.231400 0.327240 -0.236580 
#    y 0.327240 4.003030 -0.356730 
#    z -0.236580 -0.356730 4.066160 
# 
# 
# High freq. dielectric constant tensor:
#      x y z
#    x 1.802240 0.007200 0.007260 
#    y 0.007200 1.793290 -0.005440 
#    z 0.007260 -0.005440 1.801310 
# 
# From -- ./inp_files/187717.got.cif
#   From: 2010.06.25/outbox.cif.g09.slc.cpg/sg2_94_cif.got.tgz:187717.got - 2010.06.27 13:26:56.
