data_PCOD8021065
_publ_section_title
;
Structure prediction by ZEFSAII (Michael W. Deem and Ramdas Pophale) SiO2 
 PCOD8021065
Probable space group: P -1
;
_chemical_formula_sum "Si O2"
_cell_formula_units_Z 16
_cell_length_a 12.280172
_cell_length_b 16.404809
_cell_length_c 12.402110
_cell_angle_alpha 155.141944
_cell_angle_beta 76.654222
_cell_angle_gamma 120.123226
_cell_volume 714.520593
_symmetry_space_group_name_H-M "P -1"
_symmetry_group_IT_number 2
_symmetry_cell_setting 'triclinic'
loop_
_space_group_symop_operation_xyz
x,y,z
-x,-y,-z
loop_
_atom_site_type_symbol
_atom_site_label
_atom_site_fract_x
_atom_site_fract_y
_atom_site_fract_z
Si Si1 0.625300 0.035113 0.943690
Si Si2 0.813360 0.939978 0.880415
Si Si3 0.227510 0.308920 0.833159
Si Si4 0.021006 0.691752 0.135549
Si Si5 0.171109 0.573195 0.819902
Si Si6 0.894276 0.920865 0.064410
Si Si7 0.601272 0.533063 0.813302
Si Si8 0.654077 0.509949 0.209971
O O1 0.747895 0.076184 0.044825
O O2 0.529518 0.771591 0.572304
O O3 0.500000 0.000000 0.000000
O O4 0.737250 0.309617 0.174359
O O5 0.720731 0.688240 0.517322
O O6 0.004359 0.150633 0.067910
O O7 0.782693 0.836574 0.886531
O O8 0.265057 0.311461 0.703153
O O9 0.147085 0.422234 0.000263
O O10 0.118443 0.995919 0.525681
O O11 0.384218 0.501662 0.104952
O O12 0.110975 0.711047 0.034838
O O13 0.000000 0.500000 0.000000
O O14 0.299123 0.657125 0.982943
O O15 0.015036 0.244155 0.453530
O O16 0.776805 0.728866 0.958554
O O17 0.534387 0.670616 0.974962
#
# Coordination Sequence:
#
# PCOD8021065 Si02
#       8
#     2   2   2   2   2   2   2   2
#     4  11  27  43  65  96 141 176 214 282 353 402
#     4   9  22  42  65  91 132 172 221 268 343 396
#     4  11  24  42  70  98 138 181 229 275 339 407
#     4  11  22  41  68 102 134 180 228 284 336 398
#     4  11  24  44  66 101 136 175 228 279 344 403
#     4  10  23  42  71  97 123 177 232 278 323 410
#     4  11  25  43  68  98 134 176 228 272 338 407
#     4  10  22  43  67  93 138 182 215 276 348 398
#
# _framework density 22.392636
#
# number of rings (size 3 to 8) (size 9 to 14) (size 15 to 20)
#    0.000    1.500    1.250    2.625   14.000    2.500 
#    2.250    1.250    0.000    0.000    0.000    0.000 
#    0.000    0.000    0.000    0.000    0.000    0.000 
#
# Total GULP energy -198306.419659 kJ/mol
# GULP energy per Si atom -12394.151229 kJ/mol
# Density = 2.234167 g / cm^3
# Si number density = 22.392636 Si / 1000 Ang^3
#
#
#
# Elastic Constant Matrix: (Units=GPa)
#
#
# Indices 1 2 3 4 5 6 
#
# 1 182.0355 46.9016 33.0120 -14.0014 1.2237 -13.6825
# 2 46.9016 96.4314 15.1356 -2.8959 -0.5256 -6.9825
# 3 33.0120 15.1356 47.9904 -0.6126 -0.8632 -9.8195
# 4 -14.0014 -2.8959 -0.6126 34.9698 -4.0409 5.0781
# 5 1.2237 -0.5256 -0.8632 -4.0409 29.6802 -5.4213
# 6 -13.6825 -6.9825 -9.8195 5.0781 -5.4213 42.4911
#
#
#
# Elastic Compliance Matrix: (Units=1/GPa)
#
#
# Indices 1 2 3 4 5 6 
#
# 1 0.007144 -0.002743 -0.003883 0.002470 0.000000 0.000657
# 2 -0.002743 0.012030 -0.001746 -0.000199 0.000388 0.000763
# 3 -0.003883 -0.001746 0.025013 -0.001766 0.001464 0.004641
# 4 0.002470 -0.000199 -0.001766 0.030348 0.003458 -0.002831
# 5 0.000000 0.000388 0.001464 0.003458 0.035027 0.004458
# 6 0.000657 0.000763 0.004641 -0.002831 0.004458 0.025851
#
#
# Mechanical properties :
#
#
# Convention : Reuss Voigt Hill
#
# Bulk Modulus (GPa) = 36.44179 57.39508 46.91843
# Shear Modulus (GPa) = 30.99724 36.85543 33.92633
#
# Velocity S-wave (km/s) = 3.72460 4.06134 3.89661
# Velocity P-wave (km/s) = 5.89968 6.90503 6.42206
#
# Compressibility (1/GPa) = 0.02744102
#
# Stress axis : x y z
#
# Youngs Moduli (GPa) = 139.98220 83.12648 39.97973
#
# Poissons Ratio (x) = 0.22804 0.15524
# Poissons Ratio (y) = 0.38402 0.06982
# Poissons Ratio (z) = 0.54354 0.14517
#
# Static dielectric constant tensor:
#      x y z
#    x 4.899310 -0.011360 0.012410 
#    y -0.011360 3.987550 -0.160060 
#    z 0.012410 -0.160060 3.597300 
# 
# 
# High freq. dielectric constant tensor:
#      x y z
#    x 1.910130 0.000020 0.004670 
#    y 0.000020 1.887780 -0.012450 
#    z 0.004670 -0.012450 1.844410 
# 
# From -- ./inp_files/269691.got.cif
#   From: 2010.06.25/outbox.cif.g09.slc.cpg/sg2_135_cif.got.tgz:269691.got - 2010.06.27 13:26:56.
