data_PCOD8021058
_publ_section_title
;
Structure prediction by ZEFSAII (Michael W. Deem and Ramdas Pophale) SiO2 
 PCOD8021058
Probable space group: P -1
;
_chemical_formula_sum "Si O2"
_cell_formula_units_Z 14
_cell_length_a 8.622376
_cell_length_b 20.349543
_cell_length_c 17.287609
_cell_angle_alpha 20.674084
_cell_angle_beta 41.388732
_cell_angle_gamma 54.429853
_cell_volume 606.906192
_symmetry_space_group_name_H-M "P -1"
_symmetry_group_IT_number 2
_symmetry_cell_setting 'triclinic'
loop_
_space_group_symop_operation_xyz
x,y,z
-x,-y,-z
loop_
_atom_site_type_symbol
_atom_site_label
_atom_site_fract_x
_atom_site_fract_y
_atom_site_fract_z
Si Si1 0.683649 0.756728 0.650239
Si Si2 0.656763 0.197552 0.399898
Si Si3 0.728644 0.618429 0.417160
Si Si4 0.007242 0.623294 0.459696
Si Si5 0.745491 0.491635 0.174879
Si Si6 0.571342 0.769297 0.848860
Si Si7 0.796305 0.032893 0.863706
O O1 0.591723 0.848792 0.512032
O O2 0.643064 0.845470 0.649023
O O3 0.006458 0.844589 0.418545
O O4 0.500000 0.500000 0.000000
O O5 0.618936 0.259090 0.434145
O O6 0.662730 0.976478 0.641578
O O7 0.938488 0.404760 0.033353
O O8 0.953103 0.693160 0.319238
O O9 0.426671 0.531166 0.659713
O O10 0.741553 0.423128 0.584213
O O11 0.790685 0.808651 0.125005
O O12 0.072531 0.822581 0.269207
O O13 0.747784 0.403703 0.830506
O O14 0.744504 0.660410 0.928251
O O15 0.500000 0.000000 0.000000
#
# Coordination Sequence:
#
# PCOD8021058 Si02
#       7
#     2   2   2   2   2   2   2
#     4  12  23  44  66  88 132 171 214 259 314 382
#     4  11  23  39  67  95 126 170 214 260 324 371
#     4  10  23  41  66  93 130 169 214 256 334 374
#     4  10  22  43  67  93 127 170 214 272 306 393
#     4  10  23  40  64  98 130 161 209 280 306 382
#     4  11  22  41  67  94 125 166 222 256 320 375
#     4  12  27  42  65  97 131 171 211 267 324 382
#
# _framework density 23.067816000000001
#
# number of rings (size 3 to 8) (size 9 to 14) (size 15 to 20)
#    0.000    1.143    2.857    3.000    2.000    5.143 
#    0.000    0.000    0.000    0.000    0.000    0.000 
#    0.000    0.000    0.000    0.000    0.000    0.000 
#
# Total GULP energy -173617.860691 kJ/mol
# GULP energy per Si atom -12401.275764 kJ/mol
# Density = 2.301531 g / cm^3
# Si number density = 23.067816 Si / 1000 Ang^3
#
#
#
# Elastic Constant Matrix: (Units=GPa)
#
#
# Indices 1 2 3 4 5 6 
#
# 1 48.6050 13.6385 22.8570 4.5356 -1.1849 -6.3345
# 2 13.6385 106.9396 24.3419 6.8136 1.3847 -15.9056
# 3 22.8570 24.3419 75.4405 10.5426 3.0163 -12.4542
# 4 4.5356 6.8136 10.5426 54.7039 -3.1980 -4.6471
# 5 -1.1849 1.3847 3.0163 -3.1980 29.4909 2.4669
# 6 -6.3345 -15.9056 -12.4542 -4.6471 2.4669 27.1309
#
#
#
# Elastic Compliance Matrix: (Units=1/GPa)
#
#
# Indices 1 2 3 4 5 6 
#
# 1 0.024383 -0.001340 -0.006701 -0.000334 0.001555 0.001632
# 2 -0.001340 0.010799 -0.002155 -0.000439 -0.000809 0.005027
# 3 -0.006701 -0.002155 0.017208 -0.002225 -0.002581 0.004925
# 4 -0.000334 -0.000439 -0.002225 0.019063 0.002159 0.001712
# 5 0.001555 -0.000809 -0.002581 0.002159 0.034850 -0.004095
# 6 0.001632 0.005027 0.004925 0.001712 -0.004095 0.043113
#
#
# Mechanical properties :
#
#
# Convention : Reuss Voigt Hill
#
# Bulk Modulus (GPa) = 31.25239 39.18442 35.21840
# Shear Modulus (GPa) = 27.70474 33.60832 30.65653
#
# Velocity S-wave (km/s) = 3.46932 3.82112 3.64946
# Velocity P-wave (km/s) = 5.44295 6.04082 5.74966
#
# Compressibility (1/GPa) = 0.03199756
#
# Stress axis : x y z
#
# Youngs Moduli (GPa) = 41.01174 92.60472 58.11165
#
# Poissons Ratio (x) = 0.12413 0.38942
# Poissons Ratio (y) = 0.05497 0.12521
# Poissons Ratio (z) = 0.27483 0.19953
#
# Static dielectric constant tensor:
#      x y z
#    x 4.060590 -0.127880 -0.081510 
#    y -0.127880 4.452240 0.013230 
#    z -0.081510 0.013230 4.081610 
# 
# 
# High freq. dielectric constant tensor:
#      x y z
#    x 1.889490 -0.012930 -0.002700 
#    y -0.012930 1.933220 0.000790 
#    z -0.002700 0.000790 1.902650 
# 
# From -- ./inp_files/392941.got.cif
#   From: 2010.06.25/outbox.cif.g09.slc.cpg/sg2_197_cif.got.tgz:392941.got - 2010.06.27 13:26:56.
