data_PCOD8021109
_publ_section_title
;
Structure prediction by ZEFSAII (Michael W. Deem and Ramdas Pophale) SiO2 
 PCOD8021109
Probable space group: P -1
;
_chemical_formula_sum "Si O2"
_cell_formula_units_Z 16
_cell_length_a 14.712068
_cell_length_b 22.521693
_cell_length_c 9.053998
_cell_angle_alpha 50.259978
_cell_angle_beta 149.503197
_cell_angle_gamma 149.179981
_cell_volume 719.178714
_symmetry_space_group_name_H-M "P -1"
_symmetry_group_IT_number 2
_symmetry_cell_setting 'triclinic'
loop_
_space_group_symop_operation_xyz
x,y,z
-x,-y,-z
loop_
_atom_site_type_symbol
_atom_site_label
_atom_site_fract_x
_atom_site_fract_y
_atom_site_fract_z
Si Si1 0.192972 0.409531 0.297039
Si Si2 0.278479 0.480287 0.638905
Si Si3 0.767229 0.852426 0.586083
Si Si4 0.217733 0.882156 0.198767
Si Si5 0.765684 0.288080 0.442700
Si Si6 0.784845 0.859821 0.270892
Si Si7 0.805463 0.129702 0.153907
Si Si8 0.254046 0.645382 0.379464
O O1 0.500000 0.500000 0.500000
O O2 0.248104 0.434386 0.507717
O O3 0.932026 0.259204 0.140608
O O4 0.058681 0.444126 0.992702
O O5 0.379711 0.603408 0.582336
O O6 0.974543 0.383994 0.451301
O O7 0.500000 0.500000 0.000000
O O8 0.647300 0.794303 0.344461
O O9 0.503172 0.784682 0.433950
O O10 0.960249 0.992115 0.607932
O O11 0.944712 0.842095 0.927657
O O12 0.144870 0.767550 0.297531
O O13 0.500000 0.000000 0.500000
O O14 0.260736 0.915487 0.035071
O O15 0.787148 0.353331 0.506815
O O16 0.442350 0.184970 0.092776
O O17 0.934267 0.831652 0.469882
O O18 0.500000 0.000000 0.000000
#
# Coordination Sequence:
#
# PCOD8021109 Si02
#       8
#     2   2   2   2   2   2   2   2
#     4  12  28  48  75 104 143 188 238 292 355 423
#     4  12  29  47  72 100 141 183 240 292 356 417
#     4  10  22  43  67  99 136 185 230 280 351 417
#     4  11  23  43  70 102 146 180 227 291 354 420
#     4  12  25  44  68 103 139 180 233 291 351 418
#     4  10  23  39  69  99 138 178 229 286 348 417
#     4  11  26  45  72 104 142 182 235 286 350 422
#     4  12  26  46  72  97 139 186 238 287 350 421
#
# _framework density 22.247599999999998
#
# number of rings (size 3 to 8) (size 9 to 14) (size 15 to 20)
#    0.000    0.750    2.500    3.750    8.750    1.500 
#    0.000    0.000    0.000    0.000    0.000    0.000 
#    0.000    0.000    0.000    0.000    0.000    0.000 
#
# Total GULP energy -198320.997409 kJ/mol
# GULP energy per Si atom -12395.062338 kJ/mol
# Density = 2.219696 g / cm^3
# Si number density = 22.247600 Si / 1000 Ang^3
#
#
#
# Elastic Constant Matrix: (Units=GPa)
#
#
# Indices 1 2 3 4 5 6 
#
# 1 137.3466 35.2737 46.6696 11.7910 -2.2153 16.3925
# 2 35.2737 83.9996 26.0568 6.8260 7.3097 8.0187
# 3 46.6696 26.0568 126.7693 -15.9479 -2.1315 1.5819
# 4 11.7910 6.8260 -15.9479 37.4601 -3.7735 9.7333
# 5 -2.2153 7.3097 -2.1315 -3.7735 33.6661 1.6174
# 6 16.3925 8.0187 1.5819 9.7333 1.6174 43.2674
#
#
#
# Elastic Compliance Matrix: (Units=1/GPa)
#
#
# Indices 1 2 3 4 5 6 
#
# 1 0.009681 -0.002572 -0.003416 -0.003353 0.000716 -0.002339
# 2 -0.002572 0.014391 -0.002445 -0.003028 -0.003750 -0.000782
# 3 -0.003416 -0.002445 0.010452 0.006159 0.001662 -0.000083
# 4 -0.003353 -0.003028 0.006159 0.032965 0.004810 -0.005989
# 5 0.000716 -0.003750 0.001662 0.004810 0.031300 -0.001889
# 6 -0.002339 -0.000782 -0.000083 -0.005989 -0.001889 0.025564
#
#
# Mechanical properties :
#
#
# Convention : Reuss Voigt Hill
#
# Bulk Modulus (GPa) = 56.63446 62.67955 59.65700
# Shear Modulus (GPa) = 33.98945 38.88642 36.43793
#
# Velocity S-wave (km/s) = 3.91292 4.18532 4.05141
# Velocity P-wave (km/s) = 6.77690 7.18266 6.98273
#
# Compressibility (1/GPa) = 0.01765710
#
# Stress axis : x y z
#
# Youngs Moduli (GPa) = 103.29961 69.49013 95.67265
#
# Poissons Ratio (x) = 0.17874 0.32679
# Poissons Ratio (y) = 0.26570 0.23394
# Poissons Ratio (z) = 0.35285 0.16992
#
# Static dielectric constant tensor:
#      x y z
#    x 4.153090 -0.015590 0.158160 
#    y -0.015590 4.063730 -0.222070 
#    z 0.158160 -0.222070 4.184240 
# 
# 
# High freq. dielectric constant tensor:
#      x y z
#    x 1.877410 0.005170 0.009130 
#    y 0.005170 1.880470 -0.011550 
#    z 0.009130 -0.011550 1.894390 
# 
# From -- ./inp_files/320287.got.cif
#   From: 2010.06.25/outbox.cif.g09.slc.cpg/sg2_161_cif.got.tgz:320287.got - 2010.06.27 13:26:56.
