data_PCOD8021642
_publ_section_title
;
Structure prediction by ZEFSAII (Michael W. Deem and Ramdas Pophale) SiO2 
 PCOD8021642
Probable space group: P -1
;
_chemical_formula_sum "Si O2"
_cell_formula_units_Z 16
_cell_length_a 14.800465
_cell_length_b 11.658027
_cell_length_c 8.366099
_cell_angle_alpha 103.375391
_cell_angle_beta 128.312651
_cell_angle_gamma 43.505018
_cell_volume 713.200469
_symmetry_space_group_name_H-M "P -1"
_symmetry_group_IT_number 2
_symmetry_cell_setting 'triclinic'
loop_
_space_group_symop_operation_xyz
x,y,z
-x,-y,-z
loop_
_atom_site_type_symbol
_atom_site_label
_atom_site_fract_x
_atom_site_fract_y
_atom_site_fract_z
Si Si1 0.493579 0.255194 0.316043
Si Si2 0.520229 0.603707 0.329785
Si Si3 0.690434 0.663787 0.344602
Si Si4 0.167192 0.568556 0.862767
Si Si5 0.103644 0.338082 0.177940
Si Si6 0.423350 0.049676 0.256256
Si Si7 0.228763 0.806700 0.530792
Si Si8 0.839892 0.169890 0.170647
O O1 0.489629 0.293797 0.508349
O O2 0.449892 0.150911 0.221387
O O3 0.686881 0.134727 0.415254
O O4 0.349124 0.442794 0.119134
O O5 0.633508 0.576131 0.304006
O O6 0.634602 0.401137 0.448653
O O7 0.316137 0.739164 0.096460
O O8 0.806837 0.558240 0.277690
O O9 0.795639 0.653568 0.589203
O O10 0.508812 0.880489 0.185996
O O11 0.114602 0.728039 0.764338
O O12 0.011134 0.662883 0.846508
O O13 0.221070 0.175502 0.122402
O O14 0.000000 0.500000 0.000000
O O15 0.500000 0.000000 0.500000
O O16 0.230375 0.803132 0.721989
O O17 0.028279 0.952008 0.283877
#
# Coordination Sequence:
#
# PCOD8021642 Si02
#       8
#     2   2   2   2   2   2   2   2
#     4  12  24  44  72  97 142 186 227 291 348 420
#     4  12  22  47  70 101 141 182 233 287 355 407
#     4  11  24  43  71  97 138 190 225 285 352 414
#     4  12  24  44  71 100 141 188 231 286 357 412
#     4  11  22  45  66  99 137 177 230 288 342 410
#     4  10  22  44  65  98 135 181 226 283 342 409
#     4  11  25  45  67 104 136 182 236 284 354 412
#     4  11  26  45  70 102 143 182 228 298 345 421
#
# _framework density 22.434083000000001
#
# number of rings (size 3 to 8) (size 9 to 14) (size 15 to 20)
#    0.000    0.750    6.250    1.875    3.500    1.000 
#    4.500    0.000    0.000    0.000    0.000    0.000 
#    0.000    0.000    0.000    0.000    0.000    0.000 
#
# Total GULP energy -198284.528472 kJ/mol
# GULP energy per Si atom -12392.783029 kJ/mol
# Density = 2.238302 g / cm^3
# Si number density = 22.434083 Si / 1000 Ang^3
#
#
#
# Elastic Constant Matrix: (Units=GPa)
#
#
# Indices 1 2 3 4 5 6 
#
# 1 120.0587 22.0007 -8.9531 1.7031 0.2293 -13.9606
# 2 22.0007 95.8278 21.7493 -10.5625 -5.3268 -3.4038
# 3 -8.9531 21.7493 77.6888 -12.7618 -0.9503 -4.4362
# 4 1.7031 -10.5625 -12.7618 32.8754 0.0203 1.7676
# 5 0.2293 -5.3268 -0.9503 0.0203 30.1026 -6.6362
# 6 -13.9606 -3.4038 -4.4362 1.7676 -6.6362 23.8225
#
#
#
# Elastic Compliance Matrix: (Units=1/GPa)
#
#
# Indices 1 2 3 4 5 6 
#
# 1 0.009645 -0.002507 0.002027 -0.000840 0.000865 0.005975
# 2 -0.002507 0.012163 -0.003208 0.002789 0.002078 0.000043
# 3 0.002027 -0.003208 0.014939 0.004483 0.000625 0.003353
# 4 -0.000840 0.002789 0.004483 0.033186 0.000255 -0.001650
# 5 0.000865 0.002078 0.000625 0.000255 0.036010 0.010932
# 6 0.005975 0.000043 0.003353 -0.001650 0.010932 0.049277
#
#
# Mechanical properties :
#
#
# Convention : Reuss Voigt Hill
#
# Bulk Modulus (GPa) = 34.04624 40.35213 37.19918
# Shear Modulus (GPa) = 29.00458 34.61199 31.80828
#
# Velocity S-wave (km/s) = 3.59956 3.93215 3.76953
# Velocity P-wave (km/s) = 5.69955 6.21625 5.96350
#
# Compressibility (1/GPa) = 0.02937182
#
# Stress axis : x y z
#
# Youngs Moduli (GPa) = 103.68322 82.21362 66.93871
#
# Poissons Ratio (x) = 0.20608 -0.13568
# Poissons Ratio (y) = 0.25990 0.21474
# Poissons Ratio (z) = -0.21017 0.26375
#
# Static dielectric constant tensor:
#      x y z
#    x 4.140420 -0.108420 0.008700 
#    y -0.108420 4.390650 -0.432570 
#    z 0.008700 -0.432570 3.907970 
# 
# 
# High freq. dielectric constant tensor:
#      x y z
#    x 1.902680 -0.005770 -0.003960 
#    y -0.005770 1.881870 -0.019520 
#    z -0.003960 -0.019520 1.869790 
# 
# From -- ./inp_files/308189.got.cif
#   From: 2010.06.25/outbox.cif.g09.slc.cpg/sg2_155_cif.got.tgz:308189.got - 2010.06.27 13:26:56.
