data_PCOD8021575
_publ_section_title
;
Structure prediction by ZEFSAII (Michael W. Deem and Ramdas Pophale) SiO2 
 PCOD8021575
Probable space group: P -1
;
_chemical_formula_sum "Si O2"
_cell_formula_units_Z 16
_cell_length_a 18.566645
_cell_length_b 9.732473
_cell_length_c 8.420421
_cell_angle_alpha 85.926369
_cell_angle_beta 90.498089
_cell_angle_gamma 149.063886
_cell_volume 776.173549
_symmetry_space_group_name_H-M "P -1"
_symmetry_group_IT_number 2
_symmetry_cell_setting 'triclinic'
loop_
_space_group_symop_operation_xyz
x,y,z
-x,-y,-z
loop_
_atom_site_type_symbol
_atom_site_label
_atom_site_fract_x
_atom_site_fract_y
_atom_site_fract_z
Si Si1 0.423008 0.254194 0.932006
Si Si2 0.865743 0.165661 0.168610
Si Si3 0.104140 0.480316 0.920931
Si Si4 0.626684 0.114159 0.548554
Si Si5 0.480401 0.621413 0.431342
Si Si6 0.096233 0.298851 0.639938
Si Si7 0.834547 0.883466 0.443048
Si Si8 0.386862 0.914214 0.080183
O O1 0.478552 0.301154 0.757370
O O2 0.262499 0.040907 0.939913
O O3 0.500000 0.500000 0.000000
O O4 0.447197 0.167014 0.057369
O O5 0.900108 0.382485 0.189995
O O6 0.825358 0.010784 0.334729
O O7 0.996014 0.304951 0.077975
O O8 0.063619 0.290528 0.818839
O O9 0.253330 0.689136 0.981608
O O10 0.772725 0.396854 0.446994
O O11 0.648968 0.176244 0.730973
O O12 0.500000 0.000000 0.500000
O O13 0.583911 0.888447 0.516256
O O14 0.500000 0.500000 0.500000
O O15 0.317078 0.396663 0.459303
O O16 0.128792 0.189734 0.656148
O O17 0.955197 0.100732 0.557287
O O18 0.500000 0.000000 0.000000
#
# Coordination Sequence:
#
# PCOD8021575 Si02
#       8
#     2   2   2   2   2   2   2   2
#     4  11  24  41  63  95 133 169 217 269 330 390
#     4  10  22  44  64  93 133 171 219 275 324 395
#     4  10  23  44  67  95 131 174 220 271 332 396
#     4  12  23  44  69  95 132 177 221 268 328 403
#     4  12  24  43  69  99 134 176 221 278 332 391
#     4  11  25  43  67  97 133 177 222 274 331 396
#     4  11  25  43  65  99 136 171 224 276 328 392
#     4  11  24  40  66  96 128 170 219 270 325 390
#
# _framework density 20.613945000000001
#
# number of rings (size 3 to 8) (size 9 to 14) (size 15 to 20)
#    0.000    1.000    2.500    4.500    1.750    1.000 
#    2.250    0.000    0.000    0.000    0.000    0.000 
#    0.000    0.000    0.000    0.000    0.000    0.000 
#
# Total GULP energy -198407.453464 kJ/mol
# GULP energy per Si atom -12400.465841 kJ/mol
# Density = 2.056703 g / cm^3
# Si number density = 20.613945 Si / 1000 Ang^3
#
#
#
# Elastic Constant Matrix: (Units=GPa)
#
#
# Indices 1 2 3 4 5 6 
#
# 1 103.7760 31.8318 25.8532 15.0361 0.9672 8.0581
# 2 31.8318 102.3211 13.6584 12.9762 -7.7675 5.6286
# 3 25.8532 13.6584 78.2801 11.6852 -6.4834 -4.1873
# 4 15.0361 12.9762 11.6852 33.8236 -9.2588 -9.9904
# 5 0.9672 -7.7675 -6.4834 -9.2588 35.5942 -5.6774
# 6 8.0581 5.6286 -4.1873 -9.9904 -5.6774 36.2592
#
#
#
# Elastic Compliance Matrix: (Units=1/GPa)
#
#
# Indices 1 2 3 4 5 6 
#
# 1 0.012605 -0.002737 -0.003391 -0.005930 -0.003900 -0.005013
# 2 -0.002737 0.011300 -0.000595 -0.003099 0.001329 -0.001860
# 3 -0.003391 -0.000595 0.014621 -0.001920 0.002509 0.002398
# 4 -0.005930 -0.003099 -0.001920 0.041911 0.012441 0.015073
# 5 -0.003900 0.001329 0.002509 0.012441 0.033724 0.009658
# 6 -0.005013 -0.001860 0.002398 0.015073 0.009658 0.034924
#
#
# Mechanical properties :
#
#
# Convention : Reuss Voigt Hill
#
# Bulk Modulus (GPa) = 39.87146 47.45155 43.66151
# Shear Modulus (GPa) = 29.25810 35.33765 32.29788
#
# Velocity S-wave (km/s) = 3.77149 4.14485 3.96257
# Velocity P-wave (km/s) = 6.19270 6.78053 6.49327
#
# Compressibility (1/GPa) = 0.02508059
#
# Stress axis : x y z
#
# Youngs Moduli (GPa) = 79.33146 88.49387 68.39392
#
# Poissons Ratio (x) = 0.24221 0.23195
# Poissons Ratio (y) = 0.21713 0.04067
# Poissons Ratio (z) = 0.26905 0.05262
#
# Static dielectric constant tensor:
#      x y z
#    x 3.971390 0.084120 0.057510 
#    y 0.084120 3.843110 -0.123570 
#    z 0.057510 -0.123570 3.764370 
# 
# 
# High freq. dielectric constant tensor:
#      x y z
#    x 1.825080 0.002030 -0.003370 
#    y 0.002030 1.819700 -0.002530 
#    z -0.003370 -0.002530 1.800370 
# 
# From -- ./inp_files/207805.got.cif
#   From: 2010.06.25/outbox.cif.g09.slc.cpg/sg2_104_cif.got.tgz:207805.got - 2010.06.27 13:26:56.
