data_PCOD8021961
_publ_section_title
;
Structure prediction by ZEFSAII (Michael W. Deem and Ramdas Pophale) SiO2 
 PCOD8021961
Probable space group: P -1
;
_chemical_formula_sum "Si O2"
_cell_formula_units_Z 14
_cell_length_a 5.341532
_cell_length_b 19.839157
_cell_length_c 8.422429
_cell_angle_alpha 43.507795
_cell_angle_beta 77.985274
_cell_angle_gamma 65.739091
_cell_volume 554.432949
_symmetry_space_group_name_H-M "P -1"
_symmetry_group_IT_number 2
_symmetry_cell_setting 'triclinic'
loop_
_space_group_symop_operation_xyz
x,y,z
-x,-y,-z
loop_
_atom_site_type_symbol
_atom_site_label
_atom_site_fract_x
_atom_site_fract_y
_atom_site_fract_z
Si Si1 0.264491 0.486127 0.882132
Si Si2 0.843149 0.609103 0.249778
Si Si3 0.142230 0.918007 0.479428
Si Si4 0.572436 0.001645 0.302245
Si Si5 0.940890 0.276643 0.509016
Si Si6 0.458468 0.216961 0.773072
Si Si7 0.807566 0.306495 0.136654
O O1 0.238726 0.600745 0.626621
O O2 0.296952 0.409782 0.857954
O O3 0.552973 0.412799 0.056104
O O4 0.000000 0.500000 0.000000
O O5 0.000000 0.500000 0.500000
O O6 0.615947 0.682824 0.273564
O O7 0.055066 0.665191 0.083166
O O8 0.262465 0.795238 0.729918
O O9 0.398327 0.943482 0.330684
O O10 0.000000 0.000000 0.500000
O O11 0.902854 0.937565 0.343950
O O12 0.500000 0.000000 0.500000
O O13 0.487912 0.118484 0.047362
O O14 0.748669 0.207679 0.671523
O O15 0.015331 0.274423 0.315804
O O16 0.224863 0.230154 0.649312
#
# Coordination Sequence:
#
# PCOD8021961 Si02
#       7
#     2   2   2   2   2   2   2
#     4  12  26  47  73 108 157 198 247 296 370 452
#     4  12  26  43  73 111 148 194 252 304 367 439
#     4  10  23  43  72 107 139 182 251 303 355 433
#     4  10  22  44  71 102 144 181 235 311 367 418
#     4  12  27  49  70 109 155 198 245 299 371 450
#     4  12  27  47  76 110 151 192 247 315 364 433
#     4  12  28  45  79 103 150 208 243 298 383 439
#
# _framework density 25.251024000000001
#
# number of rings (size 3 to 8) (size 9 to 14) (size 15 to 20)
#    0.000    0.571    2.857    4.714    8.000    1.143 
#    0.000    4.286    0.000    0.000    0.000    0.000 
#    0.000    0.000    0.000    0.000    0.000    0.000 
#
# Total GULP energy -173574.115973 kJ/mol
# GULP energy per Si atom -12398.151141 kJ/mol
# Density = 2.519355 g / cm^3
# Si number density = 25.251024 Si / 1000 Ang^3
#
#
#
# Elastic Constant Matrix: (Units=GPa)
#
#
# Indices 1 2 3 4 5 6 
#
# 1 165.5173 1.8566 50.6219 3.0863 -9.2338 1.7848
# 2 1.8566 51.3719 27.9930 -7.1395 -0.4965 -8.3031
# 3 50.6219 27.9930 178.0973 -18.5953 -10.3062 2.6313
# 4 3.0863 -7.1395 -18.5953 50.9315 6.2818 -2.7277
# 5 -9.2338 -0.4965 -10.3062 6.2818 44.8272 -5.8701
# 6 1.7848 -8.3031 2.6313 -2.7277 -5.8701 24.7333
#
#
#
# Elastic Compliance Matrix: (Units=1/GPa)
#
#
# Indices 1 2 3 4 5 6 
#
# 1 0.006759 0.000766 -0.002105 -0.001200 0.001101 0.000122
# 2 0.000766 0.023149 -0.003726 0.002247 0.000348 0.008443
# 3 -0.002105 -0.003726 0.007071 0.002025 0.000675 -0.001468
# 4 -0.001200 0.002247 0.002025 0.021187 -0.002413 0.002390
# 5 0.001101 0.000348 0.000675 -0.002413 0.023730 0.005332
# 6 0.000122 0.008443 -0.001468 0.002390 0.005332 0.044942
#
#
# Mechanical properties :
#
#
# Convention : Reuss Voigt Hill
#
# Bulk Modulus (GPa) = 37.24456 61.76996 49.50726
# Shear Modulus (GPa) = 34.26583 45.06606 39.66594
#
# Velocity S-wave (km/s) = 3.68775 4.22918 3.96771
# Velocity P-wave (km/s) = 5.73711 6.95438 6.37487
#
# Compressibility (1/GPa) = 0.02684956
#
# Stress axis : x y z
#
# Youngs Moduli (GPa) = 147.94260 43.19843 141.41998
#
# Poissons Ratio (x) = -0.03311 0.29771
# Poissons Ratio (y) = -0.11339 0.52698
# Poissons Ratio (z) = 0.31144 0.16097
#
# Static dielectric constant tensor:
#      x y z
#    x 5.845060 -0.085450 -0.338860 
#    y -0.085450 4.626340 0.006080 
#    z -0.338860 0.006080 4.897470 
# 
# 
# High freq. dielectric constant tensor:
#      x y z
#    x 2.017030 0.009130 -0.002600 
#    y 0.009130 2.006640 -0.017720 
#    z -0.002600 -0.017720 2.015110 
# 
# From -- ./inp_files/53020.got.cif
#   From: 2010.06.25/outbox.cif.g09.slc.cpg/sg2_27_cif.got.tgz:53020.got - 2010.06.27 13:26:56.
