data_PCOD8021656
_publ_section_title
;
Structure prediction by ZEFSAII (Michael W. Deem and Ramdas Pophale) SiO2 
 PCOD8021656
Probable space group: P -1
;
_chemical_formula_sum "Si O2"
_cell_formula_units_Z 14
_cell_length_a 7.884616
_cell_length_b 8.098999
_cell_length_c 11.002883
_cell_angle_alpha 92.881590
_cell_angle_beta 86.592198
_cell_angle_gamma 58.509901
_cell_volume 595.347494
_symmetry_space_group_name_H-M "P -1"
_symmetry_group_IT_number 2
_symmetry_cell_setting 'triclinic'
loop_
_space_group_symop_operation_xyz
x,y,z
-x,-y,-z
loop_
_atom_site_type_symbol
_atom_site_label
_atom_site_fract_x
_atom_site_fract_y
_atom_site_fract_z
Si Si1 0.520301 0.877599 0.877104
Si Si2 0.651121 0.093907 0.735143
Si Si3 0.859808 0.452224 0.660340
Si Si4 0.460046 0.502870 0.641532
Si Si5 0.864397 0.470162 0.915229
Si Si6 0.219982 0.829722 0.010055
Si Si7 0.019170 0.729745 0.603103
O O1 0.728457 0.678595 0.868999
O O2 0.523320 0.990432 0.759949
O O3 0.344288 0.831424 0.888465
O O4 0.500000 0.000000 0.000000
O O5 0.511680 0.290357 0.674550
O O6 0.701635 0.140601 0.865928
O O7 0.857275 0.954371 0.648166
O O8 0.615799 0.554380 0.697606
O O9 0.965421 0.344892 0.781500
O O10 0.914768 0.609503 0.630491
O O11 0.929281 0.292122 0.544424
O O12 0.500000 0.500000 0.500000
O O13 0.220078 0.654231 0.674448
O O14 0.759771 0.379831 0.994494
O O15 0.000000 0.500000 0.000000
O O16 0.000000 0.000000 0.000000
#
# Coordination Sequence:
#
# PCOD8021656 Si02
#       7
#     2   2   2   2   2   2   2
#     4  10  23  43  65  98 140 178 238 296 346 431
#     4  11  22  46  70 102 147 182 239 301 352 435
#     4  10  22  44  66 104 141 179 245 287 353 437
#     4  10  23  44  69 102 141 186 242 292 359 424
#     4  12  23  43  71  96 143 190 228 298 362 416
#     4  11  25  43  65 106 139 182 244 288 359 433
#     4  10  23  44  75  99 145 187 232 300 359 427
#
# _framework density 23.515678999999999
#
# number of rings (size 3 to 8) (size 9 to 14) (size 15 to 20)
#    0.000    1.429    2.857    2.143    0.000    6.857 
#    0.000    6.429    3.143    0.000    0.000    0.000 
#    0.000    0.000    0.000    0.000    0.000    0.000 
#
# Total GULP energy -173434.795636 kJ/mol
# GULP energy per Si atom -12388.199688 kJ/mol
# Density = 2.346216 g / cm^3
# Si number density = 23.515679 Si / 1000 Ang^3
#
#
#
# Elastic Constant Matrix: (Units=GPa)
#
#
# Indices 1 2 3 4 5 6 
#
# 1 145.2334 30.1834 66.0990 -3.1176 -10.8841 9.8106
# 2 30.1834 65.2809 33.9548 -14.4465 -9.6774 -8.6649
# 3 66.0990 33.9548 122.2990 -16.5647 -1.6606 -3.2751
# 4 -3.1176 -14.4465 -16.5647 39.9041 6.5981 -10.1158
# 5 -10.8841 -9.6774 -1.6606 6.5981 38.6612 -1.9889
# 6 9.8106 -8.6649 -3.2751 -10.1158 -1.9889 39.4203
#
#
#
# Elastic Compliance Matrix: (Units=1/GPa)
#
#
# Indices 1 2 3 4 5 6 
#
# 1 0.010412 -0.003201 -0.005396 -0.004167 0.002368 -0.004693
# 2 -0.003201 0.021522 -0.002968 0.007619 0.003439 0.007409
# 3 -0.005396 -0.002968 0.012621 0.004867 -0.002403 0.002867
# 4 -0.004167 0.007619 0.004867 0.033083 -0.004117 0.011398
# 5 0.002368 0.003439 -0.002403 -0.004117 0.028009 0.000324
# 6 -0.004693 0.007409 0.002867 0.011398 0.000324 0.031344
#
#
# Mechanical properties :
#
#
# Convention : Reuss Voigt Hill
#
# Bulk Modulus (GPa) = 46.67896 65.92087 56.29992
# Shear Modulus (GPa) = 29.89316 37.10220 33.49768
#
# Velocity S-wave (km/s) = 3.56926 3.97642 3.77833
# Velocity P-wave (km/s) = 6.07284 7.01257 6.55955
#
# Compressibility (1/GPa) = 0.02142293
#
# Stress axis : x y z
#
# Youngs Moduli (GPa) = 96.04497 46.46487 79.23515
#
# Poissons Ratio (x) = 0.14874 0.42758
# Poissons Ratio (y) = 0.30745 0.23517
# Poissons Ratio (z) = 0.51830 0.13791
#
# Static dielectric constant tensor:
#      x y z
#    x 4.937950 0.166120 -0.595630 
#    y 0.166120 4.263990 0.399390 
#    z -0.595630 0.399390 3.887130 
# 
# 
# High freq. dielectric constant tensor:
#      x y z
#    x 1.944860 0.012710 -0.015530 
#    y 0.012710 1.914700 0.004770 
#    z -0.015530 0.004770 1.940570 
# 
# From -- ./inp_files/241033.got.cif
#   From: 2010.06.25/outbox.cif.g09.slc.cpg/sg2_121_cif.got.tgz:241033.got - 2010.06.27 13:26:56.
