data_PCOD8021610
_publ_section_title
;
Structure prediction by ZEFSAII (Michael W. Deem and Ramdas Pophale) SiO2 
 PCOD8021610
Probable space group: P -1
;
_chemical_formula_sum "Si O2"
_cell_formula_units_Z 12
_cell_length_a 9.228244
_cell_length_b 14.315788
_cell_length_c 8.087523
_cell_angle_alpha 31.489053
_cell_angle_beta 99.759238
_cell_angle_gamma 104.367301
_cell_volume 538.756386
_symmetry_space_group_name_H-M "P -1"
_symmetry_group_IT_number 2
_symmetry_cell_setting 'triclinic'
loop_
_space_group_symop_operation_xyz
x,y,z
-x,-y,-z
loop_
_atom_site_type_symbol
_atom_site_label
_atom_site_fract_x
_atom_site_fract_y
_atom_site_fract_z
Si Si1 0.415349 0.454835 0.221013
Si Si2 0.675403 0.649030 0.209959
Si Si3 0.142810 0.512605 0.232746
Si Si4 0.629866 0.915477 0.076522
Si Si5 0.927541 0.164435 0.786957
Si Si6 0.973784 0.804686 0.872320
O O1 0.530067 0.520007 0.296605
O O2 0.268753 0.548078 0.058180
O O3 0.346217 0.238601 0.553731
O O4 0.500000 0.500000 0.000000
O O5 0.763660 0.528833 0.524229
O O6 0.619093 0.814193 0.047967
O O7 0.794006 0.730937 0.964909
O O8 0.006735 0.340768 0.432158
O O9 0.061412 0.682318 0.963272
O O10 0.500000 0.000000 0.000000
O O11 0.754230 0.100400 0.808114
O O12 0.947146 0.199550 0.930993
O O13 0.000000 0.000000 0.000000
O O14 0.000000 0.000000 0.500000
#
# Coordination Sequence:
#
# PCOD8021610 Si02
#       6
#     2   2   2   2   2   2
#     4  11  25  43  63  98 133 166 209 268 329 374
#     4  10  22  44  65  91 132 170 215 256 319 388
#     4  10  22  44  68  91 127 177 213 260 314 388
#     4  11  24  39  67  99 125 172 215 258 311 392
#     4  11  20  42  67  93 128 166 224 254 308 390
#     4  11  25  40  66  96 130 168 210 274 322 369
#
# _framework density 22.273517999999999
#
# number of rings (size 3 to 8) (size 9 to 14) (size 15 to 20)
#    0.000    1.333    5.000    4.000    9.333    1.333 
#    0.000    3.333    0.000    0.000    0.000    0.000 
#    0.000    0.000    0.000    0.000    0.000    0.000 
#
# Total GULP energy -148661.031910 kJ/mol
# GULP energy per Si atom -12388.419326 kJ/mol
# Density = 2.222282 g / cm^3
# Si number density = 22.273518 Si / 1000 Ang^3
#
#
#
# Elastic Constant Matrix: (Units=GPa)
#
#
# Indices 1 2 3 4 5 6 
#
# 1 186.1846 52.0645 63.7429 -24.6666 -18.1532 -40.0367
# 2 52.0645 73.3045 27.9799 -13.8455 -7.3725 -14.7284
# 3 63.7429 27.9799 105.8387 -22.4068 -17.4521 -19.9231
# 4 -24.6666 -13.8455 -22.4068 33.8965 -8.8209 -6.4230
# 5 -18.1532 -7.3725 -17.4521 -8.8209 44.6655 -11.1709
# 6 -40.0367 -14.7284 -19.9231 -6.4230 -11.1709 54.6548
#
#
#
# Elastic Compliance Matrix: (Units=1/GPa)
#
#
# Indices 1 2 3 4 5 6 
#
# 1 0.010456 -0.002580 -0.000200 0.010430 0.008258 0.009805
# 2 -0.002580 0.018438 0.000121 0.007962 0.004879 0.005056
# 3 -0.000200 0.000121 0.017083 0.016464 0.012518 0.010607
# 4 0.010430 0.007962 0.016464 0.065367 0.032422 0.030096
# 5 0.008258 0.004879 0.012518 0.032422 0.044031 0.024737
# 6 0.009805 0.005056 0.010607 0.030096 0.024737 0.039301
#
#
# Mechanical properties :
#
#
# Convention : Reuss Voigt Hill
#
# Bulk Modulus (GPa) = 24.59402 72.54474 48.56938
# Shear Modulus (GPa) = 23.41414 41.41272 32.41343
#
# Velocity S-wave (km/s) = 3.24575 4.31662 3.81891
# Velocity P-wave (km/s) = 5.01122 7.58188 6.42640
#
# Compressibility (1/GPa) = 0.04066029
#
# Stress axis : x y z
#
# Youngs Moduli (GPa) = 95.63603 54.23544 58.53830
#
# Poissons Ratio (x) = 0.13991 0.01171
# Poissons Ratio (y) = 0.24671 -0.00710
# Poissons Ratio (z) = 0.01913 -0.00657
#
# Static dielectric constant tensor:
#      x y z
#    x 4.404510 -0.287040 -0.394690 
#    y -0.287040 3.970400 -0.189040 
#    z -0.394690 -0.189040 3.991450 
# 
# 
# High freq. dielectric constant tensor:
#      x y z
#    x 1.898470 -0.021330 -0.027860 
#    y -0.021330 1.865410 -0.018050 
#    z -0.027860 -0.018050 1.867150 
# 
# From -- ./inp_files/147603.got.cif
#   From: 2010.06.25/outbox.cif.g09.slc.cpg/sg2_74_cif.got.tgz:147603.got - 2010.06.27 13:26:56.
