data_PCOD8021876
_publ_section_title
;
Structure prediction by ZEFSAII (Michael W. Deem and Ramdas Pophale) SiO2 
 PCOD8021876
Probable space group: P -1
;
_chemical_formula_sum "Si O2"
_cell_formula_units_Z 16
_cell_length_a 16.687326
_cell_length_b 8.906022
_cell_length_c 8.500786
_cell_angle_alpha 47.609233
_cell_angle_beta 112.203769
_cell_angle_gamma 126.296718
_cell_volume 751.548441
_symmetry_space_group_name_H-M "P -1"
_symmetry_group_IT_number 2
_symmetry_cell_setting 'triclinic'
loop_
_space_group_symop_operation_xyz
x,y,z
-x,-y,-z
loop_
_atom_site_type_symbol
_atom_site_label
_atom_site_fract_x
_atom_site_fract_y
_atom_site_fract_z
Si Si1 0.397436 0.739655 0.901735
Si Si2 0.722591 0.027962 0.261342
Si Si3 0.257928 0.139168 0.931631
Si Si4 0.103329 0.646258 0.621077
Si Si5 0.586054 0.888134 0.728635
Si Si6 0.054640 0.850510 0.166124
Si Si7 0.421222 0.390692 0.379249
Si Si8 0.733630 0.406948 0.369894
O O1 0.371040 0.926171 0.827303
O O2 0.491238 0.864032 0.766784
O O3 0.301663 0.567425 0.849302
O O4 0.415307 0.605196 0.149275
O O5 0.826129 0.222715 0.273220
O O6 0.742360 0.016825 0.101782
O O7 0.686189 0.786976 0.499967
O O8 0.257424 0.366221 0.695524
O O9 0.357383 0.218581 0.052710
O O10 0.161957 0.985267 0.072748
O O11 0.067000 0.809049 0.390239
O O12 0.160204 0.579175 0.576718
O O13 0.010594 0.404137 0.784286
O O14 0.552025 0.746017 0.638929
O O15 0.657146 0.163825 0.564474
O O16 0.000000 0.000000 0.000000
O O17 0.500000 0.500000 0.500000
#
# Coordination Sequence:
#
# PCOD8021876 Si02
#       8
#     2   2   2   2   2   2   2   2
#     4  11  25  43  66  92 131 190 221 266 333 382
#     4  11  27  45  62 101 143 171 223 281 325 389
#     4  12  25  42  70 100 132 178 222 272 338 393
#     4  10  22  44  69  98 132 165 219 280 331 394
#     4  12  24  44  67  96 137 180 229 273 322 400
#     4  11  22  42  75 100 124 172 223 267 337 409
#     4  12  25  40  62  97 134 175 229 278 319 383
#     4  11  22  41  70  95 127 176 225 266 326 395
#
# _framework density 21.289377999999999
#
# number of rings (size 3 to 8) (size 9 to 14) (size 15 to 20)
#    0.000    0.750    6.250    1.500    1.750    3.500 
#    0.000    0.625    0.000    0.000    0.000    0.000 
#    0.000    0.000    0.000    0.000    0.000    0.000 
#
# Total GULP energy -198378.699282 kJ/mol
# GULP energy per Si atom -12398.668705 kJ/mol
# Density = 2.124092 g / cm^3
# Si number density = 21.289378 Si / 1000 Ang^3
#
#
#
# Elastic Constant Matrix: (Units=GPa)
#
#
# Indices 1 2 3 4 5 6 
#
# 1 79.3582 27.9462 11.5468 6.5168 9.8225 -7.4960
# 2 27.9462 99.9452 26.7362 0.5653 0.0295 -3.2999
# 3 11.5468 26.7362 93.1563 -3.8897 14.6865 -8.9800
# 4 6.5168 0.5653 -3.8897 36.1156 3.7232 -1.9153
# 5 9.8225 0.0295 14.6865 3.7232 30.3630 0.6566
# 6 -7.4960 -3.2999 -8.9800 -1.9153 0.6566 30.6556
#
#
#
# Elastic Compliance Matrix: (Units=1/GPa)
#
#
# Indices 1 2 3 4 5 6 
#
# 1 0.015106 -0.004192 0.000340 -0.001944 -0.004881 0.003325
# 2 -0.004192 0.012094 -0.003526 -0.000175 0.003090 -0.000833
# 3 0.000340 -0.003526 0.013263 0.002339 -0.006892 0.003882
# 4 -0.001944 -0.000175 0.002339 0.028825 -0.004082 0.002079
# 5 -0.004881 0.003090 -0.006892 -0.004082 0.038431 -0.003958
# 6 0.003325 -0.000833 0.003882 0.002079 -0.003958 0.034696
#
#
# Mechanical properties :
#
#
# Convention : Reuss Voigt Hill
#
# Bulk Modulus (GPa) = 38.90306 44.99089 41.94697
# Shear Modulus (GPa) = 30.16771 33.17554 31.67162
#
# Velocity S-wave (km/s) = 3.76843 3.95183 3.86122
# Velocity P-wave (km/s) = 6.10311 6.48086 6.29482
#
# Compressibility (1/GPa) = 0.02570492
#
# Stress axis : x y z
#
# Youngs Moduli (GPa) = 66.19947 82.68874 75.39741
#
# Poissons Ratio (x) = 0.34667 -0.02561
# Poissons Ratio (y) = 0.27754 0.26585
# Poissons Ratio (z) = -0.02248 0.29156
#
# Static dielectric constant tensor:
#      x y z
#    x 3.990350 0.103420 0.213210 
#    y 0.103420 3.846830 -0.111350 
#    z 0.213210 -0.111350 4.029730 
# 
# 
# High freq. dielectric constant tensor:
#      x y z
#    x 1.829930 0.012650 0.012250 
#    y 0.012650 1.830490 -0.013250 
#    z 0.012250 -0.013250 1.846380 
# 
# From -- ./inp_files/328468.got.cif
#   From: 2010.06.25/outbox.cif.g09.slc.cpg/sg2_165_cif.got.tgz:328468.got - 2010.06.27 13:26:56.
