data_PCOD8021691
_publ_section_title
;
Structure prediction by ZEFSAII (Michael W. Deem and Ramdas Pophale) SiO2 
 PCOD8021691
Probable space group: P -1
;
_chemical_formula_sum "Si O2"
_cell_formula_units_Z 14
_cell_length_a 8.599123
_cell_length_b 13.346702
_cell_length_c 12.234503
_cell_angle_alpha 148.217481
_cell_angle_beta 115.171936
_cell_angle_gamma 83.415806
_cell_volume 572.552951
_symmetry_space_group_name_H-M "P -1"
_symmetry_group_IT_number 2
_symmetry_cell_setting 'triclinic'
loop_
_space_group_symop_operation_xyz
x,y,z
-x,-y,-z
loop_
_atom_site_type_symbol
_atom_site_label
_atom_site_fract_x
_atom_site_fract_y
_atom_site_fract_z
Si Si1 0.298206 0.098508 0.982149
Si Si2 0.302162 0.910846 0.240942
Si Si3 0.724278 0.010569 0.382241
Si Si4 0.981090 0.808657 0.890360
Si Si5 0.292569 0.277148 0.710432
Si Si6 0.995991 0.558719 0.226648
Si Si7 0.251136 0.660265 0.603741
O O1 0.308268 0.058927 0.819308
O O2 0.220693 0.866607 0.813141
O O3 0.156625 0.197441 0.053724
O O4 0.517849 0.268139 0.252692
O O5 0.518865 0.943359 0.321300
O O6 0.325022 0.135985 0.498843
O O7 0.164759 0.701807 0.088216
O O8 0.196721 0.859525 0.043488
O O9 0.797916 0.867161 0.338263
O O10 0.876741 0.280085 0.687827
O O11 0.873841 0.567194 0.572913
O O12 0.000000 0.000000 0.000000
O O13 0.130288 0.331733 0.663909
O O14 0.500000 0.500000 0.000000
O O15 0.159800 0.574380 0.375533
#
# Coordination Sequence:
#
# PCOD8021691 Si02
#       7
#     2   2   2   2   2   2   2
#     4  10  22  44  66  98 136 176 224 272 327 403
#     4  11  25  47  65 100 140 170 230 281 331 402
#     4  11  24  45  72  97 136 184 220 277 340 389
#     4  11  25  41  68 102 137 176 219 274 338 396
#     4  12  25  47  70 100 135 175 230 280 336 401
#     4  10  23  45  68  99 132 178 225 272 340 397
#     4   9  21  42  68  93 135 171 221 267 329 397
#
# _framework density 24.451886999999999
#
# number of rings (size 3 to 8) (size 9 to 14) (size 15 to 20)
#    0.000    1.429    1.429    3.000    6.000    2.286 
#   15.429    0.000    0.000    0.000    0.000    0.000 
#    0.000    0.000    0.000    0.000    0.000    0.000 
#
# Total GULP energy -173457.119430 kJ/mol
# GULP energy per Si atom -12389.794245 kJ/mol
# Density = 2.439623 g / cm^3
# Si number density = 24.451887 Si / 1000 Ang^3
#
#
#
# Elastic Constant Matrix: (Units=GPa)
#
#
# Indices 1 2 3 4 5 6 
#
# 1 57.5554 -7.7299 4.4359 2.5525 -4.5801 -3.1376
# 2 -7.7299 82.0620 16.2294 34.8915 4.3515 0.3773
# 3 4.4359 16.2294 139.9933 48.0976 8.7858 11.1807
# 4 2.5525 34.8915 48.0976 39.2205 -1.7192 0.4737
# 5 -4.5801 4.3515 8.7858 -1.7192 35.3274 6.6381
# 6 -3.1376 0.3773 11.1807 0.4737 6.6381 25.1167
#
#
#
# Elastic Compliance Matrix: (Units=1/GPa)
#
#
# Indices 1 2 3 4 5 6 
#
# 1 0.018251 0.003719 0.000533 -0.005119 0.001194 0.001768
# 2 0.003719 0.026074 0.009600 -0.035474 -0.006503 -0.001813
# 3 0.000533 0.009600 0.016982 -0.029585 -0.005731 -0.005565
# 4 -0.005119 -0.035474 -0.029585 0.094203 0.014234 0.007525
# 5 0.001194 -0.006503 -0.005731 0.014234 0.032520 -0.006065
# 6 0.001768 -0.001813 -0.005565 0.007525 -0.006065 0.044000
#
#
# Mechanical properties :
#
#
# Convention : Reuss Voigt Hill
#
# Bulk Modulus (GPa) = 11.23448 33.94238 22.58843
# Shear Modulus (GPa) = 21.36785 37.71127 29.53956
#
# Velocity S-wave (km/s) = 2.95934 3.93143 3.47950
# Velocity P-wave (km/s) = 4.03503 5.87534 5.03989
#
# Compressibility (1/GPa) = 0.08901167
#
# Stress axis : x y z
#
# Youngs Moduli (GPa) = 54.79043 38.35268 58.88605
#
# Poissons Ratio (x) = -0.14263 -0.03140
# Poissons Ratio (y) = -0.20376 -0.56532
# Poissons Ratio (z) = -0.02921 -0.36819
#
# Static dielectric constant tensor:
#      x y z
#    x 4.408090 -0.381410 0.098960 
#    y -0.381410 4.593230 0.407970 
#    z 0.098960 0.407970 4.887150 
# 
# 
# High freq. dielectric constant tensor:
#      x y z
#    x 1.954280 -0.027510 0.013170 
#    y -0.027510 1.976490 0.016770 
#    z 0.013170 0.016770 1.994080 
# 
# From -- ./inp_files/504766.got.cif
#   From: 2010.06.25/outbox.cif.g09.slc.cpg/sg2_253_cif.got.tgz:504766.got - 2010.06.27 13:26:56.
