data_PCOD8021339
_publ_section_title
;
Structure prediction by ZEFSAII (Michael W. Deem and Ramdas Pophale) SiO2 
 PCOD8021339
Probable space group: P -1
;
_chemical_formula_sum "Si O2"
_cell_formula_units_Z 14
_cell_length_a 9.074446
_cell_length_b 8.325554
_cell_length_c 12.423511
_cell_angle_alpha 55.596606
_cell_angle_beta 122.529522
_cell_angle_gamma 112.155159
_cell_volume 649.286794
_symmetry_space_group_name_H-M "P -1"
_symmetry_group_IT_number 2
_symmetry_cell_setting 'triclinic'
loop_
_space_group_symop_operation_xyz
x,y,z
-x,-y,-z
loop_
_atom_site_type_symbol
_atom_site_label
_atom_site_fract_x
_atom_site_fract_y
_atom_site_fract_z
Si Si1 0.802048 0.918617 0.260526
Si Si2 0.724368 0.349268 0.628252
Si Si3 0.313858 0.709918 0.808217
Si Si4 0.673130 0.623018 0.898004
Si Si5 0.511963 0.572581 0.302884
Si Si6 0.061563 0.011574 0.141893
Si Si7 0.010674 0.636541 0.557530
O O1 0.654380 0.738738 0.247906
O O2 0.951819 0.847526 0.424046
O O3 0.719709 0.091876 0.221802
O O4 0.886017 0.988709 0.153397
O O5 0.603891 0.396325 0.461085
O O6 0.607517 0.325295 0.697831
O O7 0.876889 0.530364 0.633445
O O8 0.811453 0.151515 0.714957
O O9 0.518193 0.731182 0.849695
O O10 0.204483 0.670610 0.670004
O O11 0.259957 0.528707 0.933928
O O12 0.611563 0.510230 0.809311
O O13 0.835639 0.778368 0.873056
O O14 0.000000 0.000000 0.000000
O O15 0.000000 0.500000 0.500000
#
# Coordination Sequence:
#
# PCOD8021339 Si02
#       7
#     2   2   2   2   2   2   2
#     4  11  25  43  71  96 134 177 219 274 331 395
#     4  10  22  43  70  96 135 170 224 270 329 394
#     4  11  25  44  66  99 133 175 226 269 333 393
#     4  11  27  43  68  94 136 176 221 277 326 395
#     4  10  24  45  70  98 129 179 220 274 332 388
#     4  12  27  43  66 101 134 175 218 275 334 396
#     4  11  21  43  72  99 133 175 217 276 329 394
#
# _framework density 21.562121999999999
#
# number of rings (size 3 to 8) (size 9 to 14) (size 15 to 20)
#    0.000    1.143    1.429    3.857    8.000    1.714 
#    2.571    0.000    0.000    0.000    0.000    0.000 
#    0.000    0.000    0.000    0.000    0.000    0.000 
#
# Total GULP energy -173673.770799 kJ/mol
# GULP energy per Si atom -12405.269343 kJ/mol
# Density = 2.151305 g / cm^3
# Si number density = 21.562122 Si / 1000 Ang^3
#
#
#
# Elastic Constant Matrix: (Units=GPa)
#
#
# Indices 1 2 3 4 5 6 
#
# 1 99.4684 52.4014 40.9767 -2.7374 -21.7611 6.8017
# 2 52.4014 124.8078 61.2172 8.9772 -8.4669 4.1011
# 3 40.9767 61.2172 97.7550 6.1962 -4.5559 1.7392
# 4 -2.7374 8.9772 6.1962 37.6663 -0.0659 2.0847
# 5 -21.7611 -8.4669 -4.5559 -0.0659 38.2067 -9.3937
# 6 6.8017 4.1011 1.7392 2.0847 -9.3937 40.4289
#
#
#
# Elastic Compliance Matrix: (Units=1/GPa)
#
#
# Indices 1 2 3 4 5 6 
#
# 1 0.015607 -0.004499 -0.003553 0.002829 0.007362 -0.000452
# 2 -0.004499 0.013077 -0.006167 -0.002414 -0.000476 -0.000290
# 3 -0.003553 -0.006167 0.015595 -0.001372 -0.001463 0.000283
# 4 0.002829 -0.002414 -0.001372 0.027637 0.000602 -0.001457
# 5 0.007362 -0.000476 -0.001463 0.000602 0.031609 0.006186
# 6 -0.000452 -0.000290 0.000283 -0.001457 0.006186 0.026340
#
#
# Mechanical properties :
#
#
# Convention : Reuss Voigt Hill
#
# Bulk Modulus (GPa) = 63.13024 70.13575 66.63300
# Shear Modulus (GPa) = 30.56543 34.42277 32.49410
#
# Velocity S-wave (km/s) = 3.76912 3.99989 3.88622
# Velocity P-wave (km/s) = 6.94864 7.34371 7.14890
#
# Compressibility (1/GPa) = 0.01584027
#
# Stress axis : x y z
#
# Youngs Moduli (GPa) = 64.07561 76.46811 64.12417
#
# Poissons Ratio (x) = 0.34405 0.22780
# Poissons Ratio (y) = 0.28829 0.39548
# Poissons Ratio (z) = 0.22763 0.47161
#
# Static dielectric constant tensor:
#      x y z
#    x 4.180820 0.114240 0.012900 
#    y 0.114240 3.659750 -0.156920 
#    z 0.012900 -0.156920 4.140430 
# 
# 
# High freq. dielectric constant tensor:
#      x y z
#    x 1.862380 0.000830 0.000260 
#    y 0.000830 1.835210 -0.007530 
#    z 0.000260 -0.007530 1.857940 
# 
# From -- ./inp_files/209410.got.cif
#   From: 2010.06.25/outbox.cif.g09.slc.cpg/sg2_105_cif.got.tgz:209410.got - 2010.06.27 13:26:56.
