data_PCOD8021749
_publ_section_title
;
Structure prediction by ZEFSAII (Michael W. Deem and Ramdas Pophale) SiO2 
 PCOD8021749
Probable space group: P -1
;
_chemical_formula_sum "Si O2"
_cell_formula_units_Z 14
_cell_length_a 11.266190
_cell_length_b 11.753901
_cell_length_c 17.751114
_cell_angle_alpha 149.369728
_cell_angle_beta 32.659791
_cell_angle_gamma 141.935565
_cell_volume 629.168357
_symmetry_space_group_name_H-M "P -1"
_symmetry_group_IT_number 2
_symmetry_cell_setting 'triclinic'
loop_
_space_group_symop_operation_xyz
x,y,z
-x,-y,-z
loop_
_atom_site_type_symbol
_atom_site_label
_atom_site_fract_x
_atom_site_fract_y
_atom_site_fract_z
Si Si1 0.997310 0.450281 0.860759
Si Si2 0.811117 0.945178 0.506604
Si Si3 0.333120 0.932323 0.748851
Si Si4 0.851619 0.344936 0.596954
Si Si5 0.658909 0.257111 0.057012
Si Si6 0.673271 0.410661 0.576079
Si Si7 0.877988 0.660543 0.898951
O O1 0.135072 0.690786 0.961487
O O2 0.883016 0.482259 0.860695
O O3 0.187874 0.305497 0.667342
O O4 0.786657 0.301111 0.934481
O O5 0.847135 0.111730 0.510334
O O6 0.569050 0.947021 0.674893
O O7 0.000000 0.000000 0.500000
O O8 0.358618 0.809853 0.586379
O O9 0.133985 0.806679 0.837645
O O10 0.296354 0.186110 0.896942
O O11 0.669603 0.319381 0.612203
O O12 0.799665 0.533986 0.790379
O O13 0.094677 0.414584 0.468643
O O14 0.515771 0.447373 0.252911
O O15 0.500000 0.000000 0.000000
#
# Coordination Sequence:
#
# PCOD8021749 Si02
#       7
#     2   2   2   2   2   2   2
#     4  11  25  44  68 104 140 176 238 283 349 419
#     4  12  24  42  66 103 134 182 227 289 349 412
#     4  10  24  42  70  97 138 180 228 287 351 408
#     4  10  23  40  69  99 137 172 235 279 345 422
#     4  11  25  44  70 100 139 184 229 288 349 412
#     4  10  22  44  67  98 133 184 225 284 349 411
#     4  10  23  45  66 102 135 179 230 287 346 417
#
# _framework density 22.251597
#
# number of rings (size 3 to 8) (size 9 to 14) (size 15 to 20)
#    0.000    1.429    2.857    0.857    2.000   12.000 
#    0.000    0.000    0.000    0.000    0.000    0.000 
#    0.000    0.000    0.000    0.000    0.000    0.000 
#
# Total GULP energy -173556.330154 kJ/mol
# GULP energy per Si atom -12396.880725 kJ/mol
# Density = 2.220095 g / cm^3
# Si number density = 22.251597 Si / 1000 Ang^3
#
#
#
# Elastic Constant Matrix: (Units=GPa)
#
#
# Indices 1 2 3 4 5 6 
#
# 1 116.7407 39.8072 50.9144 -5.1213 1.9063 -1.7909
# 2 39.8072 91.3199 35.7428 2.2115 -3.3041 2.9852
# 3 50.9144 35.7428 156.7836 3.4478 -20.5563 -3.7035
# 4 -5.1213 2.2115 3.4478 32.0770 -1.4759 -4.0867
# 5 1.9063 -3.3041 -20.5563 -1.4759 27.7684 -2.3758
# 6 -1.7909 2.9852 -3.7035 -4.0867 -2.3758 35.8465
#
#
#
# Elastic Compliance Matrix: (Units=1/GPa)
#
#
# Indices 1 2 3 4 5 6 
#
# 1 0.011541 -0.003922 -0.003360 0.002385 -0.003569 0.000591
# 2 -0.003922 0.013450 -0.001752 -0.001560 0.000349 -0.001652
# 3 -0.003360 -0.001752 0.008780 -0.000902 0.006578 0.001218
# 4 0.002385 -0.001560 -0.000902 0.032306 0.001035 0.003908
# 5 -0.003569 0.000349 0.006578 0.001035 0.041509 0.003341
# 6 0.000591 -0.001652 0.001218 0.003908 0.003341 0.028857
#
#
# Mechanical properties :
#
#
# Convention : Reuss Voigt Hill
#
# Bulk Modulus (GPa) = 63.68062 68.64142 66.16102
# Shear Modulus (GPa) = 31.30015 35.03037 33.16526
#
# Velocity S-wave (km/s) = 3.75460 3.97203 3.86484
# Velocity P-wave (km/s) = 6.89033 7.20770 7.05080
#
# Compressibility (1/GPa) = 0.01570336
#
# Stress axis : x y z
#
# Youngs Moduli (GPa) = 86.64974 74.34921 113.89765
#
# Poissons Ratio (x) = 0.29158 0.38271
# Poissons Ratio (y) = 0.33982 0.19952
# Poissons Ratio (z) = 0.29115 0.13024
#
# Static dielectric constant tensor:
#      x y z
#    x 4.026210 0.101820 -0.054000 
#    y 0.101820 4.004640 -0.043010 
#    z -0.054000 -0.043010 4.315750 
# 
# 
# High freq. dielectric constant tensor:
#      x y z
#    x 1.878450 0.007370 -0.001450 
#    y 0.007370 1.874380 -0.003390 
#    z -0.001450 -0.003390 1.889340 
# 
# From -- ./inp_files/569228.got.cif
#   From: 2010.06.25/outbox.cif.g09.slc.cpg/sg2_285_cif.got.tgz:569228.got - 2010.06.27 13:26:56.
