data_PCOD8021530
_publ_section_title
;
Structure prediction by ZEFSAII (Michael W. Deem and Ramdas Pophale) SiO2 
 PCOD8021530
Probable space group: P -1
;
_chemical_formula_sum "Si O2"
_cell_formula_units_Z 16
_cell_length_a 14.519697
_cell_length_b 8.684331
_cell_length_c 9.327393
_cell_angle_alpha 99.656233
_cell_angle_beta 139.739891
_cell_angle_gamma 84.400935
_cell_volume 748.457715
_symmetry_space_group_name_H-M "P -1"
_symmetry_group_IT_number 2
_symmetry_cell_setting 'triclinic'
loop_
_space_group_symop_operation_xyz
x,y,z
-x,-y,-z
loop_
_atom_site_type_symbol
_atom_site_label
_atom_site_fract_x
_atom_site_fract_y
_atom_site_fract_z
Si Si1 0.208109 0.932315 0.204545
Si Si2 0.807524 0.543686 0.898229
Si Si3 0.240427 0.123617 0.546363
Si Si4 0.481649 0.659789 0.088956
Si Si5 0.700254 0.838722 0.868252
Si Si6 0.353765 0.954012 0.895760
Si Si7 0.571378 0.306506 0.643421
Si Si8 0.966412 0.691880 0.844182
O O1 0.325950 0.836822 0.248340
O O2 0.270635 0.003947 0.436343
O O3 0.185891 0.073503 0.089643
O O4 0.061703 0.834153 0.050581
O O5 0.784011 0.688900 0.001419
O O6 0.657575 0.444241 0.678426
O O7 0.853616 0.611672 0.807599
O O8 0.926353 0.440586 0.097644
O O9 0.373944 0.240130 0.748065
O O10 0.107726 0.232008 0.370588
O O11 0.222777 0.012234 0.650149
O O12 0.457295 0.625584 0.222166
O O13 0.500000 0.500000 0.000000
O O14 0.351816 0.765689 0.892495
O O15 0.570820 0.757785 0.611542
O O16 0.646454 0.951523 0.942095
O O17 0.500000 0.000000 0.000000
#
# Coordination Sequence:
#
# PCOD8021530 Si02
#       8
#     2   2   2   2   2   2   2   2
#     4  11  21  39  73  90 125 166 224 275 303 377
#     4  10  23  37  63  96 131 163 213 274 308 381
#     4  11  22  43  64  94 128 176 208 263 326 384
#     4  11  23  41  63  97 136 166 203 265 336 391
#     4  12  21  40  68 100 126 165 222 271 319 375
#     4  10  24  41  62  94 137 164 208 262 330 395
#     4  11  21  38  66  98 130 164 212 271 330 377
#     4  10  22  44  62  95 129 170 222 261 322 370
#
# _framework density 21.377293999999999
#
# number of rings (size 3 to 8) (size 9 to 14) (size 15 to 20)
#    0.000    1.250    3.750    2.625    3.500    0.000 
#   11.250    1.250    0.000    0.000    0.000    0.000 
#    0.000    0.000    0.000    0.000    0.000    0.000 
#
# Total GULP energy -198230.004422 kJ/mol
# GULP energy per Si atom -12389.375276 kJ/mol
# Density = 2.132864 g / cm^3
# Si number density = 21.377294 Si / 1000 Ang^3
#
#
#
# Elastic Constant Matrix: (Units=GPa)
#
#
# Indices 1 2 3 4 5 6 
#
# 1 95.9271 55.6525 46.2606 11.1125 -10.1594 2.5908
# 2 55.6525 183.7827 71.3660 -1.0871 -8.5061 -7.3144
# 3 46.2606 71.3660 93.4103 -2.2854 -19.6529 -5.2839
# 4 11.1125 -1.0871 -2.2854 38.4616 0.7812 -2.0434
# 5 -10.1594 -8.5061 -19.6529 0.7812 30.2503 -0.0201
# 6 2.5908 -7.3144 -5.2839 -2.0434 -0.0201 22.4953
#
#
#
# Elastic Compliance Matrix: (Units=1/GPa)
#
#
# Indices 1 2 3 4 5 6 
#
# 1 0.015610 -0.002579 -0.005982 -0.005194 0.000762 -0.004513
# 2 -0.002579 0.008286 -0.005361 0.000798 -0.002038 0.001803
# 3 -0.005982 -0.005361 0.020038 0.002784 0.009432 0.003914
# 4 -0.005194 0.000798 0.002784 0.027912 -0.000429 0.004047
# 5 0.000762 -0.002038 0.009432 -0.000429 0.038880 0.001461
# 6 -0.004513 0.001803 0.003914 0.004047 0.001461 0.046848
#
#
# Mechanical properties :
#
#
# Convention : Reuss Voigt Hill
#
# Bulk Modulus (GPa) = 62.15177 79.96426 71.05801
# Shear Modulus (GPa) = 26.20803 31.56417 28.88610
#
# Velocity S-wave (km/s) = 3.50519 3.84673 3.67993
# Velocity P-wave (km/s) = 6.74675 7.56420 7.16714
#
# Compressibility (1/GPa) = 0.01608965
#
# Stress axis : x y z
#
# Youngs Moduli (GPa) = 64.06141 120.68683 49.90577
#
# Poissons Ratio (x) = 0.31125 0.29856
# Poissons Ratio (y) = 0.16521 0.26753
# Poissons Ratio (z) = 0.38324 0.64696
#
# Static dielectric constant tensor:
#      x y z
#    x 4.259710 0.103210 -0.101940 
#    y 0.103210 4.904930 -0.477640 
#    z -0.101940 -0.477640 3.935160 
# 
# 
# High freq. dielectric constant tensor:
#      x y z
#    x 1.829750 -0.003450 0.010070 
#    y -0.003450 1.877200 -0.006520 
#    z 0.010070 -0.006520 1.802070 
# 
# From -- ./inp_files/263583.got.cif
#   From: 2010.06.25/outbox.cif.g09.slc.cpg/sg2_132_cif.got.tgz:263583.got - 2010.06.27 13:26:56.
