data_PCOD8021409
_publ_section_title
;
Structure prediction by ZEFSAII (Michael W. Deem and Ramdas Pophale) SiO2 
 PCOD8021409
Probable space group: P -1
;
_chemical_formula_sum "Si O2"
_cell_formula_units_Z 16
_cell_length_a 12.248432
_cell_length_b 19.191620
_cell_length_c 9.223043
_cell_angle_alpha 45.457379
_cell_angle_beta 71.836763
_cell_angle_gamma 36.760898
_cell_volume 748.940577
_symmetry_space_group_name_H-M "P -1"
_symmetry_group_IT_number 2
_symmetry_cell_setting 'triclinic'
loop_
_space_group_symop_operation_xyz
x,y,z
-x,-y,-z
loop_
_atom_site_type_symbol
_atom_site_label
_atom_site_fract_x
_atom_site_fract_y
_atom_site_fract_z
Si Si1 0.743012 0.487094 0.743024
Si Si2 0.254981 0.301487 0.641295
Si Si3 0.543678 0.000856 0.202714
Si Si4 0.822725 0.881211 0.730227
Si Si5 0.684769 0.202191 0.378464
Si Si6 0.739023 0.367473 0.641549
Si Si7 0.087895 0.929513 0.809056
Si Si8 0.091958 0.139836 0.588300
O O1 0.675934 0.649817 0.536896
O O2 0.565071 0.576350 0.803748
O O3 0.699679 0.481465 0.607037
O O4 0.998588 0.276107 0.988987
O O5 0.000000 0.500000 0.500000
O O6 0.283304 0.190642 0.682281
O O7 0.407327 0.174243 0.904418
O O8 0.371975 0.058098 0.279725
O O9 0.688708 0.961966 0.304202
O O10 0.957622 0.783822 0.664405
O O11 0.710981 0.067154 0.537622
O O12 0.753654 0.209403 0.193142
O O13 0.835141 0.123418 0.569473
O O14 0.500000 0.500000 0.500000
O O15 0.874020 0.313910 0.526886
O O16 0.891735 0.171792 0.936134
O O17 0.156843 0.978191 0.790886
#
# Coordination Sequence:
#
# PCOD8021409 Si02
#       8
#     2   2   2   2   2   2   2   2
#     4  12  24  41  73  93 137 171 225 275 328 395
#     4  11  23  40  66 101 127 173 220 270 329 389
#     4  11  24  43  69  96 139 172 226 272 328 401
#     4  11  23  46  68 102 130 180 226 269 333 398
#     4  10  22  43  71  98 128 175 227 278 320 404
#     4  12  27  42  64 104 137 174 223 275 339 398
#     4  10  23  44  67  96 135 175 223 271 343 386
#     4  11  26  44  68  94 141 178 218 278 336 393
#
# _framework density 21.363510999999999
#
# number of rings (size 3 to 8) (size 9 to 14) (size 15 to 20)
#    0.000    1.000    3.750    2.250    7.000    0.500 
#    0.000    0.625    0.000    0.000    0.000    0.000 
#    0.000    0.000    0.000    0.000    0.000    0.000 
#
# Total GULP energy -198424.329281 kJ/mol
# GULP energy per Si atom -12401.520580 kJ/mol
# Density = 2.131489 g / cm^3
# Si number density = 21.363511 Si / 1000 Ang^3
#
#
#
# Elastic Constant Matrix: (Units=GPa)
#
#
# Indices 1 2 3 4 5 6 
#
# 1 113.0281 33.7864 22.0367 0.0921 23.2513 -1.2828
# 2 33.7864 138.3977 32.3370 -2.3194 14.8197 -14.3079
# 3 22.0367 32.3370 64.5761 1.4708 5.1695 4.7331
# 4 0.0921 -2.3194 1.4708 32.5676 -3.2534 1.6313
# 5 23.2513 14.8197 5.1695 -3.2534 31.7147 2.0140
# 6 -1.2828 -14.3079 4.7331 1.6313 2.0140 37.7696
#
#
#
# Elastic Compliance Matrix: (Units=1/GPa)
#
#
# Indices 1 2 3 4 5 6 
#
# 1 0.011268 -0.001293 -0.002639 -0.000771 -0.007347 0.000649
# 2 -0.001293 0.009292 -0.004291 0.000359 -0.002921 0.004154
# 3 -0.002639 -0.004291 0.018769 -0.000836 0.001054 -0.004087
# 4 -0.000771 0.000359 -0.000836 0.031220 0.003821 -0.001338
# 5 -0.007347 -0.002921 0.001054 0.003821 0.038739 -0.003719
# 6 0.000649 0.004154 -0.004087 -0.001338 -0.003719 0.028840
#
#
# Mechanical properties :
#
#
# Convention : Reuss Voigt Hill
#
# Bulk Modulus (GPa) = 43.70148 54.70247 49.20198
# Shear Modulus (GPa) = 30.82588 35.59983 33.21286
#
# Velocity S-wave (km/s) = 3.80270 4.08657 3.94719
# Velocity P-wave (km/s) = 6.30724 6.92299 6.62228
#
# Compressibility (1/GPa) = 0.02288252
#
# Stress axis : x y z
#
# Youngs Moduli (GPa) = 88.74830 107.61865 53.27931
#
# Poissons Ratio (x) = 0.13918 0.14063
# Poissons Ratio (y) = 0.11477 0.22860
# Poissons Ratio (z) = 0.23424 0.46174
#
# Static dielectric constant tensor:
#      x y z
#    x 3.557400 0.079790 0.299690 
#    y 0.079790 3.874680 0.059860 
#    z 0.299690 0.059860 3.391280 
# 
# 
# High freq. dielectric constant tensor:
#      x y z
#    x 1.850560 -0.006230 -0.002500 
#    y -0.006230 1.848970 0.005680 
#    z -0.002500 0.005680 1.825570 
# 
# From -- ./inp_files/139148.got.cif
#   From: 2010.06.25/outbox.cif.g09.slc.cpg/sg2_70_cif.got.tgz:139148.got - 2010.06.27 13:26:56.
