data_PCOD8021866
_publ_section_title
;
Structure prediction by ZEFSAII (Michael W. Deem and Ramdas Pophale) SiO2 
 PCOD8021866
Probable space group: P -1
;
_chemical_formula_sum "Si O2"
_cell_formula_units_Z 14
_cell_length_a 20.119653
_cell_length_b 8.618951
_cell_length_c 14.401245
_cell_angle_alpha 43.911626
_cell_angle_beta 21.937227
_cell_angle_gamma 47.445549
_cell_volume 646.752396
_symmetry_space_group_name_H-M "P -1"
_symmetry_group_IT_number 2
_symmetry_cell_setting 'triclinic'
loop_
_space_group_symop_operation_xyz
x,y,z
-x,-y,-z
loop_
_atom_site_type_symbol
_atom_site_label
_atom_site_fract_x
_atom_site_fract_y
_atom_site_fract_z
Si Si1 0.746275 0.402498 0.422623
Si Si2 0.875329 0.626646 0.327978
Si Si3 0.798629 0.254369 0.874695
Si Si4 0.560646 0.895551 0.063100
Si Si5 0.470654 0.254147 0.181332
Si Si6 0.934446 0.826306 0.980017
Si Si7 0.909973 0.643260 0.686005
O O1 0.770016 0.436005 0.488959
O O2 0.547633 0.333246 0.684013
O O3 0.879477 0.202063 0.302596
O O4 0.798582 0.634510 0.203328
O O5 0.735301 0.765005 0.514277
O O6 0.028433 0.509501 0.241574
O O7 0.962888 0.797000 0.067199
O O8 0.811585 0.497369 0.799018
O O9 0.921936 0.239275 0.629314
O O10 0.854250 0.070537 0.958091
O O11 0.596298 0.213644 0.125375
O O12 0.515805 0.068218 0.127494
O O13 0.770454 0.834104 0.819811
O O14 0.500000 0.000000 0.000000
O O15 0.500000 0.500000 0.000000
#
# Coordination Sequence:
#
# PCOD8021866 Si02
#       7
#     2   2   2   2   2   2   2
#     4   9  21  45  68  94 141 168 224 266 340 385
#     4  10  22  44  69  96 134 174 223 271 326 396
#     4  11  24  43  69  97 137 172 227 272 333 392
#     4  12  26  42  69 100 136 176 219 279 333 391
#     4  12  25  43  67 100 136 171 223 276 333 389
#     4   9  22  42  73  94 136 180 215 274 333 395
#     4  11  25  42  71 102 131 173 228 275 328 394
#
# _framework density 21.646612999999999
#
# number of rings (size 3 to 8) (size 9 to 14) (size 15 to 20)
#    0.857    0.571    1.429    3.429    6.000    1.714 
#    0.000    1.429    0.000    0.000    0.000    0.000 
#    0.000    0.000    0.000    0.000    0.000    0.000 
#
# Total GULP energy -173600.448834 kJ/mol
# GULP energy per Si atom -12400.032060 kJ/mol
# Density = 2.159734 g / cm^3
# Si number density = 21.646613 Si / 1000 Ang^3
#
#
#
# Elastic Constant Matrix: (Units=GPa)
#
#
# Indices 1 2 3 4 5 6 
#
# 1 107.5618 34.7933 20.8827 17.7089 6.8700 -10.8177
# 2 34.7933 90.5421 27.2545 26.1861 8.0473 -2.7173
# 3 20.8827 27.2545 71.6337 23.4639 5.0764 -3.7644
# 4 17.7089 26.1861 23.4639 44.7346 2.0602 2.4025
# 5 6.8700 8.0473 5.0764 2.0602 32.7263 -1.2635
# 6 -10.8177 -2.7173 -3.7644 2.4025 -1.2635 48.2736
#
#
#
# Elastic Compliance Matrix: (Units=1/GPa)
#
#
# Indices 1 2 3 4 5 6 
#
# 1 0.011197 -0.003191 -0.001187 -0.002012 -0.001166 0.002307
# 2 -0.003191 0.015017 -0.002634 -0.006052 -0.002227 0.000168
# 3 -0.001187 -0.002634 0.017891 -0.007380 -0.001363 0.001312
# 4 -0.002012 -0.006052 -0.007380 0.030671 0.001014 -0.002867
# 5 -0.001166 -0.002227 -0.001363 0.001014 0.031507 0.000281
# 6 0.002307 0.000168 0.001312 -0.002867 0.000281 0.021494
#
#
# Mechanical properties :
#
#
# Convention : Reuss Voigt Hill
#
# Bulk Modulus (GPa) = 33.24379 48.39985 40.82182
# Shear Modulus (GPa) = 32.93166 37.60072 35.26619
#
# Velocity S-wave (km/s) = 3.90466 4.17229 4.04069
# Velocity P-wave (km/s) = 5.97656 6.75413 6.37721
#
# Compressibility (1/GPa) = 0.03008081
#
# Stress axis : x y z
#
# Youngs Moduli (GPa) = 89.30689 66.59149 55.89355
#
# Poissons Ratio (x) = 0.21247 0.06636
# Poissons Ratio (y) = 0.28494 0.14725
# Poissons Ratio (z) = 0.10604 0.17543
#
# Static dielectric constant tensor:
#      x y z
#    x 3.760440 0.097010 -0.013690 
#    y 0.097010 3.786350 0.135040 
#    z -0.013690 0.135040 4.091610 
# 
# 
# High freq. dielectric constant tensor:
#      x y z
#    x 1.840200 0.008860 0.005330 
#    y 0.008860 1.848250 0.008120 
#    z 0.005330 0.008120 1.849960 
# 
# From -- ./inp_files/540399.got.cif
#   From: 2010.06.25/outbox.cif.g09.slc.cpg/sg2_271_cif.got.tgz:540399.got - 2010.06.27 13:26:56.
