data_PCOD8021366
_publ_section_title
;
Structure prediction by ZEFSAII (Michael W. Deem and Ramdas Pophale) SiO2 
 PCOD8021366
Probable space group: P -1
;
_chemical_formula_sum "Si O2"
_cell_formula_units_Z 16
_cell_length_a 15.853933
_cell_length_b 11.893612
_cell_length_c 15.348976
_cell_angle_alpha 122.693061
_cell_angle_beta 34.707010
_cell_angle_gamma 149.092697
_cell_volume 698.476461
_symmetry_space_group_name_H-M "P -1"
_symmetry_group_IT_number 2
_symmetry_cell_setting 'triclinic'
loop_
_space_group_symop_operation_xyz
x,y,z
-x,-y,-z
loop_
_atom_site_type_symbol
_atom_site_label
_atom_site_fract_x
_atom_site_fract_y
_atom_site_fract_z
Si Si1 0.703014 0.832632 0.777679
Si Si2 0.928117 0.048296 0.005229
Si Si3 0.789977 0.183552 0.458860
Si Si4 0.944746 0.586622 0.852653
Si Si5 0.244756 0.575489 0.670814
Si Si6 0.279333 0.577984 0.330827
Si Si7 0.145987 0.318194 0.492325
Si Si8 0.834521 0.730653 0.289693
O O1 0.654204 0.644696 0.703583
O O2 0.391664 0.655863 0.994104
O O3 0.832315 0.018666 0.665274
O O4 0.930011 0.008210 0.739523
O O5 0.955023 0.219350 0.087192
O O6 0.597013 0.758287 0.135889
O O7 0.124254 0.189938 0.811313
O O8 0.000000 0.000000 0.000000
O O9 0.687544 0.236706 0.618091
O O10 0.825149 0.231165 0.346041
O O11 0.108829 0.391062 0.312519
O O12 0.552866 0.886458 0.558816
O O13 0.989823 0.480417 0.818838
O O14 0.313583 0.518908 0.514000
O O15 0.127147 0.400350 0.781622
O O16 0.089244 0.385436 0.495615
O O17 0.500000 0.500000 0.500000
#
# Coordination Sequence:
#
# PCOD8021366 Si02
#       8
#     2   2   2   2   2   2   2   2
#     4  10  25  44  69 104 141 184 240 292 353 426
#     4  12  28  45  73 106 144 186 243 294 352 430
#     4  11  24  42  69 104 144 186 232 297 351 423
#     4  12  24  43  73 106 144 185 245 291 357 418
#     4  11  24  47  72 102 143 189 233 298 353 422
#     4  11  23  44  68 101 142 187 237 284 360 420
#     4  10  22  43  71 100 139 187 239 286 358 419
#     4  11  29  48  72 104 146 191 238 294 361 422
#
# _framework density 22.907001000000001
#
# number of rings (size 3 to 8) (size 9 to 14) (size 15 to 20)
#    0.000    1.000    2.500    2.625   12.250    2.500 
#    4.500    2.500    0.000    0.000    0.000    0.000 
#    0.000    0.000    0.000    0.000    0.000    0.000 
#
# Total GULP energy -198384.773114 kJ/mol
# GULP energy per Si atom -12399.048320 kJ/mol
# Density = 2.285486 g / cm^3
# Si number density = 22.907001 Si / 1000 Ang^3
#
#
#
# Elastic Constant Matrix: (Units=GPa)
#
#
# Indices 1 2 3 4 5 6 
#
# 1 142.6618 46.3363 52.1557 -4.6021 4.2465 -5.6536
# 2 46.3363 137.8571 40.5300 -0.9490 -9.1792 -2.3227
# 3 52.1557 40.5300 102.8133 -11.0933 -7.6732 12.9853
# 4 -4.6021 -0.9490 -11.0933 29.6652 5.0852 -3.9148
# 5 4.2465 -9.1792 -7.6732 5.0852 48.0951 -9.0530
# 6 -5.6536 -2.3227 12.9853 -3.9148 -9.0530 36.1537
#
#
#
# Elastic Compliance Matrix: (Units=1/GPa)
#
#
# Indices 1 2 3 4 5 6 
#
# 1 0.009403 -0.001912 -0.004417 0.000338 -0.001444 0.002609
# 2 -0.001912 0.008830 -0.002694 -0.001129 0.001840 0.001575
# 3 -0.004417 -0.002694 0.014160 0.003690 0.000735 -0.005366
# 4 0.000338 -0.001129 0.003690 0.035872 -0.003119 0.001759
# 5 -0.001444 0.001840 0.000735 -0.003119 0.022652 0.004963
# 6 0.002609 0.001575 -0.005366 0.001759 0.004963 0.031529
#
#
# Mechanical properties :
#
#
# Convention : Reuss Voigt Hill
#
# Bulk Modulus (GPa) = 69.70574 73.48624 71.59599
# Shear Modulus (GPa) = 34.41766 39.07014 36.74390
#
# Velocity S-wave (km/s) = 3.88041 4.13437 4.00940
# Velocity P-wave (km/s) = 7.11145 7.41219 7.26338
#
# Compressibility (1/GPa) = 0.01434602
#
# Stress axis : x y z
#
# Youngs Moduli (GPa) = 106.35361 113.25199 70.62173
#
# Poissons Ratio (x) = 0.21650 0.31194
# Poissons Ratio (y) = 0.20331 0.19029
# Poissons Ratio (z) = 0.46977 0.30515
#
# Static dielectric constant tensor:
#      x y z
#    x 4.445570 -0.135110 0.035090 
#    y -0.135110 4.279150 -0.061330 
#    z 0.035090 -0.061330 3.949940 
# 
# 
# High freq. dielectric constant tensor:
#      x y z
#    x 1.913430 -0.004210 -0.002040 
#    y -0.004210 1.915460 -0.009150 
#    z -0.002040 -0.009150 1.889070 
# 
# From -- ./inp_files/532594.got.cif
#   From: 2010.06.25/outbox.cif.g09.slc.cpg/sg2_267_cif.got.tgz:532594.got - 2010.06.27 13:26:56.
