data_PCOD8021044
_publ_section_title
;
Structure prediction by ZEFSAII (Michael W. Deem and Ramdas Pophale) SiO2 
 PCOD8021044
Probable space group: P -1
;
_chemical_formula_sum "Si O2"
_cell_formula_units_Z 16
_cell_length_a 11.914197
_cell_length_b 12.373634
_cell_length_c 11.500370
_cell_angle_alpha 108.100715
_cell_angle_beta 42.762511
_cell_angle_gamma 74.199731
_cell_volume 690.981607
_symmetry_space_group_name_H-M "P -1"
_symmetry_group_IT_number 2
_symmetry_cell_setting 'triclinic'
loop_
_space_group_symop_operation_xyz
x,y,z
-x,-y,-z
loop_
_atom_site_type_symbol
_atom_site_label
_atom_site_fract_x
_atom_site_fract_y
_atom_site_fract_z
Si Si1 0.438208 0.795691 0.299853
Si Si2 0.127012 0.117294 0.488848
Si Si3 0.290083 0.643457 0.922693
Si Si4 0.707154 0.612007 0.246108
Si Si5 0.924405 0.460461 0.698735
Si Si6 0.150280 0.565188 0.509098
Si Si7 0.757388 0.151202 0.148019
Si Si8 0.065800 0.087065 0.264682
O O1 0.553647 0.778358 0.329451
O O2 0.198796 0.841499 0.525187
O O3 0.374763 0.938484 0.314082
O O4 0.652462 0.595509 0.017753
O O5 0.135780 0.046397 0.335226
O O6 0.130531 0.251342 0.508170
O O7 0.870722 0.226805 0.798326
O O8 0.267278 0.522600 0.881193
O O9 0.584050 0.527196 0.675414
O O10 0.183791 0.757048 0.922413
O O11 0.529787 0.699404 0.525201
O O12 0.000000 0.500000 0.000000
O O13 0.824099 0.504763 0.659007
O O14 0.048021 0.518074 0.654131
O O15 0.947903 0.776939 0.725276
O O16 0.728923 0.080518 0.035405
O O17 0.000000 0.000000 0.000000
#
# Coordination Sequence:
#
# PCOD8021044 Si02
#       8
#     2   2   2   2   2   2   2   2
#     4  12  22  45  71 103 145 188 241 306 368 435
#     4  11  23  42  74 116 140 188 240 303 388 431
#     4  12  23  45  77  96 143 190 249 306 365 441
#     4  12  28  50  72 103 145 202 253 300 370 436
#     4  10  23  42  68 105 159 179 238 294 374 449
#     4  10  22  43  67 107 140 199 225 299 375 440
#     4  12  25  47  69 106 145 193 256 305 359 435
#     4  11  22  43  75 107 147 184 246 306 362 453
#
# _framework density 23.155465
#
# number of rings (size 3 to 8) (size 9 to 14) (size 15 to 20)
#    0.000    0.750    5.000    1.500    3.500    2.000 
#    4.500    3.125    0.000    0.000    0.000    0.000 
#    0.000    0.000    0.000    0.000    0.000    0.000 
#
# Total GULP energy -198274.622645 kJ/mol
# GULP energy per Si atom -12392.163915 kJ/mol
# Density = 2.310276 g / cm^3
# Si number density = 23.155465 Si / 1000 Ang^3
#
#
#
# Elastic Constant Matrix: (Units=GPa)
#
#
# Indices 1 2 3 4 5 6 
#
# 1 105.8927 52.8576 60.7841 3.1349 -4.5652 -12.2500
# 2 52.8576 120.9073 38.9387 12.6760 -12.0003 -24.8581
# 3 60.7841 38.9387 108.8830 -2.5468 25.5324 2.3964
# 4 3.1349 12.6760 -2.5468 28.1908 1.8223 2.0131
# 5 -4.5652 -12.0003 25.5324 1.8223 44.0443 -5.8936
# 6 -12.2500 -24.8581 2.3964 2.0131 -5.8936 37.8791
#
#
#
# Elastic Compliance Matrix: (Units=1/GPa)
#
#
# Indices 1 2 3 4 5 6 
#
# 1 0.018823 -0.000947 -0.012886 -0.004085 0.010419 0.008119
# 2 -0.000947 0.016282 -0.008490 -0.009665 0.011427 0.013208
# 3 -0.012886 -0.008490 0.024765 0.009880 -0.020422 -0.015008
# 4 -0.004085 -0.009665 0.009880 0.042846 -0.012225 -0.012468
# 5 0.010419 0.011427 -0.020422 -0.012225 0.041827 0.019318
# 6 0.008119 0.013208 -0.015008 -0.012468 0.019318 0.042311
#
#
# Mechanical properties :
#
#
# Convention : Reuss Voigt Hill
#
# Bulk Modulus (GPa) = 65.69641 71.20488 68.45064
# Shear Modulus (GPa) = 21.13502 34.22967 27.68235
#
# Velocity S-wave (km/s) = 3.02444 3.84898 3.46135
# Velocity P-wave (km/s) = 6.37415 7.11129 6.75279
#
# Compressibility (1/GPa) = 0.01522153
#
# Stress axis : x y z
#
# Youngs Moduli (GPa) = 53.12772 61.41730 40.38030
#
# Poissons Ratio (x) = 0.05817 0.52035
# Poissons Ratio (y) = 0.05032 0.34284
# Poissons Ratio (z) = 0.68462 0.52146
#
# Static dielectric constant tensor:
#      x y z
#    x 4.122980 -0.154380 0.191730 
#    y -0.154380 4.739240 -0.022720 
#    z 0.191730 -0.022720 4.371180 
# 
# 
# High freq. dielectric constant tensor:
#      x y z
#    x 1.900840 -0.017260 0.014780 
#    y -0.017260 1.934890 0.000110 
#    z 0.014780 0.000110 1.914120 
# 
# From -- ./inp_files/348829.got.cif
#   From: 2010.06.25/outbox.cif.g09.slc.cpg/sg2_175_cif.got.tgz:348829.got - 2010.06.27 13:26:56.
