data_PCOD8021673
_publ_section_title
;
Structure prediction by ZEFSAII (Michael W. Deem and Ramdas Pophale) SiO2 
 PCOD8021673
Probable space group: P -1
;
_chemical_formula_sum "Si O2"
_cell_formula_units_Z 14
_cell_length_a 12.197322
_cell_length_b 12.918917
_cell_length_c 11.577284
_cell_angle_alpha 112.655784
_cell_angle_beta 90.041238
_cell_angle_gamma 148.314662
_cell_volume 650.243354
_symmetry_space_group_name_H-M "P -1"
_symmetry_group_IT_number 2
_symmetry_cell_setting 'triclinic'
loop_
_space_group_symop_operation_xyz
x,y,z
-x,-y,-z
loop_
_atom_site_type_symbol
_atom_site_label
_atom_site_fract_x
_atom_site_fract_y
_atom_site_fract_z
Si Si1 0.462637 0.618752 0.273720
Si Si2 0.463767 0.407956 0.336245
Si Si3 0.025012 0.272297 0.527027
Si Si4 0.962762 0.185329 0.927008
Si Si5 0.772730 0.423723 0.570140
Si Si6 0.847529 0.225615 0.732497
Si Si7 0.818781 0.257880 0.099887
O O1 0.463426 0.493451 0.266753
O O2 0.348210 0.584947 0.364245
O O3 0.772479 0.945442 0.371999
O O4 0.277835 0.460407 0.090785
O O5 0.500000 0.500000 0.500000
O O6 0.700580 0.540704 0.364850
O O7 0.172075 0.064667 0.187119
O O8 0.070900 0.388480 0.463155
O O9 0.955382 0.294772 0.635858
O O10 0.963138 0.239178 0.823531
O O11 0.799447 0.116468 0.983178
O O12 0.013644 0.585500 0.710956
O O13 0.496305 0.085673 0.395436
O O14 0.995315 0.484662 0.872328
O O15 0.500000 0.000000 0.000000
#
# Coordination Sequence:
#
# PCOD8021673 Si02
#       7
#     2   2   2   2   2   2   2
#     4  10  23  40  66  97 131 169 209 268 321 372
#     4  12  21  43  70  94 129 172 213 263 322 380
#     4  11  22  42  68  97 127 169 222 256 312 393
#     4  11  24  44  64  95 138 164 212 272 319 380
#     4  10  22  44  66  94 132 167 218 264 310 387
#     4  11  23  44  65  94 129 178 211 262 321 376
#     4  11  25  42  68  96 129 173 214 266 326 376
#
# _framework density 21.530401000000001
#
# number of rings (size 3 to 8) (size 9 to 14) (size 15 to 20)
#    0.000    1.143    2.857    3.429    2.000    0.571 
#    2.571    1.429    0.000    0.000    0.000    0.000 
#    0.000    0.000    0.000    0.000    0.000    0.000 
#
# Total GULP energy -173620.551220 kJ/mol
# GULP energy per Si atom -12401.467944 kJ/mol
# Density = 2.148140 g / cm^3
# Si number density = 21.530401 Si / 1000 Ang^3
#
#
#
# Elastic Constant Matrix: (Units=GPa)
#
#
# Indices 1 2 3 4 5 6 
#
# 1 45.9821 11.9673 2.3799 -3.2132 6.2593 -21.6187
# 2 11.9673 124.7768 28.8212 -4.5065 3.4876 -27.1430
# 3 2.3799 28.8212 81.2655 -1.5718 2.6635 -21.2933
# 4 -3.2132 -4.5065 -1.5718 26.5516 -11.1862 -5.6244
# 5 6.2593 3.4876 2.6635 -11.1862 41.4232 -0.9002
# 6 -21.6187 -27.1430 -21.2933 -5.6244 -0.9002 28.7175
#
#
#
# Elastic Compliance Matrix: (Units=1/GPa)
#
#
# Indices 1 2 3 4 5 6 
#
# 1 0.043958 0.004505 0.010024 0.015811 -0.002358 0.047805
# 2 0.004505 0.011033 -0.000036 0.005680 0.000251 0.014913
# 3 0.010024 -0.000036 0.017976 0.006822 -0.000344 0.022166
# 4 0.015811 0.005680 0.006822 0.052870 0.011689 0.033051
# 5 -0.002358 0.000251 -0.000344 0.011689 0.027685 0.001365
# 6 0.047805 0.014913 0.022166 0.033051 0.001365 0.107856
#
#
# Mechanical properties :
#
#
# Convention : Reuss Voigt Hill
#
# Bulk Modulus (GPa) = 9.80854 37.59570 23.70212
# Shear Modulus (GPa) = 18.77055 33.26218 26.01637
#
# Velocity S-wave (km/s) = 2.95586 3.93478 3.47991
# Velocity P-wave (km/s) = 4.02679 6.17599 5.21334
#
# Compressibility (1/GPa) = 0.10195199
#
# Stress axis : x y z
#
# Youngs Moduli (GPa) = 22.74910 90.64006 55.63091
#
# Poissons Ratio (x) = -0.40830 -0.55764
# Poissons Ratio (y) = -0.10248 0.00198
# Poissons Ratio (z) = -0.22804 0.00323
#
# Static dielectric constant tensor:
#      x y z
#    x 3.901850 -0.215810 -0.005600 
#    y -0.215810 3.846990 0.143340 
#    z -0.005600 0.143340 4.188070 
# 
# 
# High freq. dielectric constant tensor:
#      x y z
#    x 1.847340 -0.015090 0.005160 
#    y -0.015090 1.847340 0.005940 
#    z 0.005160 0.005940 1.858490 
# 
# From -- ./inp_files/27172.got.cif
#   From: 2010.06.25/outbox.cif.g09.slc.cpg/sg2_14_cif.got.tgz:27172.got - 2010.06.27 13:26:56.
