data_PCOD8021902
_publ_section_title
;
Structure prediction by ZEFSAII (Michael W. Deem and Ramdas Pophale) SiO2 
 PCOD8021902
Probable space group: P -1
;
_chemical_formula_sum "Si O2"
_cell_formula_units_Z 14
_cell_length_a 10.730165
_cell_length_b 11.063493
_cell_length_c 8.928303
_cell_angle_alpha 61.429030
_cell_angle_beta 87.861935
_cell_angle_gamma 45.007949
_cell_volume 575.926342
_symmetry_space_group_name_H-M "P -1"
_symmetry_group_IT_number 2
_symmetry_cell_setting 'triclinic'
loop_
_space_group_symop_operation_xyz
x,y,z
-x,-y,-z
loop_
_atom_site_type_symbol
_atom_site_label
_atom_site_fract_x
_atom_site_fract_y
_atom_site_fract_z
Si Si1 0.114511 0.037866 0.420029
Si Si2 0.148753 0.328923 0.964186
Si Si3 0.768743 0.345117 0.056678
Si Si4 0.155324 0.041659 0.738799
Si Si5 0.539535 0.706782 0.076558
Si Si6 0.161363 0.548949 0.294704
Si Si7 0.551235 0.175160 0.664907
O O1 0.970207 0.237500 0.187278
O O2 0.147877 0.099480 0.532118
O O3 0.327499 0.828168 0.451664
O O4 0.000000 0.000000 0.500000
O O5 0.313414 0.075761 0.161964
O O6 0.274955 0.350419 0.891939
O O7 0.000000 0.500000 0.000000
O O8 0.011071 0.403621 0.785323
O O9 0.803488 0.156415 0.134815
O O10 0.589280 0.528984 0.076180
O O11 0.732211 0.458478 0.838660
O O12 0.342458 0.951888 0.868676
O O13 0.944309 0.254556 0.701805
O O14 0.489847 0.706107 0.249589
O O15 0.340365 0.314647 0.512759
#
# Coordination Sequence:
#
# PCOD8021902 Si02
#       7
#     2   2   2   2   2   2   2
#     4  10  22  44  70 103 146 186 237 299 354 428
#     4  12  26  50  74 103 151 188 244 303 355 432
#     4  11  22  46  69 105 151 189 239 304 358 426
#     4  11  24  43  73 104 149 189 245 301 361 426
#     4  12  24  46  72 106 146 194 242 297 360 427
#     4  12  25  46  74 111 143 193 240 298 368 424
#     4  12  26  46  75 111 143 191 246 293 367 433
#
# _framework density 24.308664
#
# number of rings (size 3 to 8) (size 9 to 14) (size 15 to 20)
#    0.000    0.571    4.286    3.000    0.000    3.429 
#    2.571    6.429    0.000    0.000    0.000    0.000 
#    0.000    0.000    0.000    0.000    0.000    0.000 
#
# Total GULP energy -173545.810920 kJ/mol
# GULP energy per Si atom -12396.129351 kJ/mol
# Density = 2.425334 g / cm^3
# Si number density = 24.308664 Si / 1000 Ang^3
#
#
#
# Elastic Constant Matrix: (Units=GPa)
#
#
# Indices 1 2 3 4 5 6 
#
# 1 68.4401 44.5394 25.4844 3.3772 9.7077 -14.4968
# 2 44.5394 192.2456 68.9604 21.0590 2.1588 -16.3710
# 3 25.4844 68.9604 138.4793 7.5549 42.5939 -14.3219
# 4 3.3772 21.0590 7.5549 55.6973 -9.8625 -2.7172
# 5 9.7077 2.1588 42.5939 -9.8625 40.1830 -5.0751
# 6 -14.4968 -16.3710 -14.3219 -2.7172 -5.0751 34.8122
#
#
#
# Elastic Compliance Matrix: (Units=1/GPa)
#
#
# Indices 1 2 3 4 5 6 
#
# 1 0.018799 -0.003936 0.000305 -0.000130 -0.003989 0.005511
# 2 -0.003936 0.007949 -0.004738 -0.001131 0.005376 0.000845
# 3 0.000305 -0.004738 0.014763 -0.002999 -0.016027 0.001402
# 4 -0.000130 -0.001131 -0.002999 0.020330 0.008386 0.000989
# 5 -0.003989 0.005376 -0.016027 0.008386 0.044792 0.001458
# 6 0.005511 0.000845 0.001402 0.000989 0.001458 0.032284
#
#
# Mechanical properties :
#
#
# Convention : Reuss Voigt Hill
#
# Bulk Modulus (GPa) = 40.37003 75.23704 57.80353
# Shear Modulus (GPa) = 30.50388 43.48389 36.99388
#
# Velocity S-wave (km/s) = 3.54624 4.23404 3.90531
# Velocity P-wave (km/s) = 5.78023 7.41085 6.64574
#
# Compressibility (1/GPa) = 0.02477085
#
# Stress axis : x y z
#
# Youngs Moduli (GPa) = 53.19413 125.80512 67.73677
#
# Poissons Ratio (x) = 0.49520 -0.02063
# Poissons Ratio (y) = 0.20939 0.32096
# Poissons Ratio (z) = -0.01620 0.59611
#
# Static dielectric constant tensor:
#      x y z
#    x 4.295210 -0.239270 0.499890 
#    y -0.239270 4.694170 0.155250 
#    z 0.499890 0.155250 4.942390 
# 
# 
# High freq. dielectric constant tensor:
#      x y z
#    x 1.948190 -0.019150 0.026190 
#    y -0.019150 1.982370 0.007230 
#    z 0.026190 0.007230 1.976840 
# 
# From -- ./inp_files/257551.got.cif
#   From: 2010.06.25/outbox.cif.g09.slc.cpg/sg2_129_cif.got.tgz:257551.got - 2010.06.27 13:26:56.
