data_PCOD8021784
_publ_section_title
;
Structure prediction by ZEFSAII (Michael W. Deem and Ramdas Pophale) SiO2 
 PCOD8021784
Probable space group: P -1
;
_chemical_formula_sum "Si O2"
_cell_formula_units_Z 10
_cell_length_a 7.297111
_cell_length_b 16.108846
_cell_length_c 10.664658
_cell_angle_alpha 144.822035
_cell_angle_beta 56.768018
_cell_angle_gamma 99.415156
_cell_volume 487.731368
_symmetry_space_group_name_H-M "P -1"
_symmetry_group_IT_number 2
_symmetry_cell_setting 'triclinic'
loop_
_space_group_symop_operation_xyz
x,y,z
-x,-y,-z
loop_
_atom_site_type_symbol
_atom_site_label
_atom_site_fract_x
_atom_site_fract_y
_atom_site_fract_z
Si Si1 0.784940 0.393014 0.693517
Si Si2 0.552650 0.011496 0.684252
Si Si3 0.047443 0.807135 0.865765
Si Si4 0.766690 0.969422 0.811619
Si Si5 0.201324 0.286282 0.965581
O O1 0.771705 0.317937 0.471991
O O2 0.500000 0.500000 0.000000
O O3 0.880815 0.518515 0.787171
O O4 0.990548 0.237545 0.519378
O O5 0.718860 0.020568 0.745495
O O6 0.478737 0.161481 0.791593
O O7 0.744737 0.813811 0.309780
O O8 0.266669 0.050762 0.887311
O O9 0.170563 0.908525 0.989605
O O10 0.048291 0.691729 0.838041
O O11 0.500000 0.000000 0.000000
#
# Coordination Sequence:
#
# PCOD8021784 Si02
#       5
#     2   2   2   2   2
#     4  12  25  41  68 100 134 164 214 279 325 364
#     4   9  21  43  71  90 129 174 222 248 329 391
#     4  10  22  44  68  87 136 175 210 257 331 382
#     4  12  24  41  70  97 128 173 219 263 322 388
#     4   9  21  45  67  92 132 174 211 267 320 388
#
# _framework density 20.50309
#
# number of rings (size 3 to 8) (size 9 to 14) (size 15 to 20)
#    1.200    0.400    2.000    2.400    2.800    1.600 
#    0.000    2.000    0.000    0.000    0.000    0.000 
#    0.000    0.000    0.000    0.000    0.000    0.000 
#
# Total GULP energy -123957.003459 kJ/mol
# GULP energy per Si atom -12395.700346 kJ/mol
# Density = 2.045642 g / cm^3
# Si number density = 20.503090 Si / 1000 Ang^3
#
#
#
# Elastic Constant Matrix: (Units=GPa)
#
#
# Indices 1 2 3 4 5 6 
#
# 1 98.3198 29.4696 53.3585 -4.3458 17.4409 4.4303
# 2 29.4696 89.4634 47.8142 -4.9437 10.2533 16.6977
# 3 53.3585 47.8142 109.3071 -23.2606 16.3799 -2.7821
# 4 -4.3458 -4.9437 -23.2606 39.3855 3.8507 8.0711
# 5 17.4409 10.2533 16.3799 3.8507 32.6630 -6.1579
# 6 4.4303 16.6977 -2.7821 8.0711 -6.1579 30.2075
#
#
#
# Elastic Compliance Matrix: (Units=1/GPa)
#
#
# Indices 1 2 3 4 5 6 
#
# 1 0.014893 -0.000113 -0.006813 -0.001197 -0.005010 -0.003451
# 2 -0.000113 0.017731 -0.007225 0.000702 -0.004130 -0.011479
# 3 -0.006813 -0.007225 0.018084 0.008616 -0.003492 0.003644
# 4 -0.001197 0.000702 0.008616 0.033520 -0.009810 -0.010375
# 5 -0.005010 -0.004130 -0.003492 -0.009810 0.040036 0.013478
# 6 -0.003451 -0.011479 0.003644 -0.010375 0.013478 0.045811
#
#
# Mechanical properties :
#
#
# Convention : Reuss Voigt Hill
#
# Bulk Modulus (GPa) = 44.62759 62.04163 53.33461
# Shear Modulus (GPa) = 24.29009 31.54774 27.91891
#
# Velocity S-wave (km/s) = 3.44569 3.92686 3.69412
# Velocity P-wave (km/s) = 6.13546 7.13342 6.65318
#
# Compressibility (1/GPa) = 0.02240766
#
# Stress axis : x y z
#
# Youngs Moduli (GPa) = 67.14431 56.39866 55.29708
#
# Poissons Ratio (x) = 0.00635 0.37673
# Poissons Ratio (y) = 0.00756 0.39952
# Poissons Ratio (z) = 0.45744 0.40748
#
# Static dielectric constant tensor:
#      x y z
#    x 3.514470 -0.112260 0.148170 
#    y -0.112260 3.791490 -0.101970 
#    z 0.148170 -0.101970 3.609240 
# 
# 
# High freq. dielectric constant tensor:
#      x y z
#    x 1.784840 -0.007220 0.017610 
#    y -0.007220 1.809230 -0.011140 
#    z 0.017610 -0.011140 1.796620 
# 
# From -- ./inp_files/131947.got.cif
#   From: 2010.06.25/outbox.cif.g09.slc.cpg/sg2_66_cif.got.tgz:131947.got - 2010.06.27 13:26:56.
