data_PCOD8021287
_publ_section_title
;
Structure prediction by ZEFSAII (Michael W. Deem and Ramdas Pophale) SiO2 
 PCOD8021287
Probable space group: P -1
;
_chemical_formula_sum "Si O2"
_cell_formula_units_Z 14
_cell_length_a 5.934520
_cell_length_b 11.691124
_cell_length_c 9.081373
_cell_angle_alpha 80.502792
_cell_angle_beta 81.564648
_cell_angle_gamma 87.179638
_cell_volume 614.515989
_symmetry_space_group_name_H-M "P -1"
_symmetry_group_IT_number 2
_symmetry_cell_setting 'triclinic'
loop_
_space_group_symop_operation_xyz
x,y,z
-x,-y,-z
loop_
_atom_site_type_symbol
_atom_site_label
_atom_site_fract_x
_atom_site_fract_y
_atom_site_fract_z
Si Si1 0.500462 0.840776 0.448614
Si Si2 0.351885 0.859794 0.929112
Si Si3 0.306574 0.412818 0.490392
Si Si4 0.998912 0.501455 0.248191
Si Si5 0.281359 0.968672 0.200233
Si Si6 0.699788 0.407483 0.045190
Si Si7 0.828117 0.034340 0.361840
O O1 0.576099 0.710813 0.489179
O O2 0.462695 0.878899 0.275970
O O3 0.264380 0.854802 0.560578
O O4 0.698338 0.924806 0.467433
O O5 0.388057 0.723112 0.924731
O O6 0.205846 0.930576 0.810270
O O7 0.605665 0.912741 0.892331
O O8 0.208131 0.891419 0.084182
O O9 0.500000 0.500000 0.500000
O O10 0.112615 0.418071 0.632226
O O11 0.198463 0.428487 0.332691
O O12 0.808330 0.427342 0.194206
O O13 0.105278 0.584143 0.098381
O O14 0.096101 0.999564 0.341019
O O15 0.500000 0.500000 0.000000
#
# Coordination Sequence:
#
# PCOD8021287 Si02
#       7
#     2   2   2   2   2   2   2
#     4  10  24  41  68  98 130 174 225 276 341 399
#     4  10  24  41  67 100 132 176 225 277 342 398
#     4  11  25  46  70 101 139 175 229 286 337 413
#     4  10  26  45  68 104 131 187 227 270 360 396
#     4  10  22  43  69  99 131 177 224 281 339 403
#     4  11  25  46  69 102 139 177 230 286 336 413
#     4  10  22  44  63  98 133 173 222 280 334 409
#
# _framework density 22.782160000000001
#
# number of rings (size 3 to 8) (size 9 to 14) (size 15 to 20)
#    0.000    1.714    0.000    1.714   10.000    3.429 
#    5.143    0.000    0.000    0.000    0.000    0.000 
#    0.000    0.000    0.000    0.000    0.000    0.000 
#
# Total GULP energy -173435.433770 kJ/mol
# GULP energy per Si atom -12388.245269 kJ/mol
# Density = 2.273031 g / cm^3
# Si number density = 22.782160 Si / 1000 Ang^3
#
#
#
# Elastic Constant Matrix: (Units=GPa)
#
#
# Indices 1 2 3 4 5 6 
#
# 1 101.1195 64.1037 39.0831 -3.6137 15.8356 -9.2508
# 2 64.1037 178.5575 51.3540 -5.6638 13.8674 -12.5228
# 3 39.0831 51.3540 109.9493 5.5328 13.9601 -5.3653
# 4 -3.6137 -5.6638 5.5328 25.1473 -3.9593 1.9367
# 5 15.8356 13.8674 13.9601 -3.9593 47.5890 5.0149
# 6 -9.2508 -12.5228 -5.3653 1.9367 5.0149 29.6894
#
#
#
# Elastic Compliance Matrix: (Units=1/GPa)
#
#
# Indices 1 2 3 4 5 6 
#
# 1 0.014141 -0.003818 -0.002790 0.001109 -0.002969 0.002721
# 2 -0.003818 0.007810 -0.002234 0.001510 -0.000400 0.001670
# 3 -0.002790 -0.002234 0.011659 -0.003897 -0.002263 0.000932
# 4 0.001109 0.001510 -0.003897 0.042022 0.004164 -0.003166
# 5 -0.002969 -0.000400 -0.002263 0.004164 0.023738 -0.005784
# 6 0.002721 0.001670 0.000932 -0.003166 -0.005784 0.036586
#
#
# Mechanical properties :
#
#
# Convention : Reuss Voigt Hill
#
# Bulk Modulus (GPa) = 62.78706 77.63420 70.21063
# Shear Modulus (GPa) = 31.45662 36.15751 33.80707
#
# Velocity S-wave (km/s) = 3.71988 3.98816 3.85636
# Velocity P-wave (km/s) = 6.78746 7.44029 7.12136
#
# Compressibility (1/GPa) = 0.01592685
#
# Stress axis : x y z
#
# Youngs Moduli (GPa) = 70.71455 128.04408 85.76914
#
# Poissons Ratio (x) = 0.48887 0.23925
# Poissons Ratio (y) = 0.26999 0.19163
# Poissons Ratio (z) = 0.19726 0.28608
#
# Static dielectric constant tensor:
#      x y z
#    x 4.344660 0.291260 0.312190 
#    y 0.291260 4.635010 0.775810 
#    z 0.312190 0.775810 5.026290 
# 
# 
# High freq. dielectric constant tensor:
#      x y z
#    x 1.896920 -0.008840 0.005180 
#    y -0.008840 1.882220 0.003120 
#    z 0.005180 0.003120 1.929830 
# 
# From -- ./inp_files/131425.got.cif
#   From: 2010.06.25/outbox.cif.g09.slc.cpg/sg2_66_cif.got.tgz:131425.got - 2010.06.27 13:26:56.
