data_PCOD8021344
_publ_section_title
;
Structure prediction by ZEFSAII (Michael W. Deem and Ramdas Pophale) SiO2 
 PCOD8021344
Probable space group: P -1
;
_chemical_formula_sum "Si O2"
_cell_formula_units_Z 16
_cell_length_a 23.038788
_cell_length_b 8.769574
_cell_length_c 8.367287
_cell_angle_alpha 102.085528
_cell_angle_beta 45.053977
_cell_angle_gamma 134.300130
_cell_volume 709.061965
_symmetry_space_group_name_H-M "P -1"
_symmetry_group_IT_number 2
_symmetry_cell_setting 'triclinic'
loop_
_space_group_symop_operation_xyz
x,y,z
-x,-y,-z
loop_
_atom_site_type_symbol
_atom_site_label
_atom_site_fract_x
_atom_site_fract_y
_atom_site_fract_z
Si Si1 0.659486 0.603334 0.690058
Si Si2 0.615742 0.879357 0.748942
Si Si3 0.144229 0.370054 0.142519
Si Si4 0.933871 0.867960 0.268894
Si Si5 0.659779 0.881399 0.296276
Si Si6 0.851054 0.446968 0.493731
Si Si7 0.934878 0.437033 0.781727
Si Si8 0.384702 0.529306 0.621675
O O1 0.652706 0.779937 0.755201
O O2 0.801199 0.771713 0.528366
O O3 0.646565 0.530648 0.516980
O O4 0.544949 0.342331 0.961138
O O5 0.652070 0.923081 0.502928
O O6 0.698050 0.151523 0.716877
O O7 0.130292 0.422105 0.355171
O O8 0.104697 0.440674 0.100957
O O9 0.297470 0.541069 0.861256
O O10 0.039870 0.070179 0.248527
O O11 0.890451 0.620719 0.309525
O O12 0.000000 0.000000 0.000000
O O13 0.544399 0.797235 0.400089
O O14 0.649837 0.679803 0.259170
O O15 0.800524 0.133886 0.997437
O O16 0.952790 0.451974 0.285172
O O17 0.000000 0.500000 0.500000
#
# Coordination Sequence:
#
# PCOD8021344 Si02
#       8
#     2   2   2   2   2   2   2   2
#     4  10  23  45  70  98 135 178 224 279 333 408
#     4  10  24  45  69  99 134 180 226 276 338 394
#     4  11  24  45  67 102 131 183 222 278 340 398
#     4  12  25  43  67 100 136 176 224 281 342 399
#     4  10  23  42  70  97 135 177 227 276 329 411
#     4  11  26  45  69  98 138 178 227 280 338 408
#     4  10  24  43  66 101 131 178 221 279 337 396
#     4  10  22  43  70  97 134 180 225 272 339 394
#
# _framework density 22.565023
#
# number of rings (size 3 to 8) (size 9 to 14) (size 15 to 20)
#    0.000    1.500    1.250    1.875    8.750    2.500 
#    6.750    0.000    0.000    0.000    0.000    0.000 
#    0.000    0.000    0.000    0.000    0.000    0.000 
#
# Total GULP energy -198409.596225 kJ/mol
# GULP energy per Si atom -12400.599764 kJ/mol
# Density = 2.251366 g / cm^3
# Si number density = 22.565023 Si / 1000 Ang^3
#
#
#
# Elastic Constant Matrix: (Units=GPa)
#
#
# Indices 1 2 3 4 5 6 
#
# 1 64.2851 15.6676 37.4517 7.2089 -4.1870 -8.8911
# 2 15.6676 92.0968 37.0811 -16.0973 7.5261 0.0695
# 3 37.4517 37.0811 145.0325 -20.1389 -8.3675 -6.7292
# 4 7.2089 -16.0973 -20.1389 35.3862 -8.4623 -4.5129
# 5 -4.1870 7.5261 -8.3675 -8.4623 38.5497 -1.7631
# 6 -8.8911 0.0695 -6.7292 -4.5129 -1.7631 36.2930
#
#
#
# Elastic Compliance Matrix: (Units=1/GPa)
#
#
# Indices 1 2 3 4 5 6 
#
# 1 0.020912 -0.002704 -0.005747 -0.008415 -0.000158 0.003009
# 2 -0.002704 0.013211 -0.002196 0.004668 -0.002354 -0.000629
# 3 -0.005747 -0.002196 0.010200 0.007042 0.003635 0.001540
# 4 -0.008415 0.004668 0.007042 0.038681 0.008398 0.004453
# 5 -0.000158 -0.002354 0.003635 0.008398 0.029157 0.003101
# 6 0.003009 -0.000629 0.001540 0.004453 0.003101 0.029282
#
#
# Mechanical properties :
#
#
# Convention : Reuss Voigt Hill
#
# Bulk Modulus (GPa) = 43.42418 53.53502 48.47960
# Shear Modulus (GPa) = 29.34043 36.12671 32.73357
#
# Velocity S-wave (km/s) = 3.60983 4.00560 3.81285
# Velocity P-wave (km/s) = 6.05477 6.72082 6.39647
#
# Compressibility (1/GPa) = 0.02302864
#
# Stress axis : x y z
#
# Youngs Moduli (GPa) = 47.81883 75.69381 98.04383
#
# Poissons Ratio (x) = 0.20467 0.56344
# Poissons Ratio (y) = 0.12930 0.21534
# Poissons Ratio (z) = 0.27481 0.16625
#
# Static dielectric constant tensor:
#      x y z
#    x 4.482960 -0.250980 -0.231260 
#    y -0.250980 3.988340 -0.153580 
#    z -0.231260 -0.153580 4.097920 
# 
# 
# High freq. dielectric constant tensor:
#      x y z
#    x 1.895270 -0.002790 -0.007210 
#    y -0.002790 1.878780 -0.010100 
#    z -0.007210 -0.010100 1.897350 
# 
# From -- ./inp_files/356616.got.cif
#   From: 2010.06.25/outbox.cif.g09.slc.cpg/sg2_179_cif.got.tgz:356616.got - 2010.06.27 13:26:56.
