data_PCOD8021948
_publ_section_title
;
Structure prediction by ZEFSAII (Michael W. Deem and Ramdas Pophale) SiO2 
 PCOD8021948
Probable space group: P -1
;
_chemical_formula_sum "Si O2"
_cell_formula_units_Z 14
_cell_length_a 9.708885
_cell_length_b 19.264409
_cell_length_c 9.002677
_cell_angle_alpha 57.622829
_cell_angle_beta 65.826385
_cell_angle_gamma 23.741464
_cell_volume 556.189134
_symmetry_space_group_name_H-M "P -1"
_symmetry_group_IT_number 2
_symmetry_cell_setting 'triclinic'
loop_
_space_group_symop_operation_xyz
x,y,z
-x,-y,-z
loop_
_atom_site_type_symbol
_atom_site_label
_atom_site_fract_x
_atom_site_fract_y
_atom_site_fract_z
Si Si1 0.503777 0.017843 0.805186
Si Si2 0.771468 0.138289 0.117895
Si Si3 0.762546 0.724921 0.904353
Si Si4 0.739449 0.565620 0.741879
Si Si5 0.705445 0.101974 0.612283
Si Si6 0.405154 0.432199 0.748857
Si Si7 0.728220 0.441239 0.643545
O O1 0.699386 0.007576 0.699330
O O2 0.107888 0.217459 0.691704
O O3 0.706885 0.848241 0.818376
O O4 0.500000 0.000000 0.000000
O O5 0.597925 0.135712 0.160778
O O6 0.566878 0.286502 0.170118
O O7 0.742444 0.210364 0.902354
O O8 0.180169 0.932398 0.227762
O O9 0.056302 0.567636 0.827351
O O10 0.886645 0.616245 0.126348
O O11 0.673460 0.673393 0.529416
O O12 0.727660 0.485792 0.750843
O O13 0.000000 0.000000 0.500000
O O14 0.450902 0.503524 0.700488
O O15 0.375301 0.443037 0.572024
#
# Coordination Sequence:
#
# PCOD8021948 Si02
#       7
#     2   2   2   2   2   2   2
#     4  12  26  46  71 107 142 187 239 300 355 422
#     4  10  23  44  71 104 139 184 239 289 356 419
#     4  11  25  45  78  98 146 185 246 283 365 420
#     4  10  22  44  71 100 137 186 239 286 348 423
#     4  10  25  44  71 105 144 183 245 285 358 426
#     4  10  24  43  68 107 143 188 230 298 356 430
#     4  11  25  42  69 106 147 179 241 293 362 412
#
# _framework density 25.171295000000001
#
# number of rings (size 3 to 8) (size 9 to 14) (size 15 to 20)
#    0.000    1.429    1.429    2.571   10.000    5.714 
#    0.000    2.143    0.000    0.000    0.000    0.000 
#    0.000    0.000    0.000    0.000    0.000    0.000 
#
# Total GULP energy -173560.400329 kJ/mol
# GULP energy per Si atom -12397.171452 kJ/mol
# Density = 2.511400 g / cm^3
# Si number density = 25.171295 Si / 1000 Ang^3
#
#
#
# Elastic Constant Matrix: (Units=GPa)
#
#
# Indices 1 2 3 4 5 6 
#
# 1 138.0885 27.4464 49.3001 -3.4008 0.3819 -0.8644
# 2 27.4464 30.9458 9.0875 -2.1077 -2.5662 -18.3814
# 3 49.3001 9.0875 136.7675 -18.2232 -6.9355 -24.1509
# 4 -3.4008 -2.1077 -18.2232 32.5812 5.9024 14.6665
# 5 0.3819 -2.5662 -6.9355 5.9024 42.6134 -8.6952
# 6 -0.8644 -18.3814 -24.1509 14.6665 -8.6952 13.2583
#
#
#
# Elastic Compliance Matrix: (Units=1/GPa)
#
#
# Indices 1 2 3 4 5 6 
#
# 1 0.006512 0.004048 -0.000477 -0.007592 0.004534 0.016539
# 2 0.004048 -0.002606 -0.009101 0.024166 -0.016790 -0.057673
# 3 -0.000477 -0.009101 0.006875 0.009815 -0.003493 -0.013274
# 4 -0.007592 0.024166 0.009815 0.021936 0.006367 0.030797
# 5 0.004534 -0.016790 -0.003493 0.006367 0.015632 -0.026135
# 6 0.016539 -0.057673 -0.013274 0.030797 -0.026135 -0.078843
#
#
# Mechanical properties :
#
#
# Convention : Reuss Voigt Hill
#
# Bulk Modulus (GPa) = -3562.44810 53.05220 -1754.69795
# Shear Modulus (GPa) = -256.06059 32.35511 -111.85274
#
# Velocity S-wave (km/s) = -10.09693 3.58913 -6.67331
# Velocity P-wave (km/s) = 39.42442 6.18854 27.53168
#
# Compressibility (1/GPa) = -0.00028071
#
# Stress axis : x y z
#
# Youngs Moduli (GPa) = 153.57288 -383.74777 145.45224
#
# Poissons Ratio (x) = 1.55338 0.06942
# Poissons Ratio (y) = -0.62165 1.32382
# Poissons Ratio (z) = 0.07329 -3.49265
#
# Static dielectric constant tensor:
#      x y z
#    x 4.496770 -0.073830 0.420370 
#    y -0.073830 4.431460 -0.652660 
#    z 0.420370 -0.652660 5.582640 
# 
# 
# High freq. dielectric constant tensor:
#      x y z
#    x 2.011260 0.002250 0.012710 
#    y 0.002250 1.982580 -0.016220 
#    z 0.012710 -0.016220 2.022150 
# 
# From -- ./inp_files/216987.got.cif
#   From: 2010.06.25/outbox.cif.g09.slc.cpg/sg2_109_cif.got.tgz:216987.got - 2010.06.27 13:26:56.
