data_PCOD8021252
_publ_section_title
;
Structure prediction by ZEFSAII (Michael W. Deem and Ramdas Pophale) SiO2 
 PCOD8021252
Probable space group: P -1
;
_chemical_formula_sum "Si O2"
_cell_formula_units_Z 14
_cell_length_a 5.744605
_cell_length_b 10.048869
_cell_length_c 9.879342
_cell_angle_alpha 84.698369
_cell_angle_beta 73.348437
_cell_angle_gamma 75.882519
_cell_volume 529.729387
_symmetry_space_group_name_H-M "P -1"
_symmetry_group_IT_number 2
_symmetry_cell_setting 'triclinic'
loop_
_space_group_symop_operation_xyz
x,y,z
-x,-y,-z
loop_
_atom_site_type_symbol
_atom_site_label
_atom_site_fract_x
_atom_site_fract_y
_atom_site_fract_z
Si Si1 0.125991 0.771598 0.452425
Si Si2 0.658786 0.707440 0.237955
Si Si3 0.185972 0.779493 0.839146
Si Si4 0.403001 0.366800 0.043808
Si Si5 0.245291 0.991151 0.611838
Si Si6 0.240110 0.069496 0.961782
Si Si7 0.056664 0.572543 0.694655
O O1 0.384464 0.720225 0.338401
O O2 0.122747 0.883021 0.560340
O O3 0.045323 0.637224 0.539345
O O4 0.923181 0.852707 0.371178
O O5 0.711002 0.861941 0.199884
O O6 0.843231 0.593497 0.309960
O O7 0.702355 0.656427 0.082370
O O8 0.357752 0.754073 0.946790
O O9 0.272328 0.918089 0.761090
O O10 0.243908 0.647576 0.741881
O O11 0.889116 0.808768 0.921590
O O12 0.212470 0.390414 0.198005
O O13 0.500000 0.500000 0.000000
O O14 0.500000 0.000000 0.500000
O O15 0.500000 0.000000 0.000000
O O16 0.000000 0.000000 0.000000
#
# Coordination Sequence:
#
# PCOD8021252 Si02
#       7
#     2   2   2   2   2   2   2
#     4  10  24  44  69 100 140 181 237 301 356 444
#     4  12  24  46  71 106 143 184 243 304 367 435
#     4  11  23  42  69  98 136 187 241 290 364 437
#     4  12  23  42  70 101 143 191 238 298 367 442
#     4  10  22  43  69  94 136 189 233 286 368 433
#     4  12  27  44  69 106 149 191 244 310 370 437
#     4  11  23  45  70 100 139 188 235 298 372 436
#
# _framework density 26.428585000000002
#
# number of rings (size 3 to 8) (size 9 to 14) (size 15 to 20)
#    0.000    0.857    2.857    4.286    2.000    0.000 
#    2.571    0.714    0.000    0.000    0.000    0.000 
#    0.000    0.000    0.000    0.000    0.000    0.000 
#
# Total GULP energy -173473.011338 kJ/mol
# GULP energy per Si atom -12390.929381 kJ/mol
# Density = 2.636843 g / cm^3
# Si number density = 26.428585 Si / 1000 Ang^3
#
#
#
# Elastic Constant Matrix: (Units=GPa)
#
#
# Indices 1 2 3 4 5 6 
#
# 1 82.8597 49.2325 33.1397 -23.8621 -19.6511 -26.3594
# 2 49.2325 171.1382 60.5236 -44.8827 -16.5660 -29.9903
# 3 33.1397 60.5236 171.4634 -43.0742 -48.5402 -26.0231
# 4 -23.8621 -44.8827 -43.0742 58.7070 -9.1125 -8.0770
# 5 -19.6511 -16.5660 -48.5402 -9.1125 49.1228 -0.9620
# 6 -26.3594 -29.9903 -26.0231 -8.0770 -0.9620 61.0025
#
#
#
# Elastic Compliance Matrix: (Units=1/GPa)
#
#
# Indices 1 2 3 4 5 6 
#
# 1 0.033831 0.003846 0.019056 0.041420 0.041947 0.030784
# 2 0.003846 0.011075 0.006185 0.018622 0.015083 0.012448
# 3 0.019056 0.006185 0.030106 0.046387 0.048671 0.031027
# 4 0.041420 0.018622 0.046387 0.104544 0.089295 0.062091
# 5 0.041947 0.015083 0.048671 0.089295 0.108054 0.059830
# 6 0.030784 0.012448 0.031027 0.062091 0.059830 0.058215
#
#
# Mechanical properties :
#
#
# Convention : Reuss Voigt Hill
#
# Bulk Modulus (GPa) = 7.50828 79.02810 43.26819
# Shear Modulus (GPa) = 15.05808 52.60416 33.83112
#
# Velocity S-wave (km/s) = 2.38956 4.46626 3.58172
# Velocity P-wave (km/s) = 3.23427 7.52091 5.78898
#
# Compressibility (1/GPa) = 0.13318627
#
# Stress axis : x y z
#
# Youngs Moduli (GPa) = 29.55832 90.29516 33.21542
#
# Poissons Ratio (x) = -0.34728 -0.63295
# Poissons Ratio (y) = -0.11368 -0.20543
# Poissons Ratio (z) = -0.56326 -0.55845
#
# Static dielectric constant tensor:
#      x y z
#    x 4.365650 0.122810 0.111350 
#    y 0.122810 5.598200 -0.195520 
#    z 0.111350 -0.195520 5.180290 
# 
# 
# High freq. dielectric constant tensor:
#      x y z
#    x 2.058310 0.019490 -0.003450 
#    y 0.019490 2.091530 -0.012970 
#    z -0.003450 -0.012970 2.078100 
# 
# From -- ./inp_files/68814.got.cif
#   From: 2010.06.25/outbox.cif.g09.slc.cpg/sg2_35_cif.got.tgz:68814.got - 2010.06.27 13:26:56.
