data_PCOD8021089
_publ_section_title
;
Structure prediction by ZEFSAII (Michael W. Deem and Ramdas Pophale) SiO2 
 PCOD8021089
Probable space group: P -1
;
_chemical_formula_sum "Si O2"
_cell_formula_units_Z 16
_cell_length_a 12.002038
_cell_length_b 11.710770
_cell_length_c 11.373287
_cell_angle_alpha 128.395889
_cell_angle_beta 76.521779
_cell_angle_gamma 61.422933
_cell_volume 701.581771
_symmetry_space_group_name_H-M "P -1"
_symmetry_group_IT_number 2
_symmetry_cell_setting 'triclinic'
loop_
_space_group_symop_operation_xyz
x,y,z
-x,-y,-z
loop_
_atom_site_type_symbol
_atom_site_label
_atom_site_fract_x
_atom_site_fract_y
_atom_site_fract_z
Si Si1 0.672715 0.811388 0.994419
Si Si2 0.733442 0.025204 0.540375
Si Si3 0.920795 0.064253 0.379238
Si Si4 0.306547 0.505089 0.863235
Si Si5 0.528589 0.448569 0.596035
Si Si6 0.036422 0.261617 0.477492
Si Si7 0.377466 0.911052 0.003554
Si Si8 0.289960 0.218105 0.753582
O O1 0.884131 0.551838 0.717624
O O2 0.609783 0.031593 0.093450
O O3 0.507068 0.865559 0.036694
O O4 0.695106 0.801230 0.122185
O O5 0.786037 0.912586 0.583292
O O6 0.814232 0.819987 0.294072
O O7 0.497309 0.304930 0.775979
O O8 0.857256 0.045342 0.501237
O O9 0.905093 0.252854 0.520620
O O10 0.762217 0.178809 0.391466
O O11 0.147911 0.794281 0.116297
O O12 0.398954 0.444590 0.672361
O O13 0.192029 0.469005 0.885839
O O14 0.500000 0.500000 0.500000
O O15 0.456258 0.665086 0.823404
O O16 0.145829 0.154003 0.256043
O O17 0.500000 0.000000 0.500000
#
# Coordination Sequence:
#
# PCOD8021089 Si02
#       8
#     2   2   2   2   2   2   2   2
#     4  11  25  43  70  95 135 177 220 277 327 391
#     4  10  24  40  67  99 135 171 216 275 331 385
#     4  11  23  42  65  98 130 172 220 268 333 390
#     4  10  22  43  67  96 130 167 220 268 331 389
#     4  11  25  45  67  96 133 174 220 275 328 389
#     4  12  23  44  65 101 134 174 227 268 326 402
#     4  11  24  45  68  95 133 180 222 270 331 391
#     4  10  22  44  67  99 131 170 220 272 333 389
#
# _framework density 22.805609
#
# number of rings (size 3 to 8) (size 9 to 14) (size 15 to 20)
#    0.000    1.250    2.500    3.000    5.250    3.000 
#    0.000    0.000    0.000    0.000    0.000    0.000 
#    0.000    0.000    0.000    0.000    0.000    0.000 
#
# Total GULP energy -198335.103705 kJ/mol
# GULP energy per Si atom -12395.943982 kJ/mol
# Density = 2.275370 g / cm^3
# Si number density = 22.805609 Si / 1000 Ang^3
#
#
#
# Elastic Constant Matrix: (Units=GPa)
#
#
# Indices 1 2 3 4 5 6 
#
# 1 67.8150 28.7215 26.8542 -6.3189 -3.9565 11.3773
# 2 28.7215 107.2595 16.9256 -6.5203 0.0376 10.3949
# 3 26.8542 16.9256 82.8895 2.6044 -13.9737 0.3689
# 4 -6.3189 -6.5203 2.6044 35.1297 -3.7791 -1.3661
# 5 -3.9565 0.0376 -13.9737 -3.7791 31.2729 2.4113
# 6 11.3773 10.3949 0.3689 -1.3661 2.4113 24.4438
#
#
#
# Elastic Compliance Matrix: (Units=1/GPa)
#
#
# Indices 1 2 3 4 5 6 
#
# 1 0.020159 -0.003558 -0.005705 0.003195 0.000986 -0.007703
# 2 -0.003558 0.010812 -0.001188 0.001279 -0.000624 -0.002791
# 3 -0.005705 -0.001188 0.015154 -0.001671 0.005673 0.002279
# 4 0.003195 0.001279 -0.001671 0.029731 0.003300 -0.000670
# 5 0.000986 -0.000624 0.005673 0.003300 0.035312 -0.003578
# 6 -0.007703 -0.002791 0.002279 -0.000670 -0.003578 0.045963
#
#
# Mechanical properties :
#
#
# Convention : Reuss Voigt Hill
#
# Bulk Modulus (GPa) = 39.64449 44.77407 42.20928
# Shear Modulus (GPa) = 26.81833 30.53345 28.67589
#
# Velocity S-wave (km/s) = 3.43294 3.66301 3.54984
# Velocity P-wave (km/s) = 5.75628 6.12909 5.94561
#
# Compressibility (1/GPa) = 0.02522419
#
# Stress axis : x y z
#
# Youngs Moduli (GPa) = 49.60507 92.49181 65.99011
#
# Poissons Ratio (x) = 0.32905 0.37645
# Poissons Ratio (y) = 0.17647 0.07841
# Poissons Ratio (z) = 0.28298 0.10989
#
# Static dielectric constant tensor:
#      x y z
#    x 4.676950 0.431220 0.247850 
#    y 0.431220 4.160620 0.265570 
#    z 0.247850 0.265570 4.100810 
# 
# 
# High freq. dielectric constant tensor:
#      x y z
#    x 1.899320 0.022130 -0.008950 
#    y 0.022130 1.900760 0.011420 
#    z -0.008950 0.011420 1.899300 
# 
# From -- ./inp_files/428919.got.cif
#   From: 2010.06.25/outbox.cif.g09.slc.cpg/sg2_215_cif.got.tgz:428919.got - 2010.06.27 13:26:56.
