data_PCOD8021516
_publ_section_title
;
Structure prediction by ZEFSAII (Michael W. Deem and Ramdas Pophale) SiO2 
 PCOD8021516
Probable space group: P -1
;
_chemical_formula_sum "Si O2"
_cell_formula_units_Z 12
_cell_length_a 6.722123
_cell_length_b 14.664643
_cell_length_c 6.952661
_cell_angle_alpha 109.027727
_cell_angle_beta 92.235891
_cell_angle_gamma 109.474160
_cell_volume 602.414445
_symmetry_space_group_name_H-M "P -1"
_symmetry_group_IT_number 2
_symmetry_cell_setting 'triclinic'
loop_
_space_group_symop_operation_xyz
x,y,z
-x,-y,-z
loop_
_atom_site_type_symbol
_atom_site_label
_atom_site_fract_x
_atom_site_fract_y
_atom_site_fract_z
Si Si1 0.051757 0.040008 0.242166
Si Si2 0.253464 0.930951 0.456751
Si Si3 0.748929 0.295109 0.696913
Si Si4 0.377282 0.269339 0.385170
Si Si5 0.225919 0.404903 0.743419
Si Si6 0.499754 0.363365 0.050371
O O1 0.244198 0.149701 0.338238
O O2 0.836652 0.047474 0.328266
O O3 0.119223 0.956012 0.299135
O O4 0.000000 0.000000 0.000000
O O5 0.214602 0.811364 0.353435
O O6 0.500000 0.000000 0.500000
O O7 0.610029 0.297132 0.506584
O O8 0.977247 0.387114 0.743449
O O9 0.638208 0.313475 0.897937
O O10 0.257014 0.339307 0.519823
O O11 0.397741 0.287658 0.171114
O O12 0.352588 0.525149 0.785655
O O13 0.307690 0.371836 0.921533
#
# Coordination Sequence:
#
# PCOD8021516 Si02
#       6
#     2   2   2   2   2   2
#     4  11  26  40  64  91 121 161 206 246 302 363
#     4  11  24  44  62  88 126 159 197 256 302 357
#     4  11  23  40  64  90 125 159 202 248 305 357
#     4  11  23  40  61  95 122 157 205 251 298 359
#     4  10  22  44  61  89 125 164 198 249 307 351
#     4  10  24  39  66  91 122 159 206 248 298 366
#
# _framework density 19.919840000000001
#
# number of rings (size 3 to 8) (size 9 to 14) (size 15 to 20)
#    0.000    1.333    3.333    1.000    4.667    4.000 
#    0.000    0.000    0.000    0.000    0.000    0.000 
#    0.000    0.000    0.000    0.000    0.000    0.000 
#
# Total GULP energy -148887.884966 kJ/mol
# GULP energy per Si atom -12407.323747 kJ/mol
# Density = 1.987450 g / cm^3
# Si number density = 19.919840 Si / 1000 Ang^3
#
#
#
# Elastic Constant Matrix: (Units=GPa)
#
#
# Indices 1 2 3 4 5 6 
#
# 1 110.2185 17.2982 41.6151 -4.6025 -0.7248 15.6375
# 2 17.2982 54.8690 20.4243 -6.3194 -9.1051 -9.1101
# 3 41.6151 20.4243 115.9044 -3.3428 -16.7173 -2.5296
# 4 -4.6025 -6.3194 -3.3428 32.8776 5.5292 -2.7518
# 5 -0.7248 -9.1051 -16.7173 5.5292 21.8049 4.7118
# 6 15.6375 -9.1101 -2.5296 -2.7518 4.7118 34.6364
#
#
#
# Elastic Compliance Matrix: (Units=1/GPa)
#
#
# Indices 1 2 3 4 5 6 
#
# 1 0.012187 -0.003763 -0.004302 0.000561 -0.003241 -0.006320
# 2 -0.003763 0.022469 -0.001533 0.003253 0.005750 0.006973
# 3 -0.004302 -0.001533 0.011610 -0.000979 0.008105 0.001206
# 4 0.000561 0.003253 -0.000979 0.032833 -0.008631 0.004313
# 5 -0.003241 0.005750 0.008105 -0.008631 0.057629 -0.004958
# 6 -0.006320 0.006973 0.001206 0.004313 -0.004958 0.034664
#
#
# Mechanical properties :
#
#
# Convention : Reuss Voigt Hill
#
# Bulk Modulus (GPa) = 36.94187 48.85190 42.89688
# Shear Modulus (GPa) = 25.04899 31.30740 28.17820
#
# Velocity S-wave (km/s) = 3.54996 3.96873 3.76517
# Velocity P-wave (km/s) = 5.94882 6.75119 6.36267
#
# Compressibility (1/GPa) = 0.02706956
#
# Stress axis : x y z
#
# Youngs Moduli (GPa) = 82.05790 44.50610 86.13635
#
# Poissons Ratio (x) = 0.16749 0.37052
# Poissons Ratio (y) = 0.30881 0.13203
# Poissons Ratio (z) = 0.35298 0.06822
#
# Static dielectric constant tensor:
#      x y z
#    x 3.797330 0.015220 -0.082260 
#    y 0.015220 3.840270 0.149430 
#    z -0.082260 0.149430 3.584500 
# 
# 
# High freq. dielectric constant tensor:
#      x y z
#    x 1.788650 0.000830 -0.004750 
#    y 0.000830 1.787780 0.007130 
#    z -0.004750 0.007130 1.777740 
# 
# From -- ./inp_files/3038.got.cif
#   From: 2010.06.25/outbox.cif.g09.slc.cpg/sg2_2_cif.got.tgz:3038.got - 2010.06.27 13:26:56.
