data_PCOD8021258
_publ_section_title
;
Structure prediction by ZEFSAII (Michael W. Deem and Ramdas Pophale) SiO2 
 PCOD8021258
Probable space group: P -1
;
_chemical_formula_sum "Si O2"
_cell_formula_units_Z 16
_cell_length_a 9.848064
_cell_length_b 13.862282
_cell_length_c 11.546730
_cell_angle_alpha 32.649562
_cell_angle_beta 79.128889
_cell_angle_gamma 92.666548
_cell_volume 769.898951
_symmetry_space_group_name_H-M "P -1"
_symmetry_group_IT_number 2
_symmetry_cell_setting 'triclinic'
loop_
_space_group_symop_operation_xyz
x,y,z
-x,-y,-z
loop_
_atom_site_type_symbol
_atom_site_label
_atom_site_fract_x
_atom_site_fract_y
_atom_site_fract_z
Si Si1 0.571172 0.539689 0.323396
Si Si2 0.138175 0.199706 0.287303
Si Si3 0.090139 0.156652 0.591108
Si Si4 0.461978 0.277045 0.205562
Si Si5 0.589394 0.836136 0.419518
Si Si6 0.596354 0.242475 0.990555
Si Si7 0.069797 0.499978 0.364740
Si Si8 0.902674 0.709040 0.041799
O O1 0.500000 0.500000 0.500000
O O2 0.516355 0.345462 0.452990
O O3 0.749572 0.615048 0.232988
O O4 0.534995 0.708960 0.096369
O O5 0.127363 0.274599 0.343223
O O6 0.296801 0.175538 0.277487
O O7 0.127717 0.336988 0.044879
O O8 0.000000 0.000000 0.500000
O O9 0.241771 0.152021 0.624597
O O10 0.022297 0.275098 0.564917
O O11 0.969059 0.939394 0.818903
O O12 0.470846 0.175776 0.427335
O O13 0.583144 0.256152 0.118286
O O14 0.500000 0.500000 0.000000
O O15 0.582617 0.029775 0.169384
O O16 0.751291 0.401217 0.759363
O O17 0.000000 0.500000 0.500000
O O18 0.015634 0.615258 0.162091
#
# Coordination Sequence:
#
# PCOD8021258 Si02
#       8
#     2   2   2   2   2   2   2   2
#     4  12  26  44  65  93 136 172 220 279 321 377
#     4   9  19  38  65  95 131 159 201 265 334 382
#     4  10  22  43  69  95 130 170 212 269 328 392
#     4  11  19  40  70  98 131 171 210 266 331 398
#     4  11  23  42  70  99 129 174 218 263 334 398
#     4  12  23  43  70  98 130 174 222 269 327 395
#     4  12  26  42  66  96 127 177 232 264 316 391
#     4  11  23  43  65  97 132 164 214 277 328 376
#
# _framework density 20.781948
#
# number of rings (size 3 to 8) (size 9 to 14) (size 15 to 20)
#    0.000    1.000    5.000    1.875    0.000    3.500 
#    0.000    0.000    0.000    0.000    0.000    0.000 
#    0.000    0.000    0.000    0.000    0.000    0.000 
#
# Total GULP energy -198418.124658 kJ/mol
# GULP energy per Si atom -12401.132791 kJ/mol
# Density = 2.073465 g / cm^3
# Si number density = 20.781948 Si / 1000 Ang^3
#
#
#
# Elastic Constant Matrix: (Units=GPa)
#
#
# Indices 1 2 3 4 5 6 
#
# 1 62.7817 32.3219 25.7371 -8.6585 -14.7286 -4.5422
# 2 32.3219 109.4417 50.9818 1.8114 4.4360 -19.8030
# 3 25.7371 50.9818 90.6140 -11.8245 -0.9007 -4.3533
# 4 -8.6585 1.8114 -11.8245 38.9124 -8.8229 -2.8317
# 5 -14.7286 4.4360 -0.9007 -8.8229 46.9148 -0.4348
# 6 -4.5422 -19.8030 -4.3533 -2.8317 -0.4348 25.9251
#
#
#
# Elastic Compliance Matrix: (Units=1/GPa)
#
#
# Indices 1 2 3 4 5 6 
#
# 1 0.023126 -0.006456 -0.001960 0.006898 0.009128 -0.000302
# 2 -0.006456 0.016688 -0.007776 -0.004911 -0.004588 0.009697
# 3 -0.001960 -0.007776 0.016496 0.005032 0.001356 -0.002941
# 4 0.006898 -0.004911 0.005032 0.031072 0.008587 0.001840
# 5 0.009128 -0.004588 0.001356 0.008587 0.026253 -0.000299
# 6 -0.000302 0.009697 -0.002941 0.001840 -0.000299 0.045629
#
#
# Mechanical properties :
#
#
# Convention : Reuss Voigt Hill
#
# Bulk Modulus (GPa) = 41.79353 53.43545 47.61449
# Shear Modulus (GPa) = 25.04702 32.60357 28.82529
#
# Velocity S-wave (km/s) = 3.47541 3.96516 3.72833
# Velocity P-wave (km/s) = 6.02153 6.83605 6.44167
#
# Compressibility (1/GPa) = 0.02392715
#
# Stress axis : x y z
#
# Youngs Moduli (GPa) = 43.24099 59.92268 60.61924
#
# Poissons Ratio (x) = 0.38685 0.11881
# Poissons Ratio (y) = 0.27915 0.47138
# Poissons Ratio (z) = 0.08475 0.46597
#
# Static dielectric constant tensor:
#      x y z
#    x 3.802340 0.114630 -0.073710 
#    y 0.114630 3.814090 0.197110 
#    z -0.073710 0.197110 3.864400 
# 
# 
# High freq. dielectric constant tensor:
#      x y z
#    x 1.814230 0.004050 -0.009580 
#    y 0.004050 1.807430 0.008680 
#    z -0.009580 0.008680 1.820040 
# 
# From -- ./inp_files/307763.got.cif
#   From: 2010.06.25/outbox.cif.g09.slc.cpg/sg2_154_cif.got.tgz:307763.got - 2010.06.27 13:26:56.
