data_PCOD8021518
_publ_section_title
;
Structure prediction by ZEFSAII (Michael W. Deem and Ramdas Pophale) SiO2 
 PCOD8021518
Probable space group: P -1
;
_chemical_formula_sum "Si O2"
_cell_formula_units_Z 16
_cell_length_a 16.629808
_cell_length_b 6.537407
_cell_length_c 9.667386
_cell_angle_alpha 134.669091
_cell_angle_beta 79.573185
_cell_angle_gamma 91.158430
_cell_volume 726.449733
_symmetry_space_group_name_H-M "P -1"
_symmetry_group_IT_number 2
_symmetry_cell_setting 'triclinic'
loop_
_space_group_symop_operation_xyz
x,y,z
-x,-y,-z
loop_
_atom_site_type_symbol
_atom_site_label
_atom_site_fract_x
_atom_site_fract_y
_atom_site_fract_z
Si Si1 0.583298 0.269576 0.855324
Si Si2 0.678418 0.565051 0.183730
Si Si3 0.620773 0.609668 0.534016
Si Si4 0.799646 0.414497 0.494808
Si Si5 0.155438 0.260260 0.835215
Si Si6 0.897706 0.384046 0.719255
Si Si7 0.082579 0.267466 0.573179
Si Si8 0.579401 0.142102 0.500938
O O1 0.616670 0.278155 0.691543
O O2 0.570588 0.934196 0.724071
O O3 0.500000 0.500000 0.000000
O O4 0.650795 0.336007 0.975966
O O5 0.641599 0.525276 0.328262
O O6 0.777021 0.537333 0.136762
O O7 0.645274 0.890121 0.294583
O O8 0.706067 0.571267 0.575845
O O9 0.560434 0.395365 0.513234
O O10 0.827379 0.481365 0.673080
O O11 0.859263 0.534767 0.423739
O O12 0.803837 0.071176 0.308425
O O13 0.088210 0.284314 0.746118
O O14 0.111529 0.377073 0.044886
O O15 0.987184 0.374465 0.613833
O O16 0.889571 0.069647 0.638407
O O17 0.500000 0.000000 0.500000
#
# Coordination Sequence:
#
# PCOD8021518 Si02
#       8
#     2   2   2   2   2   2   2   2
#     4  11  26  45  68 100 128 168 221 269 322 406
#     4  11  24  43  64  95 131 169 218 273 326 388
#     4  11  26  43  70  96 134 176 213 274 334 385
#     4  11  23  41  64  98 132 172 222 269 326 388
#     4  11  23  39  66  94 132 171 224 271 321 385
#     4  10  24  39  68  94 134 176 219 272 324 385
#     4  10  22  44  61  95 136 176 218 270 329 382
#     4  11  24  48  67  94 135 167 211 273 331 390
#
# _framework density 22.024925
#
# number of rings (size 3 to 8) (size 9 to 14) (size 15 to 20)
#    0.000    1.250    3.750    0.750    3.500    6.000 
#    0.000    0.000    0.000    0.000    0.000    0.000 
#    0.000    0.000    0.000    0.000    0.000    0.000 
#
# Total GULP energy -198387.726602 kJ/mol
# GULP energy per Si atom -12399.232913 kJ/mol
# Density = 2.197480 g / cm^3
# Si number density = 22.024925 Si / 1000 Ang^3
#
#
#
# Elastic Constant Matrix: (Units=GPa)
#
#
# Indices 1 2 3 4 5 6 
#
# 1 76.2906 31.0385 9.5892 3.7284 7.4775 1.5916
# 2 31.0385 132.2060 31.7991 5.8424 0.2863 13.0976
# 3 9.5892 31.7991 105.5197 1.9754 12.6673 -3.6019
# 4 3.7284 5.8424 1.9754 17.6637 -1.9902 0.3079
# 5 7.4775 0.2863 12.6673 -1.9902 29.7259 0.0858
# 6 1.5916 13.0976 -3.6019 0.3079 0.0858 41.2602
#
#
#
# Elastic Compliance Matrix: (Units=1/GPa)
#
#
# Indices 1 2 3 4 5 6 
#
# 1 0.015014 -0.003523 0.000246 -0.002494 -0.004016 0.000588
# 2 -0.003523 0.009454 -0.002828 -0.001800 0.001889 -0.003103
# 3 0.000246 -0.002828 0.010960 -0.000913 -0.004772 0.001862
# 4 -0.002494 -0.001800 -0.000913 0.058392 0.004943 0.000142
# 5 -0.004016 0.001889 -0.004772 0.004943 0.037000 -0.000975
# 6 0.000588 -0.003103 0.001862 0.000142 -0.000975 0.025362
#
#
# Mechanical properties :
#
#
# Convention : Reuss Voigt Hill
#
# Bulk Modulus (GPa) = 43.06980 50.98556 47.02768
# Shear Modulus (GPa) = 28.38801 33.83593 31.11197
#
# Velocity S-wave (km/s) = 3.59403 3.92376 3.76251
# Velocity P-wave (km/s) = 6.06796 6.61265 6.34615
#
# Compressibility (1/GPa) = 0.02321813
#
# Stress axis : x y z
#
# Youngs Moduli (GPa) = 66.60646 105.77373 91.23959
#
# Poissons Ratio (x) = 0.37268 -0.02247
# Poissons Ratio (y) = 0.23468 0.25801
# Poissons Ratio (z) = -0.01641 0.29911
#
# Static dielectric constant tensor:
#      x y z
#    x 4.097970 -0.180020 0.176120 
#    y -0.180020 4.134710 0.044210 
#    z 0.176120 0.044210 4.009030 
# 
# 
# High freq. dielectric constant tensor:
#      x y z
#    x 1.875740 -0.007600 0.011790 
#    y -0.007600 1.867440 0.000800 
#    z 0.011790 0.000800 1.861550 
# 
# From -- ./inp_files/141317.got.cif
#   From: 2010.06.25/outbox.cif.g09.slc.cpg/sg2_71_cif.got.tgz:141317.got - 2010.06.27 13:26:56.
