data_PCOD8021045
_publ_section_title
;
Structure prediction by ZEFSAII (Michael W. Deem and Ramdas Pophale) SiO2 
 PCOD8021045
Probable space group: P -1
;
_chemical_formula_sum "Si O2"
_cell_formula_units_Z 16
_cell_length_a 7.566087
_cell_length_b 5.254605
_cell_length_c 21.669477
_cell_angle_alpha 101.848112
_cell_angle_beta 135.876090
_cell_angle_gamma 81.649843
_cell_volume 587.011929
_symmetry_space_group_name_H-M "P -1"
_symmetry_group_IT_number 2
_symmetry_cell_setting 'triclinic'
loop_
_space_group_symop_operation_xyz
x,y,z
-x,-y,-z
loop_
_atom_site_type_symbol
_atom_site_label
_atom_site_fract_x
_atom_site_fract_y
_atom_site_fract_z
Si Si1 0.412334 0.935074 0.407085
Si Si2 0.620181 0.122381 0.838801
Si Si3 0.042905 0.217919 0.252410
Si Si4 0.088560 0.319554 0.691905
Si Si5 0.206930 0.383426 0.591168
Si Si6 0.246592 0.763468 0.986907
Si Si7 0.688749 0.571931 0.782007
Si Si8 0.815887 0.795436 0.092347
O O1 0.647128 0.836956 0.420974
O O2 0.177312 0.737390 0.344310
O O3 0.500000 0.000000 0.500000
O O4 0.302255 0.180754 0.354630
O O5 0.314854 0.140054 0.764627
O O6 0.733769 0.243969 0.935390
O O7 0.718982 0.287766 0.811102
O O8 0.699115 0.819861 0.842242
O O9 0.098137 0.396274 0.215719
O O10 0.850219 0.380969 0.256604
O O11 0.920545 0.939505 0.187260
O O12 0.057813 0.274867 0.608369
O O13 0.413611 0.584488 0.680416
O O14 0.000000 0.500000 0.500000
O O15 0.515497 0.759582 0.019817
O O16 0.086008 0.503743 0.912293
O O17 0.110644 0.026907 0.940425
#
# Coordination Sequence:
#
# PCOD8021045 Si02
#       8
#     2   2   2   2   2   2   2   2
#     4  12  28  47  76 111 150 201 250 316 372 453
#     4  11  25  46  74 107 149 197 253 307 379 448
#     4  12  26  47  71 106 152 190 258 305 382 450
#     4  11  27  44  75 106 145 204 246 307 381 442
#     4  11  26  48  73 107 150 193 256 310 374 448
#     4  10  22  43  67 109 146 187 257 307 372 452
#     4  11  26  47  72 105 149 201 240 318 379 445
#     4  10  24  38  72 106 144 198 240 318 374 441
#
# _framework density 27.256688
#
# number of rings (size 3 to 8) (size 9 to 14) (size 15 to 20)
#    0.000    1.000    1.250    3.750   17.500    1.500 
#    0.000    3.750    0.000    0.000    0.000    0.000 
#    0.000    0.000    0.000    0.000    0.000    0.000 
#
# Total GULP energy -198354.757867 kJ/mol
# GULP energy per Si atom -12397.172367 kJ/mol
# Density = 2.719465 g / cm^3
# Si number density = 27.256688 Si / 1000 Ang^3
#
#
#
# Elastic Constant Matrix: (Units=GPa)
#
#
# Indices 1 2 3 4 5 6 
#
# 1 93.8405 56.4786 20.7860 -0.2647 -26.2842 -12.2264
# 2 56.4786 183.3968 65.2619 -7.2918 -19.5301 -22.0008
# 3 20.7860 65.2619 171.1380 -10.8547 -29.0226 0.9872
# 4 -0.2647 -7.2918 -10.8547 49.5943 -1.2054 -3.3515
# 5 -26.2842 -19.5301 -29.0226 -1.2054 49.4494 9.9606
# 6 -12.2264 -22.0008 0.9872 -3.3515 9.9606 40.8999
#
#
#
# Elastic Compliance Matrix: (Units=1/GPa)
#
#
# Indices 1 2 3 4 5 6 
#
# 1 0.014890 -0.004126 0.000887 -0.000132 0.006688 0.000571
# 2 -0.004126 0.008015 -0.002754 0.000760 -0.001337 0.003532
# 3 0.000887 -0.002754 0.007616 0.001213 0.004359 -0.002362
# 4 -0.000132 0.000760 0.001213 0.020686 0.001090 0.001770
# 5 0.006688 -0.001337 0.004359 0.001090 0.026899 -0.005287
# 6 0.000571 0.003532 -0.002362 0.001770 -0.005287 0.028010
#
#
# Mechanical properties :
#
#
# Convention : Reuss Voigt Hill
#
# Bulk Modulus (GPa) = 53.95159 81.49203 67.72181
# Shear Modulus (GPa) = 40.23161 48.37866 44.30514
#
# Velocity S-wave (km/s) = 3.84608 4.21756 4.03610
# Velocity P-wave (km/s) = 6.28967 7.32666 6.82788
#
# Compressibility (1/GPa) = 0.01853514
#
# Stress axis : x y z
#
# Youngs Moduli (GPa) = 67.15799 124.76702 131.31057
#
# Poissons Ratio (x) = 0.51478 -0.11652
# Poissons Ratio (y) = 0.27709 0.36166
# Poissons Ratio (z) = -0.05959 0.34364
#
# Static dielectric constant tensor:
#      x y z
#    x 5.345340 -0.043550 0.268540 
#    y -0.043550 5.115800 -0.141560 
#    z 0.268540 -0.141560 5.305310 
# 
# 
# High freq. dielectric constant tensor:
#      x y z
#    x 2.123010 -0.004090 0.009720 
#    y -0.004090 2.098500 -0.008960 
#    z 0.009720 -0.008960 2.121430 
# 
# From -- ./inp_files/585754.got.cif
#   From: 2010.06.25/outbox.cif.g09.slc.cpg/sg2_293_cif.got.tgz:585754.got - 2010.06.27 13:26:56.
