data_PCOD8021222
_publ_section_title
;
Structure prediction by ZEFSAII (Michael W. Deem and Ramdas Pophale) SiO2 
 PCOD8021222
Probable space group: P -1
;
_chemical_formula_sum "Si O2"
_cell_formula_units_Z 8
_cell_length_a 9.569405
_cell_length_b 7.226176
_cell_length_c 9.594098
_cell_angle_alpha 91.796812
_cell_angle_beta 44.145213
_cell_angle_gamma 57.586135
_cell_volume 275.664365
_symmetry_space_group_name_H-M "P -1"
_symmetry_group_IT_number 2
_symmetry_cell_setting 'triclinic'
loop_
_space_group_symop_operation_xyz
x,y,z
-x,-y,-z
loop_
_atom_site_type_symbol
_atom_site_label
_atom_site_fract_x
_atom_site_fract_y
_atom_site_fract_z
Si Si1 0.297154 0.423279 0.272060
Si Si2 0.653085 0.369406 0.236331
Si Si3 0.721509 0.862586 0.202558
Si Si4 0.660903 0.089274 0.720300
O O1 0.515071 0.283769 0.256186
O O2 0.000000 0.500000 0.500000
O O3 0.547203 0.199461 0.962390
O O4 0.072572 0.778705 0.411160
O O5 0.500000 0.500000 0.500000
O O6 0.493474 0.647650 0.264732
O O7 0.064829 0.097883 0.936897
O O8 0.498871 0.992116 0.223497
O O9 0.500000 0.000000 0.500000
O O10 0.000000 0.500000 0.000000
#
# Coordination Sequence:
#
# PCOD8021222 Si02
#       4
#     2   2   2   2
#     4  12  26  47  72 105 143 189 240 296 357 426
#     4  11  25  46  75 111 145 189 241 296 359 430
#     4  10  22  43  69 101 139 183 232 290 350 414
#     4  11  24  48  72 101 144 191 235 294 358 426
#
# _framework density 29.020796000000001
#
# number of rings (size 3 to 8) (size 9 to 14) (size 15 to 20)
#    0.000    1.000    0.000    6.750    0.000    6.000 
#    0.000   16.250    0.000    0.000    0.000    0.000 
#    0.000    0.000    0.000    0.000    0.000    0.000 
#
# Total GULP energy -99255.820521 kJ/mol
# GULP energy per Si atom -12406.977565 kJ/mol
# Density = 2.895474 g / cm^3
# Si number density = 29.020796 Si / 1000 Ang^3
#
#
#
# Elastic Constant Matrix: (Units=GPa)
#
#
# Indices 1 2 3 4 5 6 
#
# 1 289.0084 91.2653 137.1536 -4.9835 0.6593 -38.5063
# 2 91.2653 102.2282 54.6781 9.3151 -18.8201 -24.8972
# 3 137.1536 54.6781 245.4454 -5.3901 12.2392 -23.0248
# 4 -4.9835 9.3151 -5.3901 66.3288 -14.0971 -8.1181
# 5 0.6593 -18.8201 12.2392 -14.0971 72.6094 0.9454
# 6 -38.5063 -24.8972 -23.0248 -8.1181 0.9454 67.1020
#
#
#
# Elastic Compliance Matrix: (Units=1/GPa)
#
#
# Indices 1 2 3 4 5 6 
#
# 1 0.005998 -0.003995 -0.002295 0.000865 -0.000552 0.001285
# 2 -0.003995 0.015531 -0.001189 -0.001390 0.003955 0.002838
# 3 -0.002295 -0.001189 0.005710 0.000232 -0.001208 0.000246
# 4 0.000865 -0.001390 0.000232 0.016173 0.002707 0.001979
# 5 -0.000552 0.003955 -0.001208 0.002707 0.015521 0.000845
# 6 0.001285 0.002838 0.000246 0.001979 0.000845 0.017005
#
#
# Mechanical properties :
#
#
# Convention : Reuss Voigt Hill
#
# Bulk Modulus (GPa) = 81.42525 133.65289 107.53907
# Shear Modulus (GPa) = 52.63841 64.78038 58.70940
#
# Velocity S-wave (km/s) = 4.26351 4.72975 4.50267
# Velocity P-wave (km/s) = 7.23569 8.71674 8.01051
#
# Compressibility (1/GPa) = 0.01228120
#
# Stress axis : x y z
#
# Youngs Moduli (GPa) = 166.72272 64.38937 175.13916
#
# Poissons Ratio (x) = 0.25724 0.40188
# Poissons Ratio (y) = 0.66606 0.20822
# Poissons Ratio (z) = 0.38257 0.07655
#
# Static dielectric constant tensor:
#      x y z
#    x 8.159340 0.606960 -1.915170 
#    y 0.606960 7.845650 0.352070 
#    z -1.915170 0.352070 2.552270 
# 
# 
# High freq. dielectric constant tensor:
#      x y z
#    x 2.240140 0.016320 -0.031230 
#    y 0.016320 2.281040 0.033140 
#    z -0.031230 0.033140 2.170050 
# 
# From -- ./inp_files/15802.got.cif
#   From: 2010.06.25/outbox.cif.g09.slc.cpg/sg2_8_cif.got.tgz:15802.got - 2010.06.27 13:26:56.
