data_PCOD8021420
_publ_section_title
;
Structure prediction by ZEFSAII (Michael W. Deem and Ramdas Pophale) SiO2 
 PCOD8021420
Probable space group: P -1
;
_chemical_formula_sum "Si O2"
_cell_formula_units_Z 16
_cell_length_a 8.456851
_cell_length_b 11.204576
_cell_length_c 9.003698
_cell_angle_alpha 119.803430
_cell_angle_beta 73.726960
_cell_angle_gamma 112.136323
_cell_volume 681.141273
_symmetry_space_group_name_H-M "P -1"
_symmetry_group_IT_number 2
_symmetry_cell_setting 'triclinic'
loop_
_space_group_symop_operation_xyz
x,y,z
-x,-y,-z
loop_
_atom_site_type_symbol
_atom_site_label
_atom_site_fract_x
_atom_site_fract_y
_atom_site_fract_z
Si Si1 0.725150 0.935676 0.774893
Si Si2 0.171587 0.851665 0.865901
Si Si3 0.378869 0.903672 0.350356
Si Si4 0.429363 0.676866 0.754328
Si Si5 0.189529 0.448905 0.514676
Si Si6 0.908170 0.581978 0.792037
Si Si7 0.039596 0.858784 0.578941
Si Si8 0.379430 0.602036 0.062289
O O1 0.628318 0.764660 0.721883
O O2 0.909577 0.956759 0.658665
O O3 0.606792 0.014631 0.761557
O O4 0.767157 0.001675 0.968181
O O5 0.326924 0.782547 0.786111
O O6 0.137410 0.885945 0.726991
O O7 0.991643 0.748600 0.919853
O O8 0.181336 0.882013 0.429990
O O9 0.428102 0.753410 0.232758
O O10 0.500000 0.000000 0.500000
O O11 0.374389 0.524247 0.587673
O O12 0.385647 0.642341 0.915369
O O13 0.228247 0.441829 0.323076
O O14 0.071846 0.549926 0.653169
O O15 0.087189 0.297567 0.512455
O O16 0.815713 0.487582 0.897125
O O17 0.500000 0.500000 0.000000
#
# Coordination Sequence:
#
# PCOD8021420 Si02
#       8
#     2   2   2   2   2   2   2   2
#     4  12  26  44  70 107 148 184 236 283 360 434
#     4  10  22  43  72 101 139 189 232 287 353 427
#     4  12  28  48  73 104 149 189 232 300 358 425
#     4  11  25  43  70 102 141 189 231 293 353 421
#     4   9  20  41  71  97 133 181 234 282 348 412
#     4   9  20  41  69  97 130 180 233 289 346 410
#     4  11  24  44  74 104 140 189 234 291 354 422
#     4  12  28  45  69 101 141 184 242 294 351 415
#
# _framework density 23.489986999999999
#
# number of rings (size 3 to 8) (size 9 to 14) (size 15 to 20)
#    0.000    1.250    2.500    2.625    7.000    5.500 
#    0.000    0.000    0.000    0.000    0.000    0.000 
#    0.000    0.000    0.000    0.000    0.000    0.000 
#
# Total GULP energy -198263.259055 kJ/mol
# GULP energy per Si atom -12391.453691 kJ/mol
# Density = 2.343652 g / cm^3
# Si number density = 23.489987 Si / 1000 Ang^3
#
#
#
# Elastic Constant Matrix: (Units=GPa)
#
#
# Indices 1 2 3 4 5 6 
#
# 1 85.3571 36.6429 46.2037 6.4600 3.7680 3.0514
# 2 36.6429 104.9562 35.9671 -8.1451 21.1042 18.5721
# 3 46.2037 35.9671 75.0528 6.3170 25.6415 20.9080
# 4 6.4600 -8.1451 6.3170 36.9948 18.4382 2.1782
# 5 3.7680 21.1042 25.6415 18.4382 33.0398 1.6892
# 6 3.0514 18.5721 20.9080 2.1782 1.6892 42.9170
#
#
#
# Elastic Compliance Matrix: (Units=1/GPa)
#
#
# Indices 1 2 3 4 5 6 
#
# 1 0.037882 -0.017424 -0.035780 -0.030899 0.050704 0.021850
# 2 -0.017424 0.022698 0.014757 0.024913 -0.037070 -0.015578
# 3 -0.035780 0.014757 0.057012 0.035332 -0.067737 -0.030744
# 4 -0.030899 0.024913 0.035332 0.072868 -0.079126 -0.026381
# 5 0.050704 -0.037070 -0.067737 -0.079126 0.142648 0.043838
# 6 0.021850 -0.015578 -0.030744 -0.026381 0.043838 0.043080
#
#
# Mechanical properties :
#
#
# Convention : Reuss Voigt Hill
#
# Bulk Modulus (GPa) = 24.57161 55.88815 40.22988
# Shear Modulus (GPa) = 10.71472 32.36047 21.53759
#
# Velocity S-wave (km/s) = 2.13806 3.71567 3.03129
# Velocity P-wave (km/s) = 4.07164 6.50017 5.42358
#
# Compressibility (1/GPa) = 0.04069737
#
# Stress axis : x y z
#
# Youngs Moduli (GPa) = 26.39756 44.05698 17.54028
#
# Poissons Ratio (x) = 0.76765 0.62759
# Poissons Ratio (y) = 0.45995 -0.25884
# Poissons Ratio (z) = 0.94451 -0.65015
#
# Static dielectric constant tensor:
#      x y z
#    x 4.497250 0.172430 0.112810 
#    y 0.172430 4.366190 0.273200 
#    z 0.112810 0.273200 4.537740 
# 
# 
# High freq. dielectric constant tensor:
#      x y z
#    x 1.934270 0.009710 -0.001620 
#    y 0.009710 1.936010 0.010980 
#    z -0.001620 0.010980 1.925850 
# 
# From -- ./inp_files/189903.got.cif
#   From: 2010.06.25/outbox.cif.g09.slc.cpg/sg2_95_cif.got.tgz:189903.got - 2010.06.27 13:26:56.
