data_PCOD8021502
_publ_section_title
;
Structure prediction by ZEFSAII (Michael W. Deem and Ramdas Pophale) SiO2 
 PCOD8021502
Probable space group: P -1
;
_chemical_formula_sum "Si O2"
_cell_formula_units_Z 10
_cell_length_a 17.479064
_cell_length_b 9.303630
_cell_length_c 5.405669
_cell_angle_alpha 76.783141
_cell_angle_beta 89.219820
_cell_angle_gamma 147.057684
_cell_volume 428.877067
_symmetry_space_group_name_H-M "P -1"
_symmetry_group_IT_number 2
_symmetry_cell_setting 'triclinic'
loop_
_space_group_symop_operation_xyz
x,y,z
-x,-y,-z
loop_
_atom_site_type_symbol
_atom_site_label
_atom_site_fract_x
_atom_site_fract_y
_atom_site_fract_z
Si Si1 0.686381 0.407623 0.205959
Si Si2 0.531354 0.681173 0.114348
Si Si3 0.709869 0.740183 0.323553
Si Si4 0.659785 0.204459 0.793859
Si Si5 0.040157 0.206136 0.250837
O O1 0.665567 0.550105 0.179876
O O2 0.626680 0.224628 0.523424
O O3 0.595053 0.193284 0.045880
O O4 0.868082 0.686787 0.045940
O O5 0.656502 0.818262 0.242735
O O6 0.376281 0.465536 0.349011
O O7 0.500000 0.500000 0.000000
O O8 0.600969 0.939854 0.879913
O O9 0.890131 0.045710 0.247113
O O10 0.842720 0.498253 0.710477
O O11 0.000000 0.000000 0.500000
#
# Coordination Sequence:
#
# PCOD8021502 Si02
#       5
#     2   2   2   2   2
#     4  10  23  43  75 103 132 172 240 286 342 396
#     4  11  29  45  65  98 148 191 223 275 351 420
#     4  11  24  45  70 100 140 185 225 286 347 412
#     4  10  25  44  71 106 136 177 236 285 346 403
#     4  10  22  43  76 107 131 172 237 296 342 395
#
# _framework density 23.316707999999998
#
# number of rings (size 3 to 8) (size 9 to 14) (size 15 to 20)
#    1.200    0.400    2.000    0.600   11.200    2.400 
#    0.000    2.000    0.000    0.000    0.000    0.000 
#    0.000    0.000    0.000    0.000    0.000    0.000 
#
# Total GULP energy -123973.802078 kJ/mol
# GULP energy per Si atom -12397.380208 kJ/mol
# Density = 2.326364 g / cm^3
# Si number density = 23.316708 Si / 1000 Ang^3
#
#
#
# Elastic Constant Matrix: (Units=GPa)
#
#
# Indices 1 2 3 4 5 6 
#
# 1 110.8145 49.7337 44.4027 -17.8041 -1.6965 0.2580
# 2 49.7337 160.9846 49.9199 -0.2602 -12.6957 -7.1780
# 3 44.4027 49.9199 151.8760 -9.6456 -6.1061 3.6790
# 4 -17.8041 -0.2602 -9.6456 38.1065 -6.3218 1.7656
# 5 -1.6965 -12.6957 -6.1061 -6.3218 40.7128 -6.3261
# 6 0.2580 -7.1780 3.6790 1.7656 -6.3261 36.1609
#
#
#
# Elastic Compliance Matrix: (Units=1/GPa)
#
#
# Indices 1 2 3 4 5 6 
#
# 1 0.012109 -0.003097 -0.002185 0.005099 -0.000113 -0.000748
# 2 -0.003097 0.007995 -0.001789 -0.001585 0.002200 0.002253
# 3 -0.002185 -0.001789 0.007931 0.001116 0.000542 -0.001106
# 4 0.005099 -0.001585 0.001116 0.029665 0.004312 -0.001159
# 5 -0.000113 0.002200 0.000542 0.004312 0.026748 0.004851
# 6 -0.000748 0.002253 -0.001106 -0.001159 0.004851 0.029125
#
#
# Mechanical properties :
#
#
# Convention : Reuss Voigt Hill
#
# Bulk Modulus (GPa) = 71.98436 79.08752 75.53594
# Shear Modulus (GPa) = 37.78000 41.63729 39.70865
#
# Velocity S-wave (km/s) = 4.02966 4.23037 4.13123
# Velocity P-wave (km/s) = 7.25192 7.60617 7.43116
#
# Compressibility (1/GPa) = 0.01389191
#
# Stress axis : x y z
#
# Youngs Moduli (GPa) = 82.58393 125.08083 126.09544
#
# Poissons Ratio (x) = 0.38743 0.27548
# Poissons Ratio (y) = 0.25580 0.22559
# Poissons Ratio (z) = 0.18042 0.22377
#
# Static dielectric constant tensor:
#      x y z
#    x 4.588990 0.362140 -0.114030 
#    y 0.362140 4.491300 -0.117860 
#    z -0.114030 -0.117860 4.333470 
# 
# 
# High freq. dielectric constant tensor:
#      x y z
#    x 1.913640 0.019470 -0.000820 
#    y 0.019470 1.944430 -0.005220 
#    z -0.000820 -0.005220 1.938950 
# 
# From -- ./inp_files/18014.got.cif
#   From: 2010.06.25/outbox.cif.g09.slc.cpg/sg2_10_cif.got.tgz:18014.got - 2010.06.27 13:26:56.
