data_PCOD8021672
_publ_section_title
;
Structure prediction by ZEFSAII (Michael W. Deem and Ramdas Pophale) SiO2 
 PCOD8021672
Probable space group: P -1
;
_chemical_formula_sum "Si O2"
_cell_formula_units_Z 16
_cell_length_a 14.171580
_cell_length_b 9.804004
_cell_length_c 12.912162
_cell_angle_alpha 84.071121
_cell_angle_beta 34.226517
_cell_angle_gamma 108.252326
_cell_volume 704.252161
_symmetry_space_group_name_H-M "P -1"
_symmetry_group_IT_number 2
_symmetry_cell_setting 'triclinic'
loop_
_space_group_symop_operation_xyz
x,y,z
-x,-y,-z
loop_
_atom_site_type_symbol
_atom_site_label
_atom_site_fract_x
_atom_site_fract_y
_atom_site_fract_z
Si Si1 0.858128 0.253365 0.959779
Si Si2 0.284025 0.549800 0.412225
Si Si3 0.030538 0.863021 0.948291
Si Si4 0.577760 0.847761 0.576895
Si Si5 0.551519 0.524959 0.329513
Si Si6 0.595478 0.978527 0.041447
Si Si7 0.093619 0.220517 0.459780
Si Si8 0.752328 0.990617 0.629958
O O1 0.007082 0.254665 0.908245
O O2 0.699751 0.272895 0.161504
O O3 0.683318 0.048680 0.074160
O O4 0.029241 0.428589 0.707950
O O5 0.456980 0.595426 0.341403
O O6 0.383075 0.744647 0.256237
O O7 0.251111 0.428020 0.354343
O O8 0.294608 0.005944 0.648142
O O9 0.839402 0.703499 0.047560
O O10 0.000000 0.000000 0.000000
O O11 0.575785 0.682551 0.585920
O O12 0.726039 0.984533 0.531320
O O13 0.500000 0.500000 0.500000
O O14 0.470295 0.051237 0.111904
O O15 0.823184 0.054129 0.766215
O O16 0.013322 0.202727 0.414040
O O17 0.248080 0.171040 0.326931
#
# Coordination Sequence:
#
# PCOD8021672 Si02
#       8
#     2   2   2   2   2   2   2   2
#     4  10  23  41  60  91 133 165 205 265 318 372
#     4  11  22  42  65  97 127 168 215 258 320 385
#     4  12  23  38  63  87 121 167 211 253 311 380
#     4  11  24  41  62  91 124 166 212 263 314 381
#     4  12  23  39  62  87 124 167 208 260 311 374
#     4  10  23  40  68  97 129 170 213 264 321 388
#     4  10  22  44  69  91 131 172 210 267 322 386
#     4  10  22  44  66  94 131 168 214 266 327 375
#
# _framework density 22.719135999999999
#
# number of rings (size 3 to 8) (size 9 to 14) (size 15 to 20)
#    0.000    1.250    3.750    1.500    3.500    3.000 
#    0.000    3.750    0.000    0.000    0.000    0.000 
#    0.000    0.000    0.000    0.000    0.000    0.000 
#
# Total GULP energy -198267.242069 kJ/mol
# GULP energy per Si atom -12391.702629 kJ/mol
# Density = 2.266743 g / cm^3
# Si number density = 22.719136 Si / 1000 Ang^3
#
#
#
# Elastic Constant Matrix: (Units=GPa)
#
#
# Indices 1 2 3 4 5 6 
#
# 1 86.5951 38.3444 14.6173 1.2902 -28.3323 -0.0547
# 2 38.3444 107.6614 65.3377 4.0492 -0.8242 0.6017
# 3 14.6173 65.3377 92.7826 -3.1297 -8.9605 -7.9608
# 4 1.2902 4.0492 -3.1297 39.3990 -0.3934 -6.3086
# 5 -28.3323 -0.8242 -8.9605 -0.3934 28.8896 -4.9960
# 6 -0.0547 0.6017 -7.9608 -6.3086 -4.9960 32.2922
#
#
#
# Elastic Compliance Matrix: (Units=1/GPa)
#
#
# Indices 1 2 3 4 5 6 
#
# 1 0.026902 -0.016173 0.010967 0.003316 0.030833 0.008469
# 2 -0.016173 0.027233 -0.019922 -0.005705 -0.023093 -0.010133
# 3 0.010967 -0.019922 0.026188 0.005750 0.020310 0.011111
# 4 0.003316 -0.005705 0.005750 0.027656 0.006626 0.007958
# 5 0.030833 -0.023093 0.020310 0.006626 0.073729 0.018191
# 6 0.008469 -0.010133 0.011111 0.007958 0.018191 0.038279
#
#
# Mechanical properties :
#
#
# Convention : Reuss Voigt Hill
#
# Bulk Modulus (GPa) = 33.25860 58.18199 45.72029
# Shear Modulus (GPa) = 17.84024 31.36549 24.60287
#
# Velocity S-wave (km/s) = 2.80527 3.71964 3.29434
# Velocity P-wave (km/s) = 5.01633 6.64172 5.88541
#
# Compressibility (1/GPa) = 0.03006741
#
# Stress axis : x y z
#
# Youngs Moduli (GPa) = 37.17168 36.71995 38.18577
#
# Poissons Ratio (x) = 0.59388 -0.41879
# Poissons Ratio (y) = 0.60118 0.76073
# Poissons Ratio (z) = -0.40767 0.73153
#
# Static dielectric constant tensor:
#      x y z
#    x 4.234410 0.295060 -0.247860 
#    y 0.295060 4.350730 0.124070 
#    z -0.247860 0.124070 4.149840 
# 
# 
# High freq. dielectric constant tensor:
#      x y z
#    x 1.905810 0.020690 -0.020180 
#    y 0.020690 1.893870 0.013750 
#    z -0.020180 0.013750 1.886720 
# 
# From -- ./inp_files/315413.got.cif
#   From: 2010.06.25/outbox.cif.g09.slc.cpg/sg2_158_cif.got.tgz:315413.got - 2010.06.27 13:26:56.
