data_PCOD8021177
_publ_section_title
;
Structure prediction by ZEFSAII (Michael W. Deem and Ramdas Pophale) SiO2 
 PCOD8021177
Probable space group: P -1
;
_chemical_formula_sum "Si O2"
_cell_formula_units_Z 16
_cell_length_a 20.050145
_cell_length_b 14.085576
_cell_length_c 9.011562
_cell_angle_alpha 67.478011
_cell_angle_beta 120.589823
_cell_angle_gamma 159.007668
_cell_volume 749.054752
_symmetry_space_group_name_H-M "P -1"
_symmetry_group_IT_number 2
_symmetry_cell_setting 'triclinic'
loop_
_space_group_symop_operation_xyz
x,y,z
-x,-y,-z
loop_
_atom_site_type_symbol
_atom_site_label
_atom_site_fract_x
_atom_site_fract_y
_atom_site_fract_z
Si Si1 0.776995 0.250026 0.460396
Si Si2 0.874544 0.094152 0.324645
Si Si3 0.258717 0.224349 0.867642
Si Si4 0.813321 0.624451 0.269915
Si Si5 0.135074 0.591225 0.196905
Si Si6 0.930938 0.804901 0.981549
Si Si7 0.525562 0.811370 0.231087
Si Si8 0.523571 0.116168 0.147591
O O1 0.792470 0.276495 0.640145
O O2 0.723857 0.290544 0.291991
O O3 0.000000 0.500000 0.500000
O O4 0.610301 0.955934 0.399307
O O5 0.040102 0.259886 0.529945
O O6 0.999756 0.321449 0.217727
O O7 0.792696 0.890386 0.277557
O O8 0.679543 0.913482 0.282764
O O9 0.202321 0.275313 0.765893
O O10 0.500000 0.500000 0.000000
O O11 0.115418 0.992597 0.970108
O O12 0.576701 0.286635 0.199010
O O13 0.906345 0.710729 0.160605
O O14 0.339521 0.823598 0.190501
O O15 0.000000 0.500000 0.000000
O O16 0.704910 0.523140 0.810068
O O17 0.000000 0.000000 0.000000
O O18 0.525352 0.911297 0.061184
#
# Coordination Sequence:
#
# PCOD8021177 Si02
#       8
#     2   2   2   2   2   2   2   2
#     4  12  23  42  62  98 133 175 224 269 329 402
#     4  12  23  44  64  97 136 174 225 276 331 398
#     4  11  24  44  70  97 129 175 224 278 343 395
#     4  10  22  43  68  96 133 175 222 279 329 395
#     4  12  25  42  66  96 140 177 221 276 339 397
#     4   9  21  43  67  94 129 171 222 273 332 395
#     4  11  23  42  67  96 135 179 221 272 337 398
#     4  11  22  42  65  96 134 173 217 279 333 395
#
# _framework density 21.360254000000001
#
# number of rings (size 3 to 8) (size 9 to 14) (size 15 to 20)
#    0.000    1.000    3.750    3.375    1.750    0.000 
#    4.500    6.875    0.000    0.000    0.000    0.000 
#    0.000    0.000    0.000    0.000    0.000    0.000 
#
# Total GULP energy -198265.742825 kJ/mol
# GULP energy per Si atom -12391.608927 kJ/mol
# Density = 2.131164 g / cm^3
# Si number density = 21.360254 Si / 1000 Ang^3
#
#
#
# Elastic Constant Matrix: (Units=GPa)
#
#
# Indices 1 2 3 4 5 6 
#
# 1 67.5140 20.6049 22.7607 1.7640 6.5690 -3.3977
# 2 20.6049 118.4108 19.2351 22.6833 5.6040 2.1218
# 3 22.7607 19.2351 114.9175 9.4405 8.0267 -3.1960
# 4 1.7640 22.6833 9.4405 31.0368 -9.8369 -5.2058
# 5 6.5690 5.6040 8.0267 -9.8369 42.8299 10.8767
# 6 -3.3977 2.1218 -3.1960 -5.2058 10.8767 38.8050
#
#
#
# Elastic Compliance Matrix: (Units=1/GPa)
#
#
# Indices 1 2 3 4 5 6 
#
# 1 0.016846 -0.002745 -0.002826 0.001680 -0.001852 0.002137
# 2 -0.002745 0.010789 -0.000410 -0.008636 -0.002566 -0.001303
# 3 -0.002826 -0.000410 0.009764 -0.003091 -0.002255 0.000796
# 4 0.001680 -0.008636 -0.003091 0.043265 0.010575 0.003205
# 5 -0.001852 -0.002566 -0.002255 0.010575 0.028543 -0.006789
# 6 0.002137 -0.001303 0.000796 0.003205 -0.006789 0.028427
#
#
# Mechanical properties :
#
#
# Convention : Reuss Voigt Hill
#
# Bulk Modulus (GPa) = 39.31296 47.33816 43.32556
# Shear Modulus (GPa) = 31.63063 38.41711 35.02387
#
# Velocity S-wave (km/s) = 3.85231 4.24551 4.05368
# Velocity P-wave (km/s) = 6.18318 6.80018 6.49901
#
# Compressibility (1/GPa) = 0.02543690
#
# Stress axis : x y z
#
# Youngs Moduli (GPa) = 59.36101 92.69082 102.41884
#
# Poissons Ratio (x) = 0.25441 0.28947
# Poissons Ratio (y) = 0.16293 0.04196
# Poissons Ratio (z) = 0.16778 0.03798
#
# Static dielectric constant tensor:
#      x y z
#    x 4.397340 -0.038530 -0.445190 
#    y -0.038530 4.433790 0.015530 
#    z -0.445190 0.015530 3.613470 
# 
# 
# High freq. dielectric constant tensor:
#      x y z
#    x 1.838420 -0.008900 -0.006250 
#    y -0.008900 1.845800 0.020190 
#    z -0.006250 0.020190 1.845310 
# 
# From -- ./inp_files/282449.got.cif
#   From: 2010.06.25/outbox.cif.g09.slc.cpg/sg2_142_cif.got.tgz:282449.got - 2010.06.27 13:26:56.
