data_PCOD8021895
_publ_section_title
;
Structure prediction by ZEFSAII (Michael W. Deem and Ramdas Pophale) SiO2 
 PCOD8021895
Probable space group: P -1
;
_chemical_formula_sum "Si O2"
_cell_formula_units_Z 14
_cell_length_a 15.043757
_cell_length_b 7.890337
_cell_length_c 8.494319
_cell_angle_alpha 91.599644
_cell_angle_beta 97.217600
_cell_angle_gamma 36.308227
_cell_volume 587.667147
_symmetry_space_group_name_H-M "P -1"
_symmetry_group_IT_number 2
_symmetry_cell_setting 'triclinic'
loop_
_space_group_symop_operation_xyz
x,y,z
-x,-y,-z
loop_
_atom_site_type_symbol
_atom_site_label
_atom_site_fract_x
_atom_site_fract_y
_atom_site_fract_z
Si Si1 0.836920 0.709003 0.894696
Si Si2 0.725428 0.832186 0.197289
Si Si3 0.686143 0.244643 0.333650
Si Si4 0.148239 0.716737 0.816799
Si Si5 0.171029 0.652576 0.187803
Si Si6 0.485261 0.181217 0.392126
Si Si7 0.643412 0.217146 0.644526
O O1 0.845963 0.522797 0.793052
O O2 0.782612 0.943815 0.776502
O O3 0.711229 0.881010 0.008131
O O4 0.000000 0.500000 0.000000
O O5 0.839899 0.497562 0.244238
O O6 0.776046 0.937251 0.285543
O O7 0.565565 0.018213 0.239053
O O8 0.740218 0.329096 0.255790
O O9 0.712796 0.238772 0.527290
O O10 0.500211 0.498352 0.273723
O O11 0.190115 0.670253 0.009125
O O12 0.974244 0.035493 0.759278
O O13 0.315134 0.499275 0.314378
O O14 0.574031 0.184367 0.510506
O O15 0.500000 0.000000 0.500000
#
# Coordination Sequence:
#
# PCOD8021895 Si02
#       7
#     2   2   2   2   2   2   2
#     4  11  23  44  70 100 138 183 227 286 339 411
#     4  10  24  42  72 103 128 183 234 274 346 396
#     4  10  22  46  68 104 136 179 229 287 337 407
#     4  10  22  44  70 102 138 178 228 287 336 411
#     4  10  23  42  70 103 139 179 229 280 349 399
#     4  11  21  43  70 100 138 182 224 286 337 411
#     4  10  23  43  68 101 139 178 229 279 350 400
#
# _framework density 23.82301
#
# number of rings (size 3 to 8) (size 9 to 14) (size 15 to 20)
#    0.000    1.714    1.429    1.714    2.000    1.714 
#   30.857    3.571    0.000    0.000    0.000    0.000 
#    0.000    0.000    0.000    0.000    0.000    0.000 
#
# Total GULP energy -173433.498205 kJ/mol
# GULP energy per Si atom -12388.107015 kJ/mol
# Density = 2.376879 g / cm^3
# Si number density = 23.823010 Si / 1000 Ang^3
#
#
#
# Elastic Constant Matrix: (Units=GPa)
#
#
# Indices 1 2 3 4 5 6 
#
# 1 62.9038 23.6747 37.4529 4.5541 -12.9587 3.4945
# 2 23.6747 154.5564 63.9209 -5.6043 -2.2072 6.5278
# 3 37.4529 63.9209 86.3716 -19.7503 -13.9213 -4.0871
# 4 4.5541 -5.6043 -19.7503 48.3925 8.1658 10.9134
# 5 -12.9587 -2.2072 -13.9213 8.1658 46.0125 -8.2527
# 6 3.4945 6.5278 -4.0871 10.9134 -8.2527 37.9142
#
#
#
# Elastic Compliance Matrix: (Units=1/GPa)
#
#
# Indices 1 2 3 4 5 6 
#
# 1 0.024505 0.001313 -0.012735 -0.007960 0.004416 -0.000605
# 2 0.001313 0.009902 -0.008710 -0.001574 -0.002004 -0.002748
# 3 -0.012735 -0.008710 0.026388 0.009725 0.002852 0.003340
# 4 -0.007960 -0.001574 0.009725 0.027755 -0.005583 -0.007151
# 5 0.004416 -0.002004 0.002852 -0.005583 0.026085 0.007531
# 6 -0.000605 -0.002748 0.003340 -0.007151 0.007531 0.030962
#
#
# Mechanical properties :
#
#
# Convention : Reuss Voigt Hill
#
# Bulk Modulus (GPa) = 48.70841 61.54765 55.12803
# Shear Modulus (GPa) = 25.94645 38.38275 32.16460
#
# Velocity S-wave (km/s) = 3.30378 4.01828 3.67842
# Velocity P-wave (km/s) = 5.91977 6.88624 6.42121
#
# Compressibility (1/GPa) = 0.02053034
#
# Stress axis : x y z
#
# Youngs Moduli (GPa) = 40.80797 100.99232 37.89616
#
# Poissons Ratio (x) = -0.13263 0.48261
# Poissons Ratio (y) = -0.05359 0.33009
# Poissons Ratio (z) = 0.51969 0.87968
#
# Static dielectric constant tensor:
#      x y z
#    x 0.091500 1.312810 2.050630 
#    y 1.312810 4.212410 -0.333110 
#    z 2.050630 -0.333110 2.966720 
# 
# 
# High freq. dielectric constant tensor:
#      x y z
#    x 1.948400 0.024920 -0.019110 
#    y 0.024920 1.957450 0.014190 
#    z -0.019110 0.014190 1.939340 
# 
# From -- ./inp_files/329019.got.cif
#   From: 2010.06.25/outbox.cif.g09.slc.cpg/sg2_165_cif.got.tgz:329019.got - 2010.06.27 13:26:56.
