data_PCOD8021563
_publ_section_title
;
Structure prediction by ZEFSAII (Michael W. Deem and Ramdas Pophale) SiO2 
 PCOD8021563
Probable space group: P -1
;
_chemical_formula_sum "Si O2"
_cell_formula_units_Z 16
_cell_length_a 14.354273
_cell_length_b 14.366875
_cell_length_c 8.891717
_cell_angle_alpha 86.746649
_cell_angle_beta 105.893416
_cell_angle_gamma 29.837901
_cell_volume 691.911590
_symmetry_space_group_name_H-M "P -1"
_symmetry_group_IT_number 2
_symmetry_cell_setting 'triclinic'
loop_
_space_group_symop_operation_xyz
x,y,z
-x,-y,-z
loop_
_atom_site_type_symbol
_atom_site_label
_atom_site_fract_x
_atom_site_fract_y
_atom_site_fract_z
Si Si1 0.808936 0.798544 0.433420
Si Si2 0.378982 0.904911 0.915049
Si Si3 0.129089 0.853158 0.219543
Si Si4 0.809870 0.900690 0.716583
Si Si5 0.344510 0.725495 0.846511
Si Si6 0.895014 0.335032 0.844134
Si Si7 0.346845 0.267906 0.678317
Si Si8 0.611454 0.245245 0.466302
O O1 0.655664 0.840371 0.336719
O O2 0.079671 0.549391 0.500040
O O3 0.650647 0.023230 0.269417
O O4 0.831233 0.794218 0.623563
O O5 0.436478 0.743742 0.953278
O O6 0.593783 0.764035 0.117449
O O7 0.120159 0.161105 0.855077
O O8 0.202295 0.684017 0.228639
O O9 0.370268 0.699853 0.386984
O O10 0.940364 0.032402 0.258250
O O11 0.000000 0.000000 0.000000
O O12 0.556625 0.126510 0.679281
O O13 0.829576 0.977118 0.617464
O O14 0.041974 0.697015 0.951963
O O15 0.358363 0.720209 0.673971
O O16 0.500000 0.500000 0.000000
O O17 0.628994 0.612907 0.658422
#
# Coordination Sequence:
#
# PCOD8021563 Si02
#       8
#     2   2   2   2   2   2   2   2
#     4  11  22  42  70  97 129 172 217 266 336 386
#     4  10  22  44  64  91 134 171 214 268 325 386
#     4  11  22  42  61  88 126 170 215 268 321 377
#     4  11  23  41  66  95 134 167 216 269 326 391
#     4  11  25  41  63  94 129 169 221 266 316 386
#     4  10  23  40  60  91 125 173 217 264 321 383
#     4  10  24  42  67 101 131 167 216 273 326 394
#     4  12  23  41  64  90 130 171 217 265 324 384
#
# _framework density 23.124341999999999
#
# number of rings (size 3 to 8) (size 9 to 14) (size 15 to 20)
#    0.000    1.250    2.500    3.000    1.750    0.000 
#    4.500    0.000    0.000    8.250    0.000    0.000 
#    0.000    0.000    0.000    0.000    0.000    0.000 
#
# Total GULP energy -198274.208151 kJ/mol
# GULP energy per Si atom -12392.138009 kJ/mol
# Density = 2.307171 g / cm^3
# Si number density = 23.124342 Si / 1000 Ang^3
#
#
#
# Elastic Constant Matrix: (Units=GPa)
#
#
# Indices 1 2 3 4 5 6 
#
# 1 72.6814 15.3848 54.6370 2.2945 9.3989 16.4758
# 2 15.3848 64.9935 27.9511 16.6505 4.0294 8.1425
# 3 54.6370 27.9511 162.0156 26.3199 18.0971 15.0396
# 4 2.2945 16.6505 26.3199 32.3198 6.5469 3.7571
# 5 9.3989 4.0294 18.0971 6.5469 41.3671 5.9953
# 6 16.4758 8.1425 15.0396 3.7571 5.9953 36.7624
#
#
#
# Elastic Compliance Matrix: (Units=1/GPa)
#
#
# Indices 1 2 3 4 5 6 
#
# 1 0.020982 -0.002802 -0.006900 0.006639 -0.001602 -0.006377
# 2 -0.002802 0.018824 -0.000794 -0.008805 0.000807 -0.001821
# 3 -0.006900 -0.000794 0.009917 -0.006868 -0.001633 0.000179
# 4 0.006639 -0.008805 -0.006868 0.041614 -0.003968 -0.001821
# 5 -0.001602 0.000807 -0.001633 -0.003968 0.026187 -0.002658
# 6 -0.006377 -0.001821 0.000179 -0.001821 -0.002658 0.031010
#
#
# Mechanical properties :
#
#
# Convention : Reuss Voigt Hill
#
# Bulk Modulus (GPa) = 34.80298 55.07069 44.93684
# Shear Modulus (GPa) = 27.91705 35.53770 31.72738
#
# Velocity S-wave (km/s) = 3.47833 3.92447 3.70812
# Velocity P-wave (km/s) = 5.58702 6.66348 6.14885
#
# Compressibility (1/GPa) = 0.02873317
#
# Stress axis : x y z
#
# Youngs Moduli (GPa) = 47.66008 53.12266 100.83197
#
# Poissons Ratio (x) = 0.14884 0.69574
# Poissons Ratio (y) = 0.13353 0.08002
# Poissons Ratio (z) = 0.32885 0.04216
#
# Static dielectric constant tensor:
#      x y z
#    x 3.985480 -0.000540 0.075670 
#    y -0.000540 3.930900 0.108240 
#    z 0.075670 0.108240 4.406070 
# 
# 
# High freq. dielectric constant tensor:
#      x y z
#    x 1.897760 0.005400 0.008770 
#    y 0.005400 1.911670 0.002890 
#    z 0.008770 0.002890 1.933550 
# 
# From -- ./inp_files/46962.got.cif
#   From: 2010.06.25/outbox.cif.g09.slc.cpg/sg2_24_cif.got.tgz:46962.got - 2010.06.27 13:26:56.
