data_PCOD8021053
_publ_section_title
;
Structure prediction by ZEFSAII (Michael W. Deem and Ramdas Pophale) SiO2 
 PCOD8021053
Probable space group: P -1
;
_chemical_formula_sum "Si O2"
_cell_formula_units_Z 14
_cell_length_a 16.408535
_cell_length_b 13.305397
_cell_length_c 8.943763
_cell_angle_alpha 122.817638
_cell_angle_beta 121.679140
_cell_angle_gamma 22.883944
_cell_volume 636.122305
_symmetry_space_group_name_H-M "P -1"
_symmetry_group_IT_number 2
_symmetry_cell_setting 'triclinic'
loop_
_space_group_symop_operation_xyz
x,y,z
-x,-y,-z
loop_
_atom_site_type_symbol
_atom_site_label
_atom_site_fract_x
_atom_site_fract_y
_atom_site_fract_z
Si Si1 0.544880 0.660494 0.466265
Si Si2 0.525682 0.990241 0.343689
Si Si3 0.861083 0.447370 0.109211
Si Si4 0.320727 0.692433 0.159896
Si Si5 0.824636 0.770831 0.963387
Si Si6 0.521932 0.684266 0.799973
Si Si7 0.134188 0.752526 0.790364
O O1 0.454047 0.893376 0.577772
O O2 0.392589 0.749548 0.288152
O O3 0.554762 0.600597 0.595803
O O4 0.772983 0.405763 0.400283
O O5 0.329658 0.151956 0.199137
O O6 0.500000 0.000000 0.500000
O O7 0.743609 0.691924 0.260975
O O8 0.904772 0.305487 0.169082
O O9 0.076862 0.253263 0.088046
O O10 0.718904 0.547674 0.923690
O O11 0.484377 0.425832 0.190113
O O12 0.295863 0.674150 0.948979
O O13 0.088884 0.938393 0.211138
O O14 0.000000 0.500000 0.000000
O O15 0.694540 0.000730 0.136256
#
# Coordination Sequence:
#
# PCOD8021053 Si02
#       7
#     2   2   2   2   2   2   2
#     4  12  23  40  66  92 133 165 212 272 318 377
#     4  11  24  41  64 102 132 164 216 268 325 381
#     4  10  22  43  67  91 134 169 211 265 325 380
#     4  10  24  42  63  91 130 170 216 259 326 379
#     4  11  24  43  69  95 131 177 216 259 328 389
#     4  10  24  43  65  97 127 171 216 265 317 388
#     4  10  23  41  64  97 121 169 218 263 320 388
#
# _framework density 22.008346
#
# number of rings (size 3 to 8) (size 9 to 14) (size 15 to 20)
#    0.000    1.429    1.429    2.571    2.000   10.286 
#    0.000    0.000    0.000    0.000    0.000    0.000 
#    0.000    0.000    0.000    0.000    0.000    0.000 
#
# Total GULP energy -173632.398273 kJ/mol
# GULP energy per Si atom -12402.314162 kJ/mol
# Density = 2.195825 g / cm^3
# Si number density = 22.008346 Si / 1000 Ang^3
#
#
#
# Elastic Constant Matrix: (Units=GPa)
#
#
# Indices 1 2 3 4 5 6 
#
# 1 77.6712 23.0875 42.6972 1.3680 7.2509 -10.0428
# 2 23.0875 104.7548 40.1520 11.8168 -4.5054 11.1410
# 3 42.6972 40.1520 114.5831 20.2212 -4.4098 -4.1598
# 4 1.3680 11.8168 20.2212 29.2719 -0.1423 -3.3429
# 5 7.2509 -4.5054 -4.4098 -0.1423 47.1538 5.1468
# 6 -10.0428 11.1410 -4.1598 -3.3429 5.1468 22.5376
#
#
#
# Elastic Compliance Matrix: (Units=1/GPa)
#
#
# Indices 1 2 3 4 5 6 
#
# 1 0.019755 -0.003919 -0.006965 0.006778 -0.005317 0.011674
# 2 -0.003919 0.013081 -0.002601 -0.004425 0.002683 -0.009962
# 3 -0.006965 -0.002601 0.013732 -0.008214 0.002191 -0.001002
# 4 0.006778 -0.004425 -0.008214 0.042518 -0.003278 0.010747
# 5 -0.005317 0.002683 0.002191 -0.003278 0.023474 -0.009138
# 6 0.011674 -0.009962 -0.001002 0.010747 -0.009138 0.057992
#
#
# Mechanical properties :
#
#
# Convention : Reuss Voigt Hill
#
# Bulk Modulus (GPa) = 51.02632 56.54250 53.78441
# Shear Modulus (GPa) = 24.50337 32.53084 28.51710
#
# Velocity S-wave (km/s) = 3.34034 3.84880 3.60354
# Velocity P-wave (km/s) = 6.17353 6.74523 6.46570
#
# Compressibility (1/GPa) = 0.01959773
#
# Stress axis : x y z
#
# Youngs Moduli (GPa) = 50.62030 76.44798 72.82504
#
# Poissons Ratio (x) = 0.29961 0.50722
# Poissons Ratio (y) = 0.19839 0.18940
# Poissons Ratio (z) = 0.35256 0.19882
#
# Static dielectric constant tensor:
#      x y z
#    x 3.762410 0.009290 0.082970 
#    y 0.009290 3.967210 0.154260 
#    z 0.082970 0.154260 4.100770 
# 
# 
# High freq. dielectric constant tensor:
#      x y z
#    x 1.865030 0.002410 0.005070 
#    y 0.002410 1.868360 0.015210 
#    z 0.005070 0.015210 1.872890 
# 
# From -- ./inp_files/26806.got.cif
#   From: 2010.06.25/outbox.cif.g09.slc.cpg/sg2_14_cif.got.tgz:26806.got - 2010.06.27 13:26:56.
