data_PCOD8021356
_publ_section_title
;
Structure prediction by ZEFSAII (Michael W. Deem and Ramdas Pophale) SiO2 
 PCOD8021356
Probable space group: P -1
;
_chemical_formula_sum "Si O2"
_cell_formula_units_Z 14
_cell_length_a 9.397343
_cell_length_b 7.795414
_cell_length_c 14.819345
_cell_angle_alpha 76.145744
_cell_angle_beta 107.979498
_cell_angle_gamma 50.650374
_cell_volume 643.749034
_symmetry_space_group_name_H-M "P -1"
_symmetry_group_IT_number 2
_symmetry_cell_setting 'triclinic'
loop_
_space_group_symop_operation_xyz
x,y,z
-x,-y,-z
loop_
_atom_site_type_symbol
_atom_site_label
_atom_site_fract_x
_atom_site_fract_y
_atom_site_fract_z
Si Si1 0.926361 0.226230 0.674224
Si Si2 0.658771 0.140179 0.316565
Si Si3 0.939040 0.861536 0.970575
Si Si4 0.972072 0.249803 0.199232
Si Si5 0.816853 0.572187 0.776332
Si Si6 0.585444 0.599094 0.221521
Si Si7 0.906931 0.393214 0.471005
O O1 0.852055 0.410943 0.719915
O O2 0.781956 0.419039 0.532104
O O3 0.884672 0.056345 0.706999
O O4 0.203451 0.005430 0.733918
O O5 0.453551 0.183120 0.278027
O O6 0.542767 0.437210 0.265134
O O7 0.854583 0.937087 0.459909
O O8 0.071136 0.710992 0.921253
O O9 0.662801 0.082672 0.876187
O O10 0.022276 0.636647 0.083720
O O11 0.000000 0.000000 0.000000
O O12 0.121543 0.283475 0.255790
O O13 0.719724 0.486125 0.167087
O O14 0.738527 0.557787 0.332508
O O15 0.000000 0.500000 0.500000
#
# Coordination Sequence:
#
# PCOD8021356 Si02
#       7
#     2   2   2   2   2   2   2
#     4   9  22  43  66 100 133 174 222 278 336 394
#     4   9  22  40  68  92 134 176 218 273 331 391
#     4  12  25  44  69  99 138 175 226 282 329 399
#     4  11  25  41  69 101 130 181 226 267 346 395
#     4  12  23  45  68 103 134 175 230 275 335 401
#     4  11  23  46  69  94 139 180 218 276 338 400
#     4  10  22  43  70  99 133 178 223 274 337 398
#
# _framework density 21.747606000000001
#
# number of rings (size 3 to 8) (size 9 to 14) (size 15 to 20)
#    0.857    0.571    2.857    1.714    2.000    2.286 
#    2.571    2.857    0.000    0.000    0.000    0.000 
#    0.000    0.000    0.000    0.000    0.000    0.000 
#
# Total GULP energy -173526.911788 kJ/mol
# GULP energy per Si atom -12394.779413 kJ/mol
# Density = 2.169811 g / cm^3
# Si number density = 21.747606 Si / 1000 Ang^3
#
#
#
# Elastic Constant Matrix: (Units=GPa)
#
#
# Indices 1 2 3 4 5 6 
#
# 1 125.8391 47.8843 34.0285 -0.5658 3.5473 9.4665
# 2 47.8843 93.0015 53.3104 15.5110 -2.5688 -11.5414
# 3 34.0285 53.3104 122.0909 -0.7608 5.9601 -15.7492
# 4 -0.5658 15.5110 -0.7608 30.2750 -8.2543 1.3452
# 5 3.5473 -2.5688 5.9601 -8.2543 31.3676 -4.0571
# 6 9.4665 -11.5414 -15.7492 1.3452 -4.0571 33.0711
#
#
#
# Elastic Compliance Matrix: (Units=1/GPa)
#
#
# Indices 1 2 3 4 5 6 
#
# 1 0.011277 -0.006667 -0.000952 0.003462 -0.001549 -0.006339
# 2 -0.006667 0.020484 -0.006376 -0.010608 0.001713 0.006662
# 3 -0.000952 -0.006376 0.011761 0.003007 -0.001424 0.003351
# 4 0.003462 -0.010608 0.003007 0.041090 0.008478 -0.003892
# 5 -0.001549 0.001713 -0.001424 0.008478 0.035259 0.004344
# 6 -0.006339 0.006662 0.003351 -0.003892 0.004344 0.036665
#
#
# Mechanical properties :
#
#
# Convention : Reuss Voigt Hill
#
# Bulk Modulus (GPa) = 64.39204 67.93088 66.16146
# Shear Modulus (GPa) = 26.35681 32.65663 29.50672
#
# Velocity S-wave (km/s) = 3.48507 3.87928 3.68745
# Velocity P-wave (km/s) = 6.77254 7.16721 6.97267
#
# Compressibility (1/GPa) = 0.01552987
#
# Stress axis : x y z
#
# Youngs Moduli (GPa) = 88.67260 48.81922 85.02878
#
# Poissons Ratio (x) = 0.32550 0.08098
# Poissons Ratio (y) = 0.59122 0.54215
# Poissons Ratio (z) = 0.08445 0.31128
#
# Static dielectric constant tensor:
#      x y z
#    x 4.018170 0.018470 -0.238700 
#    y 0.018470 3.948650 -0.102530 
#    z -0.238700 -0.102530 3.925300 
# 
# 
# High freq. dielectric constant tensor:
#      x y z
#    x 1.864280 0.005150 -0.012250 
#    y 0.005150 1.856200 0.001540 
#    z -0.012250 0.001540 1.835120 
# 
# From -- ./inp_files/494905.got.cif
#   From: 2010.06.25/outbox.cif.g09.slc.cpg/sg2_248_cif.got.tgz:494905.got - 2010.06.27 13:26:56.
