data_PCOD8021123
_publ_section_title
;
Structure prediction by ZEFSAII (Michael W. Deem and Ramdas Pophale) SiO2 
 PCOD8021123
Probable space group: P -1
;
_chemical_formula_sum "Si O2"
_cell_formula_units_Z 14
_cell_length_a 11.805978
_cell_length_b 9.573058
_cell_length_c 8.709508
_cell_angle_alpha 89.981975
_cell_angle_beta 86.472554
_cell_angle_gamma 38.120256
_cell_volume 604.647182
_symmetry_space_group_name_H-M "P -1"
_symmetry_group_IT_number 2
_symmetry_cell_setting 'triclinic'
loop_
_space_group_symop_operation_xyz
x,y,z
-x,-y,-z
loop_
_atom_site_type_symbol
_atom_site_label
_atom_site_fract_x
_atom_site_fract_y
_atom_site_fract_z
Si Si1 0.449031 0.662067 0.309231
Si Si2 0.162368 0.957783 0.101825
Si Si3 0.796784 0.661667 0.960565
Si Si4 0.392090 0.406226 0.403555
Si Si5 0.281475 0.029001 0.820490
Si Si6 0.060057 0.541773 0.358131
Si Si7 0.227279 0.624632 0.938002
O O1 0.282606 0.900230 0.232331
O O2 0.375193 0.588052 0.381435
O O3 0.521406 0.697554 0.433249
O O4 0.605802 0.477104 0.172926
O O5 0.192661 0.760605 0.086173
O O6 0.952256 0.201723 0.156873
O O7 0.210882 0.970939 0.930351
O O8 0.810332 0.667756 0.774981
O O9 0.666185 0.894629 0.066184
O O10 0.730671 0.569015 0.000660
O O11 0.000000 0.500000 0.000000
O O12 0.186671 0.542595 0.416466
O O13 0.527982 0.196957 0.274858
O O14 0.122444 0.219595 0.709858
O O15 0.000000 0.500000 0.500000
#
# Coordination Sequence:
#
# PCOD8021123 Si02
#       7
#     2   2   2   2   2   2   2
#     4  11  26  43  72 104 142 182 226 296 348 409
#     4  11  23  41  76 104 132 179 239 285 348 405
#     4  10  22  43  68 102 136 175 235 281 340 407
#     4  11  27  47  66 105 145 181 233 282 354 417
#     4  11  25  46  70 105 136 181 237 285 342 419
#     4  11  26  47  71  96 147 186 222 288 351 411
#     4  11  22  42  74 103 137 177 233 292 342 407
#
# _framework density 23.154
#
# number of rings (size 3 to 8) (size 9 to 14) (size 15 to 20)
#    0.000    1.143    4.286    1.286    8.000    3.429 
#    0.000    2.857    0.000    0.000    0.000    0.000 
#    0.000    0.000    0.000    0.000    0.000    0.000 
#
# Total GULP energy -173560.941400 kJ/mol
# GULP energy per Si atom -12397.210100 kJ/mol
# Density = 2.310130 g / cm^3
# Si number density = 23.154000 Si / 1000 Ang^3
#
#
#
# Elastic Constant Matrix: (Units=GPa)
#
#
# Indices 1 2 3 4 5 6 
#
# 1 124.2186 16.1230 43.8165 -14.1599 -3.0476 2.5397
# 2 16.1230 55.8043 10.2425 -7.0685 7.3604 5.6550
# 3 43.8165 10.2425 109.3636 -21.8621 13.3099 -0.8552
# 4 -14.1599 -7.0685 -21.8621 30.6263 -1.1927 11.3994
# 5 -3.0476 7.3604 13.3099 -1.1927 36.5144 -2.8381
# 6 2.5397 5.6550 -0.8552 11.3994 -2.8381 44.0422
#
#
#
# Elastic Compliance Matrix: (Units=1/GPa)
#
#
# Indices 1 2 3 4 5 6 
#
# 1 0.009943 -0.002250 -0.003754 0.001738 0.002659 -0.000636
# 2 -0.002250 0.020173 0.000628 0.005429 -0.004629 -0.004152
# 3 -0.003754 0.000628 0.012803 0.008112 -0.005000 -0.002038
# 4 0.001738 0.005429 0.008112 0.045024 -0.003408 -0.012513
# 5 0.002659 -0.004629 -0.005000 -0.003408 0.030501 0.003192
# 6 -0.000636 -0.004152 -0.002038 -0.012513 0.003192 0.026680
#
#
# Mechanical properties :
#
#
# Convention : Reuss Voigt Hill
#
# Bulk Modulus (GPa) = 31.08629 47.75007 39.41818
# Shear Modulus (GPa) = 30.01222 36.85022 33.43122
#
# Velocity S-wave (km/s) = 3.60418 3.99372 3.80394
# Velocity P-wave (km/s) = 5.54754 6.47565 6.02948
#
# Compressibility (1/GPa) = 0.03216852
#
# Stress axis : x y z
#
# Youngs Moduli (GPa) = 100.57415 49.57014 78.10459
#
# Poissons Ratio (x) = 0.11152 0.29321
# Poissons Ratio (y) = 0.22627 -0.04907
# Poissons Ratio (z) = 0.37756 -0.03114
#
# Static dielectric constant tensor:
#      x y z
#    x 4.432130 -0.001320 0.317290 
#    y -0.001320 4.257980 0.051560 
#    z 0.317290 0.051560 4.364310 
# 
# 
# High freq. dielectric constant tensor:
#      x y z
#    x 1.929440 -0.007670 0.007770 
#    y -0.007670 1.903680 -0.004280 
#    z 0.007770 -0.004280 1.912500 
# 
# From -- ./inp_files/183784.got.cif
#   From: 2010.06.25/outbox.cif.g09.slc.cpg/sg2_92_cif.got.tgz:183784.got - 2010.06.27 13:26:56.
