data_PCOD8021924
_publ_section_title
;
Structure prediction by ZEFSAII (Michael W. Deem and Ramdas Pophale) SiO2 
 PCOD8021924
Probable space group: P -1
;
_chemical_formula_sum "Si O2"
_cell_formula_units_Z 16
_cell_length_a 11.627544
_cell_length_b 14.797640
_cell_length_c 11.227548
_cell_angle_alpha 149.798342
_cell_angle_beta 79.833983
_cell_angle_gamma 118.450799
_cell_volume 723.553766
_symmetry_space_group_name_H-M "P -1"
_symmetry_group_IT_number 2
_symmetry_cell_setting 'triclinic'
loop_
_space_group_symop_operation_xyz
x,y,z
-x,-y,-z
loop_
_atom_site_type_symbol
_atom_site_label
_atom_site_fract_x
_atom_site_fract_y
_atom_site_fract_z
Si Si1 0.172880 0.854052 0.201235
Si Si2 0.203572 0.359717 0.187205
Si Si3 0.636250 0.095717 0.173116
Si Si4 0.613360 0.792340 0.033836
Si Si5 0.087060 0.741597 0.827004
Si Si6 0.843230 0.632059 0.055302
Si Si7 0.322155 0.865570 0.405207
Si Si8 0.383767 0.387225 0.780910
O O1 0.229520 0.762252 0.179644
O O2 0.028020 0.810452 0.238942
O O3 0.322846 0.129088 0.465034
O O4 0.119594 0.714280 0.926718
O O5 0.290273 0.636241 0.506144
O O6 0.026363 0.197878 0.083528
O O7 0.286040 0.263279 0.114243
O O8 0.202378 0.312158 0.993525
O O9 0.753363 0.073408 0.061617
O O10 0.576472 0.923107 0.101833
O O11 0.500000 0.000000 0.000000
O O12 0.693478 0.956652 0.324828
O O13 0.456005 0.541587 0.823227
O O14 0.000000 0.500000 0.500000
O O15 0.769082 0.653482 0.206957
O O16 0.763364 0.356989 0.744878
O O17 0.500000 0.000000 0.500000
O O18 0.500000 0.500000 0.000000
#
# Coordination Sequence:
#
# PCOD8021924 Si02
#       8
#     2   2   2   2   2   2   2   2
#     4  11  24  40  69  98 140 185 234 290 354 419
#     4  10  22  44  70  95 137 181 228 293 351 417
#     4  11  26  44  71  96 136 184 241 295 346 411
#     4  12  25  41  72 104 138 183 236 280 363 415
#     4   9  23  47  69  97 134 190 235 292 350 410
#     4  11  21  40  65  98 143 182 222 283 354 427
#     4  12  23  40  68 105 143 185 229 287 360 428
#     4  12  22  39  64 102 142 177 226 283 354 427
#
# _framework density 22.113077000000001
#
# number of rings (size 3 to 8) (size 9 to 14) (size 15 to 20)
#    0.000    1.000    5.000    0.750    3.500    2.000 
#    0.000    0.000    5.500    0.000    0.000    0.000 
#    0.000    0.000    0.000    0.000    0.000    0.000 
#
# Total GULP energy -198268.651547 kJ/mol
# GULP energy per Si atom -12391.790722 kJ/mol
# Density = 2.206275 g / cm^3
# Si number density = 22.113077 Si / 1000 Ang^3
#
#
#
# Elastic Constant Matrix: (Units=GPa)
#
#
# Indices 1 2 3 4 5 6 
#
# 1 108.6858 49.8764 42.7752 -7.3810 3.9537 2.0021
# 2 49.8764 93.5319 30.0110 -0.8017 7.9288 7.1016
# 3 42.7752 30.0110 79.1742 -0.0835 4.4237 -4.4574
# 4 -7.3810 -0.8017 -0.0835 39.0028 -0.4191 0.1145
# 5 3.9537 7.9288 4.4237 -0.4191 40.2566 -2.6038
# 6 2.0021 7.1016 -4.4574 0.1145 -2.6038 40.1496
#
#
#
# Elastic Compliance Matrix: (Units=1/GPa)
#
#
# Indices 1 2 3 4 5 6 
#
# 1 0.014189 -0.005787 -0.005505 0.002559 0.000360 -0.000279
# 2 -0.005787 0.015010 -0.002593 -0.000809 -0.002292 -0.002801
# 3 -0.005505 -0.002593 0.016766 -0.001074 -0.000637 0.002556
# 4 0.002559 -0.000809 -0.001074 0.026108 0.000287 -0.000160
# 5 0.000360 -0.002292 -0.000637 0.000287 0.025457 0.001967
# 6 -0.000279 -0.002801 0.002556 -0.000160 0.001967 0.025828
#
#
# Mechanical properties :
#
#
# Convention : Reuss Voigt Hill
#
# Bulk Modulus (GPa) = 54.96554 58.52412 56.74483
# Shear Modulus (GPa) = 31.80772 34.46377 33.13574
#
# Velocity S-wave (km/s) = 3.79675 3.95210 3.87520
# Velocity P-wave (km/s) = 6.64312 6.88104 6.76313
#
# Compressibility (1/GPa) = 0.01819322
#
# Stress axis : x y z
#
# Youngs Moduli (GPa) = 70.47566 66.62317 59.64430
#
# Poissons Ratio (x) = 0.38558 0.32837
# Poissons Ratio (y) = 0.40787 0.15467
# Poissons Ratio (z) = 0.38800 0.17276
#
# Static dielectric constant tensor:
#      x y z
#    x 3.448640 -0.322070 -0.123210 
#    y -0.322070 3.516380 -0.147140 
#    z -0.123210 -0.147140 3.906080 
# 
# 
# High freq. dielectric constant tensor:
#      x y z
#    x 1.871260 0.015940 0.004240 
#    y 0.015940 1.866540 0.002330 
#    z 0.004240 0.002330 1.862000 
# 
# From -- ./inp_files/434362.got.cif
#   From: 2010.06.25/outbox.cif.g09.slc.cpg/sg2_218_cif.got.tgz:434362.got - 2010.06.27 13:26:56.
