data_PCOD8021564
_publ_section_title
;
Structure prediction by ZEFSAII (Michael W. Deem and Ramdas Pophale) SiO2 
 PCOD8021564
Probable space group: P -1
;
_chemical_formula_sum "Si O2"
_cell_formula_units_Z 14
_cell_length_a 9.046951
_cell_length_b 5.961232
_cell_length_c 18.305544
_cell_angle_alpha 77.086507
_cell_angle_beta 37.212816
_cell_angle_gamma 73.301528
_cell_volume 571.855535
_symmetry_space_group_name_H-M "P -1"
_symmetry_group_IT_number 2
_symmetry_cell_setting 'triclinic'
loop_
_space_group_symop_operation_xyz
x,y,z
-x,-y,-z
loop_
_atom_site_type_symbol
_atom_site_label
_atom_site_fract_x
_atom_site_fract_y
_atom_site_fract_z
Si Si1 0.360159 0.495358 0.808719
Si Si2 0.784087 0.170997 0.736151
Si Si3 0.073609 0.758170 0.030531
Si Si4 0.674673 0.180802 0.328828
Si Si5 0.604001 0.235275 0.957996
Si Si6 0.253100 0.281754 0.591940
Si Si7 0.116375 0.313754 0.217386
O O1 0.620411 0.313397 0.726760
O O2 0.403976 0.718451 0.727676
O O3 0.166873 0.361065 0.853422
O O4 0.271021 0.578488 0.918617
O O5 0.711199 0.304959 0.833116
O O6 0.077885 0.172882 0.610640
O O7 0.743939 0.900013 0.770852
O O8 0.179823 0.813601 0.062919
O O9 0.000000 0.000000 0.000000
O O10 0.491695 0.333353 0.449794
O O11 0.963731 0.197393 0.225152
O O12 0.654500 0.907505 0.365981
O O13 0.658528 0.585754 0.921880
O O14 0.500000 0.000000 0.000000
O O15 0.090735 0.515847 0.669568
#
# Coordination Sequence:
#
# PCOD8021564 Si02
#       7
#     2   2   2   2   2   2   2
#     4  11  24  41  60  97 131 164 209 265 322 371
#     4  11  24  40  63  94 129 166 212 259 320 383
#     4  11  25  39  61  94 135 167 207 259 318 383
#     4  10  24  40  66  93 126 169 214 271 311 372
#     4  12  21  39  63  91 126 171 207 256 318 383
#     4  10  22  44  64  92 124 170 222 259 315 377
#     4  11  22  39  66  89 126 166 215 262 312 387
#
# _framework density 24.481708999999999
#
# number of rings (size 3 to 8) (size 9 to 14) (size 15 to 20)
#    0.000    1.143    2.857    2.571    6.000    0.571 
#    0.000    0.714    0.000    0.000    0.000    0.000 
#    0.000    0.000    0.000    0.000    0.000    0.000 
#
# Total GULP energy -173601.126968 kJ/mol
# GULP energy per Si atom -12400.080498 kJ/mol
# Density = 2.442599 g / cm^3
# Si number density = 24.481709 Si / 1000 Ang^3
#
#
#
# Elastic Constant Matrix: (Units=GPa)
#
#
# Indices 1 2 3 4 5 6 
#
# 1 133.8639 38.0120 36.0151 -13.4474 -3.6472 -21.2571
# 2 38.0120 104.7898 18.0390 9.5307 1.9022 -26.7249
# 3 36.0151 18.0390 101.1977 -7.7881 -16.6639 -7.2494
# 4 -13.4474 9.5307 -7.7881 42.4854 -0.7053 2.3881
# 5 -3.6472 1.9022 -16.6639 -0.7053 33.9385 -1.1767
# 6 -21.2571 -26.7249 -7.2494 2.3881 -1.1767 51.8786
#
#
#
# Elastic Compliance Matrix: (Units=1/GPa)
#
#
# Indices 1 2 3 4 5 6 
#
# 1 0.009573 -0.002819 -0.002511 0.003092 0.000087 0.001980
# 2 -0.002819 0.012587 -0.001462 -0.004308 -0.001633 0.005286
# 3 -0.002511 -0.001462 0.012132 0.001856 0.005806 -0.000040
# 4 0.003092 -0.004308 0.001856 0.025959 0.001961 -0.001843
# 5 0.000087 -0.001633 0.005806 0.001961 0.032480 0.000652
# 6 0.001980 0.005286 -0.000040 -0.001843 0.000652 0.022904
#
#
# Mechanical properties :
#
#
# Convention : Reuss Voigt Hill
#
# Bulk Modulus (GPa) = 48.28781 58.22042 53.25412
# Shear Modulus (GPa) = 36.73218 42.17952 39.45585
#
# Velocity S-wave (km/s) = 3.87769 4.15529 4.01889
# Velocity P-wave (km/s) = 6.30995 6.84505 6.58294
#
# Compressibility (1/GPa) = 0.02070916
#
# Stress axis : x y z
#
# Youngs Moduli (GPa) = 104.45579 79.44979 82.42820
#
# Poissons Ratio (x) = 0.22393 0.20694
# Poissons Ratio (y) = 0.29441 0.12053
# Poissons Ratio (z) = 0.26224 0.11617
#
# Static dielectric constant tensor:
#      x y z
#    x 4.227440 0.041620 -0.480750 
#    y 0.041620 4.941960 -0.079400 
#    z -0.480750 -0.079400 4.780030 
# 
# 
# High freq. dielectric constant tensor:
#      x y z
#    x 1.953350 -0.005430 -0.029400 
#    y -0.005430 2.006490 -0.003050 
#    z -0.029400 -0.003050 1.969710 
# 
# From -- ./inp_files/553397.got.cif
#   From: 2010.06.25/outbox.cif.g09.slc.cpg/sg2_277_cif.got.tgz:553397.got - 2010.06.27 13:26:56.
