data_PCOD8021423
_publ_section_title
;
Structure prediction by ZEFSAII (Michael W. Deem and Ramdas Pophale) SiO2 
 PCOD8021423
Probable space group: P -1
;
_chemical_formula_sum "Si O2"
_cell_formula_units_Z 12
_cell_length_a 8.228954
_cell_length_b 7.946142
_cell_length_c 9.378916
_cell_angle_alpha 101.811303
_cell_angle_beta 66.704440
_cell_angle_gamma 121.185467
_cell_volume 481.880880
_symmetry_space_group_name_H-M "P -1"
_symmetry_group_IT_number 2
_symmetry_cell_setting 'triclinic'
loop_
_space_group_symop_operation_xyz
x,y,z
-x,-y,-z
loop_
_atom_site_type_symbol
_atom_site_label
_atom_site_fract_x
_atom_site_fract_y
_atom_site_fract_z
Si Si1 0.707229 0.903709 0.658017
Si Si2 0.708125 0.276285 0.727278
Si Si3 0.303608 0.096430 0.657950
Si Si4 0.068095 0.276144 0.272666
Si Si5 0.691222 0.278233 0.055964
Si Si6 0.087046 0.278292 0.943971
O O1 0.658962 0.817988 0.500068
O O2 0.840702 0.822151 0.670169
O O3 0.502913 0.849167 0.804327
O O4 0.822053 0.144478 0.656601
O O5 0.518656 0.178062 0.670095
O O6 0.863747 0.500093 0.665998
O O7 0.625952 0.274292 0.914299
O O8 0.153842 0.151019 0.804206
O O9 0.177656 0.855659 0.656661
O O10 0.148300 0.274222 0.085644
O O11 0.801517 0.499946 0.116787
O O12 0.844573 0.189126 0.999948
#
# Coordination Sequence:
#
# PCOD8021423 Si02
#       6
#     2   2   2   2   2   2
#     4  12  25  44  70 103 140 178 224 284 347 401
#     4  11  25  45  70 100 137 182 230 278 334 406
#     4  12  25  44  70 103 140 178 224 284 347 401
#     4  11  25  45  70 100 137 182 230 278 334 406
#     4  10  22  43  72 102 135 182 233 279 335 406
#     4  10  22  43  72 102 135 182 233 279 335 406
#
# _framework density 24.902418000000001
#
# number of rings (size 3 to 8) (size 9 to 14) (size 15 to 20)
#    0.000    1.000    0.000    6.000    0.000    6.000 
#    0.000    5.000    0.000    0.000    0.000    0.000 
#    0.000    0.000    0.000    0.000    0.000    0.000 
#
# Total GULP energy -148812.617668 kJ/mol
# GULP energy per Si atom -12401.051472 kJ/mol
# Density = 2.484574 g / cm^3
# Si number density = 24.902418 Si / 1000 Ang^3
#
#
#
# Elastic Constant Matrix: (Units=GPa)
#
#
# Indices 1 2 3 4 5 6 
#
# 1 105.8853 64.3944 35.6902 -0.3476 21.3918 -2.8507
# 2 64.3944 164.1796 29.6302 -1.1043 17.4135 -0.5962
# 3 35.6902 29.6302 98.0385 4.1100 23.9091 0.7894
# 4 -0.3476 -1.1043 4.1100 7.3355 2.7425 7.7023
# 5 21.3918 17.4135 23.9091 2.7425 38.2081 -0.3876
# 6 -2.8507 -0.5962 0.7894 7.7023 -0.3876 40.2821
#
#
#
# Elastic Compliance Matrix: (Units=1/GPa)
#
#
# Indices 1 2 3 4 5 6 
#
# 1 0.014017 -0.004522 -0.002827 0.002694 -0.004207 0.000425
# 2 -0.004522 0.008097 -0.000673 0.002415 -0.000917 -0.000658
# 3 -0.002827 -0.000673 0.013114 -0.006051 -0.005876 0.000634
# 4 0.002694 0.002415 -0.006051 0.180807 -0.012149 -0.034344
# 5 -0.004207 -0.000917 -0.005876 -0.012149 0.033520 0.002449
# 6 0.000425 -0.000658 0.000634 -0.034344 0.002449 0.031423
#
#
# Mechanical properties :
#
#
# Convention : Reuss Voigt Hill
#
# Bulk Modulus (GPa) = 52.12350 69.72590 60.92470
# Shear Modulus (GPa) = 16.47898 33.05773 24.76835
#
# Velocity S-wave (km/s) = 2.57523 3.64743 3.15718
# Velocity P-wave (km/s) = 5.46067 6.76748 6.14889
#
# Compressibility (1/GPa) = 0.01918520
#
# Stress axis : x y z
#
# Youngs Moduli (GPa) = 71.34144 123.50130 76.25344
#
# Poissons Ratio (x) = 0.55844 0.21553
# Poissons Ratio (y) = 0.32259 0.05134
# Poissons Ratio (z) = 0.20165 0.08316
#
# Static dielectric constant tensor:
#      x y z
#    x 4.383690 -0.031910 0.212550 
#    y -0.031910 4.822270 0.012420 
#    z 0.212550 0.012420 4.626090 
# 
# 
# High freq. dielectric constant tensor:
#      x y z
#    x 1.983880 -0.001040 0.015820 
#    y -0.001040 2.001680 0.001530 
#    z 0.015820 0.001530 2.004540 
# 
# From -- ./inp_files/147582.got.cif
#   From: 2010.06.25/outbox.cif.g09.slc.cpg/sg2_74_cif.got.tgz:147582.got - 2010.06.27 13:26:56.
