data_PCOD8021767
_publ_section_title
;
Structure prediction by ZEFSAII (Michael W. Deem and Ramdas Pophale) SiO2 
 PCOD8021767
Probable space group: P -1
;
_chemical_formula_sum "Si O2"
_cell_formula_units_Z 14
_cell_length_a 11.364216
_cell_length_b 5.239433
_cell_length_c 12.733983
_cell_angle_alpha 67.177536
_cell_angle_beta 104.191330
_cell_angle_gamma 123.670118
_cell_volume 581.163366
_symmetry_space_group_name_H-M "P -1"
_symmetry_group_IT_number 2
_symmetry_cell_setting 'triclinic'
loop_
_space_group_symop_operation_xyz
x,y,z
-x,-y,-z
loop_
_atom_site_type_symbol
_atom_site_label
_atom_site_fract_x
_atom_site_fract_y
_atom_site_fract_z
Si Si1 0.638730 0.864712 0.865035
Si Si2 0.358622 0.629545 0.916166
Si Si3 0.839944 0.386551 0.965351
Si Si4 0.010590 0.195141 0.574232
Si Si5 0.479379 0.276969 0.631160
Si Si6 0.688373 0.494262 0.302499
Si Si7 0.249810 0.280838 0.267312
O O1 0.509426 0.929883 0.854544
O O2 0.664138 0.875417 0.742940
O O3 0.783221 0.090716 0.920883
O O4 0.591572 0.510493 0.955963
O O5 0.288962 0.411345 0.831649
O O6 0.248339 0.720350 0.926927
O O7 0.822842 0.655070 0.858168
O O8 0.000000 0.500000 0.000000
O O9 0.157066 0.318763 0.644618
O O10 0.000000 0.500000 0.500000
O O11 0.000000 0.000000 0.500000
O O12 0.875256 0.968000 0.649334
O O13 0.500000 0.500000 0.500000
O O14 0.394804 0.348387 0.689472
O O15 0.639203 0.400034 0.692530
O O16 0.393321 0.898649 0.638750
#
# Coordination Sequence:
#
# PCOD8021767 Si02
#       7
#     2   2   2   2   2   2   2
#     4  10  22  44  68 100 144 181 240 295 366 435
#     4  10  23  41  68 104 136 187 235 298 361 435
#     4  11  26  40  70 106 150 190 241 296 369 462
#     4  12  29  50  73 108 152 200 248 308 377 443
#     4  12  26  48  75 109 140 192 257 314 360 434
#     4  12  26  45  77 105 145 192 245 303 375 436
#     4  11  26  45  74 105 148 195 245 312 376 434
#
# _framework density 24.08961
#
# number of rings (size 3 to 8) (size 9 to 14) (size 15 to 20)
#    0.000    0.857    1.429    4.286    8.000    1.143 
#    0.000    0.000    0.000    0.000    0.000    0.000 
#    0.000    0.000    0.000    0.000    0.000    0.000 
#
# Total GULP energy -173448.645637 kJ/mol
# GULP energy per Si atom -12389.188974 kJ/mol
# Density = 2.403478 g / cm^3
# Si number density = 24.089610 Si / 1000 Ang^3
#
#
#
# Elastic Constant Matrix: (Units=GPa)
#
#
# Indices 1 2 3 4 5 6 
#
# 1 152.7880 72.1743 54.1312 10.8415 -17.7557 32.3758
# 2 72.1743 147.5136 36.0274 15.9125 -19.3995 26.6112
# 3 54.1312 36.0274 114.1031 17.1590 -33.3888 16.2001
# 4 10.8415 15.9125 17.1590 45.2021 7.8443 5.0893
# 5 -17.7557 -19.3995 -33.3888 7.8443 40.7403 4.3407
# 6 32.3758 26.6112 16.2001 5.0893 4.3407 55.3309
#
#
#
# Elastic Compliance Matrix: (Units=1/GPa)
#
#
# Indices 1 2 3 4 5 6 
#
# 1 0.010047 -0.003530 -0.003085 0.000299 0.000467 -0.003342
# 2 -0.003530 0.009841 0.000966 -0.003501 0.004935 -0.003015
# 3 -0.003085 0.000966 0.015568 -0.007481 0.013698 -0.003604
# 4 0.000299 -0.003501 -0.007481 0.028194 -0.013326 0.002151
# 5 0.000467 0.004935 0.013698 -0.013326 0.041820 -0.008713
# 6 -0.003342 -0.003015 -0.003604 0.002151 -0.008713 0.023019
#
#
# Mechanical properties :
#
#
# Convention : Reuss Voigt Hill
#
# Bulk Modulus (GPa) = 41.39644 82.11893 61.75768
# Shear Modulus (GPa) = 33.82039 45.05946 39.43993
#
# Velocity S-wave (km/s) = 3.75098 4.32961 4.05064
# Velocity P-wave (km/s) = 5.99846 7.69136 6.89705
#
# Compressibility (1/GPa) = 0.02415667
#
# Stress axis : x y z
#
# Youngs Moduli (GPa) = 99.53291 101.61747 64.23491
#
# Poissons Ratio (x) = 0.35872 0.19820
# Poissons Ratio (y) = 0.35136 -0.06206
# Poissons Ratio (z) = 0.30711 -0.09817
#
# Static dielectric constant tensor:
#      x y z
#    x 4.816750 0.023240 -0.167560 
#    y 0.023240 4.490980 0.290670 
#    z -0.167560 0.290670 4.843880 
# 
# 
# High freq. dielectric constant tensor:
#      x y z
#    x 1.968220 0.004740 -0.008450 
#    y 0.004740 1.959060 0.006550 
#    z -0.008450 0.006550 1.970660 
# 
# From -- ./inp_files/89841.got.cif
#   From: 2010.06.25/outbox.cif.g09.slc.cpg/sg2_45_cif.got.tgz:89841.got - 2010.06.27 13:26:56.
