data_PCOD8021664
_publ_section_title
;
Structure prediction by ZEFSAII (Michael W. Deem and Ramdas Pophale) SiO2 
 PCOD8021664
Probable space group: P -1
;
_chemical_formula_sum "Si O2"
_cell_formula_units_Z 16
_cell_length_a 11.756870
_cell_length_b 12.039018
_cell_length_c 12.137262
_cell_angle_alpha 35.323950
_cell_angle_beta 55.813423
_cell_angle_gamma 48.824026
_cell_volume 746.440824
_symmetry_space_group_name_H-M "P -1"
_symmetry_group_IT_number 2
_symmetry_cell_setting 'triclinic'
loop_
_space_group_symop_operation_xyz
x,y,z
-x,-y,-z
loop_
_atom_site_type_symbol
_atom_site_label
_atom_site_fract_x
_atom_site_fract_y
_atom_site_fract_z
Si Si1 0.272867 0.373647 0.388162
Si Si2 0.822140 0.951083 0.223659
Si Si3 0.510696 0.715620 0.841780
Si Si4 0.671738 0.561493 0.254816
Si Si5 0.319950 0.177653 0.164810
Si Si6 0.000599 0.437101 0.175246
Si Si7 0.477424 0.310931 0.532819
Si Si8 0.038283 0.747258 0.080838
O O1 0.159177 0.257547 0.549843
O O2 0.415047 0.232742 0.348650
O O3 0.338957 0.394277 0.454583
O O4 0.173106 0.603739 0.206156
O O5 0.884772 0.875721 0.127744
O O6 0.644712 0.093523 0.195867
O O7 0.907765 0.075826 0.137914
O O8 0.621680 0.674107 0.918205
O O9 0.500000 0.500000 0.000000
O O10 0.848442 0.404279 0.310421
O O11 0.583507 0.433798 0.352399
O O12 0.591096 0.656955 0.334817
O O13 0.674061 0.751922 0.022291
O O14 0.154300 0.222355 0.270221
O O15 0.420591 0.936164 0.332192
O O16 0.007936 0.619389 0.102496
O O17 0.000000 0.500000 0.000000
#
# Coordination Sequence:
#
# PCOD8021664 Si02
#       8
#     2   2   2   2   2   2   2   2
#     4  12  23  41  67  98 135 166 215 273 329 395
#     4  11  24  40  66  99 130 176 211 268 339 394
#     4  12  22  40  64  97 132 169 210 268 327 391
#     4  10  24  44  65  91 132 170 221 272 316 389
#     4  11  22  42  65  91 126 172 217 264 323 383
#     4  10  22  44  66  91 129 178 216 269 321 385
#     4  11  24  41  66 101 124 172 220 266 332 385
#     4  11  24  45  64  98 137 170 219 270 335 396
#
# _framework density 21.435054999999998
#
# number of rings (size 3 to 8) (size 9 to 14) (size 15 to 20)
#    0.000    1.000    3.750    2.625    0.000    1.500 
#    0.000    5.000    0.000    0.000    0.000    0.000 
#    0.000    0.000    0.000    0.000    0.000    0.000 
#
# Total GULP energy -198317.588506 kJ/mol
# GULP energy per Si atom -12394.849282 kJ/mol
# Density = 2.138627 g / cm^3
# Si number density = 21.435055 Si / 1000 Ang^3
#
#
#
# Elastic Constant Matrix: (Units=GPa)
#
#
# Indices 1 2 3 4 5 6 
#
# 1 101.8999 36.0444 33.0183 0.2578 -8.0183 7.8249
# 2 36.0444 90.1532 19.4387 -0.0121 -4.8290 0.6517
# 3 33.0183 19.4387 67.5221 0.6463 -21.4808 13.5385
# 4 0.2578 -0.0121 0.6463 29.4044 -4.7787 -0.2112
# 5 -8.0183 -4.8290 -21.4808 -4.7787 34.0904 8.0172
# 6 7.8249 0.6517 13.5385 -0.2112 8.0172 35.4354
#
#
#
# Elastic Compliance Matrix: (Units=1/GPa)
#
#
# Indices 1 2 3 4 5 6 
#
# 1 0.012953 -0.004077 -0.005266 -0.000121 -0.000723 -0.000610
# 2 -0.004077 0.013197 -0.002551 -0.000077 -0.001153 0.001893
# 3 -0.005266 -0.002551 0.026670 0.002394 0.018641 -0.013183
# 4 -0.000121 -0.000077 0.002394 0.035064 0.006911 -0.002241
# 5 -0.000723 -0.001153 0.018641 0.006911 0.045773 -0.017256
# 6 -0.000610 0.001893 -0.013183 -0.002241 -0.017256 0.037248
#
#
# Mechanical properties :
#
#
# Convention : Reuss Voigt Hill
#
# Bulk Modulus (GPa) = 34.44666 48.50866 41.47766
# Shear Modulus (GPa) = 24.46522 31.19095 27.82809
#
# Velocity S-wave (km/s) = 3.38207 3.81876 3.60703
# Velocity P-wave (km/s) = 5.59968 6.49027 6.06135
#
# Compressibility (1/GPa) = 0.02903039
#
# Stress axis : x y z
#
# Youngs Moduli (GPa) = 77.20469 75.77480 37.49482
#
# Poissons Ratio (x) = 0.30896 0.19747
# Poissons Ratio (y) = 0.31479 0.09565
# Poissons Ratio (z) = 0.40660 0.19329
#
# Static dielectric constant tensor:
#      x y z
#    x 4.258920 -0.468990 -0.271870 
#    y -0.468990 4.336600 0.080770 
#    z -0.271870 0.080770 3.931930 
# 
# 
# High freq. dielectric constant tensor:
#      x y z
#    x 1.847590 -0.008470 -0.012820 
#    y -0.008470 1.859190 0.011060 
#    z -0.012820 0.011060 1.828070 
# 
# From -- ./inp_files/424942.got.cif
#   From: 2010.06.25/outbox.cif.g09.slc.cpg/sg2_213_cif.got.tgz:424942.got - 2010.06.27 13:26:56.
