data_PCOD8021734
_publ_section_title
;
Structure prediction by ZEFSAII (Michael W. Deem and Ramdas Pophale) SiO2 
 PCOD8021734
Probable space group: P -1
;
_chemical_formula_sum "Si O2"
_cell_formula_units_Z 16
_cell_length_a 15.553628
_cell_length_b 27.906933
_cell_length_c 8.829701
_cell_angle_alpha 132.608015
_cell_angle_beta 38.922387
_cell_angle_gamma 161.244420
_cell_volume 739.619121
_symmetry_space_group_name_H-M "P -1"
_symmetry_group_IT_number 2
_symmetry_cell_setting 'triclinic'
loop_
_space_group_symop_operation_xyz
x,y,z
-x,-y,-z
loop_
_atom_site_type_symbol
_atom_site_label
_atom_site_fract_x
_atom_site_fract_y
_atom_site_fract_z
Si Si1 0.120343 0.325844 0.107002
Si Si2 0.149388 0.230180 0.075571
Si Si3 0.731416 0.160978 0.004085
Si Si4 0.235895 0.057954 0.085180
Si Si5 0.747083 0.412887 0.532650
Si Si6 0.329694 0.106954 0.405706
Si Si7 0.824237 0.642057 0.458399
Si Si8 0.935049 0.353932 0.626253
O O1 0.007160 0.208272 0.080173
O O2 0.057272 0.296288 0.951082
O O3 0.892322 0.284102 0.399181
O O4 0.500000 0.500000 0.000000
O O5 0.160974 0.282732 0.315478
O O6 0.519049 0.367476 0.828924
O O7 0.909891 0.065400 0.075642
O O8 0.529373 0.137241 0.281905
O O9 0.851376 0.219824 0.793904
O O10 0.500000 0.000000 0.000000
O O11 0.236780 0.040318 0.224079
O O12 0.589644 0.227743 0.897550
O O13 0.994022 0.016132 0.313691
O O14 0.545655 0.265010 0.429845
O O15 0.000000 0.500000 0.500000
O O16 0.903783 0.511572 0.377037
O O17 0.500000 0.500000 0.500000
O O18 0.841246 0.586124 0.425421
#
# Coordination Sequence:
#
# PCOD8021734 Si02
#       8
#     2   2   2   2   2   2   2   2
#     4  11  22  39  69  97 139 179 229 275 347 411
#     4  10  23  43  68  96 135 181 223 278 344 404
#     4  12  25  44  70 104 137 180 229 291 350 406
#     4  10  22  44  67  96 135 178 227 277 342 409
#     4  11  24  43  69  97 134 185 227 278 340 411
#     4  10  23  45  65  96 140 176 228 283 340 408
#     4  11  26  43  68 106 141 173 231 292 337 413
#     4  11  23  42  72  99 132 181 230 277 342 406
#
# _framework density 21.632755
#
# number of rings (size 3 to 8) (size 9 to 14) (size 15 to 20)
#    0.000    1.250    2.500    3.000    3.500    1.500 
#    2.250    1.875    0.000    0.000    0.000    0.000 
#    0.000    0.000    0.000    0.000    0.000    0.000 
#
# Total GULP energy -198385.842320 kJ/mol
# GULP energy per Si atom -12399.115145 kJ/mol
# Density = 2.158352 g / cm^3
# Si number density = 21.632755 Si / 1000 Ang^3
#
#
#
# Elastic Constant Matrix: (Units=GPa)
#
#
# Indices 1 2 3 4 5 6 
#
# 1 120.5158 55.2608 50.5164 2.7907 -3.5625 1.3630
# 2 55.2608 100.2302 58.8829 -2.6765 -8.9040 5.1933
# 3 50.5164 58.8829 142.5099 -3.6149 -16.4987 -4.8627
# 4 2.7907 -2.6765 -3.6149 35.3405 0.1577 3.6890
# 5 -3.5625 -8.9040 -16.4987 0.1577 32.4102 2.3681
# 6 1.3630 5.1933 -4.8627 3.6890 2.3681 34.9672
#
#
#
# Elastic Compliance Matrix: (Units=1/GPa)
#
#
# Indices 1 2 3 4 5 6 
#
# 1 0.011621 -0.005353 -0.002084 -0.001562 -0.001269 0.000303
# 2 -0.005353 0.015961 -0.004569 0.001477 0.001687 -0.003067
# 3 -0.002084 -0.004569 0.010133 0.000645 0.003535 0.001862
# 4 -0.001562 0.001477 0.000645 0.028925 0.000653 -0.003164
# 5 -0.001269 0.001687 0.003535 0.000653 0.033123 -0.002022
# 6 0.000303 -0.003067 0.001862 -0.003164 -0.002022 0.029772
#
#
# Mechanical properties :
#
#
# Convention : Reuss Voigt Hill
#
# Bulk Modulus (GPa) = 72.97796 76.95289 74.96542
# Shear Modulus (GPa) = 31.62306 33.78332 32.70319
#
# Velocity S-wave (km/s) = 3.82752 3.95609 3.89233
# Velocity P-wave (km/s) = 7.30352 7.51779 7.41143
#
# Compressibility (1/GPa) = 0.01370277
#
# Stress axis : x y z
#
# Youngs Moduli (GPa) = 86.05193 62.65320 98.69081
#
# Poissons Ratio (x) = 0.33538 0.20564
# Poissons Ratio (y) = 0.46064 0.45093
# Poissons Ratio (z) = 0.17931 0.28627
#
# Static dielectric constant tensor:
#      x y z
#    x 4.019500 -0.000660 -0.094860 
#    y -0.000660 3.820930 -0.046580 
#    z -0.094860 -0.046580 4.244370 
# 
# 
# High freq. dielectric constant tensor:
#      x y z
#    x 1.846830 0.004630 -0.011180 
#    y 0.004630 1.844260 0.000220 
#    z -0.011180 0.000220 1.863020 
# 
# From -- ./inp_files/320705.got.cif
#   From: 2010.06.25/outbox.cif.g09.slc.cpg/sg2_161_cif.got.tgz:320705.got - 2010.06.27 13:26:56.
