data_PCOD8021473
_publ_section_title
;
Structure prediction by ZEFSAII (Michael W. Deem and Ramdas Pophale) SiO2 
 PCOD8021473
Probable space group: P -1
;
_chemical_formula_sum "Si O2"
_cell_formula_units_Z 16
_cell_length_a 9.027042
_cell_length_b 8.895863
_cell_length_c 14.800213
_cell_angle_alpha 142.724922
_cell_angle_beta 92.136901
_cell_angle_gamma 100.125965
_cell_volume 676.581806
_symmetry_space_group_name_H-M "P -1"
_symmetry_group_IT_number 2
_symmetry_cell_setting 'triclinic'
loop_
_space_group_symop_operation_xyz
x,y,z
-x,-y,-z
loop_
_atom_site_type_symbol
_atom_site_label
_atom_site_fract_x
_atom_site_fract_y
_atom_site_fract_z
Si Si1 0.533123 0.113615 0.830892
Si Si2 0.098440 0.697767 0.460726
Si Si3 0.112814 0.725511 0.048380
Si Si4 0.546448 0.586226 0.182019
Si Si5 0.836626 0.551247 0.256147
Si Si6 0.566252 0.279451 0.587221
Si Si7 0.652280 0.470892 0.389969
Si Si8 0.048510 0.213582 0.337335
O O1 0.718056 0.178576 0.854866
O O2 0.468768 0.171979 0.761169
O O3 0.450215 0.810724 0.707805
O O4 0.500593 0.308753 0.997288
O O5 0.268735 0.695457 0.440020
O O6 0.000965 0.405019 0.358733
O O7 0.003829 0.744843 0.392669
O O8 0.084579 0.887624 0.634015
O O9 0.045446 0.963665 0.159385
O O10 0.123792 0.646982 0.907036
O O11 0.000000 0.500000 0.000000
O O12 0.732312 0.700730 0.272755
O O13 0.426568 0.521343 0.233588
O O14 0.727124 0.407379 0.268662
O O15 0.456246 0.344651 0.539877
O O16 0.500000 0.000000 0.500000
O O17 0.780955 0.634365 0.542516
#
# Coordination Sequence:
#
# PCOD8021473 Si02
#       8
#     2   2   2   2   2   2   2   2
#     4  10  22  43  73  99 132 178 229 279 341 395
#     4  10  23  44  67  97 136 177 225 277 335 406
#     4  11  25  41  67 101 140 177 221 277 340 407
#     4   9  22  43  65 101 130 172 230 275 340 396
#     4   9  22  46  65  99 131 178 219 277 343 390
#     4  11  25  39  67 103 135 179 224 278 336 404
#     4  10  23  45  75  96 136 177 228 286 328 408
#     4  10  24  45  68 102 131 180 227 275 342 396
#
# _framework density 23.648284
#
# number of rings (size 3 to 8) (size 9 to 14) (size 15 to 20)
#    0.000    2.000    0.000    0.750    5.250   10.000 
#   15.750    4.375    0.000    0.000    0.000    0.000 
#    0.000    0.000    0.000    0.000    0.000    0.000 
#
# Total GULP energy -198302.206308 kJ/mol
# GULP energy per Si atom -12393.887894 kJ/mol
# Density = 2.359446 g / cm^3
# Si number density = 23.648284 Si / 1000 Ang^3
#
#
#
# Elastic Constant Matrix: (Units=GPa)
#
#
# Indices 1 2 3 4 5 6 
#
# 1 127.9141 30.0435 19.3014 -15.5906 -22.0025 9.8463
# 2 30.0435 84.6722 13.1437 1.8618 -0.9288 -5.6891
# 3 19.3014 13.1437 35.9908 -11.9250 -27.7637 7.4005
# 4 -15.5906 1.8618 -11.9250 41.0569 1.1916 -4.4724
# 5 -22.0025 -0.9288 -27.7637 1.1916 35.7322 -2.5626
# 6 9.8463 -5.6891 7.4005 -4.4724 -2.5626 48.0385
#
#
#
# Elastic Compliance Matrix: (Units=1/GPa)
#
#
# Indices 1 2 3 4 5 6 
#
# 1 0.011033 -0.005514 0.009038 0.006353 0.013246 -0.003009
# 2 -0.005514 0.017536 -0.022409 -0.008299 -0.019728 0.004834
# 3 0.009038 -0.022409 0.119226 0.034723 0.095419 -0.014551
# 4 0.006353 -0.008299 0.034723 0.036085 0.029278 -0.002713
# 5 0.013246 -0.019728 0.095419 0.029278 0.107985 -0.011265
# 6 -0.003009 0.004834 -0.014551 -0.002713 -0.011265 0.023394
#
#
# Mechanical properties :
#
#
# Convention : Reuss Voigt Hill
#
# Bulk Modulus (GPa) = 9.08885 41.50606 25.29746
# Shear Modulus (GPa) = 12.83021 37.37141 25.10081
#
# Velocity S-wave (km/s) = 2.33178 3.97961 3.26148
# Velocity P-wave (km/s) = 3.33186 6.22141 4.99035
#
# Compressibility (1/GPa) = 0.11002491
#
# Stress axis : x y z
#
# Youngs Moduli (GPa) = 90.63379 57.02444 8.38745
#
# Poissons Ratio (x) = 0.31446 -0.07581
# Poissons Ratio (y) = 0.49979 0.18795
# Poissons Ratio (z) = -0.81916 1.27786
#
# Static dielectric constant tensor:
#      x y z
#    x 3.339090 -2.273490 0.705600 
#    y -2.273490 0.776720 1.447780 
#    z 0.705600 1.447780 3.459850 
# 
# 
# High freq. dielectric constant tensor:
#      x y z
#    x 1.953490 -0.007780 -0.023730 
#    y -0.007780 1.940350 -0.019250 
#    z -0.023730 -0.019250 1.932810 
# 
# From -- ./inp_files/495856.got.cif
#   From: 2010.06.25/outbox.cif.g09.slc.cpg/sg2_248_cif.got.tgz:495856.got - 2010.06.27 13:26:56.
