data_PCOD8021569
_publ_section_title
;
Structure prediction by ZEFSAII (Michael W. Deem and Ramdas Pophale) SiO2 
 PCOD8021569
Probable space group: P -1
;
_chemical_formula_sum "Si O2"
_cell_formula_units_Z 16
_cell_length_a 6.717870
_cell_length_b 20.540160
_cell_length_c 24.294139
_cell_angle_alpha 19.749943
_cell_angle_beta 46.020711
_cell_angle_gamma 55.607300
_cell_volume 758.984056
_symmetry_space_group_name_H-M "P -1"
_symmetry_group_IT_number 2
_symmetry_cell_setting 'triclinic'
loop_
_space_group_symop_operation_xyz
x,y,z
-x,-y,-z
loop_
_atom_site_type_symbol
_atom_site_label
_atom_site_fract_x
_atom_site_fract_y
_atom_site_fract_z
Si Si1 0.811073 0.396499 0.200619
Si Si2 0.473801 0.457822 0.602407
Si Si3 0.827404 0.283384 0.040010
Si Si4 0.156558 0.073785 0.599608
Si Si5 0.380071 0.855682 0.306393
Si Si6 0.727950 0.149572 0.795989
Si Si7 0.944978 0.134779 0.022949
Si Si8 0.167538 0.245060 0.171114
O O1 0.480483 0.244382 0.397076
O O2 0.991723 0.268000 0.240698
O O3 0.789932 0.571149 0.025482
O O4 0.980151 0.495865 0.145539
O O5 0.500000 0.500000 0.500000
O O6 0.477805 0.670660 0.458684
O O7 0.749041 0.382386 0.625455
O O8 0.168118 0.271398 0.825359
O O9 0.981500 0.270506 0.962833
O O10 0.487353 0.255166 0.120699
O O11 0.836189 0.102499 0.220957
O O12 0.949068 0.186853 0.574792
O O13 0.025282 0.974951 0.644388
O O14 0.397893 0.880445 0.217800
O O15 0.609770 0.070700 0.115785
O O16 0.015000 0.085492 0.796448
O O17 0.500000 0.000000 0.000000
#
# Coordination Sequence:
#
# PCOD8021569 Si02
#       8
#     2   2   2   2   2   2   2   2
#     4  10  24  41  66  92 129 164 211 264 306 373
#     4   9  22  39  61  91 119 158 211 250 308 376
#     4  11  23  39  63  95 127 168 210 255 318 373
#     4  11  23  39  63  96 128 166 213 258 311 375
#     4  11  22  39  62  90 126 163 206 255 312 373
#     4   9  20  41  60  87 122 155 205 251 311 372
#     4  11  22  40  65  87 129 167 199 261 316 366
#     4  10  22  44  64  93 126 168 210 257 320 372
#
# _framework density 21.080811000000001
#
# number of rings (size 3 to 8) (size 9 to 14) (size 15 to 20)
#    0.000    1.750    2.500    0.750    1.750    7.500 
#    0.000    2.500    0.000    0.000    0.000    0.000 
#    0.000    0.000    0.000    0.000    0.000    0.000 
#
# Total GULP energy -198262.674389 kJ/mol
# GULP energy per Si atom -12391.417149 kJ/mol
# Density = 2.103283 g / cm^3
# Si number density = 21.080811 Si / 1000 Ang^3
#
#
#
# Elastic Constant Matrix: (Units=GPa)
#
#
# Indices 1 2 3 4 5 6 
#
# 1 97.5449 62.2154 53.0648 -3.1884 -18.9099 0.0041
# 2 62.2154 138.8532 66.5722 19.5659 1.6904 -105.1714
# 3 53.0648 66.5722 102.7042 4.7965 -21.9261 35.2066
# 4 -3.1884 19.5659 4.7965 19.1076 -8.0685 65.5711
# 5 -18.9099 1.6904 -21.9261 -8.0685 35.8892 27.1590
# 6 0.0041 -105.1714 35.2066 65.5711 27.1590 -363.8279
#
#
#
# Elastic Compliance Matrix: (Units=1/GPa)
#
#
# Indices 1 2 3 4 5 6 
#
# 1 0.017363 -0.004223 -0.005949 0.004563 0.005327 0.001865
# 2 -0.004223 0.008279 -0.002689 0.000153 -0.002117 -0.002784
# 3 -0.005949 -0.002689 0.015112 -0.005613 0.003818 0.001513
# 4 0.004563 0.000153 -0.005613 0.035070 0.002379 0.005911
# 5 0.005327 -0.002117 0.003818 0.002379 0.030829 0.003712
# 6 0.001865 -0.002784 0.001513 0.005911 0.003712 -0.000455
#
#
# Mechanical properties :
#
#
# Convention : Reuss Voigt Hill
#
# Bulk Modulus (GPa) = 66.52524 78.08968 72.30746
# Shear Modulus (GPa) = 36.51483 -51.28289 -7.38403
#
# Velocity S-wave (km/s) = 4.16641 -4.93757 -1.87359
# Velocity P-wave (km/s) = 7.40075 2.14878 5.44923
#
# Compressibility (1/GPa) = 0.01503189
#
# Stress axis : x y z
#
# Youngs Moduli (GPa) = 57.59327 120.78981 66.17163
#
# Poissons Ratio (x) = 0.51005 0.39367
# Poissons Ratio (y) = 0.24319 0.17795
# Poissons Ratio (z) = 0.34264 0.32484
#
# Static dielectric constant tensor:
#      x y z
#    x 3.988580 -0.266060 0.223950 
#    y -0.266060 4.455270 -0.378780 
#    z 0.223950 -0.378780 3.822230 
# 
# 
# High freq. dielectric constant tensor:
#      x y z
#    x 1.825890 -0.009120 0.005910 
#    y -0.009120 1.846850 -0.003450 
#    z 0.005910 -0.003450 1.816990 
# 
# From -- ./inp_files/120011.got.cif
#   From: 2010.06.25/outbox.cif.g09.slc.cpg/sg2_61_cif.got.tgz:120011.got - 2010.06.27 13:26:56.
