data_PCOD8021337
_publ_section_title
;
Structure prediction by ZEFSAII (Michael W. Deem and Ramdas Pophale) SiO2 
 PCOD8021337
Probable space group: P -1
;
_chemical_formula_sum "Si O2"
_cell_formula_units_Z 12
_cell_length_a 5.165277
_cell_length_b 17.190711
_cell_length_c 6.979661
_cell_angle_alpha 98.698532
_cell_angle_beta 71.109323
_cell_angle_gamma 110.768091
_cell_volume 547.810202
_symmetry_space_group_name_H-M "P -1"
_symmetry_group_IT_number 2
_symmetry_cell_setting 'triclinic'
loop_
_space_group_symop_operation_xyz
x,y,z
-x,-y,-z
loop_
_atom_site_type_symbol
_atom_site_label
_atom_site_fract_x
_atom_site_fract_y
_atom_site_fract_z
Si Si1 0.384558 0.594110 0.386203
Si Si2 0.776167 0.593656 0.641758
Si Si3 0.760085 0.070495 0.558181
Si Si4 0.839640 0.959755 0.831115
Si Si5 0.393556 0.821462 0.083890
Si Si6 0.786973 0.713748 0.029329
O O1 0.530910 0.603076 0.562374
O O2 0.318499 0.500368 0.288790
O O3 0.598778 0.658427 0.219710
O O4 0.086973 0.615433 0.471959
O O5 0.800860 0.656216 0.829872
O O6 0.674450 0.150095 0.676719
O O7 0.009171 0.097477 0.346246
O O8 0.500000 0.000000 0.500000
O O9 0.856331 0.036188 0.716870
O O10 0.515644 0.901570 0.942605
O O11 0.000000 0.000000 0.000000
O O12 0.651343 0.783557 0.026934
O O13 0.111989 0.756069 0.038523
#
# Coordination Sequence:
#
# PCOD8021337 Si02
#       6
#     2   2   2   2   2   2
#     4  10  22  43  70  97 131 175 227 262 314 396
#     4  10  22  43  70  96 129 181 221 265 318 385
#     4  11  25  44  71  92 123 176 228 276 327 395
#     4  11  24  46  69  94 127 170 229 280 329 401
#     4  12  27  43  66 100 135 173 214 277 339 393
#     4  12  26  43  63 101 141 170 213 271 339 388
#
# _framework density 21.905396
#
# number of rings (size 3 to 8) (size 9 to 14) (size 15 to 20)
#    0.000    1.000    1.667    4.000    4.667    4.000 
#    0.000    6.667    0.000    0.000    0.000    0.000 
#    0.000    0.000    0.000    0.000    0.000    0.000 
#
# Total GULP energy -148828.606245 kJ/mol
# GULP energy per Si atom -12402.383854 kJ/mol
# Density = 2.185554 g / cm^3
# Si number density = 21.905396 Si / 1000 Ang^3
#
#
#
# Elastic Constant Matrix: (Units=GPa)
#
#
# Indices 1 2 3 4 5 6 
#
# 1 83.0022 16.1901 21.9930 9.4440 -0.2920 8.2212
# 2 16.1901 92.5030 56.2922 16.5319 -4.7629 16.6630
# 3 21.9930 56.2922 128.0060 21.7471 -9.5348 6.0364
# 4 9.4440 16.5319 21.7471 55.9629 3.8003 -7.2572
# 5 -0.2920 -4.7629 -9.5348 3.8003 38.1486 -0.7763
# 6 8.2212 16.6630 6.0364 -7.2572 -0.7763 37.9831
#
#
#
# Elastic Compliance Matrix: (Units=1/GPa)
#
#
# Indices 1 2 3 4 5 6 
#
# 1 0.013039 -0.000523 -0.001605 -0.001753 -0.000246 -0.002678
# 2 -0.000523 0.016555 -0.006260 -0.003294 0.000689 -0.006770
# 3 -0.001605 -0.006260 0.011368 -0.002338 0.002298 0.000887
# 4 -0.001753 -0.003294 -0.002338 0.021047 -0.002981 0.006157
# 5 -0.000246 0.000689 0.002298 -0.002981 0.027156 -0.000628
# 6 -0.002678 -0.006770 0.000887 0.006157 -0.000628 0.030900
#
#
# Mechanical properties :
#
#
# Convention : Reuss Voigt Hill
#
# Bulk Modulus (GPa) = 41.34568 54.71800 48.03184
# Shear Modulus (GPa) = 34.50605 40.35465 37.43035
#
# Velocity S-wave (km/s) = 3.97322 4.29677 4.13816
# Velocity P-wave (km/s) = 6.32173 7.04626 6.69381
#
# Compressibility (1/GPa) = 0.02418633
#
# Stress axis : x y z
#
# Youngs Moduli (GPa) = 76.69412 60.40321 87.96990
#
# Poissons Ratio (x) = 0.03157 0.14116
# Poissons Ratio (y) = 0.04008 0.55073
# Poissons Ratio (z) = 0.12307 0.37815
#
# Static dielectric constant tensor:
#      x y z
#    x 4.013940 0.082380 -0.295270 
#    y 0.082380 3.982450 0.069520 
#    z -0.295270 0.069520 4.268310 
# 
# 
# High freq. dielectric constant tensor:
#      x y z
#    x 1.874790 0.006200 -0.010950 
#    y 0.006200 1.861480 0.008790 
#    z -0.010950 0.008790 1.871850 
# 
# From -- ./inp_files/5015.got.cif
#   From: 2010.06.25/outbox.cif.g09.slc.cpg/sg2_3_cif.got.tgz:5015.got - 2010.06.27 13:26:56.
