data_PCOD8021001
_publ_section_title
;
Structure prediction by ZEFSAII (Michael W. Deem and Ramdas Pophale) SiO2 
 PCOD8021001
Probable space group: P -1
;
_chemical_formula_sum "Si O2"
_cell_formula_units_Z 16
_cell_length_a 9.899038
_cell_length_b 17.436217
_cell_length_c 11.828440
_cell_angle_alpha 118.855067
_cell_angle_beta 142.752925
_cell_angle_gamma 89.708222
_cell_volume 756.552826
_symmetry_space_group_name_H-M "P -1"
_symmetry_group_IT_number 2
_symmetry_cell_setting 'triclinic'
loop_
_space_group_symop_operation_xyz
x,y,z
-x,-y,-z
loop_
_atom_site_type_symbol
_atom_site_label
_atom_site_fract_x
_atom_site_fract_y
_atom_site_fract_z
Si Si1 0.280579 0.741039 0.754111
Si Si2 0.258310 0.196862 0.075680
Si Si3 0.547732 0.785892 0.197498
Si Si4 0.909348 0.408332 0.778835
Si Si5 0.182087 0.875999 0.647250
Si Si6 0.194433 0.805857 0.360833
Si Si7 0.732599 0.482895 0.130812
Si Si8 0.349530 0.052528 0.421820
O O1 0.596376 0.813681 0.941584
O O2 0.083015 0.763777 0.577140
O O3 0.049436 0.591630 0.493670
O O4 0.379546 0.788982 0.982870
O O5 0.540122 0.313247 0.425562
O O6 0.046921 0.216968 0.903570
O O7 0.033776 0.065611 0.903103
O O8 0.918862 0.877541 0.481711
O O9 0.507544 0.836898 0.315214
O O10 0.407069 0.649102 0.018495
O O11 0.974083 0.330680 0.814567
O O12 0.163608 0.497936 0.915280
O O13 0.000000 0.500000 0.000000
O O14 0.249679 0.876276 0.561124
O O15 0.500000 0.000000 0.000000
O O16 0.536926 0.884931 0.583020
O O17 0.500000 0.500000 0.000000
O O18 0.500000 0.000000 0.500000
#
# Coordination Sequence:
#
# PCOD8021001 Si02
#       8
#     2   2   2   2   2   2   2   2
#     4  11  23  42  70 100 134 175 222 272 340 395
#     4  10  22  43  66  95 131 176 214 271 336 384
#     4  12  24  44  70  97 137 176 220 281 330 400
#     4  11  24  44  66  93 131 175 225 262 329 408
#     4  12  25  41  70 104 129 177 227 267 340 400
#     4  11  22  46  66  93 139 170 214 281 325 391
#     4  11  22  45  64 101 133 167 226 278 332 389
#     4  10  25  44  66 100 135 171 224 270 331 399
#
# _framework density 21.148557
#
# number of rings (size 3 to 8) (size 9 to 14) (size 15 to 20)
#    0.000    1.000    5.000    1.875    3.500    2.000 
#    6.750    0.000    0.000    0.000    0.000    0.000 
#    0.000    0.000    0.000    0.000    0.000    0.000 
#
# Total GULP energy -198332.723617 kJ/mol
# GULP energy per Si atom -12395.795226 kJ/mol
# Density = 2.110042 g / cm^3
# Si number density = 21.148557 Si / 1000 Ang^3
#
#
#
# Elastic Constant Matrix: (Units=GPa)
#
#
# Indices 1 2 3 4 5 6 
#
# 1 125.2216 16.6929 46.9373 -8.8785 -15.9844 -3.3306
# 2 16.6929 62.0630 26.5744 -13.5882 -12.0128 -1.0440
# 3 46.9373 26.5744 98.3540 -1.7567 -15.9905 -1.1992
# 4 -8.8785 -13.5882 -1.7567 30.5258 0.2712 -7.0669
# 5 -15.9844 -12.0128 -15.9905 0.2712 37.7911 3.7458
# 6 -3.3306 -1.0440 -1.1992 -7.0669 3.7458 30.4042
#
#
#
# Elastic Compliance Matrix: (Units=1/GPa)
#
#
# Indices 1 2 3 4 5 6 
#
# 1 0.010188 0.000361 -0.004503 0.003167 0.002358 0.001397
# 2 0.000361 0.021180 -0.004963 0.009735 0.004489 0.002281
# 3 -0.004503 -0.004963 0.014009 -0.002996 0.002579 -0.001125
# 4 0.003167 0.009735 -0.002996 0.040055 0.001924 0.009636
# 5 0.002358 0.004489 0.002579 0.001924 0.030237 -0.002764
# 6 0.001397 0.002281 -0.001125 0.009636 -0.002764 0.035657
#
#
# Mechanical properties :
#
#
# Convention : Reuss Voigt Hill
#
# Bulk Modulus (GPa) = 36.80954 51.78308 44.29631
# Shear Modulus (GPa) = 27.99683 32.77315 30.38499
#
# Velocity S-wave (km/s) = 3.64238 3.94085 3.79455
# Velocity P-wave (km/s) = 5.92724 6.72648 6.33947
#
# Compressibility (1/GPa) = 0.02716687
#
# Stress axis : x y z
#
# Youngs Moduli (GPa) = 98.15338 47.21545 71.38181
#
# Poissons Ratio (x) = -0.01704 0.32141
# Poissons Ratio (y) = -0.03543 0.35429
# Poissons Ratio (z) = 0.44195 0.23434
#
# Static dielectric constant tensor:
#      x y z
#    x 4.140640 0.268870 0.230870 
#    y 0.268870 4.350100 0.165300 
#    z 0.230870 0.165300 3.942940 
# 
# 
# High freq. dielectric constant tensor:
#      x y z
#    x 1.835750 0.007720 0.004490 
#    y 0.007720 1.831000 0.007300 
#    z 0.004490 0.007300 1.834490 
# 
# From -- ./inp_files/403293.got.cif
#   From: 2010.06.25/outbox.cif.g09.slc.cpg/sg2_202_cif.got.tgz:403293.got - 2010.06.27 13:26:56.
