data_PCOD8021463
_publ_section_title
;
Structure prediction by ZEFSAII (Michael W. Deem and Ramdas Pophale) SiO2 
 PCOD8021463
Probable space group: P -1
;
_chemical_formula_sum "Si O2"
_cell_formula_units_Z 14
_cell_length_a 11.565390
_cell_length_b 8.339442
_cell_length_c 7.507998
_cell_angle_alpha 64.036231
_cell_angle_beta 103.465281
_cell_angle_gamma 72.887013
_cell_volume 564.420784
_symmetry_space_group_name_H-M "P -1"
_symmetry_group_IT_number 2
_symmetry_cell_setting 'triclinic'
loop_
_space_group_symop_operation_xyz
x,y,z
-x,-y,-z
loop_
_atom_site_type_symbol
_atom_site_label
_atom_site_fract_x
_atom_site_fract_y
_atom_site_fract_z
Si Si1 0.807977 0.425092 0.514224
Si Si2 0.048637 0.081986 0.637346
Si Si3 0.459565 0.532954 0.679006
Si Si4 0.949753 0.263290 0.992028
Si Si5 0.470572 0.238656 0.115873
Si Si6 0.189103 0.336038 0.076815
Si Si7 0.718358 0.842750 0.413505
O O1 0.701617 0.358677 0.425825
O O2 0.835401 0.356183 0.760314
O O3 0.744018 0.665130 0.370774
O O4 0.947980 0.318047 0.510847
O O5 0.197685 0.045221 0.677620
O O6 0.000000 0.000000 0.500000
O O7 0.038881 0.955578 0.862865
O O8 0.500000 0.500000 0.500000
O O9 0.511958 0.673617 0.728850
O O10 0.511987 0.330234 0.915393
O O11 0.894926 0.421052 0.061076
O O12 0.093977 0.249070 0.995729
O O13 0.316514 0.282325 0.022233
O O14 0.563094 0.000581 0.269827
O O15 0.237014 0.235108 0.334494
#
# Coordination Sequence:
#
# PCOD8021463 Si02
#       7
#     2   2   2   2   2   2   2
#     4  11  26  46  68 104 147 185 237 306 357 431
#     4  12  24  42  73 104 140 188 244 293 364 428
#     4  11  26  47  73 109 146 188 250 301 355 433
#     4  10  23  43  71 108 142 188 233 302 358 426
#     4  11  26  46  78 103 146 203 234 298 369 427
#     4  10  22  43  73 107 147 184 240 289 364 435
#     4  11  24  44  71 108 147 189 242 296 361 435
#
# _framework density 24.804189999999998
#
# number of rings (size 3 to 8) (size 9 to 14) (size 15 to 20)
#    0.000    1.143    1.429    3.857    8.000    1.714 
#    0.000    0.000    0.000    0.000    0.000    0.000 
#    0.000    0.000    0.000    0.000    0.000    0.000 
#
# Total GULP energy -173579.458607 kJ/mol
# GULP energy per Si atom -12398.532758 kJ/mol
# Density = 2.474773 g / cm^3
# Si number density = 24.804190 Si / 1000 Ang^3
#
#
#
# Elastic Constant Matrix: (Units=GPa)
#
#
# Indices 1 2 3 4 5 6 
#
# 1 129.1029 27.9868 27.4148 -11.1088 8.1604 0.3713
# 2 27.9868 90.9616 39.6789 -19.2046 -5.7527 -9.1644
# 3 27.4148 39.6789 91.1855 -1.1084 1.3805 -4.1278
# 4 -11.1088 -19.2046 -1.1084 46.2833 -8.8993 5.8829
# 5 8.1604 -5.7527 1.3805 -8.8993 45.7727 2.8538
# 6 0.3713 -9.1644 -4.1278 5.8829 2.8538 36.1895
#
#
#
# Elastic Compliance Matrix: (Units=1/GPa)
#
#
# Indices 1 2 3 4 5 6 
#
# 1 0.008721 -0.001825 -0.001829 0.001116 -0.001460 -0.000827
# 2 -0.001825 0.016157 -0.006366 0.006567 0.003699 0.002025
# 3 -0.001829 -0.006366 0.014303 -0.003122 -0.001554 0.000668
# 4 0.001116 0.006567 -0.003122 0.026115 0.006011 -0.003424
# 5 -0.001460 0.003699 -0.001554 0.006011 0.023918 -0.002089
# 6 -0.000827 0.002025 0.000668 -0.003424 -0.002089 0.028951
#
#
# Mechanical properties :
#
#
# Convention : Reuss Voigt Hill
#
# Bulk Modulus (GPa) = 52.25074 55.71233 53.98154
# Shear Modulus (GPa) = 34.58160 40.06040 37.32100
#
# Velocity S-wave (km/s) = 3.73793 4.02315 3.88316
# Velocity P-wave (km/s) = 6.30401 6.64007 6.47422
#
# Compressibility (1/GPa) = 0.01913848
#
# Stress axis : x y z
#
# Youngs Moduli (GPa) = 114.67091 61.89378 69.91665
#
# Poissons Ratio (x) = 0.11296 0.12791
# Poissons Ratio (y) = 0.20928 0.44511
# Poissons Ratio (z) = 0.20978 0.39403
#
# Static dielectric constant tensor:
#      x y z
#    x 4.334780 0.039970 0.174510 
#    y 0.039970 4.702830 -0.214710 
#    z 0.174510 -0.214710 4.657800 
# 
# 
# High freq. dielectric constant tensor:
#      x y z
#    x 1.984010 0.003920 0.006630 
#    y 0.003920 1.982090 0.006930 
#    z 0.006630 0.006930 2.000930 
# 
# From -- ./inp_files/160226.got.cif
#   From: 2010.06.25/outbox.cif.g09.slc.cpg/sg2_81_cif.got.tgz:160226.got - 2010.06.27 13:26:56.
