data_PCOD8021561
_publ_section_title
;
Structure prediction by ZEFSAII (Michael W. Deem and Ramdas Pophale) SiO2 
 PCOD8021561
Probable space group: P -1
;
_chemical_formula_sum "Si O2"
_cell_formula_units_Z 14
_cell_length_a 9.028637
_cell_length_b 12.055267
_cell_length_c 7.666051
_cell_angle_alpha 92.955903
_cell_angle_beta 50.271982
_cell_angle_gamma 84.258159
_cell_volume 631.184997
_symmetry_space_group_name_H-M "P -1"
_symmetry_group_IT_number 2
_symmetry_cell_setting 'triclinic'
loop_
_space_group_symop_operation_xyz
x,y,z
-x,-y,-z
loop_
_atom_site_type_symbol
_atom_site_label
_atom_site_fract_x
_atom_site_fract_y
_atom_site_fract_z
Si Si1 0.053993 0.907055 0.309277
Si Si2 0.730899 0.785664 0.462953
Si Si3 0.360129 0.211812 0.842925
Si Si4 0.962317 0.353494 0.188911
Si Si5 0.935217 0.404496 0.816029
Si Si6 0.419690 0.964539 0.879131
Si Si7 0.275050 0.694195 0.312553
O O1 0.133935 0.802957 0.361878
O O2 0.867735 0.881102 0.339325
O O3 0.201647 0.939410 0.056924
O O4 0.000000 0.000000 0.500000
O O5 0.637946 0.747184 0.353557
O O6 0.552372 0.845296 0.720235
O O7 0.867088 0.671100 0.423174
O O8 0.507165 0.276379 0.844600
O O9 0.420653 0.075468 0.769859
O O10 0.140957 0.250413 0.085839
O O11 0.040854 0.467493 0.181338
O O12 0.784792 0.340348 0.450530
O O13 0.895318 0.355201 0.035428
O O14 0.751449 0.399738 0.822871
O O15 0.500000 0.000000 0.000000
#
# Coordination Sequence:
#
# PCOD8021561 Si02
#       7
#     2   2   2   2   2   2   2
#     4  11  21  37  60  88 121 163 203 246 305 364
#     4  10  23  40  60  88 124 158 206 253 304 366
#     4  11  24  39  60  93 121 159 209 252 299 372
#     4  10  22  44  64  89 127 159 204 256 308 354
#     4   9  22  43  65  90 123 164 202 254 306 365
#     4  12  22  38  62  89 124 161 199 255 306 355
#     4  11  22  38  62  92 121 161 206 249 307 363
#
# _framework density 22.180501
#
# number of rings (size 3 to 8) (size 9 to 14) (size 15 to 20)
#    0.000    1.429    2.857    1.714    2.000    4.571 
#    0.000    9.286    0.000    0.000    0.000    0.000 
#    0.000    0.000    0.000    0.000    0.000    0.000 
#
# Total GULP energy -173452.911330 kJ/mol
# GULP energy per Si atom -12389.493666 kJ/mol
# Density = 2.213002 g / cm^3
# Si number density = 22.180501 Si / 1000 Ang^3
#
#
#
# Elastic Constant Matrix: (Units=GPa)
#
#
# Indices 1 2 3 4 5 6 
#
# 1 94.7504 5.3702 27.3619 0.0703 4.8945 14.8390
# 2 5.3702 62.5348 9.4419 6.2153 2.0780 3.8440
# 3 27.3619 9.4419 89.9558 -1.5019 -1.0411 10.7301
# 4 0.0703 6.2153 -1.5019 41.4578 2.8580 3.6056
# 5 4.8945 2.0780 -1.0411 2.8580 22.4676 1.7151
# 6 14.8390 3.8440 10.7301 3.6056 1.7151 30.6169
#
#
#
# Elastic Compliance Matrix: (Units=1/GPa)
#
#
# Indices 1 2 3 4 5 6 
#
# 1 0.012364 -0.000253 -0.003187 0.000489 -0.002517 -0.004760
# 2 -0.000253 0.016593 -0.001592 -0.002372 -0.001171 -0.001058
# 3 -0.003187 -0.001592 0.012627 0.000845 0.001538 -0.002866
# 4 0.000489 -0.002372 0.000845 0.024961 -0.002793 -0.003018
# 5 -0.002517 -0.001171 0.001538 -0.002793 0.045699 -0.001403
# 6 -0.004760 -0.001058 -0.002866 -0.003018 -0.001403 0.036540
#
#
# Mechanical properties :
#
#
# Convention : Reuss Voigt Hill
#
# Bulk Modulus (GPa) = 31.72594 36.84321 34.28457
# Shear Modulus (GPa) = 29.52388 32.57959 31.05173
#
# Velocity S-wave (km/s) = 3.65235 3.83670 3.74566
# Velocity P-wave (km/s) = 5.66752 6.02277 5.84784
#
# Compressibility (1/GPa) = 0.03151995
#
# Stress axis : x y z
#
# Youngs Moduli (GPa) = 80.88020 60.26703 79.19582
#
# Poissons Ratio (x) = 0.01524 0.25243
# Poissons Ratio (y) = 0.02045 0.12605
# Poissons Ratio (z) = 0.25779 0.09592
#
# Static dielectric constant tensor:
#      x y z
#    x 4.008560 -0.136860 0.293120 
#    y -0.136860 1.785830 0.465650 
#    z 0.293120 0.465650 3.663800 
# 
# 
# High freq. dielectric constant tensor:
#      x y z
#    x 1.879430 0.009410 0.005680 
#    y 0.009410 1.873580 0.015310 
#    z 0.005680 0.015310 1.855620 
# 
# From -- ./inp_files/179714.got.cif
#   From: 2010.06.25/outbox.cif.g09.slc.cpg/sg2_90_cif.got.tgz:179714.got - 2010.06.27 13:26:56.
