data_PCOD8021024
_publ_section_title
;
Structure prediction by ZEFSAII (Michael W. Deem and Ramdas Pophale) SiO2 
 PCOD8021024
Probable space group: P -1
;
_chemical_formula_sum "Si O2"
_cell_formula_units_Z 14
_cell_length_a 12.518041
_cell_length_b 8.820291
_cell_length_c 8.104966
_cell_angle_alpha 98.193169
_cell_angle_beta 81.310145
_cell_angle_gamma 137.202292
_cell_volume 600.352902
_symmetry_space_group_name_H-M "P -1"
_symmetry_group_IT_number 2
_symmetry_cell_setting 'triclinic'
loop_
_space_group_symop_operation_xyz
x,y,z
-x,-y,-z
loop_
_atom_site_type_symbol
_atom_site_label
_atom_site_fract_x
_atom_site_fract_y
_atom_site_fract_z
Si Si1 0.115782 0.672863 0.355709
Si Si2 0.822391 0.394475 0.195327
Si Si3 0.354427 0.091926 0.822748
Si Si4 0.679393 0.533846 0.349446
Si Si5 0.813672 0.793207 0.018309
Si Si6 0.339277 0.174973 0.473511
Si Si7 0.697610 0.376196 0.871872
O O1 0.245544 0.674823 0.297059
O O2 0.000000 0.500000 0.500000
O O3 0.012477 0.591517 0.200337
O O4 0.199377 0.919801 0.413487
O O5 0.754916 0.445690 0.356150
O O6 0.766192 0.168632 0.225093
O O7 0.764859 0.375215 0.024098
O O8 0.271661 0.130421 0.970418
O O9 0.397006 0.207926 0.653724
O O10 0.508554 0.184721 0.890767
O O11 0.758091 0.663676 0.181117
O O12 0.490723 0.313529 0.341904
O O13 0.718687 0.706504 0.502307
O O14 0.759979 0.614720 0.864153
O O15 0.000000 0.000000 0.000000
#
# Coordination Sequence:
#
# PCOD8021024 Si02
#       7
#     2   2   2   2   2   2   2
#     4  12  25  41  68 101 136 179 227 282 339 396
#     4  11  23  43  66  98 137 173 233 276 341 388
#     4  11  22  41  73  98 135 180 226 277 331 414
#     4   9  22  42  66  98 134 180 219 280 334 408
#     4  10  22  43  69 100 135 175 229 280 336 399
#     4  10  22  43  66  98 140 174 227 271 345 405
#     4  11  25  42  65  99 135 179 226 279 338 400
#
# _framework density 23.319617000000001
#
# number of rings (size 3 to 8) (size 9 to 14) (size 15 to 20)
#    0.000    1.429    1.429    3.000    4.000    4.000 
#    0.000   10.000    0.000    0.000    0.000    0.000 
#    0.000    0.000    0.000    0.000    0.000    0.000 
#
# Total GULP energy -173549.375708 kJ/mol
# GULP energy per Si atom -12396.383979 kJ/mol
# Density = 2.326654 g / cm^3
# Si number density = 23.319617 Si / 1000 Ang^3
#
#
#
# Elastic Constant Matrix: (Units=GPa)
#
#
# Indices 1 2 3 4 5 6 
#
# 1 135.5826 46.0932 33.6264 13.1136 -36.6575 -0.1103
# 2 46.0932 172.5775 31.3058 16.1837 -22.1922 0.3791
# 3 33.6264 31.3058 56.5942 -0.7217 -7.6689 5.7309
# 4 13.1136 16.1837 -0.7217 41.5348 -2.6583 -7.8104
# 5 -36.6575 -22.1922 -7.6689 -2.6583 50.0201 14.0483
# 6 -0.1103 0.3791 5.7309 -7.8104 14.0483 46.3774
#
#
#
# Elastic Compliance Matrix: (Units=1/GPa)
#
#
# Indices 1 2 3 4 5 6 
#
# 1 0.011256 -0.000811 -0.005036 -0.003252 0.007557 -0.002181
# 2 -0.000811 0.007094 -0.003106 -0.002567 0.002154 -0.000761
# 3 -0.005036 -0.003106 0.022498 0.002752 -0.000903 -0.002030
# 4 -0.003252 -0.002567 0.002752 0.026920 -0.003116 0.005151
# 5 0.007557 0.002154 -0.000903 -0.003116 0.028743 -0.009119
# 6 -0.002181 -0.000761 -0.002030 0.005151 -0.009119 0.025444
#
#
# Mechanical properties :
#
#
# Convention : Reuss Voigt Hill
#
# Bulk Modulus (GPa) = 43.58794 65.20056 54.39425
# Shear Modulus (GPa) = 33.89630 44.50173 39.19901
#
# Velocity S-wave (km/s) = 3.81668 4.37319 4.10438
# Velocity P-wave (km/s) = 6.17696 7.31574 6.77034
#
# Compressibility (1/GPa) = 0.02294212
#
# Stress axis : x y z
#
# Youngs Moduli (GPa) = 88.83934 140.96440 44.44816
#
# Poissons Ratio (x) = 0.11438 0.22384
# Poissons Ratio (y) = 0.07208 0.13805
# Poissons Ratio (z) = 0.44738 0.43781
#
# Static dielectric constant tensor:
#      x y z
#    x 4.836540 -0.388350 -0.556250 
#    y -0.388350 4.356480 0.220260 
#    z -0.556250 0.220260 4.097860 
# 
# 
# High freq. dielectric constant tensor:
#      x y z
#    x 1.932810 -0.011800 -0.026710 
#    y -0.011800 1.934280 0.004600 
#    z -0.026710 0.004600 1.905700 
# 
# From -- ./inp_files/183831.got.cif
#   From: 2010.06.25/outbox.cif.g09.slc.cpg/sg2_92_cif.got.tgz:183831.got - 2010.06.27 13:26:56.
