data_PCOD8021540
_publ_section_title
;
Structure prediction by ZEFSAII (Michael W. Deem and Ramdas Pophale) SiO2 
 PCOD8021540
Probable space group: P -1
;
_chemical_formula_sum "Si O2"
_cell_formula_units_Z 16
_cell_length_a 15.063906
_cell_length_b 9.062869
_cell_length_c 9.082730
_cell_angle_alpha 81.584472
_cell_angle_beta 50.821136
_cell_angle_gamma 111.564510
_cell_volume 760.780022
_symmetry_space_group_name_H-M "P -1"
_symmetry_group_IT_number 2
_symmetry_cell_setting 'triclinic'
loop_
_space_group_symop_operation_xyz
x,y,z
-x,-y,-z
loop_
_atom_site_type_symbol
_atom_site_label
_atom_site_fract_x
_atom_site_fract_y
_atom_site_fract_z
Si Si1 0.661390 0.025249 0.758074
Si Si2 0.524143 0.198670 0.763604
Si Si3 0.751930 0.891783 0.433851
Si Si4 0.836264 0.399601 0.706651
Si Si5 0.198898 0.408613 0.527250
Si Si6 0.959696 0.264720 0.033594
Si Si7 0.501566 0.326677 0.485456
Si Si8 0.194531 0.574403 0.926381
O O1 0.563784 0.054051 0.750831
O O2 0.753285 0.199892 0.744840
O O3 0.758385 0.000748 0.555381
O O4 0.565591 0.839422 0.987371
O O5 0.662755 0.412121 0.567153
O O6 0.436796 0.175772 0.710799
O O7 0.789986 0.758377 0.467091
O O8 0.596893 0.777193 0.537884
O O9 0.875308 0.043107 0.170450
O O10 0.803082 0.531294 0.645087
O O11 0.000000 0.500000 0.500000
O O12 0.791941 0.376974 0.924299
O O13 0.055964 0.344542 0.774127
O O14 0.838428 0.299434 0.148608
O O15 0.061164 0.362096 0.057162
O O16 0.500000 0.500000 0.500000
O O17 0.660201 0.391940 0.277387
#
# Coordination Sequence:
#
# PCOD8021540 Si02
#       8
#     2   2   2   2   2   2   2   2
#     4  10  25  41  64  98 135 171 225 276 323 395
#     4  10  22  44  63  92 138 172 218 278 323 392
#     4  12  26  41  68 101 134 177 217 276 343 390
#     4  11  23  44  68  96 132 175 229 268 324 402
#     4  11  23  44  67  94 138 177 212 278 340 389
#     4  11  23  44  69  99 133 170 230 273 329 397
#     4  12  25  42  65 101 137 171 224 273 333 401
#     4  11  24  42  70  97 128 183 220 272 334 390
#
# _framework density 21.031048999999999
#
# number of rings (size 3 to 8) (size 9 to 14) (size 15 to 20)
#    0.000    1.000    3.750    1.875   10.500    2.500 
#    0.000    2.500    0.000    0.000    0.000    0.000 
#    0.000    0.000    0.000    0.000    0.000    0.000 
#
# Total GULP energy -198368.469688 kJ/mol
# GULP energy per Si atom -12398.029355 kJ/mol
# Density = 2.098318 g / cm^3
# Si number density = 21.031049 Si / 1000 Ang^3
#
#
#
# Elastic Constant Matrix: (Units=GPa)
#
#
# Indices 1 2 3 4 5 6 
#
# 1 119.9801 62.1449 40.2162 4.0876 1.9605 -2.7924
# 2 62.1449 108.9745 53.9018 0.4677 6.1972 -5.8405
# 3 40.2162 53.9018 115.8565 -2.5580 2.3469 -6.8136
# 4 4.0876 0.4677 -2.5580 34.6354 4.2871 3.8459
# 5 1.9605 6.1972 2.3469 4.2871 31.6853 1.8513
# 6 -2.7924 -5.8405 -6.8136 3.8459 1.8513 31.0363
#
#
#
# Elastic Compliance Matrix: (Units=1/GPa)
#
#
# Indices 1 2 3 4 5 6 
#
# 1 0.012063 -0.006272 -0.001333 -0.001509 0.000798 -0.000248
# 2 -0.006272 0.015348 -0.004828 0.000319 -0.002379 0.001366
# 3 -0.001333 -0.004828 0.011442 0.000918 -0.000025 0.001371
# 4 -0.001509 0.000319 0.000918 0.029969 -0.003896 -0.003355
# 5 0.000798 -0.002379 -0.000025 -0.003896 0.032613 -0.001844
# 6 -0.000248 0.001366 0.001371 -0.003355 -0.001844 0.033282
#
#
# Mechanical properties :
#
#
# Convention : Reuss Voigt Hill
#
# Bulk Modulus (GPa) = 71.49733 73.03741 72.26737
# Shear Modulus (GPa) = 30.44233 32.04128 31.24180
#
# Velocity S-wave (km/s) = 3.80872 3.90747 3.85841
# Velocity P-wave (km/s) = 7.30833 7.42708 7.36794
#
# Compressibility (1/GPa) = 0.01398654
#
# Stress axis : x y z
#
# Youngs Moduli (GPa) = 82.90003 65.15384 87.39807
#
# Poissons Ratio (x) = 0.40862 0.11654
# Poissons Ratio (y) = 0.51992 0.42197
# Poissons Ratio (z) = 0.11054 0.31457
#
# Static dielectric constant tensor:
#      x y z
#    x 3.810830 -0.035200 -0.132440 
#    y -0.035200 3.617920 -0.108270 
#    z -0.132440 -0.108270 3.620270 
# 
# 
# High freq. dielectric constant tensor:
#      x y z
#    x 1.832100 0.001760 0.004050 
#    y 0.001760 1.813290 -0.004720 
#    z 0.004050 -0.004720 1.831900 
# 
# From -- ./inp_files/298156.got.cif
#   From: 2010.06.25/outbox.cif.g09.slc.cpg/sg2_150_cif.got.tgz:298156.got - 2010.06.27 13:26:56.
