data_PCOD8021418
_publ_section_title
;
Structure prediction by ZEFSAII (Michael W. Deem and Ramdas Pophale) SiO2 
 PCOD8021418
Probable space group: P -1
;
_chemical_formula_sum "Si O2"
_cell_formula_units_Z 12
_cell_length_a 8.362371
_cell_length_b 10.690719
_cell_length_c 9.809610
_cell_angle_alpha 113.695473
_cell_angle_beta 133.006725
_cell_angle_gamma 51.860855
_cell_volume 504.112950
_symmetry_space_group_name_H-M "P -1"
_symmetry_group_IT_number 2
_symmetry_cell_setting 'triclinic'
loop_
_space_group_symop_operation_xyz
x,y,z
-x,-y,-z
loop_
_atom_site_type_symbol
_atom_site_label
_atom_site_fract_x
_atom_site_fract_y
_atom_site_fract_z
Si Si1 0.799710 0.955613 0.528368
Si Si2 0.752568 0.004903 0.218844
Si Si3 0.919226 0.349259 0.723409
Si Si4 0.452782 0.273937 0.971485
Si Si5 0.419134 0.542311 0.675301
Si Si6 0.454841 0.229818 0.649604
O O1 0.675027 0.095751 0.627116
O O2 0.094690 0.899972 0.660638
O O3 0.658426 0.013700 0.324007
O O4 0.778944 0.803702 0.496472
O O5 0.952469 0.824821 0.209803
O O6 0.517050 0.111303 0.023575
O O7 0.701342 0.479510 0.750217
O O8 0.794842 0.341199 0.504687
O O9 0.144577 0.387023 0.842920
O O10 0.562055 0.222792 0.860806
O O11 0.585337 0.365838 0.150591
O O12 0.361883 0.401986 0.608469
#
# Coordination Sequence:
#
# PCOD8021418 Si02
#       6
#     2   2   2   2   2   2
#     4  10  22  43  72 100 133 187 227 269 350 395
#     4  11  22  46  71 100 132 178 240 274 320 416
#     4  11  24  47  72  99 133 191 227 274 335 408
#     4  12  26  43  72 106 134 176 232 283 338 400
#     4  11  25  47  69  98 145 177 227 278 340 411
#     4  11  24  43  66 107 139 175 223 287 345 395
#
# _framework density 23.804189999999998
#
# number of rings (size 3 to 8) (size 9 to 14) (size 15 to 20)
#    0.000    1.000    3.333    3.500    2.333    1.333 
#    3.000    0.000    0.000    0.000    0.000    0.000 
#    0.000    0.000    0.000    0.000    0.000    0.000 
#
# Total GULP energy -148784.146174 kJ/mol
# GULP energy per Si atom -12398.678848 kJ/mol
# Density = 2.375001 g / cm^3
# Si number density = 23.804190 Si / 1000 Ang^3
#
#
#
# Elastic Constant Matrix: (Units=GPa)
#
#
# Indices 1 2 3 4 5 6 
#
# 1 82.0738 3.2177 14.3597 -8.2197 -0.3751 6.4252
# 2 3.2177 83.4599 24.9445 -0.7702 7.7061 15.5452
# 3 14.3597 24.9445 106.7784 -7.1227 -2.3073 -17.1178
# 4 -8.2197 -0.7702 -7.1227 40.1960 -4.9004 2.3560
# 5 -0.3751 7.7061 -2.3073 -4.9004 34.7510 6.3709
# 6 6.4252 15.5452 -17.1178 2.3560 6.3709 27.5322
#
#
#
# Elastic Compliance Matrix: (Units=1/GPa)
#
#
# Indices 1 2 3 4 5 6 
#
# 1 0.013416 0.001450 -0.002941 0.002761 0.001170 -0.006285
# 2 0.001450 0.016326 -0.006121 0.000089 -0.001616 -0.012996
# 3 -0.002941 -0.006121 0.013220 0.000915 0.000084 0.012264
# 4 0.002761 0.000089 0.000915 0.026343 0.004409 -0.003400
# 5 0.001170 -0.001616 0.000084 0.004409 0.031033 -0.006867
# 6 -0.006285 -0.012996 0.012264 -0.003400 -0.006867 0.054630
#
#
# Mechanical properties :
#
#
# Convention : Reuss Voigt Hill
#
# Bulk Modulus (GPa) = 36.05334 39.70622 37.87978
# Shear Modulus (GPa) = 27.86472 35.81521 31.83996
#
# Velocity S-wave (km/s) = 3.42509 3.88309 3.66126
# Velocity P-wave (km/s) = 5.55160 6.06804 5.81556
#
# Compressibility (1/GPa) = 0.02773668
#
# Stress axis : x y z
#
# Youngs Moduli (GPa) = 74.53924 61.25184 75.64540
#
# Poissons Ratio (x) = -0.08881 0.22247
# Poissons Ratio (y) = -0.10807 0.46304
# Poissons Ratio (z) = 0.21922 0.37494
#
# Static dielectric constant tensor:
#      x y z
#    x 4.396270 0.176470 0.017550 
#    y 0.176470 4.160390 0.121630 
#    z 0.017550 0.121630 4.375520 
# 
# 
# High freq. dielectric constant tensor:
#      x y z
#    x 1.946090 0.008940 0.007970 
#    y 0.008940 1.946990 0.017200 
#    z 0.007970 0.017200 1.946130 
# 
# From -- ./inp_files/181997.got.cif
#   From: 2010.06.25/outbox.cif.g09.slc.cpg/sg2_91_cif.got.tgz:181997.got - 2010.06.27 13:26:56.
