data_PCOD8021282
_publ_section_title
;
Structure prediction by ZEFSAII (Michael W. Deem and Ramdas Pophale) SiO2 
 PCOD8021282
Probable space group: P -1
;
_chemical_formula_sum "Si O2"
_cell_formula_units_Z 16
_cell_length_a 11.637499
_cell_length_b 19.081063
_cell_length_c 8.895198
_cell_angle_alpha 39.435453
_cell_angle_beta 78.657254
_cell_angle_gamma 48.959218
_cell_volume 720.799944
_symmetry_space_group_name_H-M "P -1"
_symmetry_group_IT_number 2
_symmetry_cell_setting 'triclinic'
loop_
_space_group_symop_operation_xyz
x,y,z
-x,-y,-z
loop_
_atom_site_type_symbol
_atom_site_label
_atom_site_fract_x
_atom_site_fract_y
_atom_site_fract_z
Si Si1 0.187606 0.799411 0.361419
Si Si2 0.772833 0.854163 0.075087
Si Si3 0.758521 0.890585 0.674315
Si Si4 0.657102 0.729078 0.474548
Si Si5 0.916446 0.168593 0.327579
Si Si6 0.306693 0.282630 0.167970
Si Si7 0.185930 0.587501 0.525336
Si Si8 0.619282 0.543232 0.619559
O O1 0.156754 0.815565 0.519192
O O2 0.230902 0.645079 0.541883
O O3 0.382808 0.723556 0.407188
O O4 0.000000 0.000000 0.000000
O O5 0.778562 0.733275 0.356971
O O6 0.965414 0.777569 0.200337
O O7 0.780207 0.826597 0.941903
O O8 0.579773 0.071231 0.811782
O O9 0.790638 0.762778 0.765916
O O10 0.916059 0.865478 0.638909
O O11 0.538178 0.109062 0.346463
O O12 0.723680 0.669739 0.727875
O O13 0.716538 0.572687 0.632304
O O14 0.725943 0.354373 0.973412
O O15 0.000000 0.000000 0.500000
O O16 0.193906 0.461754 0.806660
O O17 0.346048 0.474707 0.537486
#
# Coordination Sequence:
#
# PCOD8021282 Si02
#       8
#     2   2   2   2   2   2   2   2
#     4  12  29  47  70 102 137 179 235 287 340 400
#     4  10  22  43  69  98 141 177 223 269 352 403
#     4  10  23  45  67  99 137 180 222 270 350 403
#     4  10  23  42  71 101 139 180 223 278 340 415
#     4  12  28  46  75  97 135 185 230 281 342 413
#     4  10  24  40  70 103 140 171 221 287 335 407
#     4  12  25  43  72 103 138 176 228 287 336 407
#     4  12  26  46  71  99 138 185 230 278 343 406
#
# _framework density 22.197559999999999
#
# number of rings (size 3 to 8) (size 9 to 14) (size 15 to 20)
#    0.000    1.000    1.250    3.750   10.500    2.500 
#    0.000    0.000    0.000    0.000    0.000    0.000 
#    0.000    0.000    0.000    0.000    0.000    0.000 
#
# Total GULP energy -198531.072190 kJ/mol
# GULP energy per Si atom -12408.192012 kJ/mol
# Density = 2.214704 g / cm^3
# Si number density = 22.197560 Si / 1000 Ang^3
#
#
#
# Elastic Constant Matrix: (Units=GPa)
#
#
# Indices 1 2 3 4 5 6 
#
# 1 102.1045 44.4379 22.7717 -4.6326 2.0641 -2.1578
# 2 44.4379 144.8456 37.4756 5.6641 -11.6740 7.6831
# 3 22.7717 37.4756 107.1762 11.1783 -7.4517 3.0330
# 4 -4.6326 5.6641 11.1783 26.8061 4.0899 -5.7572
# 5 2.0641 -11.6740 -7.4517 4.0899 30.5302 -5.7136
# 6 -2.1578 7.6831 3.0330 -5.7572 -5.7136 47.8491
#
#
#
# Elastic Compliance Matrix: (Units=1/GPa)
#
#
# Indices 1 2 3 4 5 6 
#
# 1 0.012152 -0.003708 -0.002008 0.004499 -0.003062 0.001446
# 2 -0.003708 0.008951 -0.001801 -0.002589 0.003317 -0.001406
# 3 -0.002008 -0.001801 0.011141 -0.005200 0.002711 -0.000809
# 4 0.004499 -0.002589 -0.005200 0.043046 -0.007347 0.005250
# 5 -0.003062 0.003317 0.002711 -0.007347 0.036365 0.002616
# 6 0.001446 -0.001406 -0.000809 0.005250 0.002616 0.022185
#
#
# Mechanical properties :
#
#
# Convention : Reuss Voigt Hill
#
# Bulk Modulus (GPa) = 58.11287 62.61075 60.36181
# Shear Modulus (GPa) = 32.33888 37.66649 35.00269
#
# Velocity S-wave (km/s) = 3.82103 4.12378 3.97529
# Velocity P-wave (km/s) = 6.76045 7.13733 6.95145
#
# Compressibility (1/GPa) = 0.01720789
#
# Stress axis : x y z
#
# Youngs Moduli (GPa) = 82.28966 111.72251 89.76009
#
# Poissons Ratio (x) = 0.41427 0.18028
# Poissons Ratio (y) = 0.30513 0.16170
# Poissons Ratio (z) = 0.16528 0.20127
#
# Static dielectric constant tensor:
#      x y z
#    x 4.132150 0.006420 -0.041790 
#    y 0.006420 4.076190 -0.011890 
#    z -0.041790 -0.011890 4.071130 
# 
# 
# High freq. dielectric constant tensor:
#      x y z
#    x 1.879960 0.001130 0.003920 
#    y 0.001130 1.885440 -0.001220 
#    z 0.003920 -0.001220 1.883240 
# 
# From -- ./inp_files/186978.got.cif
#   From: 2010.06.25/outbox.cif.g09.slc.cpg/sg2_94_cif.got.tgz:186978.got - 2010.06.27 13:26:56.
