data_PCOD8021203
_publ_section_title
;
Structure prediction by ZEFSAII (Michael W. Deem and Ramdas Pophale) SiO2 
 PCOD8021203
Probable space group: P -1
;
_chemical_formula_sum "Si O2"
_cell_formula_units_Z 16
_cell_length_a 26.662096
_cell_length_b 9.255430
_cell_length_c 11.470009
_cell_angle_alpha 138.454821
_cell_angle_beta 31.624239
_cell_angle_gamma 152.590484
_cell_volume 682.888185
_symmetry_space_group_name_H-M "P -1"
_symmetry_group_IT_number 2
_symmetry_cell_setting 'triclinic'
loop_
_space_group_symop_operation_xyz
x,y,z
-x,-y,-z
loop_
_atom_site_type_symbol
_atom_site_label
_atom_site_fract_x
_atom_site_fract_y
_atom_site_fract_z
Si Si1 0.829897 0.349140 0.440237
Si Si2 0.719185 0.765255 0.416737
Si Si3 0.644174 0.384323 0.112347
Si Si4 0.432281 0.451340 0.836845
Si Si5 0.176622 0.363907 0.675919
Si Si6 0.609656 0.285936 0.734123
Si Si7 0.162855 0.806665 0.917211
Si Si8 0.922050 0.851501 0.718268
O O1 0.684690 0.220024 0.618697
O O2 0.892418 0.344465 0.195207
O O3 0.933731 0.708781 0.497604
O O4 0.810197 0.132789 0.446816
O O5 0.682077 0.630262 0.279028
O O6 0.578417 0.581019 0.653322
O O7 0.807482 0.729979 0.289228
O O8 0.550883 0.331452 0.161681
O O9 0.553932 0.044879 0.146608
O O10 0.790018 0.544920 0.867377
O O11 0.328496 0.102534 0.777547
O O12 0.375447 0.458791 0.074941
O O13 0.320731 0.585023 0.452897
O O14 0.131459 0.541457 0.898798
O O15 0.059242 0.052769 0.644452
O O16 0.098749 0.934018 0.156484
#
# Coordination Sequence:
#
# PCOD8021203 Si02
#       8
#     2   2   2   2   2   2   2   2
#     4  11  20  40  73  94 130 173 229 280 310 397
#     4  12  23  40  67 101 142 173 216 280 343 393
#     4  11  21  40  70 102 121 175 233 274 315 394
#     4  11  20  39  70 101 126 170 237 274 321 391
#     4  11  28  43  61 102 147 176 208 278 352 399
#     4  11  22  41  70 101 131 172 228 280 330 389
#     4  10  22  43  68  99 126 179 228 270 329 393
#     4  11  23  45  71  99 128 181 234 269 324 395
#
# _framework density 23.429897
#
# number of rings (size 3 to 8) (size 9 to 14) (size 15 to 20)
#    0.000    1.000    6.250    3.375    0.000    5.500 
#    2.250    1.250    0.000    0.000    0.000    0.000 
#    0.000    0.000    0.000    0.000    0.000    0.000 
#
# Total GULP energy -198348.367818 kJ/mol
# GULP energy per Si atom -12396.772989 kJ/mol
# Density = 2.337657 g / cm^3
# Si number density = 23.429897 Si / 1000 Ang^3
#
#
#
# Elastic Constant Matrix: (Units=GPa)
#
#
# Indices 1 2 3 4 5 6 
#
# 1 74.0950 30.4651 21.6129 9.4451 -16.2276 -12.3810
# 2 30.4651 120.6888 29.8891 17.9390 -0.0674 3.3887
# 3 21.6129 29.8891 78.1305 -2.5598 10.2648 1.5991
# 4 9.4451 17.9390 -2.5598 30.9893 7.9142 3.4142
# 5 -16.2276 -0.0674 10.2648 7.9142 25.0841 6.8325
# 6 -12.3810 3.3887 1.5991 3.4142 6.8325 29.4916
#
#
#
# Elastic Compliance Matrix: (Units=1/GPa)
#
#
# Indices 1 2 3 4 5 6 
#
# 1 0.025205 -0.002086 -0.009753 -0.013896 0.022570 0.007730
# 2 -0.002086 0.010863 -0.004142 -0.006544 0.002935 -0.001822
# 3 -0.009753 -0.004142 0.019816 0.011716 -0.017588 -0.001975
# 4 -0.013896 -0.006544 0.011716 0.048927 -0.027899 -0.004918
# 5 0.022570 0.002935 -0.017588 -0.027899 0.071348 -0.003208
# 6 0.007730 -0.001822 -0.001975 -0.004918 -0.003208 0.038782
#
#
# Mechanical properties :
#
#
# Convention : Reuss Voigt Hill
#
# Bulk Modulus (GPa) = 41.79982 48.53872 45.16927
# Shear Modulus (GPa) = 19.61730 29.84282 24.73006
#
# Velocity S-wave (km/s) = 2.89671 3.57277 3.25236
# Velocity P-wave (km/s) = 5.39138 6.14664 5.78136
#
# Compressibility (1/GPa) = 0.02392355
#
# Stress axis : x y z
#
# Youngs Moduli (GPa) = 39.67528 92.05157 50.46320
#
# Poissons Ratio (x) = 0.19202 0.49216
# Poissons Ratio (y) = 0.08276 0.20900
# Poissons Ratio (z) = 0.38695 0.38124
#
# Static dielectric constant tensor:
#      x y z
#    x 3.723230 0.196710 0.079300 
#    y 0.196710 4.447010 -0.001860 
#    z 0.079300 -0.001860 4.303270 
# 
# 
# High freq. dielectric constant tensor:
#      x y z
#    x 1.879600 0.015740 0.008980 
#    y 0.015740 1.947620 -0.003170 
#    z 0.008980 -0.003170 1.931950 
# 
# From -- ./inp_files/427524.got.cif
#   From: 2010.06.25/outbox.cif.g09.slc.cpg/sg2_214_cif.got.tgz:427524.got - 2010.06.27 13:26:56.
