data_PCOD8021227
_publ_section_title
;
Structure prediction by ZEFSAII (Michael W. Deem and Ramdas Pophale) SiO2 
 PCOD8021227
Probable space group: P -1
;
_chemical_formula_sum "Si O2"
_cell_formula_units_Z 16
_cell_length_a 8.336755
_cell_length_b 9.636273
_cell_length_c 16.802908
_cell_angle_alpha 32.903363
_cell_angle_beta 111.913120
_cell_angle_gamma 109.512620
_cell_volume 679.727327
_symmetry_space_group_name_H-M "P -1"
_symmetry_group_IT_number 2
_symmetry_cell_setting 'triclinic'
loop_
_space_group_symop_operation_xyz
x,y,z
-x,-y,-z
loop_
_atom_site_type_symbol
_atom_site_label
_atom_site_fract_x
_atom_site_fract_y
_atom_site_fract_z
Si Si1 0.618444 0.022666 0.587458
Si Si2 0.784018 0.984900 0.202076
Si Si3 0.765844 0.019915 0.882092
Si Si4 0.072865 0.302304 0.172011
Si Si5 0.504285 0.201067 0.638792
Si Si6 0.241896 0.489624 0.690568
Si Si7 0.515957 0.237318 0.945576
Si Si8 0.988878 0.383957 0.840040
O O1 0.484000 0.096125 0.596279
O O2 0.761979 0.252196 0.485732
O O3 0.500000 0.000000 0.500000
O O4 0.723956 0.771605 0.754703
O O5 0.639794 0.919600 0.272374
O O6 0.807473 0.751787 0.258337
O O7 0.960164 0.045089 0.252806
O O8 0.713311 0.239233 0.017166
O O9 0.699006 0.127854 0.734817
O O10 0.806547 0.263590 0.830768
O O11 0.619008 0.820382 0.981396
O O12 0.934089 0.853045 0.981819
O O13 0.036574 0.384747 0.216153
O O14 0.000000 0.500000 0.000000
O O15 0.500000 0.500000 0.500000
O O16 0.105034 0.487404 0.738096
O O17 0.441531 0.479306 0.767969
O O18 0.500000 0.000000 0.000000
#
# Coordination Sequence:
#
# PCOD8021227 Si02
#       8
#     2   2   2   2   2   2   2   2
#     4  12  30  47  69 103 148 182 231 287 356 422
#     4  10  23  44  72 102 136 179 238 289 340 421
#     4   9  20  39  68  98 130 177 235 280 338 415
#     4  12  30  46  69 105 143 190 232 289 353 406
#     4  11  23  45  72 101 133 183 233 286 348 411
#     4  10  22  43  69 103 133 186 230 285 350 415
#     4   8  17  34  67  95 127 169 228 277 337 401
#     4  10  23  41  69  99 142 178 228 288 347 407
#
# _framework density 23.538848999999999
#
# number of rings (size 3 to 8) (size 9 to 14) (size 15 to 20)
#    0.000    1.750    1.250    0.750   14.000    2.000 
#    0.000    2.500    0.000    0.000    0.000    0.000 
#    0.000    0.000    0.000    0.000    0.000    0.000 
#
# Total GULP energy -198224.799086 kJ/mol
# GULP energy per Si atom -12389.049943 kJ/mol
# Density = 2.348527 g / cm^3
# Si number density = 23.538849 Si / 1000 Ang^3
#
#
#
# Elastic Constant Matrix: (Units=GPa)
#
#
# Indices 1 2 3 4 5 6 
#
# 1 54.6741 31.3450 10.0387 10.5080 15.3973 -13.9189
# 2 31.3450 130.9238 17.3683 19.9888 13.5524 -23.9998
# 3 10.0387 17.3683 102.2775 2.8748 10.3888 -11.5361
# 4 10.5080 19.9888 2.8748 29.8434 1.9940 4.6512
# 5 15.3973 13.5524 10.3888 1.9940 30.0995 11.5478
# 6 -13.9189 -23.9998 -11.5361 4.6512 11.5478 45.2042
#
#
#
# Elastic Compliance Matrix: (Units=1/GPa)
#
#
# Indices 1 2 3 4 5 6 
#
# 1 0.030752 -0.000589 0.001406 -0.011661 -0.021385 0.016178
# 2 -0.000589 0.011428 0.000116 -0.008306 -0.007684 0.008733
# 3 0.001406 0.000116 0.010897 -0.001994 -0.006360 0.005106
# 4 -0.011661 -0.008306 -0.001994 0.045045 0.013805 -0.016670
# 5 -0.021385 -0.007684 -0.006360 0.013805 0.060048 -0.029048
# 6 0.016178 0.008733 0.005106 -0.016670 -0.029048 0.042179
#
#
# Mechanical properties :
#
#
# Convention : Reuss Voigt Hill
#
# Bulk Modulus (GPa) = 18.20028 45.04217 31.62122
# Shear Modulus (GPa) = 23.06300 36.30433 29.68366
#
# Velocity S-wave (km/s) = 3.13355 3.93149 3.55498
# Velocity P-wave (km/s) = 4.56519 6.30759 5.50575
#
# Compressibility (1/GPa) = 0.05494422
#
# Stress axis : x y z
#
# Youngs Moduli (GPa) = 32.51796 87.50308 91.76473
#
# Poissons Ratio (x) = 0.05158 -0.12906
# Poissons Ratio (y) = 0.01917 -0.01066
# Poissons Ratio (z) = -0.04573 -0.01017
#
# Static dielectric constant tensor:
#      x y z
#    x 4.165190 0.103850 0.269580 
#    y 0.103850 4.312260 0.320420 
#    z 0.269580 0.320420 4.812690 
# 
# 
# High freq. dielectric constant tensor:
#      x y z
#    x 1.925580 0.000040 0.006410 
#    y 0.000040 1.932870 0.011210 
#    z 0.006410 0.011210 1.934050 
# 
# From -- ./inp_files/494321.got.cif
#   From: 2010.06.25/outbox.cif.g09.slc.cpg/sg2_248_cif.got.tgz:494321.got - 2010.06.27 13:26:56.
