data_PCOD8021980
_publ_section_title
;
Structure prediction by ZEFSAII (Michael W. Deem and Ramdas Pophale) SiO2 
 PCOD8021980
Probable space group: P -1
;
_chemical_formula_sum "Si O2"
_cell_formula_units_Z 16
_cell_length_a 11.503260
_cell_length_b 9.213872
_cell_length_c 16.129445
_cell_angle_alpha 30.289588
_cell_angle_beta 117.224852
_cell_angle_gamma 106.159120
_cell_volume 740.304327
_symmetry_space_group_name_H-M "P -1"
_symmetry_group_IT_number 2
_symmetry_cell_setting 'triclinic'
loop_
_space_group_symop_operation_xyz
x,y,z
-x,-y,-z
loop_
_atom_site_type_symbol
_atom_site_label
_atom_site_fract_x
_atom_site_fract_y
_atom_site_fract_z
Si Si1 0.334675 0.807537 0.682569
Si Si2 0.196474 0.175387 0.185999
Si Si3 0.863704 0.742245 0.307390
Si Si4 0.908199 0.782825 0.690022
Si Si5 0.801995 0.231303 0.179701
Si Si6 0.029776 0.880271 0.977430
Si Si7 0.584436 0.659111 0.200594
Si Si8 0.516422 0.165296 0.508036
O O1 0.316060 0.719710 0.814392
O O2 0.411878 0.511614 0.802640
O O3 0.192042 0.951084 0.521590
O O4 0.412639 0.071718 0.582895
O O5 0.103558 0.174728 0.235811
O O6 0.116417 0.102733 0.117235
O O7 0.334526 0.927167 0.360577
O O8 0.230645 0.492124 0.030354
O O9 0.740201 0.606144 0.307203
O O10 0.000000 0.500000 0.500000
O O11 0.809185 0.939713 0.272360
O O12 0.892476 0.927702 0.146220
O O13 0.059400 0.794832 0.711362
O O14 0.881616 0.462732 0.817971
O O15 0.000000 0.000000 0.000000
O O16 0.497241 0.513909 0.308801
O O17 0.500000 0.000000 0.000000
O O18 0.500000 0.000000 0.500000
#
# Coordination Sequence:
#
# PCOD8021980 Si02
#       8
#     2   2   2   2   2   2   2   2
#     4  11  25  43  71  98 133 187 234 274 337 427
#     4  11  20  44  70  96 133 182 231 275 339 416
#     4  12  25  42  66  98 143 176 222 289 360 399
#     4  11  20  43  70  97 135 180 233 274 341 416
#     4  11  24  40  67 104 132 176 232 285 335 413
#     4  11  25  39  65 102 136 178 223 286 345 404
#     4  11  26  43  69 100 137 175 232 293 346 405
#     4  10  22  44  71  93 131 184 231 271 339 418
#
# _framework density 21.612734
#
# number of rings (size 3 to 8) (size 9 to 14) (size 15 to 20)
#    0.000    1.000    5.000    2.625   10.500    0.500 
#    0.000    0.625    0.000    0.000    0.000    0.000 
#    0.000    0.000    0.000    0.000    0.000    0.000 
#
# Total GULP energy -198356.156863 kJ/mol
# GULP energy per Si atom -12397.259804 kJ/mol
# Density = 2.156354 g / cm^3
# Si number density = 21.612734 Si / 1000 Ang^3
#
#
#
# Elastic Constant Matrix: (Units=GPa)
#
#
# Indices 1 2 3 4 5 6 
#
# 1 104.5094 29.5081 24.6890 -5.1422 -21.5298 -1.1725
# 2 29.5081 98.4986 24.4615 -4.2627 -6.2405 -9.9991
# 3 24.6890 24.4615 89.6787 -15.5792 2.9751 -3.2527
# 4 -5.1422 -4.2627 -15.5792 28.3995 3.1508 -4.4155
# 5 -21.5298 -6.2405 2.9751 3.1508 37.9383 0.0733
# 6 -1.1725 -9.9991 -3.2527 -4.4155 0.0733 37.0836
#
#
#
# Elastic Compliance Matrix: (Units=1/GPa)
#
#
# Indices 1 2 3 4 5 6 
#
# 1 0.012418 -0.002616 -0.003083 -0.000709 0.006919 -0.000681
# 2 -0.002616 0.011880 -0.002363 0.000405 0.000615 0.002960
# 3 -0.003083 -0.002363 0.014123 0.007482 -0.003870 0.001403
# 4 -0.000709 0.000405 0.007482 0.040595 -0.004304 0.005585
# 5 0.006919 0.000615 -0.003870 -0.004304 0.031048 -0.000529
# 6 -0.000681 0.002960 0.001403 0.005585 -0.000529 0.028532
#
#
# Mechanical properties :
#
#
# Convention : Reuss Voigt Hill
#
# Bulk Modulus (GPa) = 44.84666 50.00042 47.42354
# Shear Modulus (GPa) = 30.83521 34.95283 32.89402
#
# Velocity S-wave (km/s) = 3.78129 4.02585 3.90548
# Velocity P-wave (km/s) = 6.31342 6.69290 6.50593
#
# Compressibility (1/GPa) = 0.02229820
#
# Stress axis : x y z
#
# Youngs Moduli (GPa) = 80.52671 84.17486 70.80576
#
# Poissons Ratio (x) = 0.22022 0.21826
# Poissons Ratio (y) = 0.21067 0.16731
# Poissons Ratio (z) = 0.24823 0.19890
#
# Static dielectric constant tensor:
#      x y z
#    x 4.126690 0.178360 -0.202340 
#    y 0.178360 3.746610 -0.107140 
#    z -0.202340 -0.107140 4.031850 
# 
# 
# High freq. dielectric constant tensor:
#      x y z
#    x 1.850000 0.013360 -0.010320 
#    y 0.013360 1.833460 -0.002580 
#    z -0.010320 -0.002580 1.859220 
# 
# From -- ./inp_files/319491.got.cif
#   From: 2010.06.25/outbox.cif.g09.slc.cpg/sg2_160_cif.got.tgz:319491.got - 2010.06.27 13:26:56.
