data_PCOD8021181
_publ_section_title
;
Structure prediction by ZEFSAII (Michael W. Deem and Ramdas Pophale) SiO2 
 PCOD8021181
Probable space group: P -1
;
_chemical_formula_sum "Si O2"
_cell_formula_units_Z 16
_cell_length_a 19.300476
_cell_length_b 7.665046
_cell_length_c 6.447132
_cell_angle_alpha 63.631197
_cell_angle_beta 56.053828
_cell_angle_gamma 77.674292
_cell_volume 708.132220
_symmetry_space_group_name_H-M "P -1"
_symmetry_group_IT_number 2
_symmetry_cell_setting 'triclinic'
loop_
_space_group_symop_operation_xyz
x,y,z
-x,-y,-z
loop_
_atom_site_type_symbol
_atom_site_label
_atom_site_fract_x
_atom_site_fract_y
_atom_site_fract_z
Si Si1 0.767105 0.022370 0.646030
Si Si2 0.094542 0.536714 0.272081
Si Si3 0.214691 0.559835 0.431233
Si Si4 0.417256 0.107095 0.015919
Si Si5 0.391539 0.495251 0.109019
Si Si6 0.464906 0.364576 0.447489
Si Si7 0.095696 0.975507 0.919289
Si Si8 0.831362 0.753177 0.010335
O O1 0.801491 0.236468 0.540204
O O2 0.833008 0.947725 0.404447
O O3 0.669434 0.024198 0.737746
O O4 0.768057 0.872884 0.915167
O O5 0.142877 0.499954 0.422384
O O6 0.112177 0.379946 0.151968
O O7 0.000000 0.500000 0.500000
O O8 0.115086 0.752220 0.041456
O O9 0.302127 0.572175 0.155022
O O10 0.222609 0.386980 0.673981
O O11 0.409010 0.293084 0.076447
O O12 0.428025 0.167249 0.722130
O O13 0.500000 0.000000 0.000000
O O14 0.396038 0.468912 0.366264
O O15 0.458373 0.664312 0.827677
O O16 0.500000 0.500000 0.500000
O O17 0.107074 0.096569 0.047635
O O18 0.000000 0.000000 0.000000
#
# Coordination Sequence:
#
# PCOD8021181 Si02
#       8
#     2   2   2   2   2   2   2   2
#     4  12  27  47  72 110 145 191 248 299 370 437
#     4  12  27  47  75 111 144 192 241 299 372 439
#     4  12  26  46  75 106 145 191 244 302 366 433
#     4  11  25  43  67 103 143 186 239 298 361 430
#     4  10  22  43  68  96 140 185 240 297 358 424
#     4   9  21  41  66  95 131 180 234 285 357 414
#     4  12  27  48  76 112 148 193 245 302 367 440
#     4  12  25  49  76 101 154 190 238 311 358 436
#
# _framework density 22.594652
#
# number of rings (size 3 to 8) (size 9 to 14) (size 15 to 20)
#    0.000    0.750    2.500    4.500    7.000    4.500 
#    2.250    0.000    0.000    0.000    0.000    0.000 
#    0.000    0.000    0.000    0.000    0.000    0.000 
#
# Total GULP energy -198368.047590 kJ/mol
# GULP energy per Si atom -12398.002974 kJ/mol
# Density = 2.254323 g / cm^3
# Si number density = 22.594652 Si / 1000 Ang^3
#
#
#
# Elastic Constant Matrix: (Units=GPa)
#
#
# Indices 1 2 3 4 5 6 
#
# 1 151.7775 41.0001 60.8091 16.8406 -14.5575 -3.4007
# 2 41.0001 123.6633 25.3623 8.3505 4.6373 8.4392
# 3 60.8091 25.3623 122.6400 -4.0549 2.3094 -3.6318
# 4 16.8406 8.3505 -4.0549 35.4318 -6.2715 2.9012
# 5 -14.5575 4.6373 2.3094 -6.2715 44.7851 3.4582
# 6 -3.4007 8.4392 -3.6318 2.9012 3.4582 37.2483
#
#
#
# Elastic Compliance Matrix: (Units=1/GPa)
#
#
# Indices 1 2 3 4 5 6 
#
# 1 0.009787 -0.002205 -0.004563 -0.004209 0.002978 0.001000
# 2 -0.002205 0.009304 -0.000908 -0.001368 -0.001660 -0.002137
# 3 -0.004563 -0.000908 0.010763 0.003282 -0.001540 0.000726
# 4 -0.004209 -0.001368 0.003282 0.031702 0.003238 -0.002524
# 5 0.002978 -0.001660 -0.001540 0.003238 0.024156 -0.001997
# 6 0.001000 -0.002137 0.000726 -0.002524 -0.001997 0.027875
#
#
# Mechanical properties :
#
#
# Convention : Reuss Voigt Hill
#
# Bulk Modulus (GPa) = 68.94936 72.49154 70.72045
# Shear Modulus (GPa) = 37.37685 41.55367 39.46526
#
# Velocity S-wave (km/s) = 4.07164 4.29312 4.18384
# Velocity P-wave (km/s) = 7.25854 7.53177 7.39642
#
# Compressibility (1/GPa) = 0.01450340
#
# Stress axis : x y z
#
# Youngs Moduli (GPa) = 102.17394 107.47866 92.91065
#
# Poissons Ratio (x) = 0.23698 0.42391
# Poissons Ratio (y) = 0.22528 0.08437
# Poissons Ratio (z) = 0.46617 0.09760
#
# Static dielectric constant tensor:
#      x y z
#    x 4.061570 0.066970 0.019610 
#    y 0.066970 3.953180 -0.074370 
#    z 0.019610 -0.074370 4.457280 
# 
# 
# High freq. dielectric constant tensor:
#      x y z
#    x 1.900460 0.005060 -0.001880 
#    y 0.005060 1.890150 -0.000390 
#    z -0.001880 -0.000390 1.900990 
# 
# From -- ./inp_files/106213.got.cif
#   From: 2010.06.25/outbox.cif.g09.slc.cpg/sg2_54_cif.got.tgz:106213.got - 2010.06.27 13:26:56.
