data_PCOD8021809
_publ_section_title
;
Structure prediction by ZEFSAII (Michael W. Deem and Ramdas Pophale) SiO2 
 PCOD8021809
Probable space group: P -1
;
_chemical_formula_sum "Si O2"
_cell_formula_units_Z 16
_cell_length_a 8.851820
_cell_length_b 13.196761
_cell_length_c 8.847027
_cell_angle_alpha 105.069065
_cell_angle_beta 97.510244
_cell_angle_gamma 127.955134
_cell_volume 727.290748
_symmetry_space_group_name_H-M "P -1"
_symmetry_group_IT_number 2
_symmetry_cell_setting 'triclinic'
loop_
_space_group_symop_operation_xyz
x,y,z
-x,-y,-z
loop_
_atom_site_type_symbol
_atom_site_label
_atom_site_fract_x
_atom_site_fract_y
_atom_site_fract_z
Si Si1 0.575582 0.815885 0.079422
Si Si2 0.242629 0.902311 0.253336
Si Si3 0.903082 0.845304 0.976510
Si Si4 0.882574 0.047887 0.449911
Si Si5 0.941124 0.718902 0.652499
Si Si6 0.200869 0.636161 0.161455
Si Si7 0.606176 0.167464 0.224697
Si Si8 0.212708 0.568981 0.477873
O O1 0.682744 0.765765 0.995305
O O2 0.739695 0.957010 0.253314
O O3 0.395465 0.685452 0.110054
O O4 0.487012 0.857846 0.963080
O O5 0.203348 0.762310 0.221770
O O6 0.050939 0.858016 0.119063
O O7 0.255410 0.967499 0.440870
O O8 0.459346 0.019965 0.241128
O O9 0.864135 0.755333 0.792351
O O10 0.000000 0.000000 0.000000
O O11 0.049760 0.211203 0.475337
O O12 0.000000 0.000000 0.500000
O O13 0.166336 0.774804 0.741427
O O14 0.766783 0.547015 0.542952
O O15 0.212207 0.593513 0.311257
O O16 0.000000 0.500000 0.000000
O O17 0.608275 0.280948 0.356818
O O18 0.000000 0.500000 0.500000
#
# Coordination Sequence:
#
# PCOD8021809 Si02
#       8
#     2   2   2   2   2   2   2   2
#     4  12  25  43  69 101 141 179 227 289 340 402
#     4  12  23  40  71  98 134 179 229 287 350 401
#     4  12  22  42  65  98 139 181 227 276 341 420
#     4  12  24  42  68 105 141 176 229 288 339 408
#     4  11  23  43  71  97 135 186 228 281 349 408
#     4  12  26  45  71 103 140 176 232 295 343 405
#     4  11  23  42  72 105 133 175 238 291 344 408
#     4  10  22  44  68  98 135 176 227 288 345 405
#
# _framework density 21.999455999999999
#
# number of rings (size 3 to 8) (size 9 to 14) (size 15 to 20)
#    0.000    0.500    3.750    6.000    0.000    3.000 
#    0.000    3.125    2.750    0.000    0.000    0.000 
#    0.000    0.000    0.000    0.000    0.000    0.000 
#
# Total GULP energy -198465.526931 kJ/mol
# GULP energy per Si atom -12404.095433 kJ/mol
# Density = 2.194938 g / cm^3
# Si number density = 21.999456 Si / 1000 Ang^3
#
#
#
# Elastic Constant Matrix: (Units=GPa)
#
#
# Indices 1 2 3 4 5 6 
#
# 1 106.6168 37.1345 17.0048 -4.8788 -25.1646 3.4719
# 2 37.1345 156.4398 44.1826 -5.8427 -10.0509 -7.1501
# 3 17.0048 44.1826 98.6927 -9.3158 -17.3969 -2.1091
# 4 -4.8788 -5.8427 -9.3158 45.9499 -2.1374 -8.3042
# 5 -25.1646 -10.0509 -17.3969 -2.1374 43.5792 -9.5276
# 6 3.4719 -7.1501 -2.1091 -8.3042 -9.5276 36.9885
#
#
#
# Elastic Compliance Matrix: (Units=1/GPa)
#
#
# Indices 1 2 3 4 5 6 
#
# 1 0.011751 -0.002393 0.000340 0.001398 0.006537 0.000452
# 2 -0.002393 0.007901 -0.003138 0.000371 -0.000457 0.001539
# 3 0.000340 -0.003138 0.012691 0.002816 0.005123 0.002037
# 4 0.001398 0.000371 0.002816 0.023953 0.004652 0.006677
# 5 0.006537 -0.000457 0.005123 0.004652 0.030760 0.008558
# 6 0.000452 0.001539 0.002037 0.006677 0.008558 0.031110
#
#
# Mechanical properties :
#
#
# Convention : Reuss Voigt Hill
#
# Bulk Modulus (GPa) = 45.53148 62.04368 53.78758
# Shear Modulus (GPa) = 36.80108 42.86532 39.83320
#
# Velocity S-wave (km/s) = 4.09445 4.41894 4.25978
# Velocity P-wave (km/s) = 6.56462 7.36883 6.97832
#
# Compressibility (1/GPa) = 0.02196283
#
# Stress axis : x y z
#
# Youngs Moduli (GPa) = 85.10251 126.56447 78.79716
#
# Poissons Ratio (x) = 0.30281 -0.02682
# Poissons Ratio (y) = 0.20361 0.24723
# Poissons Ratio (z) = -0.02896 0.39711
#
# Static dielectric constant tensor:
#      x y z
#    x 4.261250 -0.053400 -0.417980 
#    y -0.053400 4.441450 0.084270 
#    z -0.417980 0.084270 4.375220 
# 
# 
# High freq. dielectric constant tensor:
#      x y z
#    x 1.862130 -0.003450 -0.019320 
#    y -0.003450 1.873800 -0.008640 
#    z -0.019320 -0.008640 1.878000 
# 
# From -- ./inp_files/181701.got.cif
#   From: 2010.06.25/outbox.cif.g09.slc.cpg/sg2_91_cif.got.tgz:181701.got - 2010.06.27 13:26:56.
