data_PCOD8021596
_publ_section_title
;
Structure prediction by ZEFSAII (Michael W. Deem and Ramdas Pophale) SiO2 
 PCOD8021596
Probable space group: P -1
;
_chemical_formula_sum "Si O2"
_cell_formula_units_Z 16
_cell_length_a 21.353508
_cell_length_b 11.861007
_cell_length_c 5.375583
_cell_angle_alpha 129.776407
_cell_angle_beta 113.758953
_cell_angle_gamma 41.428813
_cell_volume 684.430042
_symmetry_space_group_name_H-M "P -1"
_symmetry_group_IT_number 2
_symmetry_cell_setting 'triclinic'
loop_
_space_group_symop_operation_xyz
x,y,z
-x,-y,-z
loop_
_atom_site_type_symbol
_atom_site_label
_atom_site_fract_x
_atom_site_fract_y
_atom_site_fract_z
Si Si1 0.170796 0.006239 0.356436
Si Si2 0.651692 0.194886 0.312969
Si Si3 0.156233 0.339297 0.674307
Si Si4 0.082517 0.894713 0.788136
Si Si5 0.995355 0.246046 0.764151
Si Si6 0.448374 0.131452 0.352992
Si Si7 0.262040 0.230548 0.212483
Si Si8 0.531290 0.574607 0.344255
O O1 0.163703 0.154351 0.363791
O O2 0.075213 0.183412 0.614138
O O3 0.270563 0.856935 0.447442
O O4 0.170581 0.846887 0.995402
O O5 0.626114 0.370840 0.345091
O O6 0.556499 0.270075 0.390256
O O7 0.692254 0.993938 0.946948
O O8 0.189940 0.375598 0.530895
O O9 0.047834 0.555547 0.864909
O O10 0.217016 0.280888 0.938361
O O11 0.096271 0.707383 0.440968
O O12 0.052570 0.045126 0.733200
O O13 0.000000 0.000000 0.000000
O O14 0.339436 0.242336 0.338985
O O15 0.444828 0.312649 0.603130
O O16 0.500000 0.000000 0.500000
O O17 0.500000 0.000000 0.000000
O O18 0.500000 0.500000 0.000000
#
# Coordination Sequence:
#
# PCOD8021596 Si02
#       8
#     2   2   2   2   2   2   2   2
#     4  10  23  41  72  98 134 189 231 292 353 414
#     4  10  24  45  69 106 142 180 241 294 354 422
#     4  11  26  43  71 102 142 178 244 292 342 422
#     4   9  21  41  64  92 135 182 228 287 358 409
#     4  10  22  44  65 100 137 186 233 287 350 419
#     4  12  25  47  77 102 143 189 235 287 366 428
#     4  11  25  47  69 105 143 190 229 298 356 418
#     4  11  25  45  74 105 140 186 234 296 354 430
#
# _framework density 23.377116000000001
#
# number of rings (size 3 to 8) (size 9 to 14) (size 15 to 20)
#    0.000    1.500    1.250    1.875   14.000    0.500 
#    9.000    0.000    0.000    0.000    0.000    0.000 
#    0.000    0.000    0.000    0.000    0.000    0.000 
#
# Total GULP energy -198263.982274 kJ/mol
# GULP energy per Si atom -12391.498892 kJ/mol
# Density = 2.332391 g / cm^3
# Si number density = 23.377116 Si / 1000 Ang^3
#
#
#
# Elastic Constant Matrix: (Units=GPa)
#
#
# Indices 1 2 3 4 5 6 
#
# 1 98.4710 9.4627 5.9950 -8.3141 7.2316 17.9236
# 2 9.4627 47.5641 -0.9420 0.8717 11.9976 9.1813
# 3 5.9950 -0.9420 58.0636 -3.4997 3.0292 11.9175
# 4 -8.3141 0.8717 -3.4997 32.1469 3.0535 0.4006
# 5 7.2316 11.9976 3.0292 3.0535 49.0479 -0.3640
# 6 17.9236 9.1813 11.9175 0.4006 -0.3640 36.1971
#
#
#
# Elastic Compliance Matrix: (Units=1/GPa)
#
#
# Indices 1 2 3 4 5 6 
#
# 1 0.011668 -0.000827 0.000245 0.003307 -0.001781 -0.005703
# 2 -0.000827 0.023962 0.002101 0.000007 -0.005917 -0.006420
# 3 0.000245 0.002101 0.018892 0.002331 -0.001913 -0.006919
# 4 0.003307 0.000007 0.002331 0.032505 -0.002678 -0.002793
# 5 -0.001781 -0.005917 -0.001913 -0.002678 0.022407 0.003268
# 6 -0.005703 -0.006420 -0.006919 -0.002793 0.003268 0.034421
#
#
# Mechanical properties :
#
#
# Convention : Reuss Voigt Hill
#
# Bulk Modulus (GPa) = 17.37344 25.90332 21.63838
# Shear Modulus (GPa) = 31.24928 36.11727 33.68328
#
# Velocity S-wave (km/s) = 3.66012 3.93489 3.79999
# Velocity P-wave (km/s) = 5.03090 5.63464 5.34131
#
# Compressibility (1/GPa) = 0.05755912
#
# Stress axis : x y z
#
# Youngs Moduli (GPa) = 85.70517 41.73271 52.93316
#
# Poissons Ratio (x) = 0.03451 -0.01295
# Poissons Ratio (y) = 0.07087 -0.11121
# Poissons Ratio (z) = -0.02097 -0.08768
#
# Static dielectric constant tensor:
#      x y z
#    x 4.802290 0.872020 0.249110 
#    y 0.872020 5.150060 -0.232460 
#    z 0.249110 -0.232460 4.648850 
# 
# 
# High freq. dielectric constant tensor:
#      x y z
#    x 1.936610 0.007940 0.005450 
#    y 0.007940 1.917230 -0.006150 
#    z 0.005450 -0.006150 1.930590 
# 
# From -- ./inp_files/118911.got.cif
#   From: 2010.06.25/outbox.cif.g09.slc.cpg/sg2_60_cif.got.tgz:118911.got - 2010.06.27 13:26:56.
