data_PCOD8021007
_publ_section_title
;
Structure prediction by ZEFSAII (Michael W. Deem and Ramdas Pophale) SiO2 
 PCOD8021007
Probable space group: P -1
;
_chemical_formula_sum "Si O2"
_cell_formula_units_Z 16
_cell_length_a 8.420111
_cell_length_b 8.853994
_cell_length_c 11.922788
_cell_angle_alpha 91.406678
_cell_angle_beta 98.388255
_cell_angle_gamma 56.795467
_cell_volume 734.128060
_symmetry_space_group_name_H-M "P -1"
_symmetry_group_IT_number 2
_symmetry_cell_setting 'triclinic'
loop_
_space_group_symop_operation_xyz
x,y,z
-x,-y,-z
loop_
_atom_site_type_symbol
_atom_site_label
_atom_site_fract_x
_atom_site_fract_y
_atom_site_fract_z
Si Si1 0.342295 0.648007 0.405361
Si Si2 0.036448 0.336673 0.580151
Si Si3 0.303854 0.028600 0.445928
Si Si4 0.213771 0.922077 0.052961
Si Si5 0.575041 0.771095 0.956024
Si Si6 0.304606 0.576612 0.155383
Si Si7 0.080368 0.395722 0.832919
Si Si8 0.801227 0.808142 0.796094
O O1 0.500000 0.500000 0.500000
O O2 0.399922 0.571576 0.283823
O O3 0.156789 0.649126 0.414311
O O4 0.316122 0.842709 0.420161
O O5 0.160825 0.139615 0.533976
O O6 0.136507 0.337103 0.707550
O O7 0.000000 0.500000 0.500000
O O8 0.238653 0.167658 0.338527
O O9 0.500000 0.000000 0.500000
O O10 0.325685 0.712047 0.084469
O O11 0.170993 0.034192 0.163911
O O12 0.360036 0.930605 0.980189
O O13 0.000000 0.000000 0.000000
O O14 0.566270 0.607835 0.902175
O O15 0.620959 0.846495 0.852657
O O16 0.734493 0.708572 0.069750
O O17 0.081441 0.640274 0.144190
O O18 0.987881 0.610265 0.838041
#
# Coordination Sequence:
#
# PCOD8021007 Si02
#       8
#     2   2   2   2   2   2   2   2
#     4  11  25  46  70 101 139 181 233 287 343 415
#     4  11  23  44  73 103 137 185 227 284 348 402
#     4  12  26  45  69 102 140 180 236 286 344 413
#     4  12  24  42  63  98 139 171 224 279 337 404
#     4  11  24  42  69  99 131 184 224 270 349 409
#     4  10  22  43  66  96 133 174 224 279 341 401
#     4  10  22  43  72  95 138 176 228 276 338 416
#     4  11  23  44  66  99 136 173 226 283 337 404
#
# _framework density 21.794563
#
# number of rings (size 3 to 8) (size 9 to 14) (size 15 to 20)
#    0.000    1.000    2.500    4.875    5.250    1.000 
#    4.500    0.000    0.000    0.000    0.000    0.000 
#    0.000    0.000    0.000    0.000    0.000    0.000 
#
# Total GULP energy -198263.026831 kJ/mol
# GULP energy per Si atom -12391.439177 kJ/mol
# Density = 2.174496 g / cm^3
# Si number density = 21.794563 Si / 1000 Ang^3
#
#
#
# Elastic Constant Matrix: (Units=GPa)
#
#
# Indices 1 2 3 4 5 6 
#
# 1 59.9804 21.6774 29.4260 -2.3693 4.6626 -5.8734
# 2 21.6774 95.1868 39.5511 15.8980 5.2459 10.5820
# 3 29.4260 39.5511 113.8920 24.2259 -4.7166 -5.3745
# 4 -2.3693 15.8980 24.2259 39.7067 8.4741 -0.6555
# 5 4.6626 5.2459 -4.7166 8.4741 31.7968 3.7002
# 6 -5.8734 10.5820 -5.3745 -0.6555 3.7002 45.3493
#
#
#
# Elastic Compliance Matrix: (Units=1/GPa)
#
#
# Indices 1 2 3 4 5 6 
#
# 1 0.022273 -0.003918 -0.006182 0.008034 -0.006106 0.003681
# 2 -0.003918 0.013861 -0.003233 -0.003726 -0.000720 -0.004120
# 3 -0.006182 -0.003233 0.013599 -0.008555 0.005623 0.000983
# 4 0.008034 -0.003726 -0.008555 0.034845 -0.011390 0.002329
# 5 -0.006106 -0.000720 0.005623 -0.011390 0.036696 -0.003115
# 6 0.003681 -0.004120 0.000983 0.002329 -0.003115 0.023894
#
#
# Mechanical properties :
#
#
# Convention : Reuss Voigt Hill
#
# Bulk Modulus (GPa) = 43.35105 50.04092 46.69599
# Shear Modulus (GPa) = 27.85145 35.26421 31.55783
#
# Velocity S-wave (km/s) = 3.57866 4.02684 3.80935
# Velocity P-wave (km/s) = 6.08356 6.68062 6.38907
#
# Compressibility (1/GPa) = 0.02306749
#
# Stress axis : x y z
#
# Youngs Moduli (GPa) = 44.89647 72.14357 73.53326
#
# Poissons Ratio (x) = 0.28267 0.45459
# Poissons Ratio (y) = 0.17591 0.23773
# Poissons Ratio (z) = 0.27755 0.23324
#
# Static dielectric constant tensor:
#      x y z
#    x 3.905480 0.270500 0.176220 
#    y 0.270500 4.052540 0.487480 
#    z 0.176220 0.487480 4.300180 
# 
# 
# High freq. dielectric constant tensor:
#      x y z
#    x 1.855220 0.016620 -0.002240 
#    y 0.016620 1.867990 0.014440 
#    z -0.002240 0.014440 1.872610 
# 
# From -- ./inp_files/241038.got.cif
#   From: 2010.06.25/outbox.cif.g09.slc.cpg/sg2_121_cif.got.tgz:241038.got - 2010.06.27 13:26:56.
