data_PCOD8021921
_publ_section_title
;
Structure prediction by ZEFSAII (Michael W. Deem and Ramdas Pophale) SiO2 
 PCOD8021921
Probable space group: P -1
;
_chemical_formula_sum "Si O2"
_cell_formula_units_Z 16
_cell_length_a 20.315034
_cell_length_b 16.826983
_cell_length_c 6.369040
_cell_angle_alpha 78.785167
_cell_angle_beta 79.184136
_cell_angle_gamma 20.196073
_cell_volume 737.205163
_symmetry_space_group_name_H-M "P -1"
_symmetry_group_IT_number 2
_symmetry_cell_setting 'triclinic'
loop_
_space_group_symop_operation_xyz
x,y,z
-x,-y,-z
loop_
_atom_site_type_symbol
_atom_site_label
_atom_site_fract_x
_atom_site_fract_y
_atom_site_fract_z
Si Si1 0.186524 0.463778 0.696849
Si Si2 0.011302 0.049611 0.279245
Si Si3 0.805476 0.719492 0.379775
Si Si4 0.844674 0.812290 0.984268
Si Si5 0.239964 0.671281 0.097335
Si Si6 0.359929 0.838199 0.760389
Si Si7 0.012381 0.167124 0.568995
Si Si8 0.421968 0.910932 0.386236
O O1 0.249462 0.309464 0.628940
O O2 0.377949 0.294197 0.739234
O O3 0.063791 0.586542 0.916804
O O4 0.071124 0.647687 0.499190
O O5 0.046482 0.096322 0.345322
O O6 0.181181 0.827492 0.137100
O O7 0.000000 0.000000 0.500000
O O8 0.817482 0.272011 0.142705
O O9 0.000000 0.500000 0.500000
O O10 0.637351 0.947722 0.501473
O O11 0.834850 0.737508 0.141874
O O12 0.739687 0.922570 0.770385
O O13 0.755562 0.985097 0.081808
O O14 0.467188 0.407032 0.113548
O O15 0.132521 0.724006 0.268986
O O16 0.450776 0.797368 0.561695
O O17 0.215202 0.940024 0.682195
#
# Coordination Sequence:
#
# PCOD8021921 Si02
#       8
#     2   2   2   2   2   2   2   2
#     4  12  23  42  68  93 130 174 219 275 323 384
#     4   9  22  44  67  99 132 169 215 266 324 394
#     4  11  23  46  64  89 137 172 221 277 325 384
#     4  11  25  42  62  97 133 173 221 273 326 384
#     4  10  22  44  70  95 134 173 211 268 329 391
#     4  11  24  41  67 100 135 171 219 272 325 390
#     4  11  23  41  68  98 130 172 220 269 329 385
#     4  11  24  43  64  96 129 176 220 268 332 386
#
# _framework density 21.703593000000001
#
# number of rings (size 3 to 8) (size 9 to 14) (size 15 to 20)
#    0.000    1.250    3.750    1.500    3.500    1.000 
#    4.500    5.625    0.000    0.000    0.000    0.000 
#    0.000    0.000    0.000    0.000    0.000    0.000 
#
# Total GULP energy -198434.325429 kJ/mol
# GULP energy per Si atom -12402.145339 kJ/mol
# Density = 2.165419 g / cm^3
# Si number density = 21.703593 Si / 1000 Ang^3
#
#
#
# Elastic Constant Matrix: (Units=GPa)
#
#
# Indices 1 2 3 4 5 6 
#
# 1 58.6527 30.1957 26.0640 12.2254 6.5843 -3.1980
# 2 30.1957 112.0663 35.1491 -4.9499 -3.9213 -11.6287
# 3 26.0640 35.1491 105.8172 -0.7580 9.4348 2.0613
# 4 12.2254 -4.9499 -0.7580 33.1896 0.6344 -10.0643
# 5 6.5843 -3.9213 9.4348 0.6344 19.0152 1.3626
# 6 -3.1980 -11.6287 2.0613 -10.0643 1.3626 32.7215
#
#
#
# Elastic Compliance Matrix: (Units=1/GPa)
#
#
# Indices 1 2 3 4 5 6 
#
# 1 0.024995 -0.006776 -0.003227 -0.010994 -0.007883 -0.002815
# 2 -0.006776 0.012807 -0.003185 0.005938 0.005963 0.005668
# 3 -0.003227 -0.003185 0.011813 0.000537 -0.005289 -0.001806
# 4 -0.010994 0.005938 0.000537 0.038932 0.002544 0.012870
# 5 -0.007883 0.005963 -0.005289 0.002544 0.059088 0.000004
# 6 -0.002815 0.005668 -0.001806 0.012870 0.000004 0.036372
#
#
# Mechanical properties :
#
#
# Convention : Reuss Voigt Hill
#
# Bulk Modulus (GPa) = 43.02875 51.03930 47.03402
# Shear Modulus (GPa) = 22.92219 29.32710 26.12464
#
# Velocity S-wave (km/s) = 3.25337 3.67993 3.47320
# Velocity P-wave (km/s) = 5.82934 6.45162 6.14836
#
# Compressibility (1/GPa) = 0.02324028
#
# Stress axis : x y z
#
# Youngs Moduli (GPa) = 40.00800 78.08228 84.64897
#
# Poissons Ratio (x) = 0.52911 0.27314
# Poissons Ratio (y) = 0.27110 0.26957
# Poissons Ratio (z) = 0.12910 0.24866
#
# Static dielectric constant tensor:
#      x y z
#    x 4.562470 0.288440 0.208240 
#    y 0.288440 3.944250 0.034440 
#    z 0.208240 0.034440 3.963820 
# 
# 
# High freq. dielectric constant tensor:
#      x y z
#    x 1.853730 0.010170 -0.000010 
#    y 0.010170 1.854870 -0.004930 
#    z -0.000010 -0.004930 1.855340 
# 
# From -- ./inp_files/49166.got.cif
#   From: 2010.06.25/outbox.cif.g09.slc.cpg/sg2_25_cif.got.tgz:49166.got - 2010.06.27 13:26:56.
