data_PCOD8021586
_publ_section_title
;
Structure prediction by ZEFSAII (Michael W. Deem and Ramdas Pophale) SiO2 
 PCOD8021586
Probable space group: P -1
;
_chemical_formula_sum "Si O2"
_cell_formula_units_Z 16
_cell_length_a 15.493596
_cell_length_b 14.648204
_cell_length_c 18.444646
_cell_angle_alpha 19.505218
_cell_angle_beta 32.546086
_cell_angle_gamma 41.417425
_cell_volume 728.306827
_symmetry_space_group_name_H-M "P -1"
_symmetry_group_IT_number 2
_symmetry_cell_setting 'triclinic'
loop_
_space_group_symop_operation_xyz
x,y,z
-x,-y,-z
loop_
_atom_site_type_symbol
_atom_site_label
_atom_site_fract_x
_atom_site_fract_y
_atom_site_fract_z
Si Si1 0.128327 0.368074 0.171673
Si Si2 0.033126 0.124875 0.803547
Si Si3 0.762403 0.272666 0.804352
Si Si4 0.449934 0.753616 0.888470
Si Si5 0.794754 0.194502 0.481543
Si Si6 0.495116 0.842619 0.047004
Si Si7 0.686674 0.136916 0.235770
Si Si8 0.338707 0.636820 0.690427
O O1 0.935586 0.381891 0.295006
O O2 0.130914 0.046633 0.428719
O O3 0.244122 0.555663 0.009203
O O4 0.193785 0.478425 0.963773
O O5 0.096948 0.457258 0.520491
O O6 0.859473 0.054243 0.934006
O O7 0.174056 0.034657 0.722213
O O8 0.000000 0.000000 0.000000
O O9 0.669539 0.158508 0.881243
O O10 0.629167 0.338132 0.908017
O O11 0.315054 0.836314 0.869938
O O12 0.601049 0.031634 0.580681
O O13 0.500000 0.500000 0.000000
O O14 0.736536 0.391614 0.315979
O O15 0.642386 0.032774 0.756216
O O16 0.513054 0.523406 0.287445
O O17 0.500000 0.000000 0.000000
O O18 0.500000 0.000000 0.500000
#
# Coordination Sequence:
#
# PCOD8021586 Si02
#       8
#     2   2   2   2   2   2   2   2
#     4  10  23  40  65 101 137 173 228 292 350 422
#     4  11  25  45  68  99 142 184 224 291 366 416
#     4  11  25  46  66  99 144 179 234 297 346 426
#     4  12  23  39  72 106 137 180 232 290 354 424
#     4  10  22  44  64  97 138 178 230 295 348 403
#     4  11  26  44  69  97 133 188 243 285 342 421
#     4  12  23  40  68 104 135 178 234 280 353 431
#     4  11  22  42  70  98 137 181 230 293 354 410
#
# _framework density 21.968762000000002
#
# number of rings (size 3 to 8) (size 9 to 14) (size 15 to 20)
#    0.000    1.000    3.750    2.625    3.500    2.500 
#    0.000    0.000    0.000    0.000    0.000    0.000 
#    0.000    0.000    0.000    0.000    0.000    0.000 
#
# Total GULP energy -198295.402571 kJ/mol
# GULP energy per Si atom -12393.462661 kJ/mol
# Density = 2.191876 g / cm^3
# Si number density = 21.968762 Si / 1000 Ang^3
#
#
#
# Elastic Constant Matrix: (Units=GPa)
#
#
# Indices 1 2 3 4 5 6 
#
# 1 169.2023 35.4568 34.3157 6.6523 -6.7517 -8.8653
# 2 35.4568 79.6037 4.9405 -2.1961 -0.5345 -13.3252
# 3 34.3157 4.9405 83.2192 0.1301 -1.4547 -7.8729
# 4 6.6523 -2.1961 0.1301 18.6684 1.3714 -3.9084
# 5 -6.7517 -0.5345 -1.4547 1.3714 44.2136 1.9619
# 6 -8.8653 -13.3252 -7.8729 -3.9084 1.9619 36.7136
#
#
#
# Elastic Compliance Matrix: (Units=1/GPa)
#
#
# Indices 1 2 3 4 5 6 
#
# 1 0.007307 -0.003225 -0.002836 -0.003129 0.001099 -0.000406
# 2 -0.003225 0.014938 0.000928 0.004059 -0.000643 0.005308
# 3 -0.002836 0.000928 0.013381 0.001603 -0.000151 0.002700
# 4 -0.003129 0.004059 0.001603 0.056845 -0.002461 0.007244
# 5 0.001099 -0.000643 -0.000151 -0.002461 0.022915 -0.001487
# 6 -0.000406 0.005308 0.002700 0.007244 -0.001487 0.030496
#
#
# Mechanical properties :
#
#
# Convention : Reuss Voigt Hill
#
# Bulk Modulus (GPa) = 39.43476 53.49459 46.46467
# Shear Modulus (GPa) = 30.37651 37.07326 33.72489
#
# Velocity S-wave (km/s) = 3.72252 4.11243 3.92232
# Velocity P-wave (km/s) = 6.03867 6.85220 6.45826
#
# Compressibility (1/GPa) = 0.02535834
#
# Stress axis : x y z
#
# Youngs Moduli (GPa) = 136.86101 66.94557 74.73273
#
# Poissons Ratio (x) = 0.21593 0.21193
# Poissons Ratio (y) = 0.44144 -0.06934
# Poissons Ratio (z) = 0.38811 -0.06211
#
# Static dielectric constant tensor:
#      x y z
#    x 4.417620 -0.342320 0.096970 
#    y -0.342320 3.802040 -0.040240 
#    z 0.096970 -0.040240 3.971990 
# 
# 
# High freq. dielectric constant tensor:
#      x y z
#    x 1.883900 -0.013290 0.001460 
#    y -0.013290 1.838980 0.006830 
#    z 0.001460 0.006830 1.868680 
# 
# From -- ./inp_files/574006.got.cif
#   From: 2010.06.25/outbox.cif.g09.slc.cpg/sg2_288_cif.got.tgz:574006.got - 2010.06.27 13:26:56.
