data_PCOD8021263
_publ_section_title
;
Structure prediction by ZEFSAII (Michael W. Deem and Ramdas Pophale) SiO2 
 PCOD8021263
Probable space group: P -1
;
_chemical_formula_sum "Si O2"
_cell_formula_units_Z 16
_cell_length_a 15.138760
_cell_length_b 8.448410
_cell_length_c 13.764875
_cell_angle_alpha 91.973976
_cell_angle_beta 30.882229
_cell_angle_gamma 74.311935
_cell_volume 732.593943
_symmetry_space_group_name_H-M "P -1"
_symmetry_group_IT_number 2
_symmetry_cell_setting 'triclinic'
loop_
_space_group_symop_operation_xyz
x,y,z
-x,-y,-z
loop_
_atom_site_type_symbol
_atom_site_label
_atom_site_fract_x
_atom_site_fract_y
_atom_site_fract_z
Si Si1 0.329363 0.566627 0.888933
Si Si2 0.143220 0.365544 0.449089
Si Si3 0.329356 0.862362 0.434574
Si Si4 0.209280 0.968641 0.339179
Si Si5 0.877806 0.711184 0.325087
Si Si6 0.468301 0.643868 0.949768
Si Si7 0.394416 0.394825 0.524844
Si Si8 0.793278 0.181318 0.252539
O O1 0.432551 0.334906 0.785443
O O2 0.318771 0.648333 0.008523
O O3 0.470249 0.607768 0.692143
O O4 0.087502 0.681060 0.080503
O O5 0.037208 0.413338 0.657099
O O6 0.319335 0.405078 0.300137
O O7 0.000000 0.500000 0.500000
O O8 0.216665 0.151748 0.346610
O O9 0.253567 0.857670 0.397891
O O10 0.179963 0.862776 0.658297
O O11 0.311401 0.061238 0.470468
O O12 0.376339 0.846825 0.094223
O O13 0.000000 0.000000 0.500000
O O14 0.778659 0.639648 0.343824
O O15 0.500000 0.500000 0.000000
O O16 0.571652 0.219229 0.425055
O O17 0.253506 0.605849 0.717107
O O18 0.000000 0.000000 0.000000
#
# Coordination Sequence:
#
# PCOD8021263 Si02
#       8
#     2   2   2   2   2   2   2   2
#     4  11  22  42  66  94 135 176 211 268 325 376
#     4  11  24  39  59  95 131 172 223 266 320 389
#     4  10  23  41  64  94 130 168 219 264 322 394
#     4  11  23  39  62  94 129 174 220 266 323 390
#     4  11  23  43  65  96 132 170 217 267 325 386
#     4  12  21  39  63  90 129 176 214 267 319 379
#     4  10  23  43  67  98 130 165 220 268 321 394
#     4  10  22  43  69  96 129 169 212 270 334 388
#
# _framework density 21.840202000000001
#
# number of rings (size 3 to 8) (size 9 to 14) (size 15 to 20)
#    0.000    1.250    2.500    4.125    0.000    1.500 
#    0.000    8.750    0.000    0.000    0.000    0.000 
#    0.000    0.000    0.000    0.000    0.000    0.000 
#
# Total GULP energy -198252.590623 kJ/mol
# GULP energy per Si atom -12390.786914 kJ/mol
# Density = 2.179049 g / cm^3
# Si number density = 21.840202 Si / 1000 Ang^3
#
#
#
# Elastic Constant Matrix: (Units=GPa)
#
#
# Indices 1 2 3 4 5 6 
#
# 1 106.7121 21.1390 44.0902 2.8790 -4.6850 13.3922
# 2 21.1390 69.1193 31.0825 3.4859 -7.2054 6.0027
# 3 44.0902 31.0825 103.3271 8.4631 0.7272 14.9130
# 4 2.8790 3.4859 8.4631 35.8389 7.7352 -2.6850
# 5 -4.6850 -7.2054 0.7272 7.7352 41.7982 -6.4650
# 6 13.3922 6.0027 14.9130 -2.6850 -6.4650 40.9145
#
#
#
# Elastic Compliance Matrix: (Units=1/GPa)
#
#
# Indices 1 2 3 4 5 6 
#
# 1 0.011704 -0.001383 -0.004295 -0.000124 0.000872 -0.001933
# 2 -0.001383 0.017320 -0.004544 -0.001176 0.003125 -0.000016
# 3 -0.004295 -0.004544 0.013550 -0.002317 -0.001577 -0.003268
# 4 -0.000124 -0.001176 -0.002317 0.029897 -0.005373 0.002171
# 5 0.000872 0.003125 -0.001577 -0.005373 0.026141 0.003609
# 6 -0.001933 -0.000016 -0.003268 0.002171 0.003609 0.026980
#
#
# Mechanical properties :
#
#
# Convention : Reuss Voigt Hill
#
# Bulk Modulus (GPa) = 45.18508 52.42020 48.80264
# Shear Modulus (GPa) = 32.59207 35.90010 34.24608
#
# Velocity S-wave (km/s) = 3.86722 4.05873 3.96413
# Velocity P-wave (km/s) = 6.37764 6.78367 6.58379
#
# Compressibility (1/GPa) = 0.02213120
#
# Stress axis : x y z
#
# Youngs Moduli (GPa) = 85.44268 57.73557 73.80080
#
# Poissons Ratio (x) = 0.07984 0.31698
# Poissons Ratio (y) = 0.11816 0.33532
# Poissons Ratio (z) = 0.36698 0.26232
#
# Static dielectric constant tensor:
#      x y z
#    x 4.118550 -0.169850 -0.127020 
#    y -0.169850 4.087270 0.214600 
#    z -0.127020 0.214600 3.361080 
# 
# 
# High freq. dielectric constant tensor:
#      x y z
#    x 1.874420 -0.008030 0.014140 
#    y -0.008030 1.853410 0.009750 
#    z 0.014140 0.009750 1.849130 
# 
# From -- ./inp_files/529865.got.cif
#   From: 2010.06.25/outbox.cif.g09.slc.cpg/sg2_265_cif.got.tgz:529865.got - 2010.06.27 13:26:56.
