data_PCOD8021830
_publ_section_title
;
Structure prediction by ZEFSAII (Michael W. Deem and Ramdas Pophale) SiO2 
 PCOD8021830
Probable space group: P -1
;
_chemical_formula_sum "Si O2"
_cell_formula_units_Z 16
_cell_length_a 9.308857
_cell_length_b 15.312527
_cell_length_c 8.441829
_cell_angle_alpha 39.915863
_cell_angle_beta 76.720237
_cell_angle_gamma 94.087996
_cell_volume 689.956601
_symmetry_space_group_name_H-M "P -1"
_symmetry_group_IT_number 2
_symmetry_cell_setting 'triclinic'
loop_
_space_group_symop_operation_xyz
x,y,z
-x,-y,-z
loop_
_atom_site_type_symbol
_atom_site_label
_atom_site_fract_x
_atom_site_fract_y
_atom_site_fract_z
Si Si1 0.030550 0.789465 0.378062
Si Si2 0.294770 0.890040 0.598245
Si Si3 0.352162 0.033149 0.053805
Si Si4 0.604437 0.828921 0.653951
Si Si5 0.015854 0.366403 0.086609
Si Si6 0.860469 0.441184 0.489145
Si Si7 0.695975 0.729747 0.438934
Si Si8 0.552275 0.429557 0.731527
O O1 0.943313 0.732329 0.652956
O O2 0.116127 0.686158 0.438018
O O3 0.891177 0.793259 0.292869
O O4 0.180037 0.945545 0.134682
O O5 0.430751 0.834818 0.688846
O O6 0.144825 0.739615 0.814001
O O7 0.345214 0.000939 0.283668
O O8 0.267724 0.000990 0.581580
O O9 0.377668 0.202658 0.776639
O O10 0.500000 0.000000 0.000000
O O11 0.641532 0.772269 0.558900
O O12 0.593902 0.709827 0.960295
O O13 0.000000 0.500000 0.000000
O O14 0.139025 0.433944 0.814954
O O15 0.691193 0.377434 0.709792
O O16 0.000000 0.500000 0.500000
O O17 0.624715 0.553543 0.678259
O O18 0.500000 0.500000 0.500000
#
# Coordination Sequence:
#
# PCOD8021830 Si02
#       8
#     2   2   2   2   2   2   2   2
#     4  10  24  42  68  98 134 183 225 281 348 414
#     4  10  22  44  69 102 130 182 236 279 344 423
#     4  11  23  44  69  99 135 177 229 286 348 416
#     4  11  25  43  69  98 142 181 230 287 349 409
#     4   9  21  40  69  97 132 175 230 279 341 412
#     4  11  22  43  68  97 135 176 228 283 340 411
#     4  12  25  45  66 100 140 184 232 288 351 413
#     4  12  28  43  68 105 140 182 233 293 350 408
#
# _framework density 23.189862000000002
#
# number of rings (size 3 to 8) (size 9 to 14) (size 15 to 20)
#    0.000    1.250    2.500    2.250    7.000    2.000 
#    2.250    1.250    0.000    0.000    0.000    0.000 
#    0.000    0.000    0.000    0.000    0.000    0.000 
#
# Total GULP energy -198275.153203 kJ/mol
# GULP energy per Si atom -12392.197075 kJ/mol
# Density = 2.313708 g / cm^3
# Si number density = 23.189862 Si / 1000 Ang^3
#
#
#
# Elastic Constant Matrix: (Units=GPa)
#
#
# Indices 1 2 3 4 5 6 
#
# 1 51.8033 4.4063 11.4135 -9.3734 14.3787 0.7275
# 2 4.4063 111.5665 24.6808 -7.6791 -7.3571 -1.2149
# 3 11.4135 24.6808 92.8218 -1.2005 4.6073 -9.2970
# 4 -9.3734 -7.6791 -1.2005 36.7746 4.6024 -6.8027
# 5 14.3787 -7.3571 4.6073 4.6024 33.7383 -2.7808
# 6 0.7275 -1.2149 -9.2970 -6.8027 -2.7808 34.8061
#
#
#
# Elastic Compliance Matrix: (Units=1/GPa)
#
#
# Indices 1 2 3 4 5 6 
#
# 1 0.024297 -0.000720 -0.002204 0.007268 -0.011252 -0.000600
# 2 -0.000720 0.009850 -0.002626 0.001488 0.002623 0.000158
# 3 -0.002204 -0.002626 0.012104 -0.000012 -0.001029 0.003103
# 4 0.007268 0.001488 -0.000012 0.031190 -0.006575 0.005467
# 5 -0.011252 0.002623 -0.001029 -0.006575 0.036182 0.001658
# 6 -0.000600 0.000158 0.003103 0.005467 0.001658 0.030779
#
#
# Mechanical properties :
#
#
# Convention : Reuss Voigt Hill
#
# Bulk Modulus (GPa) = 28.44801 37.46587 32.95694
# Shear Modulus (GPa) = 29.90118 35.44320 32.67219
#
# Velocity S-wave (km/s) = 3.59473 3.91371 3.75760
# Velocity P-wave (km/s) = 5.43355 6.05095 5.75054
#
# Compressibility (1/GPa) = 0.03515185
#
# Stress axis : x y z
#
# Youngs Moduli (GPa) = 41.15690 101.52593 82.61653
#
# Poissons Ratio (x) = 0.07314 0.18206
# Poissons Ratio (y) = 0.02965 0.21691
# Poissons Ratio (z) = 0.09070 0.26656
#
# Static dielectric constant tensor:
#      x y z
#    x 3.972930 0.304110 0.004340 
#    y 0.304110 2.284650 -0.835030 
#    z 0.004340 -0.835030 3.976120 
# 
# 
# High freq. dielectric constant tensor:
#      x y z
#    x 1.902170 0.012260 0.009700 
#    y 0.012260 1.927590 -0.002460 
#    z 0.009700 -0.002460 1.927340 
# 
# From -- ./inp_files/205194.got.cif
#   From: 2010.06.25/outbox.cif.g09.slc.cpg/sg2_103_cif.got.tgz:205194.got - 2010.06.27 13:26:56.
