data_PCOD8021958
_publ_section_title
;
Structure prediction by ZEFSAII (Michael W. Deem and Ramdas Pophale) SiO2 
 PCOD8021958
Probable space group: P -1
;
_chemical_formula_sum "Si O2"
_cell_formula_units_Z 16
_cell_length_a 11.617017
_cell_length_b 14.129216
_cell_length_c 19.549132
_cell_angle_alpha 31.243895
_cell_angle_beta 29.234446
_cell_angle_gamma 49.803977
_cell_volume 745.901029
_symmetry_space_group_name_H-M "P -1"
_symmetry_group_IT_number 2
_symmetry_cell_setting 'triclinic'
loop_
_space_group_symop_operation_xyz
x,y,z
-x,-y,-z
loop_
_atom_site_type_symbol
_atom_site_label
_atom_site_fract_x
_atom_site_fract_y
_atom_site_fract_z
Si Si1 0.110485 0.695686 0.500282
Si Si2 0.051826 0.230423 0.321431
Si Si3 0.429301 0.140472 0.020021
Si Si4 0.820547 0.387137 0.227299
Si Si5 0.558620 0.483739 0.849289
Si Si6 0.430163 0.173262 0.456347
Si Si7 0.835156 0.974576 0.899659
Si Si8 0.430304 0.403148 0.669720
O O1 0.299499 0.590170 0.443444
O O2 0.074492 0.681205 0.609886
O O3 0.844977 0.583877 0.667544
O O4 0.226763 0.932175 0.282956
O O5 0.956540 0.265402 0.274061
O O6 0.357621 0.365105 0.085748
O O7 0.000000 0.000000 0.500000
O O8 0.276938 0.183697 0.007980
O O9 0.527314 0.322384 0.907559
O O10 0.694988 0.125151 0.869698
O O11 0.557439 0.232250 0.427806
O O12 0.731449 0.512633 0.249986
O O13 0.000000 0.500000 0.000000
O O14 0.472193 0.649753 0.758872
O O15 0.500000 0.000000 0.500000
O O16 0.130867 0.105863 0.664107
O O17 0.753119 0.834220 0.096472
O O18 0.500000 0.500000 0.500000
#
# Coordination Sequence:
#
# PCOD8021958 Si02
#       8
#     2   2   2   2   2   2   2   2
#     4  11  24  46  72 108 143 188 242 306 368 440
#     4  12  26  46  74 104 152 198 246 304 373 439
#     4  10  22  44  71 101 139 184 235 301 361 429
#     4  12  26  48  76 104 144 202 247 298 376 444
#     4  12  25  43  76 102 144 192 246 300 368 440
#     4  12  27  42  70 107 143 188 253 305 358 448
#     4  10  23  43  67 100 143 182 237 302 356 433
#     4  11  24  47  73 102 144 191 242 301 378 436
#
# _framework density 21.450565999999998
#
# number of rings (size 3 to 8) (size 9 to 14) (size 15 to 20)
#    0.000    0.750    5.000    1.875    5.250    0.500 
#    2.250    0.625    0.000    0.000    0.000    0.000 
#    0.000    0.000    0.000    0.000    0.000    0.000 
#
# Total GULP energy -198261.281124 kJ/mol
# GULP energy per Si atom -12391.330070 kJ/mol
# Density = 2.140174 g / cm^3
# Si number density = 21.450566 Si / 1000 Ang^3
#
#
#
# Elastic Constant Matrix: (Units=GPa)
#
#
# Indices 1 2 3 4 5 6 
#
# 1 111.3401 41.6874 62.2679 -5.4468 -0.4818 -8.5994
# 2 41.6874 100.8811 50.4189 2.1488 0.1362 -0.7672
# 3 62.2679 50.4189 137.7821 -1.1511 -5.0612 -8.3169
# 4 -5.4468 2.1488 -1.1511 37.1680 -2.2259 4.7884
# 5 -0.4818 0.1362 -5.0612 -2.2259 45.9379 0.3749
# 6 -8.5994 -0.7672 -8.3169 4.7884 0.3749 36.3739
#
#
#
# Elastic Compliance Matrix: (Units=1/GPa)
#
#
# Indices 1 2 3 4 5 6 
#
# 1 0.012920 -0.003055 -0.004614 0.001688 -0.000296 0.001716
# 2 -0.003055 0.012911 -0.003437 -0.001192 -0.000498 -0.001074
# 3 -0.004614 -0.003437 0.010719 -0.000247 0.001120 0.001308
# 4 0.001688 -0.001192 -0.000247 0.027726 0.001365 -0.003347
# 5 -0.000296 -0.000498 0.001120 0.001365 0.021958 -0.000230
# 6 0.001716 -0.001074 0.001308 -0.003347 -0.000230 0.028617
#
#
# Mechanical properties :
#
#
# Convention : Reuss Voigt Hill
#
# Bulk Modulus (GPa) = 69.74920 73.19463 71.47191
# Shear Modulus (GPa) = 35.25045 36.93792 36.09419
#
# Velocity S-wave (km/s) = 4.05820 4.15420 4.10648
# Velocity P-wave (km/s) = 7.38549 7.56349 7.47502
#
# Compressibility (1/GPa) = 0.01433708
#
# Stress axis : x y z
#
# Youngs Moduli (GPa) = 77.40129 77.45483 93.29509
#
# Poissons Ratio (x) = 0.23665 0.43046
# Poissons Ratio (y) = 0.23649 0.32063
# Poissons Ratio (z) = 0.35712 0.26619
#
# Static dielectric constant tensor:
#      x y z
#    x 4.031420 -0.079040 0.190100 
#    y -0.079040 3.968810 0.155390 
#    z 0.190100 0.155390 4.239600 
# 
# 
# High freq. dielectric constant tensor:
#      x y z
#    x 1.839630 -0.011230 0.008300 
#    y -0.011230 1.848790 0.011090 
#    z 0.008300 0.011090 1.857560 
# 
# From -- ./inp_files/595453.got.cif
#   From: 2010.06.25/outbox.cif.g09.slc.cpg/sg2_298_cif.got.tgz:595453.got - 2010.06.27 13:26:56.
