data_PCOD8021008
_publ_section_title
;
Structure prediction by ZEFSAII (Michael W. Deem and Ramdas Pophale) SiO2 
 PCOD8021008
Probable space group: P -1
;
_chemical_formula_sum "Si O2"
_cell_formula_units_Z 16
_cell_length_a 6.699370
_cell_length_b 8.477673
_cell_length_c 17.845403
_cell_angle_alpha 57.888376
_cell_angle_beta 58.545896
_cell_angle_gamma 78.906930
_cell_volume 727.246945
_symmetry_space_group_name_H-M "P -1"
_symmetry_group_IT_number 2
_symmetry_cell_setting 'triclinic'
loop_
_space_group_symop_operation_xyz
x,y,z
-x,-y,-z
loop_
_atom_site_type_symbol
_atom_site_label
_atom_site_fract_x
_atom_site_fract_y
_atom_site_fract_z
Si Si1 0.818328 0.122664 0.199150
Si Si2 0.095864 0.712352 0.410867
Si Si3 0.421146 0.925712 0.418477
Si Si4 0.632136 0.757987 0.550655
Si Si5 0.463373 0.558657 0.867806
Si Si6 0.351980 0.221214 0.083132
Si Si7 0.413491 0.607561 0.258165
Si Si8 0.739264 0.966718 0.092648
O O1 0.741565 0.334955 0.157939
O O2 0.092671 0.111335 0.162403
O O3 0.683118 0.996060 0.321034
O O4 0.740930 0.025258 0.162179
O O5 0.278924 0.803640 0.413897
O O6 0.211046 0.728639 0.300182
O O7 0.000000 0.500000 0.500000
O O8 0.860684 0.810109 0.439826
O O9 0.421575 0.806694 0.525648
O O10 0.317847 0.117241 0.415210
O O11 0.561027 0.542538 0.642990
O O12 0.614701 0.694275 0.861563
O O13 0.641572 0.496726 0.784213
O O14 0.346718 0.377650 0.980866
O O15 0.552984 0.087273 0.056626
O O16 0.652689 0.745179 0.161619
O O17 0.000000 0.000000 0.000000
#
# Coordination Sequence:
#
# PCOD8021008 Si02
#       8
#     2   2   2   2   2   2   2   2
#     4  11  22  42  70  93 133 176 218 280 324 395
#     4  10  23  43  65  94 135 173 209 276 327 388
#     4  11  22  44  68  98 128 173 226 266 330 395
#     4  10  24  43  67  96 129 175 221 276 323 392
#     4  10  22  43  66  96 134 167 230 276 323 391
#     4  10  24  44  67  97 128 179 229 267 335 396
#     4  11  22  42  65  97 136 171 217 268 338 386
#     4  11  25  44  67  97 138 172 216 278 336 398
#
# _framework density 22.000776999999999
#
# number of rings (size 3 to 8) (size 9 to 14) (size 15 to 20)
#    0.000    1.500    2.500    1.500    1.750    6.000 
#    9.000    1.250    0.000    0.000    0.000    0.000 
#    0.000    0.000    0.000    0.000    0.000    0.000 
#
# Total GULP energy -198248.915702 kJ/mol
# GULP energy per Si atom -12390.557231 kJ/mol
# Density = 2.195070 g / cm^3
# Si number density = 22.000777 Si / 1000 Ang^3
#
#
#
# Elastic Constant Matrix: (Units=GPa)
#
#
# Indices 1 2 3 4 5 6 
#
# 1 78.7353 42.4152 36.0417 -7.4332 -11.2189 -8.7549
# 2 42.4152 106.6543 44.7051 8.3013 1.4792 6.6275
# 3 36.0417 44.7051 103.2778 -3.1505 -2.8192 1.0315
# 4 -7.4332 8.3013 -3.1505 48.0469 6.3895 2.4568
# 5 -11.2189 1.4792 -2.8192 6.3895 26.8479 4.7605
# 6 -8.7549 6.6275 1.0315 2.4568 4.7605 18.7815
#
#
#
# Elastic Compliance Matrix: (Units=1/GPa)
#
#
# Indices 1 2 3 4 5 6 
#
# 1 0.020963 -0.007718 -0.003824 0.002955 0.006173 0.010754
# 2 -0.007718 0.014800 -0.003801 -0.003305 -0.002306 -0.007594
# 3 -0.003824 -0.003801 0.012703 0.000970 -0.000064 -0.001250
# 4 0.002955 -0.003305 0.000970 0.022397 -0.003909 0.000552
# 5 0.006173 -0.002306 -0.000064 -0.003909 0.042020 -0.006444
# 6 0.010754 -0.007594 -0.001250 0.000552 -0.006444 0.062567
#
#
# Mechanical properties :
#
#
# Convention : Reuss Voigt Hill
#
# Bulk Modulus (GPa) = 56.24075 59.44349 57.84212
# Shear Modulus (GPa) = 23.57823 29.76897 26.67360
#
# Velocity S-wave (km/s) = 3.27723 3.68242 3.48572
# Velocity P-wave (km/s) = 6.31973 6.71996 6.52291
#
# Compressibility (1/GPa) = 0.01778070
#
# Stress axis : x y z
#
# Youngs Moduli (GPa) = 47.70263 67.56882 78.72446
#
# Poissons Ratio (x) = 0.52150 0.30101
# Poissons Ratio (y) = 0.36817 0.29921
# Poissons Ratio (z) = 0.18240 0.25681
#
# Static dielectric constant tensor:
#      x y z
#    x 3.816860 -0.260220 -0.144130 
#    y -0.260220 4.565530 0.351180 
#    z -0.144130 0.351180 4.295230 
# 
# 
# High freq. dielectric constant tensor:
#      x y z
#    x 1.836430 0.001810 0.003370 
#    y 0.001810 1.884180 0.006400 
#    z 0.003370 0.006400 1.878410 
# 
# From -- ./inp_files/279753.got.cif
#   From: 2010.06.25/outbox.cif.g09.slc.cpg/sg2_140_cif.got.tgz:279753.got - 2010.06.27 13:26:56.
