data_PCOD8021327
_publ_section_title
;
Structure prediction by ZEFSAII (Michael W. Deem and Ramdas Pophale) SiO2 
 PCOD8021327
Probable space group: P -1
;
_chemical_formula_sum "Si O2"
_cell_formula_units_Z 16
_cell_length_a 8.680106
_cell_length_b 21.868411
_cell_length_c 8.906673
_cell_angle_alpha 29.916183
_cell_angle_beta 70.959573
_cell_angle_gamma 72.449469
_cell_volume 796.425329
_symmetry_space_group_name_H-M "P -1"
_symmetry_group_IT_number 2
_symmetry_cell_setting 'triclinic'
loop_
_space_group_symop_operation_xyz
x,y,z
-x,-y,-z
loop_
_atom_site_type_symbol
_atom_site_label
_atom_site_fract_x
_atom_site_fract_y
_atom_site_fract_z
Si Si1 0.597156 0.605068 0.666178
Si Si2 0.592320 0.157631 0.750111
Si Si3 0.127927 0.240988 0.705872
Si Si4 0.764704 0.798430 0.756937
Si Si5 0.034516 0.857396 0.313632
Si Si6 0.138815 0.400645 0.628520
Si Si7 0.814532 0.967905 0.654292
Si Si8 0.512513 0.096481 0.575133
O O1 0.474736 0.717188 0.413526
O O2 0.730755 0.671401 0.589405
O O3 0.700398 0.546302 0.617834
O O4 0.500000 0.500000 0.000000
O O5 0.782718 0.171633 0.633823
O O6 0.508524 0.147674 0.635594
O O7 0.560937 0.039882 0.114444
O O8 0.052473 0.305016 0.745405
O O9 0.996470 0.217777 0.669760
O O10 0.205857 0.110900 0.017951
O O11 0.749274 0.900215 0.673880
O O12 0.600463 0.810307 0.685544
O O13 0.922508 0.812859 0.575617
O O14 0.790767 0.664003 0.106506
O O15 0.000000 0.000000 0.000000
O O16 0.000000 0.500000 0.500000
O O17 0.695292 0.087847 0.464825
O O18 0.000000 0.000000 0.500000
#
# Coordination Sequence:
#
# PCOD8021327 Si02
#       8
#     2   2   2   2   2   2   2   2
#     4  10  22  43  70  89 126 178 233 274 334 388
#     4  11  22  37  63  96 132 172 223 278 331 391
#     4   9  21  41  62  95 134 166 230 271 324 402
#     4  11  22  36  63  95 133 169 217 278 340 398
#     4  12  22  36  65 102 135 175 221 264 335 421
#     4   9  22  45  69  90 130 174 220 286 342 388
#     4  11  21  37  57  93 135 178 207 268 351 407
#     4  11  21  38  62  93 138 170 217 280 337 399
#
# _framework density 20.089766999999998
#
# number of rings (size 3 to 8) (size 9 to 14) (size 15 to 20)
#    0.750    0.750    2.500    3.375    1.750    0.000 
#    0.000    3.750    0.000    3.750    0.000    0.000 
#    0.000    0.000    0.000    0.000    0.000    0.000 
#
# Total GULP energy -198274.604423 kJ/mol
# GULP energy per Si atom -12392.162776 kJ/mol
# Density = 2.004404 g / cm^3
# Si number density = 20.089767 Si / 1000 Ang^3
#
#
#
# Elastic Constant Matrix: (Units=GPa)
#
#
# Indices 1 2 3 4 5 6 
#
# 1 112.0034 39.6176 59.5338 0.6005 -0.3082 -20.1982
# 2 39.6176 91.5156 47.4524 0.0587 9.9788 -26.0434
# 3 59.5338 47.4524 126.4938 3.5021 2.9410 -11.0692
# 4 0.6005 0.0587 3.5021 33.8453 -5.6521 7.2662
# 5 -0.3082 9.9788 2.9410 -5.6521 33.1230 -0.4991
# 6 -20.1982 -26.0434 -11.0692 7.2662 -0.4991 45.2161
#
#
#
# Elastic Compliance Matrix: (Units=1/GPa)
#
#
# Indices 1 2 3 4 5 6 
#
# 1 0.012981 -0.002201 -0.005013 -0.000220 0.001242 0.003352
# 2 -0.002201 0.017024 -0.004476 -0.002079 -0.004986 0.008005
# 3 -0.005013 -0.004476 0.011803 -0.000718 0.000104 -0.001812
# 4 -0.000220 -0.002079 -0.000718 0.032047 0.006058 -0.006554
# 5 0.001242 -0.004986 0.000104 0.006058 0.032685 -0.002904
# 6 0.003352 0.008005 -0.001812 -0.006554 -0.002904 0.028802
#
#
# Mechanical properties :
#
#
# Convention : Reuss Voigt Hill
#
# Bulk Modulus (GPa) = 54.26906 69.24671 61.75788
# Shear Modulus (GPa) = 30.32778 34.66415 32.49597
#
# Velocity S-wave (km/s) = 3.88959 4.15838 4.02623
# Velocity P-wave (km/s) = 6.87341 7.58944 7.24028
#
# Compressibility (1/GPa) = 0.01842671
#
# Stress axis : x y z
#
# Youngs Moduli (GPa) = 77.03766 58.73955 84.72405
#
# Poissons Ratio (x) = 0.12931 0.42471
# Poissons Ratio (y) = 0.16959 0.37926
# Poissons Ratio (z) = 0.38618 0.26294
#
# Static dielectric constant tensor:
#      x y z
#    x 3.574850 -0.049550 0.058530 
#    y -0.049550 3.679860 0.059820 
#    z 0.058530 0.059820 3.446640 
# 
# 
# High freq. dielectric constant tensor:
#      x y z
#    x 1.779210 -0.017830 0.005180 
#    y -0.017830 1.787000 0.007820 
#    z 0.005180 0.007820 1.762010 
# 
# From -- ./inp_files/225842.got.cif
#   From: 2010.06.25/outbox.cif.g09.slc.cpg/sg2_113_cif.got.tgz:225842.got - 2010.06.27 13:26:56.
