data_PCOD8021882
_publ_section_title
;
Structure prediction by ZEFSAII (Michael W. Deem and Ramdas Pophale) SiO2 
 PCOD8021882
Probable space group: P -1
;
_chemical_formula_sum "Si O2"
_cell_formula_units_Z 14
_cell_length_a 9.565060
_cell_length_b 12.508557
_cell_length_c 13.043829
_cell_angle_alpha 120.177926
_cell_angle_beta 145.145406
_cell_angle_gamma 45.981986
_cell_volume 632.659528
_symmetry_space_group_name_H-M "P -1"
_symmetry_group_IT_number 2
_symmetry_cell_setting 'triclinic'
loop_
_space_group_symop_operation_xyz
x,y,z
-x,-y,-z
loop_
_atom_site_type_symbol
_atom_site_label
_atom_site_fract_x
_atom_site_fract_y
_atom_site_fract_z
Si Si1 0.742552 0.662770 0.859650
Si Si2 0.376045 0.716185 0.861490
Si Si3 0.286730 0.597867 0.328287
Si Si4 0.338557 0.616615 0.153215
Si Si5 0.284999 0.069397 0.498725
Si Si6 0.331395 0.852243 0.116752
Si Si7 0.785292 0.135328 0.509323
O O1 0.552507 0.732551 0.883375
O O2 0.886812 0.479344 0.848664
O O3 0.525116 0.743920 0.672421
O O4 0.988545 0.697232 0.008912
O O5 0.518561 0.542820 0.894154
O O6 0.038233 0.786817 0.657497
O O7 0.388308 0.798759 0.008208
O O8 0.500000 0.500000 0.500000
O O9 0.479216 0.588966 0.339841
O O10 0.077521 0.771883 0.324905
O O11 0.382443 0.722911 0.161504
O O12 0.423746 0.115363 0.693065
O O13 0.500000 0.000000 0.500000
O O14 0.266984 0.933117 0.456646
O O15 0.000000 0.000000 0.000000
O O16 0.000000 0.000000 0.500000
#
# Coordination Sequence:
#
# PCOD8021882 Si02
#       7
#     2   2   2   2   2   2   2
#     4  10  22  44  69  98 137 172 224 293 340 401
#     4  11  24  46  69 100 138 177 235 280 342 412
#     4   9  20  38  65  95 131 170 214 275 339 395
#     4  11  24  46  69  99 138 177 228 285 342 407
#     4  12  25  44  69  97 144 181 224 288 337 405
#     4  12  26  46  70 100 140 187 228 277 345 408
#     4  11  22  41  66  98 133 174 230 279 337 405
#
# _framework density 22.128805
#
# number of rings (size 3 to 8) (size 9 to 14) (size 15 to 20)
#    0.000    1.143    2.857    3.857    0.000    2.857 
#    5.143    2.143    0.000    0.000    0.000    0.000 
#    0.000    0.000    0.000    0.000    0.000    0.000 
#
# Total GULP energy -173529.879146 kJ/mol
# GULP energy per Si atom -12394.991368 kJ/mol
# Density = 2.207844 g / cm^3
# Si number density = 22.128805 Si / 1000 Ang^3
#
#
#
# Elastic Constant Matrix: (Units=GPa)
#
#
# Indices 1 2 3 4 5 6 
#
# 1 99.4860 42.8548 32.8855 1.8004 -7.9989 -5.8121
# 2 42.8548 127.1374 39.1062 19.1782 -4.5048 -7.4080
# 3 32.8855 39.1062 122.3256 14.6121 -6.0660 -11.2823
# 4 1.8004 19.1782 14.6121 40.9458 -5.5179 -5.2316
# 5 -7.9989 -4.5048 -6.0660 -5.5179 38.2294 0.5303
# 6 -5.8121 -7.4080 -11.2823 -5.2316 0.5303 46.0820
#
#
#
# Elastic Compliance Matrix: (Units=1/GPa)
#
#
# Indices 1 2 3 4 5 6 
#
# 1 0.012616 -0.003795 -0.002298 0.002420 0.002168 0.000668
# 2 -0.003795 0.010305 -0.001787 -0.004046 -0.000451 0.000286
# 3 -0.002298 -0.001787 0.009807 -0.002294 0.000512 0.001558
# 4 0.002420 -0.004046 -0.002294 0.027804 0.003648 0.002208
# 5 0.002168 -0.000451 0.000512 0.003648 0.027160 0.000428
# 6 0.000668 0.000286 0.001558 0.002208 0.000428 0.022458
#
#
# Mechanical properties :
#
#
# Convention : Reuss Voigt Hill
#
# Bulk Modulus (GPa) = 58.93494 64.29355 61.61425
# Shear Modulus (GPa) = 38.00378 40.65827 39.33102
#
# Velocity S-wave (km/s) = 4.14864 4.29108 4.22046
# Velocity P-wave (km/s) = 7.04548 7.32587 7.18704
#
# Compressibility (1/GPa) = 0.01696786
#
# Stress axis : x y z
#
# Youngs Moduli (GPa) = 79.26700 97.03675 101.96692
#
# Poissons Ratio (x) = 0.36823 0.23436
# Poissons Ratio (y) = 0.30080 0.18221
# Poissons Ratio (z) = 0.18218 0.17340
#
# Static dielectric constant tensor:
#      x y z
#    x 4.156370 0.075650 -0.271750 
#    y 0.075650 4.289590 0.122210 
#    z -0.271750 0.122210 4.468960 
# 
# 
# High freq. dielectric constant tensor:
#      x y z
#    x 1.867610 0.006360 -0.024550 
#    y 0.006360 1.885340 0.000820 
#    z -0.024550 0.000820 1.880650 
# 
# From -- ./inp_files/392923.got.cif
#   From: 2010.06.25/outbox.cif.g09.slc.cpg/sg2_197_cif.got.tgz:392923.got - 2010.06.27 13:26:56.
