data_PCOD8021426
_publ_section_title
;
Structure prediction by ZEFSAII (Michael W. Deem and Ramdas Pophale) SiO2 
 PCOD8021426
Probable space group: P -1
;
_chemical_formula_sum "Si O2"
_cell_formula_units_Z 14
_cell_length_a 14.838422
_cell_length_b 9.247557
_cell_length_c 15.708786
_cell_angle_alpha 129.042263
_cell_angle_beta 28.513895
_cell_angle_gamma 108.448803
_cell_volume 614.552366
_symmetry_space_group_name_H-M "P -1"
_symmetry_group_IT_number 2
_symmetry_cell_setting 'triclinic'
loop_
_space_group_symop_operation_xyz
x,y,z
-x,-y,-z
loop_
_atom_site_type_symbol
_atom_site_label
_atom_site_fract_x
_atom_site_fract_y
_atom_site_fract_z
Si Si1 0.743102 0.852070 0.857414
Si Si2 0.003407 0.941380 0.252690
Si Si3 0.087659 0.759705 0.293535
Si Si4 0.747003 0.675884 0.614876
Si Si5 0.064362 0.228557 0.084293
Si Si6 0.566901 0.748918 0.132294
Si Si7 0.213981 0.725559 0.822148
O O1 0.830391 0.656225 0.637144
O O2 0.956662 0.859501 0.712292
O O3 0.634918 0.803778 0.007226
O O4 0.542869 0.119687 0.080840
O O5 0.145616 0.764377 0.149084
O O6 0.108762 0.768088 0.019595
O O7 0.718210 0.074331 0.548098
O O8 0.869430 0.749512 0.478373
O O9 0.331774 0.527436 0.051926
O O10 0.000000 0.000000 0.500000
O O11 0.853087 0.409616 0.397571
O O12 0.936406 0.318415 0.131153
O O13 0.289551 0.232842 0.904325
O O14 0.178676 0.956785 0.905635
O O15 0.500000 0.500000 0.500000
#
# Coordination Sequence:
#
# PCOD8021426 Si02
#       7
#     2   2   2   2   2   2   2
#     4  11  22  44  75 105 145 193 232 283 357 420
#     4  12  25  45  73 106 139 187 235 294 358 411
#     4  11  24  45  65 109 149 183 236 285 346 427
#     4  10  22  43  72 102 149 189 231 290 346 428
#     4  10  24  45  71 106 138 183 246 287 352 421
#     4  11  26  45  71 106 147 184 236 291 350 428
#     4  11  25  47  76 101 138 185 242 301 351 419
#
# _framework density 22.780809000000001
#
# number of rings (size 3 to 8) (size 9 to 14) (size 15 to 20)
#    0.000    1.143    4.286    0.857    0.000    8.000 
#    0.000    5.000    0.000    0.000    0.000    0.000 
#    0.000    0.000    0.000    0.000    0.000    0.000 
#
# Total GULP energy -173591.374619 kJ/mol
# GULP energy per Si atom -12399.383901 kJ/mol
# Density = 2.272896 g / cm^3
# Si number density = 22.780809 Si / 1000 Ang^3
#
#
#
# Elastic Constant Matrix: (Units=GPa)
#
#
# Indices 1 2 3 4 5 6 
#
# 1 166.9136 56.7492 76.1710 -5.0013 24.4581 -11.5458
# 2 56.7492 84.3337 58.5922 -1.5709 5.0158 -9.8327
# 3 76.1710 58.5922 146.3060 -8.4437 17.0266 -3.7820
# 4 -5.0013 -1.5709 -8.4437 42.1307 -1.1742 4.6405
# 5 24.4581 5.0158 17.0266 -1.1742 39.1736 -0.0393
# 6 -11.5458 -9.8327 -3.7820 4.6405 -0.0393 35.7579
#
#
#
# Elastic Compliance Matrix: (Units=1/GPa)
#
#
# Indices 1 2 3 4 5 6 
#
# 1 0.009289 -0.003909 -0.002745 0.000115 -0.004101 0.001615
# 2 -0.003909 0.018694 -0.005724 -0.001223 0.002502 0.003434
# 3 -0.002745 -0.005724 0.010877 0.001748 -0.002230 -0.001539
# 4 0.000115 -0.001223 0.001748 0.024417 0.000054 -0.003283
# 5 -0.004101 0.002502 -0.002230 0.000054 0.028738 -0.000847
# 6 0.001615 0.003434 -0.001539 -0.003283 -0.000847 0.029694
#
#
# Mechanical properties :
#
#
# Convention : Reuss Voigt Hill
#
# Bulk Modulus (GPa) = 70.90540 86.73087 78.81814
# Shear Modulus (GPa) = 33.07612 37.14851 35.11231
#
# Velocity S-wave (km/s) = 3.81455 4.04257 3.93021
# Velocity P-wave (km/s) = 7.11293 7.74237 7.43431
#
# Compressibility (1/GPa) = 0.01410330
#
# Stress axis : x y z
#
# Youngs Moduli (GPa) = 107.65536 53.49282 91.93612
#
# Poissons Ratio (x) = 0.20912 0.25235
# Poissons Ratio (y) = 0.42085 0.52626
# Poissons Ratio (z) = 0.29550 0.30621
#
# Static dielectric constant tensor:
#      x y z
#    x 4.456690 0.381620 0.482730 
#    y 0.381620 2.583280 -1.499570 
#    z 0.482730 -1.499570 2.320910 
# 
# 
# High freq. dielectric constant tensor:
#      x y z
#    x 1.910630 -0.007300 -0.006060 
#    y -0.007300 1.894570 0.010370 
#    z -0.006060 0.010370 1.900830 
# 
# From -- ./inp_files/530098.got.cif
#   From: 2010.06.25/outbox.cif.g09.slc.cpg/sg2_266_cif.got.tgz:530098.got - 2010.06.27 13:26:56.
