data_PCOD8021238
_publ_section_title
;
Structure prediction by ZEFSAII (Michael W. Deem and Ramdas Pophale) SiO2 
 PCOD8021238
Probable space group: P -1
;
_chemical_formula_sum "Si O2"
_cell_formula_units_Z 16
_cell_length_a 14.952819
_cell_length_b 11.693968
_cell_length_c 15.234037
_cell_angle_alpha 71.785284
_cell_angle_beta 26.989626
_cell_angle_gamma 53.448457
_cell_volume 778.182110
_symmetry_space_group_name_H-M "P -1"
_symmetry_group_IT_number 2
_symmetry_cell_setting 'triclinic'
loop_
_space_group_symop_operation_xyz
x,y,z
-x,-y,-z
loop_
_atom_site_type_symbol
_atom_site_label
_atom_site_fract_x
_atom_site_fract_y
_atom_site_fract_z
Si Si1 0.583247 0.721707 0.815411
Si Si2 0.947238 0.038274 0.343600
Si Si3 0.787273 0.889405 0.167921
Si Si4 0.538548 0.012084 0.743781
Si Si5 0.640541 0.312951 0.389994
Si Si6 0.335121 0.258081 0.559339
Si Si7 0.967536 0.476097 0.389301
Si Si8 0.797717 0.852755 0.827283
O O1 0.668699 0.822304 0.696769
O O2 0.731017 0.621063 0.803491
O O3 0.710767 0.581546 0.660435
O O4 0.238482 0.857009 0.085955
O O5 0.787973 0.999711 0.539904
O O6 0.743608 0.190926 0.412789
O O7 0.035611 0.094647 0.327483
O O8 0.826909 0.770753 0.235741
O O9 0.579945 0.928140 0.265201
O O10 0.637376 0.074104 0.297618
O O11 0.097589 0.783059 0.883181
O O12 0.276195 0.157003 0.006428
O O13 0.500000 0.500000 0.500000
O O14 0.397472 0.346657 0.542869
O O15 0.108072 0.391311 0.649336
O O16 0.988262 0.336766 0.359864
O O17 0.500000 0.000000 0.000000
#
# Coordination Sequence:
#
# PCOD8021238 Si02
#       8
#     2   2   2   2   2   2   2   2
#     4  10  22  43  69  88 131 166 205 271 315 366
#     4  11  22  42  66  94 124 172 213 253 325 378
#     4  11  23  44  65  93 129 170 209 262 322 368
#     4  11  21  42  68  89 127 169 210 256 320 377
#     4  12  24  40  65  95 130 167 210 261 321 378
#     4  11  24  40  68  96 125 168 218 260 307 389
#     4  11  21  43  66  95 127 168 210 263 319 366
#     4  11  22  41  65  91 127 167 210 258 309 378
#
# _framework density 20.560739999999999
#
# number of rings (size 3 to 8) (size 9 to 14) (size 15 to 20)
#    0.000    1.000    7.500    1.125    0.000    2.000 
#    0.000    5.000    0.000    0.000    0.000    0.000 
#    0.000    0.000    0.000    0.000    0.000    0.000 
#
# Total GULP energy -198441.284647 kJ/mol
# GULP energy per Si atom -12402.580290 kJ/mol
# Density = 2.051394 g / cm^3
# Si number density = 20.560740 Si / 1000 Ang^3
#
#
#
# Elastic Constant Matrix: (Units=GPa)
#
#
# Indices 1 2 3 4 5 6 
#
# 1 109.5527 46.3687 17.1223 3.9376 5.7083 -1.2088
# 2 46.3687 107.5889 49.0948 5.6199 0.6387 -0.9980
# 3 17.1223 49.0948 70.0642 0.3947 6.7675 21.1781
# 4 3.9376 5.6199 0.3947 32.7508 10.0941 -2.2008
# 5 5.7083 0.6387 6.7675 10.0941 37.1180 12.7579
# 6 -1.2088 -0.9980 21.1781 -2.2008 12.7579 46.3098
#
#
#
# Elastic Compliance Matrix: (Units=1/GPa)
#
#
# Indices 1 2 3 4 5 6 
#
# 1 0.011335 -0.005401 0.001141 0.000174 -0.001978 0.000211
# 2 -0.005401 0.017669 -0.012889 -0.002344 0.001595 0.005584
# 3 0.001141 -0.012889 0.026792 0.001240 -0.000994 -0.012168
# 4 0.000174 -0.002344 0.001240 0.034566 -0.011009 0.004062
# 5 -0.001978 0.001595 -0.000994 -0.011009 0.033604 -0.009344
# 6 0.000211 0.005584 -0.012168 0.004062 -0.009344 0.030051
#
#
# Mechanical properties :
#
#
# Convention : Reuss Voigt Hill
#
# Bulk Modulus (GPa) = 46.51805 56.93085 51.72445
# Shear Modulus (GPa) = 25.57770 34.87705 30.22738
#
# Velocity S-wave (km/s) = 3.53087 4.12308 3.83841
# Velocity P-wave (km/s) = 6.26870 7.10039 6.69747
#
# Compressibility (1/GPa) = 0.02149703
#
# Stress axis : x y z
#
# Youngs Moduli (GPa) = 88.22301 56.59677 37.32390
#
# Poissons Ratio (x) = 0.30569 -0.04258
# Poissons Ratio (y) = 0.47651 0.48108
# Poissons Ratio (z) = -0.10066 0.72950
#
# Static dielectric constant tensor:
#      x y z
#    x 4.037700 0.005830 0.214170 
#    y 0.005830 3.768350 0.175500 
#    z 0.214170 0.175500 3.591840 
# 
# 
# High freq. dielectric constant tensor:
#      x y z
#    x 1.820000 -0.004390 0.011420 
#    y -0.004390 1.802300 0.013530 
#    z 0.011420 0.013530 1.789360 
# 
# From -- ./inp_files/531790.got.cif
#   From: 2010.06.25/outbox.cif.g09.slc.cpg/sg2_266_cif.got.tgz:531790.got - 2010.06.27 13:26:56.
