data_PCOD8021439
_publ_section_title
;
Structure prediction by ZEFSAII (Michael W. Deem and Ramdas Pophale) SiO2 
 PCOD8021439
Probable space group: P -1
;
_chemical_formula_sum "Si O2"
_cell_formula_units_Z 14
_cell_length_a 8.539011
_cell_length_b 19.316998
_cell_length_c 9.549405
_cell_angle_alpha 52.303837
_cell_angle_beta 92.436100
_cell_angle_gamma 134.775937
_cell_volume 639.474293
_symmetry_space_group_name_H-M "P -1"
_symmetry_group_IT_number 2
_symmetry_cell_setting 'triclinic'
loop_
_space_group_symop_operation_xyz
x,y,z
-x,-y,-z
loop_
_atom_site_type_symbol
_atom_site_label
_atom_site_fract_x
_atom_site_fract_y
_atom_site_fract_z
Si Si1 0.125536 0.703202 0.939433
Si Si2 0.252477 0.594957 0.501389
Si Si3 0.684922 0.847145 0.761481
Si Si4 0.203952 0.866032 0.984285
Si Si5 0.156465 0.488282 0.087787
Si Si6 0.771503 0.234783 0.632181
Si Si7 0.836223 0.860260 0.053943
O O1 0.152026 0.805312 0.901105
O O2 0.914930 0.531912 0.221640
O O3 0.462609 0.825723 0.763503
O O4 0.926844 0.627534 0.885048
O O5 0.412888 0.763382 0.348828
O O6 0.000000 0.500000 0.500000
O O7 0.528214 0.673131 0.344926
O O8 0.750972 0.874505 0.895267
O O9 0.509818 0.679222 0.895932
O O10 0.000000 0.000000 0.500000
O O11 0.099883 0.741958 0.244546
O O12 0.026143 0.869167 0.999155
O O13 0.562806 0.059815 0.771903
O O14 0.045775 0.396530 0.344319
O O15 0.000000 0.500000 0.000000
O O16 0.000000 0.000000 0.000000
#
# Coordination Sequence:
#
# PCOD8021439 Si02
#       7
#     2   2   2   2   2   2   2
#     4  11  24  44  73  99 131 189 226 281 343 407
#     4  12  20  43  72  94 135 180 235 272 343 414
#     4  11  25  44  70 102 136 175 236 283 333 413
#     4  11  26  41  68 106 139 177 230 297 339 395
#     4  10  22  43  72  97 130 190 227 267 341 419
#     4  11  21  43  69  99 141 179 229 280 346 410
#     4  12  26  42  70 102 134 182 230 285 341 408
#
# _framework density 21.892982
#
# number of rings (size 3 to 8) (size 9 to 14) (size 15 to 20)
#    0.000    0.857    7.143    0.000    8.000    1.143 
#    0.000    0.714    0.000    0.000    0.000    0.000 
#    0.000    0.000    0.000    0.000    0.000    0.000 
#
# Total GULP energy -173453.088517 kJ/mol
# GULP energy per Si atom -12389.506323 kJ/mol
# Density = 2.184315 g / cm^3
# Si number density = 21.892982 Si / 1000 Ang^3
#
#
#
# Elastic Constant Matrix: (Units=GPa)
#
#
# Indices 1 2 3 4 5 6 
#
# 1 66.9158 36.6231 22.5362 -6.9115 -19.0768 -17.2024
# 2 36.6231 167.8176 36.0617 1.1264 -21.2352 -15.2860
# 3 22.5362 36.0617 133.9686 -8.4298 -24.7069 4.6028
# 4 -6.9115 1.1264 -8.4298 29.2911 -0.5068 0.1708
# 5 -19.0768 -21.2352 -24.7069 -0.5068 33.0613 -0.4445
# 6 -17.2024 -15.2860 4.6028 0.1708 -0.4445 35.2641
#
#
#
# Elastic Compliance Matrix: (Units=1/GPa)
#
#
# Indices 1 2 3 4 5 6 
#
# 1 0.023094 -0.002463 -0.001206 0.005327 0.011065 0.010469
# 2 -0.002463 0.007264 -0.001264 -0.001197 0.002310 0.002147
# 3 -0.001206 -0.001264 0.009243 0.002531 0.005407 -0.002287
# 4 0.005327 -0.001197 0.002531 0.036245 0.004774 0.001634
# 5 0.011065 0.002310 0.005407 0.004774 0.042313 0.006204
# 6 0.010469 0.002147 -0.002287 0.001634 0.006204 0.034764
#
#
# Mechanical properties :
#
#
# Convention : Reuss Voigt Hill
#
# Bulk Modulus (GPa) = 33.62959 62.12710 47.87834
# Shear Modulus (GPa) = 28.95196 37.75536 33.35366
#
# Velocity S-wave (km/s) = 3.64047 4.15727 3.90742
# Velocity P-wave (km/s) = 5.75021 7.17517 6.50185
#
# Compressibility (1/GPa) = 0.02973572
#
# Stress axis : x y z
#
# Youngs Moduli (GPa) = 43.30062 137.66714 108.19472
#
# Poissons Ratio (x) = 0.33904 0.13046
# Poissons Ratio (y) = 0.10664 0.13676
# Poissons Ratio (z) = 0.05221 0.17401
#
# Static dielectric constant tensor:
#      x y z
#    x 3.897260 -0.237240 -0.041990 
#    y -0.237240 4.643850 -0.008610 
#    z -0.041990 -0.008610 3.851190 
# 
# 
# High freq. dielectric constant tensor:
#      x y z
#    x 1.820020 -0.006360 -0.003830 
#    y -0.006360 1.890270 0.001130 
#    z -0.003830 0.001130 1.866110 
# 
# From -- ./inp_files/181761.got.cif
#   From: 2010.06.25/outbox.cif.g09.slc.cpg/sg2_91_cif.got.tgz:181761.got - 2010.06.27 13:26:56.
