data_PCOD8021790
_publ_section_title
;
Structure prediction by ZEFSAII (Michael W. Deem and Ramdas Pophale) SiO2 
 PCOD8021790
Probable space group: P -1
;
_chemical_formula_sum "Si O2"
_cell_formula_units_Z 16
_cell_length_a 6.185549
_cell_length_b 17.312299
_cell_length_c 15.115256
_cell_angle_alpha 27.175314
_cell_angle_beta 65.986494
_cell_angle_gamma 73.906992
_cell_volume 661.162639
_symmetry_space_group_name_H-M "P -1"
_symmetry_group_IT_number 2
_symmetry_cell_setting 'triclinic'
loop_
_space_group_symop_operation_xyz
x,y,z
-x,-y,-z
loop_
_atom_site_type_symbol
_atom_site_label
_atom_site_fract_x
_atom_site_fract_y
_atom_site_fract_z
Si Si1 0.768624 0.135454 0.688220
Si Si2 0.455461 0.772089 0.844070
Si Si3 0.438636 0.777306 0.046597
Si Si4 0.721631 0.718703 0.606411
Si Si5 0.557447 0.598877 0.572449
Si Si6 0.958837 0.186963 0.795191
Si Si7 0.285637 0.864656 0.607632
Si Si8 0.853096 0.633162 0.852324
O O1 0.649300 0.288839 0.512350
O O2 0.789649 0.170785 0.753302
O O3 0.033612 0.140365 0.598725
O O4 0.612624 0.946702 0.883808
O O5 0.242534 0.765820 0.812535
O O6 0.607653 0.619093 0.965902
O O7 0.653221 0.929624 0.606644
O O8 0.386904 0.801839 0.925800
O O9 0.543916 0.604133 0.226148
O O10 0.178971 0.747562 0.166827
O O11 0.657805 0.595686 0.658324
O O12 0.507353 0.813788 0.568501
O O13 0.776914 0.595315 0.801924
O O14 0.783574 0.682025 0.388196
O O15 0.000000 0.000000 0.000000
O O16 0.038849 0.816801 0.642360
O O17 0.000000 0.500000 0.000000
#
# Coordination Sequence:
#
# PCOD8021790 Si02
#       8
#     2   2   2   2   2   2   2   2
#     4  11  25  48  71 104 137 185 229 285 355 414
#     4  10  24  40  64 103 129 180 234 280 336 411
#     4  12  25  44  74 104 140 180 236 289 345 413
#     4  10  23  42  71  95 140 186 226 282 347 405
#     4  11  25  45  73 103 143 179 234 289 346 413
#     4  11  25  50  73 103 142 185 223 287 359 419
#     4  10  22  44  68  91 142 183 225 284 342 401
#     4  11  24  39  66  97 138 183 222 276 341 405
#
# _framework density 24.199797
#
# number of rings (size 3 to 8) (size 9 to 14) (size 15 to 20)
#    0.000    1.250    1.250    3.375    7.000    3.500 
#    4.500    0.000    0.000    0.000    0.000    0.000 
#    0.000    0.000    0.000    0.000    0.000    0.000 
#
# Total GULP energy -198324.255777 kJ/mol
# GULP energy per Si atom -12395.265986 kJ/mol
# Density = 2.414472 g / cm^3
# Si number density = 24.199797 Si / 1000 Ang^3
#
#
#
# Elastic Constant Matrix: (Units=GPa)
#
#
# Indices 1 2 3 4 5 6 
#
# 1 102.7179 38.4388 23.8082 10.6058 8.5245 5.7425
# 2 38.4388 107.5805 31.5990 26.4813 5.2380 -1.0464
# 3 23.8082 31.5990 87.0101 -5.0656 7.4793 2.5301
# 4 10.6058 26.4813 -5.0656 57.6242 -4.3643 4.7016
# 5 8.5245 5.2380 7.4793 -4.3643 38.2860 4.9360
# 6 5.7425 -1.0464 2.5301 4.7016 4.9360 20.2921
#
#
#
# Elastic Compliance Matrix: (Units=1/GPa)
#
#
# Indices 1 2 3 4 5 6 
#
# 1 0.011801 -0.003496 -0.001784 -0.000609 -0.001511 -0.002789
# 2 -0.003496 0.013490 -0.004305 -0.006377 -0.001476 0.004059
# 3 -0.001784 -0.004305 0.013905 0.003615 -0.001056 -0.002031
# 4 -0.000609 -0.006377 0.003615 0.021514 0.003588 -0.006465
# 5 -0.001511 -0.001476 -0.001056 0.003588 0.028202 -0.007208
# 6 -0.002789 0.004059 -0.002031 -0.006465 -0.007208 0.053783
#
#
# Mechanical properties :
#
#
# Convention : Reuss Voigt Hill
#
# Bulk Modulus (GPa) = 49.93488 53.88893 51.91190
# Shear Modulus (GPa) = 29.66632 36.80464 33.23548
#
# Velocity S-wave (km/s) = 3.50507 3.90406 3.70993
# Velocity P-wave (km/s) = 6.08769 6.52985 6.31264
#
# Compressibility (1/GPa) = 0.02002608
#
# Stress axis : x y z
#
# Youngs Moduli (GPa) = 84.73534 74.12762 71.91802
#
# Poissons Ratio (x) = 0.25918 0.12830
# Poissons Ratio (y) = 0.29627 0.30960
# Poissons Ratio (z) = 0.15116 0.31911
#
# Static dielectric constant tensor:
#      x y z
#    x 4.979670 0.382320 -0.358050 
#    y 0.382320 4.867360 -0.029530 
#    z -0.358050 -0.029530 4.787510 
# 
# 
# High freq. dielectric constant tensor:
#      x y z
#    x 1.962830 0.003450 0.002120 
#    y 0.003450 1.964150 -0.001630 
#    z 0.002120 -0.001630 1.973620 
# 
# From -- ./inp_files/485123.got.cif
#   From: 2010.06.25/outbox.cif.g09.slc.cpg/sg2_243_cif.got.tgz:485123.got - 2010.06.27 13:26:56.
