data_PCOD8021271
_publ_section_title
;
Structure prediction by ZEFSAII (Michael W. Deem and Ramdas Pophale) SiO2 
 PCOD8021271
Probable space group: P -1
;
_chemical_formula_sum "Si O2"
_cell_formula_units_Z 14
_cell_length_a 23.483248
_cell_length_b 9.213654
_cell_length_c 14.489714
_cell_angle_alpha 139.695302
_cell_angle_beta 18.406725
_cell_angle_gamma 140.663512
_cell_volume 620.988408
_symmetry_space_group_name_H-M "P -1"
_symmetry_group_IT_number 2
_symmetry_cell_setting 'triclinic'
loop_
_space_group_symop_operation_xyz
x,y,z
-x,-y,-z
loop_
_atom_site_type_symbol
_atom_site_label
_atom_site_fract_x
_atom_site_fract_y
_atom_site_fract_z
Si Si1 0.658603 0.952148 0.905253
Si Si2 0.364544 0.070776 0.318362
Si Si3 0.375841 0.465372 0.376254
Si Si4 0.718060 0.090093 0.235646
Si Si5 0.954324 0.897917 0.919130
Si Si6 0.061913 0.585797 0.344026
Si Si7 0.746331 0.798820 0.892646
O O1 0.770209 0.189404 0.801945
O O2 0.699170 0.736902 0.681137
O O3 0.706578 0.924489 0.923068
O O4 0.445003 0.983101 0.246242
O O5 0.394169 0.347395 0.390587
O O6 0.144446 0.956218 0.594398
O O7 0.500000 0.000000 0.000000
O O8 0.235329 0.631868 0.688258
O O9 0.568812 0.618415 0.117408
O O10 0.500000 0.000000 0.500000
O O11 0.826560 0.005048 0.942786
O O12 0.788795 0.992173 0.172950
O O13 0.881463 0.619878 0.899477
O O14 0.000000 0.000000 0.000000
O O15 0.000000 0.500000 0.500000
O O16 0.897202 0.653768 0.572919
#
# Coordination Sequence:
#
# PCOD8021271 Si02
#       7
#     2   2   2   2   2   2   2
#     4  11  24  40  72 105 133 183 248 296 349 423
#     4  10  23  45  70 105 139 188 240 286 358 430
#     4  10  22  43  69  96 141 184 232 294 364 419
#     4  10  25  44  70  99 145 189 232 291 373 415
#     4  12  28  46  74 109 145 191 242 297 359 430
#     4  12  23  45  70  99 146 188 244 293 356 428
#     4  11  23  42  69 101 138 188 242 294 353 426
#
# _framework density 22.544703999999999
#
# number of rings (size 3 to 8) (size 9 to 14) (size 15 to 20)
#    0.000    1.143    1.429    5.143    8.000    1.714 
#    0.000    1.429    0.000    0.000    0.000    0.000 
#    0.000    0.000    0.000    0.000    0.000    0.000 
#
# Total GULP energy -173441.752935 kJ/mol
# GULP energy per Si atom -12388.696638 kJ/mol
# Density = 2.249339 g / cm^3
# Si number density = 22.544704 Si / 1000 Ang^3
#
#
#
# Elastic Constant Matrix: (Units=GPa)
#
#
# Indices 1 2 3 4 5 6 
#
# 1 142.7257 35.9457 36.6757 28.9631 -26.1607 -0.4179
# 2 35.9457 153.7035 51.0395 35.8214 -4.7099 12.6056
# 3 36.6757 51.0395 85.3754 20.2479 -23.6388 -1.7001
# 4 28.9631 35.8214 20.2479 55.8593 -1.7641 0.1484
# 5 -26.1607 -4.7099 -23.6388 -1.7641 36.8264 16.8165
# 6 -0.4179 12.6056 -1.7001 0.1484 16.8165 36.1497
#
#
#
# Elastic Compliance Matrix: (Units=1/GPa)
#
#
# Indices 1 2 3 4 5 6 
#
# 1 0.009527 -0.000517 -0.000824 -0.004066 0.007435 -0.003190
# 2 -0.000517 0.009364 -0.004774 -0.004032 -0.001065 -0.002984
# 3 -0.000824 -0.004774 0.018965 -0.002990 0.012273 -0.003150
# 4 -0.004066 -0.004032 -0.002990 0.023481 -0.005982 0.003905
# 5 0.007435 -0.001065 0.012273 -0.005982 0.050037 -0.022218
# 6 -0.003190 -0.002984 -0.003150 0.003905 -0.022218 0.038838
#
#
# Mechanical properties :
#
#
# Convention : Reuss Voigt Hill
#
# Bulk Modulus (GPa) = 39.02276 69.90294 54.46285
# Shear Modulus (GPa) = 29.24254 42.97665 36.10960
#
# Velocity S-wave (km/s) = 3.60542 4.37084 4.00645
# Velocity P-wave (km/s) = 5.88887 7.51971 6.75369
#
# Compressibility (1/GPa) = 0.02562607
#
# Stress axis : x y z
#
# Youngs Moduli (GPa) = 104.96501 106.79214 52.72756
#
# Poissons Ratio (x) = 0.05525 0.04345
# Poissons Ratio (y) = 0.05430 0.25171
# Poissons Ratio (z) = 0.08650 0.50980
#
# Static dielectric constant tensor:
#      x y z
#    x 4.294820 -0.080650 -0.346790 
#    y -0.080650 4.685920 0.653400 
#    z -0.346790 0.653400 4.654630 
# 
# 
# High freq. dielectric constant tensor:
#      x y z
#    x 1.886350 -0.004680 -0.021130 
#    y -0.004680 1.898520 0.019430 
#    z -0.021130 0.019430 1.885500 
# 
# From -- ./inp_files/542595.got.cif
#   From: 2010.06.25/outbox.cif.g09.slc.cpg/sg2_272_cif.got.tgz:542595.got - 2010.06.27 13:26:56.
