data_PCOD8021080
_publ_section_title
;
Structure prediction by ZEFSAII (Michael W. Deem and Ramdas Pophale) SiO2 
 PCOD8021080
Probable space group: P -1
;
_chemical_formula_sum "Si O2"
_cell_formula_units_Z 16
_cell_length_a 6.729905
_cell_length_b 18.447484
_cell_length_c 8.666428
_cell_angle_alpha 76.555975
_cell_angle_beta 93.119220
_cell_angle_gamma 137.558011
_cell_volume 694.849794
_symmetry_space_group_name_H-M "P -1"
_symmetry_group_IT_number 2
_symmetry_cell_setting 'triclinic'
loop_
_space_group_symop_operation_xyz
x,y,z
-x,-y,-z
loop_
_atom_site_type_symbol
_atom_site_label
_atom_site_fract_x
_atom_site_fract_y
_atom_site_fract_z
Si Si1 0.097494 0.671090 0.679284
Si Si2 0.712637 0.423012 0.413065
Si Si3 0.561648 0.523341 0.170836
Si Si4 0.963739 0.772543 0.436255
Si Si5 0.362766 0.835882 0.871881
Si Si6 0.955799 0.045419 0.612362
Si Si7 0.068131 0.224809 0.905088
Si Si8 0.734685 0.875284 0.110144
O O1 0.295987 0.656321 0.644901
O O2 0.193890 0.723696 0.827782
O O3 0.750836 0.552595 0.717170
O O4 0.143773 0.754574 0.526916
O O5 0.735089 0.499317 0.258427
O O6 0.397033 0.341075 0.530478
O O7 0.000000 0.500000 0.500000
O O8 0.745533 0.647948 0.148917
O O9 0.500000 0.500000 0.000000
O O10 0.043424 0.869229 0.492201
O O11 0.096701 0.822787 0.245556
O O12 0.431951 0.824220 0.053665
O O13 0.644876 0.944062 0.736635
O O14 0.137816 0.838257 0.917156
O O15 0.239669 0.119406 0.705509
O O16 0.000000 0.000000 0.500000
O O17 0.265222 0.205974 0.928421
O O18 0.000000 0.000000 0.000000
#
# Coordination Sequence:
#
# PCOD8021080 Si02
#       8
#     2   2   2   2   2   2   2   2
#     4  11  24  42  67  97 131 173 225 273 330 402
#     4  11  24  43  68  96 133 179 230 268 337 406
#     4  11  24  42  64 101 138 173 218 284 333 382
#     4  10  24  43  65  96 133 173 219 283 331 387
#     4  11  24  40  66  96 126 177 217 266 335 400
#     4  10  22  43  67  95 129 171 222 278 334 390
#     4  11  23  42  66  93 135 170 218 268 335 394
#     4   9  23  42  64  93 129 168 212 274 327 382
#
# _framework density 23.026561000000001
#
# number of rings (size 3 to 8) (size 9 to 14) (size 15 to 20)
#    0.000    1.500    1.250    2.250    1.750   15.500 
#    0.000    1.250    0.000    0.000    0.000    0.000 
#    0.000    0.000    0.000    0.000    0.000    0.000 
#
# Total GULP energy -198281.860431 kJ/mol
# GULP energy per Si atom -12392.616277 kJ/mol
# Density = 2.297415 g / cm^3
# Si number density = 23.026561 Si / 1000 Ang^3
#
#
#
# Elastic Constant Matrix: (Units=GPa)
#
#
# Indices 1 2 3 4 5 6 
#
# 1 80.0272 45.5486 32.6632 0.7154 6.9815 -16.8193
# 2 45.5486 105.6468 28.1600 6.6827 0.6591 -21.4293
# 3 32.6632 28.1600 85.5501 4.7335 -6.8867 -5.2635
# 4 0.7154 6.6827 4.7335 41.5586 -4.4977 2.6342
# 5 6.9815 0.6591 -6.8867 -4.4977 43.2284 0.3712
# 6 -16.8193 -21.4293 -5.2635 2.6342 0.3712 44.3960
#
#
#
# Elastic Compliance Matrix: (Units=1/GPa)
#
#
# Indices 1 2 3 4 5 6 
#
# 1 0.019339 -0.006140 -0.005480 0.000625 -0.003870 0.003708
# 2 -0.006140 0.013541 -0.001722 -0.002110 0.000256 0.004129
# 3 -0.005480 -0.001722 0.014579 -0.000875 0.003153 -0.001153
# 4 0.000625 -0.002110 -0.000875 0.024902 0.002403 -0.002383
# 5 -0.003870 0.000256 0.003153 0.002403 0.024518 -0.001316
# 6 0.003708 0.004129 -0.001153 -0.002383 -0.001316 0.025938
#
#
# Mechanical properties :
#
#
# Convention : Reuss Voigt Hill
#
# Bulk Modulus (GPa) = 48.13473 53.77420 50.95447
# Shear Modulus (GPa) = 31.96416 36.82676 34.39546
#
# Velocity S-wave (km/s) = 3.72982 4.00348 3.86907
# Velocity P-wave (km/s) = 6.28475 6.69136 6.49124
#
# Compressibility (1/GPa) = 0.02077502
#
# Stress axis : x y z
#
# Youngs Moduli (GPa) = 51.71000 73.85007 68.58993
#
# Poissons Ratio (x) = 0.45345 0.37590
# Poissons Ratio (y) = 0.31750 0.11808
# Poissons Ratio (z) = 0.28339 0.12713
#
# Static dielectric constant tensor:
#      x y z
#    x 3.869210 -1.102160 -0.877820 
#    y -1.102160 5.918360 1.251610 
#    z -0.877820 1.251610 4.953950 
# 
# 
# High freq. dielectric constant tensor:
#      x y z
#    x 1.909270 -0.011950 0.000180 
#    y -0.011950 1.918170 0.003660 
#    z 0.000180 0.003660 1.910280 
# 
# From -- ./inp_files/138961.got.cif
#   From: 2010.06.25/outbox.cif.g09.slc.cpg/sg2_70_cif.got.tgz:138961.got - 2010.06.27 13:26:56.
