data_PCOD8021675
_publ_section_title
;
Structure prediction by ZEFSAII (Michael W. Deem and Ramdas Pophale) SiO2 
 PCOD8021675
Probable space group: P -1
;
_chemical_formula_sum "Si O2"
_cell_formula_units_Z 16
_cell_length_a 8.509247
_cell_length_b 15.341560
_cell_length_c 9.489797
_cell_angle_alpha 63.748131
_cell_angle_beta 128.110923
_cell_angle_gamma 82.211304
_cell_volume 712.825559
_symmetry_space_group_name_H-M "P -1"
_symmetry_group_IT_number 2
_symmetry_cell_setting 'triclinic'
loop_
_space_group_symop_operation_xyz
x,y,z
-x,-y,-z
loop_
_atom_site_type_symbol
_atom_site_label
_atom_site_fract_x
_atom_site_fract_y
_atom_site_fract_z
Si Si1 0.867782 0.059124 0.029892
Si Si2 0.608327 0.447757 0.751347
Si Si3 0.084752 0.200347 0.144386
Si Si4 0.732720 0.602978 0.232307
Si Si5 0.463280 0.412607 0.127526
Si Si6 0.972492 0.175363 0.596307
Si Si7 0.376748 0.098679 0.660466
Si Si8 0.291671 0.173988 0.985200
O O1 0.577418 0.124637 0.792965
O O2 0.928211 0.148317 0.058410
O O3 0.977027 0.954184 0.281854
O O4 0.000000 0.000000 0.000000
O O5 0.500000 0.500000 0.500000
O O6 0.458104 0.406383 0.777332
O O7 0.601993 0.547247 0.774232
O O8 0.890870 0.338632 0.974250
O O9 0.281757 0.132720 0.424902
O O10 0.259116 0.186342 0.125209
O O11 0.000000 0.500000 0.500000
O O12 0.741277 0.584341 0.080287
O O13 0.658773 0.735530 0.121846
O O14 0.694006 0.276322 0.336911
O O15 0.500000 0.500000 0.000000
O O16 0.144403 0.178854 0.574216
O O17 0.035165 0.204463 0.761766
O O18 0.491730 0.959185 0.847733
#
# Coordination Sequence:
#
# PCOD8021675 Si02
#       8
#     2   2   2   2   2   2   2   2
#     4  11  24  42  68 100 135 182 217 268 349 392
#     4  11  25  46  69  97 134 174 228 281 333 399
#     4  12  25  45  68  99 139 177 224 279 331 405
#     4  11  24  42  69  96 129 180 225 275 336 399
#     4  10  22  44  66  94 132 176 223 274 335 397
#     4  11  23  43  69  94 138 173 222 279 328 405
#     4  11  25  42  67 102 140 171 224 277 332 404
#     4  11  23  43  66  97 137 173 218 274 338 399
#
# _framework density 22.445885000000001
#
# number of rings (size 3 to 8) (size 9 to 14) (size 15 to 20)
#    0.000    1.000    2.500    6.375    5.250    0.500 
#    0.000    1.250    0.000    0.000    0.000    0.000 
#    0.000    0.000    0.000    0.000    0.000    0.000 
#
# Total GULP energy -198357.688547 kJ/mol
# GULP energy per Si atom -12397.355534 kJ/mol
# Density = 2.239480 g / cm^3
# Si number density = 22.445885 Si / 1000 Ang^3
#
#
#
# Elastic Constant Matrix: (Units=GPa)
#
#
# Indices 1 2 3 4 5 6 
#
# 1 66.4521 28.4362 19.6756 2.1599 -7.5438 -4.0799
# 2 28.4362 94.6973 53.5189 0.9746 5.8325 -4.2493
# 3 19.6756 53.5189 153.3139 12.2296 0.0525 -0.9812
# 4 2.1599 0.9746 12.2296 29.9416 -5.2960 -4.5318
# 5 -7.5438 5.8325 0.0525 -5.2960 34.7440 -0.9044
# 6 -4.0799 -4.2493 -0.9812 -4.5318 -0.9044 35.8542
#
#
#
# Elastic Compliance Matrix: (Units=1/GPa)
#
#
# Indices 1 2 3 4 5 6 
#
# 1 0.018154 -0.005441 -0.000434 0.000150 0.004919 0.001552
# 2 -0.005441 0.015081 -0.004667 0.001365 -0.003469 0.001126
# 3 -0.000434 -0.004667 0.008471 -0.003372 0.000142 -0.000793
# 4 0.000150 0.001365 -0.003372 0.036422 0.005486 0.004828
# 5 0.004919 -0.003469 0.000142 0.005486 0.031311 0.001636
# 6 0.001552 0.001126 -0.000793 0.004828 0.001636 0.028831
#
#
# Mechanical properties :
#
#
# Convention : Reuss Voigt Hill
#
# Bulk Modulus (GPa) = 48.48984 57.52497 53.00740
# Shear Modulus (GPa) = 30.07921 34.29679 32.18800
#
# Velocity S-wave (km/s) = 3.66468 3.91317 3.79096
# Velocity P-wave (km/s) = 6.28939 6.78978 6.54437
#
# Compressibility (1/GPa) = 0.02062288
#
# Stress axis : x y z
#
# Youngs Moduli (GPa) = 55.08404 66.30699 118.04669
#
# Poissons Ratio (x) = 0.36077 0.05126
# Poissons Ratio (y) = 0.29970 0.55090
# Poissons Ratio (z) = 0.02392 0.30944
#
# Static dielectric constant tensor:
#      x y z
#    x 4.211070 0.104340 -0.161360 
#    y 0.104340 4.427650 0.169150 
#    z -0.161360 0.169150 4.319520 
# 
# 
# High freq. dielectric constant tensor:
#      x y z
#    x 1.874120 -0.006290 -0.009080 
#    y -0.006290 1.888510 0.003580 
#    z -0.009080 0.003580 1.900430 
# 
# From -- ./inp_files/187250.got.cif
#   From: 2010.06.25/outbox.cif.g09.slc.cpg/sg2_94_cif.got.tgz:187250.got - 2010.06.27 13:26:56.
