data_PCOD8021660
_publ_section_title
;
Structure prediction by ZEFSAII (Michael W. Deem and Ramdas Pophale) SiO2 
 PCOD8021660
Probable space group: P -1
;
_chemical_formula_sum "Si O2"
_cell_formula_units_Z 14
_cell_length_a 7.095386
_cell_length_b 11.102837
_cell_length_c 8.747018
_cell_angle_alpha 89.908959
_cell_angle_beta 97.552166
_cell_angle_gamma 75.493225
_cell_volume 660.896833
_symmetry_space_group_name_H-M "P -1"
_symmetry_group_IT_number 2
_symmetry_cell_setting 'triclinic'
loop_
_space_group_symop_operation_xyz
x,y,z
-x,-y,-z
loop_
_atom_site_type_symbol
_atom_site_label
_atom_site_fract_x
_atom_site_fract_y
_atom_site_fract_z
Si Si1 0.100759 0.576831 0.320980
Si Si2 0.750298 0.470748 0.337131
Si Si3 0.897674 0.858052 0.365739
Si Si4 0.110789 0.059556 0.298503
Si Si5 0.725163 0.230231 0.154274
Si Si6 0.520995 0.023398 0.178775
Si Si7 0.590808 0.402745 0.880358
O O1 0.248900 0.536710 0.479497
O O2 0.223347 0.561902 0.177939
O O3 0.958589 0.484438 0.295502
O O4 0.971143 0.716108 0.325941
O O5 0.707600 0.346835 0.263354
O O6 0.577558 0.591114 0.265787
O O7 0.877953 0.864973 0.546045
O O8 0.685638 0.911350 0.268426
O O9 0.057471 0.929850 0.327495
O O10 0.317796 0.029258 0.238691
O O11 0.947155 0.144765 0.170829
O O12 0.581114 0.152924 0.209799
O O13 0.662212 0.269214 0.972029
O O14 0.500000 0.000000 0.000000
O O15 0.500000 0.500000 0.000000
#
# Coordination Sequence:
#
# PCOD8021660 Si02
#       7
#     2   2   2   2   2   2   2
#     4  11  23  41  70  92 126 166 215 260 309 376
#     4  10  23  44  63  96 122 165 216 262 310 366
#     4  10  23  42  66  95 122 169 211 261 314 365
#     4  10  22  44  66  89 131 164 211 261 312 374
#     4  10  23  42  62  95 127 168 205 257 322 367
#     4  11  26  40  65  97 126 166 210 256 319 384
#     4  10  24  41  63  93 129 167 207 258 316 371
#
# _framework density 21.183339
#
# number of rings (size 3 to 8) (size 9 to 14) (size 15 to 20)
#    0.000    1.714    1.429    0.857    6.000    5.714 
#    2.571    0.000    0.000    0.000    0.000    0.000 
#    0.000    0.000    0.000    0.000    0.000    0.000 
#
# Total GULP energy -173631.436632 kJ/mol
# GULP energy per Si atom -12402.245474 kJ/mol
# Density = 2.113512 g / cm^3
# Si number density = 21.183339 Si / 1000 Ang^3
#
#
#
# Elastic Constant Matrix: (Units=GPa)
#
#
# Indices 1 2 3 4 5 6 
#
# 1 146.4895 37.3638 67.7758 -6.7821 -11.8456 -13.6565
# 2 37.3638 84.0849 54.3481 -8.5426 5.9866 -5.8125
# 3 67.7758 54.3481 110.4091 -24.9887 0.3700 -14.8931
# 4 -6.7821 -8.5426 -24.9887 41.6053 -7.6580 9.2222
# 5 -11.8456 5.9866 0.3700 -7.6580 45.3428 -0.9672
# 6 -13.6565 -5.8125 -14.8931 9.2222 -0.9672 23.7101
#
#
#
# Elastic Compliance Matrix: (Units=1/GPa)
#
#
# Indices 1 2 3 4 5 6 
#
# 1 0.010166 -0.000890 -0.005934 -0.002271 0.002500 0.002895
# 2 -0.000890 0.017964 -0.008900 -0.002117 -0.002911 -0.000994
# 3 -0.005934 -0.008900 0.019412 0.008281 0.000938 0.003411
# 4 -0.002271 -0.002117 0.008281 0.030940 0.004663 -0.008470
# 5 0.002500 -0.002911 0.000938 0.004663 0.023882 0.000476
# 6 0.002895 -0.000994 0.003411 -0.008470 0.000476 0.049056
#
#
# Mechanical properties :
#
#
# Convention : Reuss Voigt Hill
#
# Bulk Modulus (GPa) = 62.13678 73.32877 67.73277
# Shear Modulus (GPa) = 26.56289 34.23136 30.39713
#
# Velocity S-wave (km/s) = 3.54496 4.02426 3.79219
# Velocity P-wave (km/s) = 6.79354 7.50228 7.15669
#
# Compressibility (1/GPa) = 0.01609353
#
# Stress axis : x y z
#
# Youngs Moduli (GPa) = 98.36779 55.66664 51.51485
#
# Poissons Ratio (x) = 0.04957 0.30569
# Poissons Ratio (y) = 0.08759 0.45846
# Poissons Ratio (z) = 0.58372 0.49541
#
# Static dielectric constant tensor:
#      x y z
#    x 3.777070 -0.031470 0.379670 
#    y -0.031470 3.900960 -0.476540 
#    z 0.379670 -0.476540 4.100000 
# 
# 
# High freq. dielectric constant tensor:
#      x y z
#    x 1.835130 -0.000770 0.010830 
#    y -0.000770 1.827950 -0.019940 
#    z 0.010830 -0.019940 1.840990 
# 
# From -- ./inp_files/26959.got.cif
#   From: 2010.06.25/outbox.cif.g09.slc.cpg/sg2_14_cif.got.tgz:26959.got - 2010.06.27 13:26:56.
