data_PCOD8021757
_publ_section_title
;
Structure prediction by ZEFSAII (Michael W. Deem and Ramdas Pophale) SiO2 
 PCOD8021757
Probable space group: P -1
;
_chemical_formula_sum "Si O2"
_cell_formula_units_Z 14
_cell_length_a 9.194986
_cell_length_b 15.286304
_cell_length_c 11.616828
_cell_angle_alpha 124.544583
_cell_angle_beta 116.272241
_cell_angle_gamma 29.128704
_cell_volume 649.001025
_symmetry_space_group_name_H-M "P -1"
_symmetry_group_IT_number 2
_symmetry_cell_setting 'triclinic'
loop_
_space_group_symop_operation_xyz
x,y,z
-x,-y,-z
loop_
_atom_site_type_symbol
_atom_site_label
_atom_site_fract_x
_atom_site_fract_y
_atom_site_fract_z
Si Si1 0.185219 0.113279 0.142487
Si Si2 0.121847 0.315024 0.898690
Si Si3 0.842719 0.299314 0.936261
Si Si4 0.108297 0.978799 0.643299
Si Si5 0.205967 0.349646 0.354549
Si Si6 0.839058 0.245708 0.340791
Si Si7 0.157505 0.574465 0.352504
O O1 0.130047 0.270127 0.240060
O O2 0.013558 0.147939 0.209642
O O3 0.527536 0.887749 0.102038
O O4 0.048927 0.145495 0.999462
O O5 0.947061 0.355397 0.970465
O O6 0.057469 0.298116 0.738590
O O7 0.000000 0.500000 0.000000
O O8 0.500000 0.500000 0.000000
O O9 0.884898 0.193684 0.768102
O O10 0.442260 0.838194 0.633515
O O11 0.080024 0.900693 0.666049
O O12 0.000000 0.000000 0.500000
O O13 0.147572 0.458106 0.305479
O O14 0.000000 0.500000 0.500000
O O15 0.485722 0.437632 0.330088
O O16 0.950091 0.289650 0.480515
#
# Coordination Sequence:
#
# PCOD8021757 Si02
#       7
#     2   2   2   2   2   2   2
#     4  12  26  45  68 103 138 177 231 284 349 405
#     4  12  27  44  69  97 137 179 231 287 338 407
#     4  12  28  47  71  99 142 185 227 285 348 417
#     4  11  26  45  70 100 138 182 231 278 343 413
#     4  11  23  43  72 101 140 177 220 290 343 407
#     4  10  23  41  71  96 135 175 227 278 333 410
#     4  10  22  44  67  99 132 178 223 277 342 401
#
# _framework density 21.571614
#
# number of rings (size 3 to 8) (size 9 to 14) (size 15 to 20)
#    0.000    0.857    2.857    3.000    8.000    2.286 
#    0.000    0.000    0.000    0.000    0.000    0.000 
#    0.000    0.000    0.000    0.000    0.000    0.000 
#
# Total GULP energy -173654.238469 kJ/mol
# GULP energy per Si atom -12403.874176 kJ/mol
# Density = 2.152252 g / cm^3
# Si number density = 21.571614 Si / 1000 Ang^3
#
#
#
# Elastic Constant Matrix: (Units=GPa)
#
#
# Indices 1 2 3 4 5 6 
#
# 1 118.6477 38.9394 43.0018 3.0410 -19.6404 0.1773
# 2 38.9394 136.1851 60.0270 -5.4775 -15.0364 -8.3282
# 3 43.0018 60.0270 127.8934 2.1490 -10.4681 -4.8149
# 4 3.0410 -5.4775 2.1490 49.2950 4.8291 -2.9958
# 5 -19.6404 -15.0364 -10.4681 4.8291 38.0351 7.6108
# 6 0.1773 -8.3282 -4.8149 -2.9958 7.6108 29.7886
#
#
#
# Elastic Compliance Matrix: (Units=1/GPa)
#
#
# Indices 1 2 3 4 5 6 
#
# 1 0.010705 -0.001616 -0.002510 -0.001343 0.004827 -0.002289
# 2 -0.001616 0.009861 -0.003918 0.001341 0.001435 0.001901
# 3 -0.002510 -0.003918 0.010537 -0.000711 0.000037 0.000542
# 4 -0.001343 0.001341 -0.000711 0.021115 -0.003708 0.003339
# 5 0.004827 0.001435 0.000037 -0.003708 0.031438 -0.008027
# 6 -0.002289 0.001901 0.000542 0.003339 -0.008027 0.036589
#
#
# Mechanical properties :
#
#
# Convention : Reuss Voigt Hill
#
# Bulk Modulus (GPa) = 66.59764 74.07363 70.33563
# Shear Modulus (GPa) = 35.37618 39.47426 37.42522
#
# Velocity S-wave (km/s) = 4.05401 4.28239 4.16977
# Velocity P-wave (km/s) = 7.27002 7.67234 7.47389
#
# Compressibility (1/GPa) = 0.01501555
#
# Stress axis : x y z
#
# Youngs Moduli (GPa) = 93.41427 101.41260 94.90130
#
# Poissons Ratio (x) = 0.16386 0.23816
# Poissons Ratio (y) = 0.15094 0.37186
# Poissons Ratio (z) = 0.23443 0.39737
#
# Static dielectric constant tensor:
#      x y z
#    x 4.014440 0.054000 -0.032140 
#    y 0.054000 3.956400 -0.104150 
#    z -0.032140 -0.104150 3.971930 
# 
# 
# High freq. dielectric constant tensor:
#      x y z
#    x 1.865180 0.008020 -0.002210 
#    y 0.008020 1.847950 -0.001520 
#    z -0.002210 -0.001520 1.855720 
# 
# From -- ./inp_files/158366.got.cif
#   From: 2010.06.25/outbox.cif.g09.slc.cpg/sg2_80_cif.got.tgz:158366.got - 2010.06.27 13:26:56.
