data_PCOD8021555
_publ_section_title
;
Structure prediction by ZEFSAII (Michael W. Deem and Ramdas Pophale) SiO2 
 PCOD8021555
Probable space group: P -1
;
_chemical_formula_sum "Si O2"
_cell_formula_units_Z 14
_cell_length_a 21.691281
_cell_length_b 8.384236
_cell_length_c 8.012552
_cell_angle_alpha 73.107276
_cell_angle_beta 121.197599
_cell_angle_gamma 144.330380
_cell_volume 701.617503
_symmetry_space_group_name_H-M "P -1"
_symmetry_group_IT_number 2
_symmetry_cell_setting 'triclinic'
loop_
_space_group_symop_operation_xyz
x,y,z
-x,-y,-z
loop_
_atom_site_type_symbol
_atom_site_label
_atom_site_fract_x
_atom_site_fract_y
_atom_site_fract_z
Si Si1 0.868634 0.233993 0.808649
Si Si2 0.813629 0.500806 0.606611
Si Si3 0.620152 0.334311 0.561704
Si Si4 0.716240 0.671016 0.909181
Si Si5 0.936290 0.216331 0.564807
Si Si6 0.712993 0.612277 0.282991
Si Si7 0.048318 0.098945 0.851550
O O1 0.800845 0.278455 0.649297
O O2 0.879038 0.140018 0.688968
O O3 0.776693 0.965403 0.884052
O O4 0.000000 0.500000 0.000000
O O5 0.741738 0.442309 0.687253
O O6 0.756497 0.497424 0.371085
O O7 0.957922 0.806904 0.714057
O O8 0.621955 0.452090 0.694630
O O9 0.618733 0.450454 0.357532
O O10 0.500000 0.000000 0.500000
O O11 0.651298 0.545216 0.039553
O O12 0.816006 0.711799 0.039274
O O13 0.000000 0.500000 0.500000
O O14 0.040649 0.271314 0.714732
O O15 0.829303 0.951431 0.373758
O O16 0.000000 0.000000 0.000000
#
# Coordination Sequence:
#
# PCOD8021555 Si02
#       7
#     2   2   2   2   2   2   2
#     4  12  20  33  56  91 122 160 184 232 300 351
#     4   9  20  36  55  87 121 147 198 234 289 353
#     4  10  22  44  64  80 113 158 205 251 284 335
#     4  12  21  36  64  85 120 155 192 244 294 358
#     4  11  22  32  51  86 129 153 184 233 286 356
#     4   9  22  40  56  89 114 157 200 236 293 353
#     4  11  17  35  54  83 121 156 185 230 293 357
#
# _framework density 19.953893999999998
#
# number of rings (size 3 to 8) (size 9 to 14) (size 15 to 20)
#    0.857    0.571    5.714    0.857    2.000    1.714 
#    0.000    0.714    0.000    0.857    0.000    0.000 
#    0.000    0.000    0.000    0.000    0.000    0.000 
#
# Total GULP energy -173441.811576 kJ/mol
# GULP energy per Si atom -12388.700827 kJ/mol
# Density = 1.990848 g / cm^3
# Si number density = 19.953894 Si / 1000 Ang^3
#
#
#
# Elastic Constant Matrix: (Units=GPa)
#
#
# Indices 1 2 3 4 5 6 
#
# 1 47.6094 19.1754 20.1479 -9.7146 -7.7390 -18.3481
# 2 19.1754 135.6564 54.2850 -19.8016 -6.1547 -16.4487
# 3 20.1479 54.2850 86.4973 -18.5563 -31.5017 -4.7927
# 4 -9.7146 -19.8016 -18.5563 31.4519 -0.7341 3.9684
# 5 -7.7390 -6.1547 -31.5017 -0.7341 32.2754 -9.8318
# 6 -18.3481 -16.4487 -4.7927 3.9684 -9.8318 34.0530
#
#
#
# Elastic Compliance Matrix: (Units=1/GPa)
#
#
# Indices 1 2 3 4 5 6 
#
# 1 0.033224 -0.000786 0.001601 0.008385 0.016094 0.021417
# 2 -0.000786 0.011017 -0.008395 0.001366 -0.005664 0.001922
# 3 0.001601 -0.008395 0.031965 0.013671 0.033118 0.009275
# 4 0.008385 0.001366 0.013671 0.042796 0.018893 0.007570
# 5 0.016094 -0.005664 0.033118 0.018893 0.075734 0.030261
# 6 0.021417 0.001922 0.009275 0.007570 0.030261 0.050994
#
#
# Mechanical properties :
#
#
# Convention : Reuss Voigt Hill
#
# Bulk Modulus (GPa) = 16.38077 50.77550 33.57813
# Shear Modulus (GPa) = 17.77852 31.29970 24.53911
#
# Velocity S-wave (km/s) = 2.98817 3.96485 3.51064
# Velocity P-wave (km/s) = 4.48694 6.81628 5.77037
#
# Compressibility (1/GPa) = 0.06104720
#
# Stress axis : x y z
#
# Youngs Moduli (GPa) = 30.09869 90.76527 31.28469
#
# Poissons Ratio (x) = 0.07135 -0.05010
# Poissons Ratio (y) = 0.02366 0.26263
# Poissons Ratio (z) = -0.04820 0.76195
#
# Static dielectric constant tensor:
#      x y z
#    x 3.601300 -0.027840 -0.109210 
#    y -0.027840 3.658520 -0.091380 
#    z -0.109210 -0.091380 3.801560 
# 
# 
# High freq. dielectric constant tensor:
#      x y z
#    x 1.752290 -0.016640 -0.021520 
#    y -0.016640 1.772450 -0.022860 
#    z -0.021520 -0.022860 1.764090 
# 
# From -- ./inp_files/198521.got.cif
#   From: 2010.06.25/outbox.cif.g09.slc.cpg/sg2_100_cif.got.tgz:198521.got - 2010.06.27 13:26:56.
