data_PCOD8021407
_publ_section_title
;
Structure prediction by ZEFSAII (Michael W. Deem and Ramdas Pophale) SiO2 
 PCOD8021407
Probable space group: P -1
;
_chemical_formula_sum "Si O2"
_cell_formula_units_Z 14
_cell_length_a 9.094367
_cell_length_b 9.645000
_cell_length_c 14.429413
_cell_angle_alpha 96.401539
_cell_angle_beta 63.647026
_cell_angle_gamma 43.218450
_cell_volume 547.780073
_symmetry_space_group_name_H-M "P -1"
_symmetry_group_IT_number 2
_symmetry_cell_setting 'triclinic'
loop_
_space_group_symop_operation_xyz
x,y,z
-x,-y,-z
loop_
_atom_site_type_symbol
_atom_site_label
_atom_site_fract_x
_atom_site_fract_y
_atom_site_fract_z
Si Si1 0.111085 0.101903 0.878383
Si Si2 0.787656 0.467596 0.813347
Si Si3 0.143814 0.705324 0.648109
Si Si4 0.053919 0.022186 0.589228
Si Si5 0.613139 0.798339 0.384195
Si Si6 0.993720 0.882591 0.899183
Si Si7 0.759737 0.783631 0.640105
O O1 0.464810 0.916150 0.781991
O O2 0.896682 0.278015 0.048157
O O3 0.908128 0.303447 0.861612
O O4 0.199953 0.872242 0.825823
O O5 0.983831 0.472455 0.754736
O O6 0.398355 0.787680 0.955782
O O7 0.866268 0.307396 0.690084
O O8 0.500000 0.500000 0.500000
O O9 0.925101 0.003293 0.697710
O O10 0.007032 0.667818 0.636677
O O11 0.085529 0.718259 0.774571
O O12 0.469759 0.752856 0.457474
O O13 0.000000 0.000000 0.500000
O O14 0.500000 0.000000 0.500000
O O15 0.412483 0.970945 0.357268
O O16 0.000000 0.500000 0.500000
#
# Coordination Sequence:
#
# PCOD8021407 Si02
#       7
#     2   2   2   2   2   2   2
#     4  10  23  41  68  98 133 182 225 275 341 408
#     4  10  22  43  71  97 138 180 227 277 337 418
#     4  12  27  44  66 102 136 172 231 293 340 410
#     4  11  22  41  67 102 135 174 226 279 338 394
#     4   9  21  39  66 100 126 174 222 270 338 403
#     4  11  24  45  69  96 134 183 230 281 348 403
#     4  11  24  42  67  94 136 179 223 281 343 407
#
# _framework density 25.557704000000001
#
# number of rings (size 3 to 8) (size 9 to 14) (size 15 to 20)
#    0.000    1.429    2.857    1.286    8.000    2.857 
#    0.000    4.286    0.000    0.000    0.000    0.000 
#    0.000    0.000    0.000    0.000    0.000    0.000 
#
# Total GULP energy -173446.749495 kJ/mol
# GULP energy per Si atom -12389.053535 kJ/mol
# Density = 2.549953 g / cm^3
# Si number density = 25.557704 Si / 1000 Ang^3
#
#
#
# Elastic Constant Matrix: (Units=GPa)
#
#
# Indices 1 2 3 4 5 6 
#
# 1 180.6658 37.7358 64.1012 -18.3337 -2.7456 -7.2194
# 2 37.7358 47.8698 30.8745 -13.6757 -7.5921 -0.6175
# 3 64.1012 30.8745 122.2499 -16.7912 15.9477 -4.5133
# 4 -18.3337 -13.6757 -16.7912 48.9514 -3.1925 -8.3367
# 5 -2.7456 -7.5921 15.9477 -3.1925 52.7263 -14.8160
# 6 -7.2194 -0.6175 -4.5133 -8.3367 -14.8160 43.8581
#
#
#
# Elastic Compliance Matrix: (Units=1/GPa)
#
#
# Indices 1 2 3 4 5 6 
#
# 1 0.007527 -0.003406 -0.003041 0.001175 0.001328 0.001550
# 2 -0.003406 0.030252 -0.005837 0.006119 0.007110 0.002830
# 3 -0.003041 -0.005837 0.011966 0.000886 -0.004789 -0.000801
# 4 0.001175 0.006119 0.000886 0.024209 0.003908 0.006293
# 5 0.001328 0.007110 -0.004789 0.003908 0.024201 0.008744
# 6 0.001550 0.002830 -0.000801 0.006293 0.008744 0.027163
#
#
# Mechanical properties :
#
#
# Convention : Reuss Voigt Hill
#
# Bulk Modulus (GPa) = 39.71934 68.46760 54.09347
# Shear Modulus (GPa) = 31.59022 43.64542 37.61782
#
# Velocity S-wave (km/s) = 3.51954 4.13694 3.84067
# Velocity P-wave (km/s) = 5.66489 7.04745 6.39365
#
# Compressibility (1/GPa) = 0.02517665
#
# Stress axis : x y z
#
# Youngs Moduli (GPa) = 132.85848 33.05611 83.57268
#
# Poissons Ratio (x) = 0.11258 0.25416
# Poissons Ratio (y) = 0.45246 0.48780
# Poissons Ratio (z) = 0.40405 0.19295
#
# Static dielectric constant tensor:
#      x y z
#    x 5.378360 0.047180 -0.682470 
#    y 0.047180 5.405410 -0.648330 
#    z -0.682470 -0.648330 5.054510 
# 
# 
# High freq. dielectric constant tensor:
#      x y z
#    x 2.041120 -0.007200 -0.020340 
#    y -0.007200 2.035890 -0.021510 
#    z -0.020340 -0.021510 2.014840 
# 
# From -- ./inp_files/298428.got.cif
#   From: 2010.06.25/outbox.cif.g09.slc.cpg/sg2_150_cif.got.tgz:298428.got - 2010.06.27 13:26:56.
