data_PCOD8021168
_publ_section_title
;
Structure prediction by ZEFSAII (Michael W. Deem and Ramdas Pophale) SiO2 
 PCOD8021168
Probable space group: P -1
;
_chemical_formula_sum "Si O2"
_cell_formula_units_Z 14
_cell_length_a 6.947480
_cell_length_b 14.464788
_cell_length_c 8.688891
_cell_angle_alpha 113.355156
_cell_angle_beta 126.734530
_cell_angle_gamma 62.187839
_cell_volume 610.399180
_symmetry_space_group_name_H-M "P -1"
_symmetry_group_IT_number 2
_symmetry_cell_setting 'triclinic'
loop_
_space_group_symop_operation_xyz
x,y,z
-x,-y,-z
loop_
_atom_site_type_symbol
_atom_site_label
_atom_site_fract_x
_atom_site_fract_y
_atom_site_fract_z
Si Si1 0.449680 0.615277 0.117002
Si Si2 0.654838 0.863493 0.585421
Si Si3 0.113308 0.931459 0.864577
Si Si4 0.242361 0.023159 0.696087
Si Si5 0.326179 0.488998 0.547895
Si Si6 0.007697 0.647605 0.729849
Si Si7 0.447401 0.195058 0.819656
O O1 0.502154 0.602485 0.315436
O O2 0.630732 0.678266 0.166999
O O3 0.500000 0.500000 0.000000
O O4 0.157119 0.674693 0.967267
O O5 0.495152 0.948654 0.686611
O O6 0.479281 0.857561 0.351383
O O7 0.889639 0.898391 0.652625
O O8 0.774904 0.750623 0.648688
O O9 0.250519 0.993467 0.860385
O O10 0.322218 0.828534 0.965837
O O11 0.000000 0.000000 0.000000
O O12 0.234603 0.146581 0.755323
O O13 0.000000 0.000000 0.500000
O O14 0.500000 0.500000 0.500000
O O15 0.200872 0.602414 0.648387
O O16 0.104527 0.447741 0.345053
#
# Coordination Sequence:
#
# PCOD8021168 Si02
#       7
#     2   2   2   2   2   2   2
#     4  10  22  43  69  97 134 177 227 284 342 401
#     4  12  24  44  69 101 142 180 230 284 347 417
#     4  12  25  45  69 100 138 179 229 286 344 416
#     4  12  26  45  70 103 140 184 233 282 351 421
#     4  10  22  43  69  97 133 177 230 280 346 407
#     4  10  22  43  68  95 135 178 222 288 341 403
#     4  12  23  44  70  98 138 185 227 288 347 407
#
# _framework density 22.93581
#
# number of rings (size 3 to 8) (size 9 to 14) (size 15 to 20)
#    0.000    0.857    5.714    1.714    0.000    1.714 
#    0.000    1.429    0.000    0.000    0.000    0.000 
#    0.000    0.000    0.000    0.000    0.000    0.000 
#
# Total GULP energy -173455.400503 kJ/mol
# GULP energy per Si atom -12389.671464 kJ/mol
# Density = 2.288361 g / cm^3
# Si number density = 22.935810 Si / 1000 Ang^3
#
#
#
# Elastic Constant Matrix: (Units=GPa)
#
#
# Indices 1 2 3 4 5 6 
#
# 1 134.4220 56.3987 39.1380 -1.0420 -0.0842 27.7587
# 2 56.3987 131.3355 31.9048 -2.0113 -0.2640 37.5329
# 3 39.1380 31.9048 95.5602 -9.1392 11.7821 15.9767
# 4 -1.0420 -2.0113 -9.1392 37.8792 7.3020 4.3616
# 5 -0.0842 -0.2640 11.7821 7.3020 34.2712 -4.1475
# 6 27.7587 37.5329 15.9767 4.3616 -4.1475 38.5325
#
#
#
# Elastic Compliance Matrix: (Units=1/GPa)
#
#
# Indices 1 2 3 4 5 6 
#
# 1 0.010069 -0.002684 -0.002756 -0.000253 0.000594 -0.003404
# 2 -0.002684 0.011696 -0.000958 0.001598 -0.001060 -0.009356
# 3 -0.002756 -0.000958 0.013835 0.004893 -0.006303 -0.004051
# 4 -0.000253 0.001598 0.004893 0.030306 -0.009073 -0.007810
# 5 0.000594 -0.001060 -0.006303 -0.009073 0.034232 0.007930
# 6 -0.003404 -0.009356 -0.004051 -0.007810 0.007930 0.040935
#
#
# Mechanical properties :
#
#
# Convention : Reuss Voigt Hill
#
# Bulk Modulus (GPa) = 43.85148 68.46674 56.15911
# Shear Modulus (GPa) = 30.96519 37.72833 34.34676
#
# Velocity S-wave (km/s) = 3.67833 4.06020 3.87397
# Velocity P-wave (km/s) = 6.09925 7.20393 6.67448
#
# Compressibility (1/GPa) = 0.02280425
#
# Stress axis : x y z
#
# Youngs Moduli (GPa) = 99.31165 85.50190 72.27793
#
# Poissons Ratio (x) = 0.22952 0.19920
# Poissons Ratio (y) = 0.26659 0.06921
# Poissons Ratio (z) = 0.27371 0.08188
#
# Static dielectric constant tensor:
#      x y z
#    x 4.255720 0.213930 0.573510 
#    y 0.213930 4.451330 -0.466000 
#    z 0.573510 -0.466000 5.363500 
# 
# 
# High freq. dielectric constant tensor:
#      x y z
#    x 1.871600 0.029900 0.019620 
#    y 0.029900 1.906580 -0.008880 
#    z 0.019620 -0.008880 1.931100 
# 
# From -- ./inp_files/39587.got.cif
#   From: 2010.06.25/outbox.cif.g09.slc.cpg/sg2_20_cif.got.tgz:39587.got - 2010.06.27 13:26:56.
