data_PCOD8021084
_publ_section_title
;
Structure prediction by ZEFSAII (Michael W. Deem and Ramdas Pophale) SiO2 
 PCOD8021084
Probable space group: P -1
;
_chemical_formula_sum "Si O2"
_cell_formula_units_Z 16
_cell_length_a 11.764531
_cell_length_b 9.371959
_cell_length_c 9.137175
_cell_angle_alpha 106.663645
_cell_angle_beta 133.540153
_cell_angle_gamma 84.315465
_cell_volume 692.542106
_symmetry_space_group_name_H-M "P -1"
_symmetry_group_IT_number 2
_symmetry_cell_setting 'triclinic'
loop_
_space_group_symop_operation_xyz
x,y,z
-x,-y,-z
loop_
_atom_site_type_symbol
_atom_site_label
_atom_site_fract_x
_atom_site_fract_y
_atom_site_fract_z
Si Si1 0.140954 0.581165 0.246100
Si Si2 0.115238 0.874961 0.174451
Si Si3 0.586769 0.546983 0.941025
Si Si4 0.619710 0.882790 0.053298
Si Si5 0.771493 0.899132 0.887677
Si Si6 0.174267 0.157674 0.508096
Si Si7 0.644169 0.643462 0.514837
Si Si8 0.050757 0.391749 0.634267
O O1 0.205655 0.741352 0.273489
O O2 0.281671 0.483115 0.364110
O O3 0.077654 0.623430 0.358617
O O4 0.000000 0.500000 0.000000
O O5 0.204596 0.938235 0.124331
O O6 0.102839 0.012018 0.314106
O O7 0.927449 0.816548 0.969971
O O8 0.526058 0.431811 0.721838
O O9 0.500000 0.500000 0.000000
O O10 0.541215 0.710580 0.905327
O O11 0.775108 0.551090 0.127222
O O12 0.700586 0.893564 0.285156
O O13 0.738329 0.928875 0.036218
O O14 0.500000 0.000000 0.000000
O O15 0.628879 0.784260 0.651719
O O16 0.249496 0.294385 0.510989
O O17 0.042185 0.226026 0.506397
O O18 0.000000 0.500000 0.500000
#
# Coordination Sequence:
#
# PCOD8021084 Si02
#       8
#     2   2   2   2   2   2   2   2
#     4  12  24  41  66 104 136 172 236 285 329 413
#     4  10  22  43  68  97 133 182 228 278 351 396
#     4  11  22  44  70  97 135 179 218 280 348 398
#     4  11  25  45  65  98 137 179 230 278 334 416
#     4  10  23  45  67  93 139 179 224 285 340 405
#     4  10  22  43  67  95 138 174 224 285 339 401
#     4  11  22  44  68  97 140 179 221 285 342 403
#     4  11  22  42  70 102 132 172 226 284 339 402
#
# _framework density 23.103289
#
# number of rings (size 3 to 8) (size 9 to 14) (size 15 to 20)
#    0.000    1.250    5.000    1.500    1.750    2.500 
#    4.500    2.500    0.000    0.000    0.000    0.000 
#    0.000    0.000    0.000    0.000    0.000    0.000 
#
# Total GULP energy -198337.880713 kJ/mol
# GULP energy per Si atom -12396.117545 kJ/mol
# Density = 2.305071 g / cm^3
# Si number density = 23.103289 Si / 1000 Ang^3
#
#
#
# Elastic Constant Matrix: (Units=GPa)
#
#
# Indices 1 2 3 4 5 6 
#
# 1 53.9638 33.4031 -2.3330 -12.1489 -10.9110 13.8638
# 2 33.4031 155.2348 39.2144 -26.4822 -1.0234 12.7485
# 3 -2.3330 39.2144 105.3169 -3.0528 -4.8838 2.3127
# 4 -12.1489 -26.4822 -3.0528 46.0591 3.9834 -2.5257
# 5 -10.9110 -1.0234 -4.8838 3.9834 29.1524 -7.6684
# 6 13.8638 12.7485 2.3127 -2.5257 -7.6684 34.0225
#
#
#
# Elastic Compliance Matrix: (Units=1/GPa)
#
#
# Indices 1 2 3 4 5 6 
#
# 1 0.025923 -0.005249 0.003128 0.002975 0.007841 -0.006821
# 2 -0.005249 0.009234 -0.003556 0.003880 -0.003162 -0.001504
# 3 0.003128 -0.003556 0.011006 -0.000751 0.002972 -0.000076
# 4 0.002975 0.003880 -0.000751 0.024829 -0.002628 -0.001364
# 5 0.007841 -0.003162 0.002972 -0.002628 0.039704 0.006541
# 6 -0.006821 -0.001504 -0.000076 -0.001364 0.006541 0.034114
#
#
# Mechanical properties :
#
#
# Convention : Reuss Voigt Hill
#
# Bulk Modulus (GPa) = 28.72708 50.56494 39.64601
# Shear Modulus (GPa) = 29.80337 38.12885 33.96611
#
# Velocity S-wave (km/s) = 3.59556 4.06688 3.83846
# Velocity P-wave (km/s) = 5.44964 6.63224 6.06981
#
# Compressibility (1/GPa) = 0.03481036
#
# Stress axis : x y z
#
# Youngs Moduli (GPa) = 38.57619 108.29402 90.85830
#
# Poissons Ratio (x) = 0.56843 -0.28423
# Poissons Ratio (y) = 0.20248 0.32306
# Poissons Ratio (z) = -0.12068 0.38506
#
# Static dielectric constant tensor:
#      x y z
#    x 3.891570 0.169510 -0.206940 
#    y 0.169510 3.938360 0.597760 
#    z -0.206940 0.597760 3.438480 
# 
# 
# High freq. dielectric constant tensor:
#      x y z
#    x 1.891900 0.012850 -0.025010 
#    y 0.012850 1.924830 -0.004770 
#    z -0.025010 -0.004770 1.922310 
# 
# From -- ./inp_files/244798.got.cif
#   From: 2010.06.25/outbox.cif.g09.slc.cpg/sg2_123_cif.got.tgz:244798.got - 2010.06.27 13:26:56.
