data_PCOD8021779
_publ_section_title
;
Structure prediction by ZEFSAII (Michael W. Deem and Ramdas Pophale) SiO2 
 PCOD8021779
Probable space group: P -1
;
_chemical_formula_sum "Si O2"
_cell_formula_units_Z 16
_cell_length_a 5.103053
_cell_length_b 12.604934
_cell_length_c 11.703441
_cell_angle_alpha 82.760396
_cell_angle_beta 111.894846
_cell_angle_gamma 90.134343
_cell_volume 692.123528
_symmetry_space_group_name_H-M "P -1"
_symmetry_group_IT_number 2
_symmetry_cell_setting 'triclinic'
loop_
_space_group_symop_operation_xyz
x,y,z
-x,-y,-z
loop_
_atom_site_type_symbol
_atom_site_label
_atom_site_fract_x
_atom_site_fract_y
_atom_site_fract_z
Si Si1 0.890064 0.696512 0.609940
Si Si2 0.688501 0.697412 0.004008
Si Si3 0.295345 0.054219 0.050492
Si Si4 0.415566 0.016671 0.663222
Si Si5 0.872571 0.133807 0.503521
Si Si6 0.402867 0.748211 0.376911
Si Si7 0.701724 0.375045 0.847585
Si Si8 0.500385 0.384427 0.249198
O O1 0.985073 0.819670 0.596190
O O2 0.168783 0.616990 0.662143
O O3 0.686871 0.679290 0.468380
O O4 0.701458 0.683836 0.694409
O O5 0.521971 0.669498 0.095048
O O6 0.983157 0.627856 0.049882
O O7 0.754685 0.821079 0.001072
O O8 0.500947 0.665511 0.870670
O O9 0.442233 0.041318 0.198064
O O10 0.500000 0.000000 0.000000
O O11 0.000000 0.000000 0.000000
O O12 0.575717 0.123077 0.648272
O O13 0.083085 0.053262 0.620948
O O14 0.407072 0.928248 0.571387
O O15 0.809143 0.244724 0.550246
O O16 0.275403 0.700024 0.250009
O O17 0.613704 0.493999 0.780390
#
# Coordination Sequence:
#
# PCOD8021779 Si02
#       8
#     2   2   2   2   2   2   2   2
#     4  11  24  43  72 103 140 171 231 283 356 399
#     4  12  26  49  72 101 141 183 236 289 342 408
#     4  12  27  44  68 105 139 183 225 283 341 411
#     4  10  23  41  70 100 140 185 233 274 345 414
#     4  10  22  44  68 105 140 186 226 284 340 420
#     4  11  24  43  70 102 147 179 227 285 347 418
#     4  12  28  46  75  99 139 185 236 289 351 404
#     4  12  25  48  73 104 134 183 236 292 343 415
#
# _framework density 23.117262
#
# number of rings (size 3 to 8) (size 9 to 14) (size 15 to 20)
#    0.000    0.750    1.250    5.625    7.000    2.000 
#    0.000    0.000    0.000    0.000    0.000    0.000 
#    0.000    0.000    0.000    0.000    0.000    0.000 
#
# Total GULP energy -198302.113109 kJ/mol
# GULP energy per Si atom -12393.882069 kJ/mol
# Density = 2.306465 g / cm^3
# Si number density = 23.117262 Si / 1000 Ang^3
#
#
#
# Elastic Constant Matrix: (Units=GPa)
#
#
# Indices 1 2 3 4 5 6 
#
# 1 125.3463 28.9719 43.5940 -8.7296 3.8190 -3.1173
# 2 28.9719 90.6547 33.5620 -3.0362 -18.6500 -1.5806
# 3 43.5940 33.5620 99.5151 -12.5104 3.7738 5.6189
# 4 -8.7296 -3.0362 -12.5104 39.1424 -10.1282 5.5602
# 5 3.8190 -18.6500 3.7738 -10.1282 38.5593 -5.9486
# 6 -3.1173 -1.5806 5.6189 5.5602 -5.9486 33.7129
#
#
#
# Elastic Compliance Matrix: (Units=1/GPa)
#
#
# Indices 1 2 3 4 5 6 
#
# 1 0.009785 -0.002055 -0.003556 0.000382 -0.001345 0.001101
# 2 -0.002055 0.015270 -0.004586 0.001148 0.008747 0.002644
# 3 -0.003556 -0.004586 0.013872 0.003056 -0.003022 -0.003893
# 4 0.000382 0.001148 0.003056 0.029138 0.007264 -0.003944
# 5 -0.001345 0.008747 -0.003022 0.007264 0.033347 0.005475
# 6 0.001101 0.002644 -0.003893 -0.003944 0.005475 0.032153
#
#
# Mechanical properties :
#
#
# Convention : Reuss Voigt Hill
#
# Bulk Modulus (GPa) = 53.96390 58.64132 56.30261
# Shear Modulus (GPa) = 31.22323 36.24214 33.73269
#
# Velocity S-wave (km/s) = 3.67910 3.96378 3.82409
# Velocity P-wave (km/s) = 6.43754 6.80960 6.62618
#
# Compressibility (1/GPa) = 0.01853091
#
# Stress axis : x y z
#
# Youngs Moduli (GPa) = 102.20016 65.48928 72.08798
#
# Poissons Ratio (x) = 0.13459 0.25637
# Poissons Ratio (y) = 0.21003 0.33061
# Poissons Ratio (z) = 0.36346 0.30035
#
# Static dielectric constant tensor:
#      x y z
#    x 3.933610 0.038090 0.300850 
#    y 0.038090 4.102020 -0.208240 
#    z 0.300850 -0.208240 4.175960 
# 
# 
# High freq. dielectric constant tensor:
#      x y z
#    x 1.927030 0.001510 0.005350 
#    y 0.001510 1.907670 -0.015550 
#    z 0.005350 -0.015550 1.924670 
# 
# From -- ./inp_files/364384.got.cif
#   From: 2010.06.25/outbox.cif.g09.slc.cpg/sg2_183_cif.got.tgz:364384.got - 2010.06.27 13:26:56.
