data_PCOD8021777
_publ_section_title
;
Structure prediction by ZEFSAII (Michael W. Deem and Ramdas Pophale) SiO2 
 PCOD8021777
Probable space group: P -1
;
_chemical_formula_sum "Si O2"
_cell_formula_units_Z 14
_cell_length_a 5.497249
_cell_length_b 11.594450
_cell_length_c 11.732928
_cell_angle_alpha 90.774084
_cell_angle_beta 122.419420
_cell_angle_gamma 110.382344
_cell_volume 572.493839
_symmetry_space_group_name_H-M "P -1"
_symmetry_group_IT_number 2
_symmetry_cell_setting 'triclinic'
loop_
_space_group_symop_operation_xyz
x,y,z
-x,-y,-z
loop_
_atom_site_type_symbol
_atom_site_label
_atom_site_fract_x
_atom_site_fract_y
_atom_site_fract_z
Si Si1 0.892084 0.385848 0.557923
Si Si2 0.223929 0.716922 0.878360
Si Si3 0.802701 0.783169 0.620355
Si Si4 0.775199 0.011368 0.715293
Si Si5 0.912237 0.125572 0.525581
Si Si6 0.854216 0.547154 0.132307
Si Si7 0.969884 0.785481 0.035310
O O1 0.517708 0.342105 0.485532
O O2 0.928887 0.265595 0.514100
O O3 0.000000 0.500000 0.500000
O O4 0.112749 0.431094 0.724430
O O5 0.043311 0.568064 0.869979
O O6 0.077495 0.738749 0.722905
O O7 0.593399 0.752523 0.943855
O O8 0.136913 0.797043 0.954392
O O9 0.789817 0.874751 0.721148
O O10 0.860988 0.873305 0.522608
O O11 0.422899 0.988991 0.591398
O O12 0.012773 0.106265 0.678997
O O13 0.858704 0.077084 0.860247
O O14 0.055919 0.680946 0.122449
O O15 0.500000 0.500000 0.000000
#
# Coordination Sequence:
#
# PCOD8021777 Si02
#       7
#     2   2   2   2   2   2   2
#     4  11  24  43  73 105 144 185 242 301 372 432
#     4  11  27  44  72 105 147 192 245 299 364 436
#     4  11  26  43  71 105 145 192 236 310 360 437
#     4  10  23  43  72 101 142 189 245 299 356 437
#     4  10  22  44  68 104 140 184 246 296 365 428
#     4  10  23  46  70 103 143 191 243 300 362 436
#     4  11  25  47  71 106 142 198 243 296 365 436
#
# _framework density 24.454412999999999
#
# number of rings (size 3 to 8) (size 9 to 14) (size 15 to 20)
#    0.000    1.429    1.429    1.714   10.000    4.571 
#    0.000    0.000    0.000    0.000    0.000    0.000 
#    0.000    0.000    0.000    0.000    0.000    0.000 
#
# Total GULP energy -173461.830649 kJ/mol
# GULP energy per Si atom -12390.130761 kJ/mol
# Density = 2.439875 g / cm^3
# Si number density = 24.454413 Si / 1000 Ang^3
#
#
#
# Elastic Constant Matrix: (Units=GPa)
#
#
# Indices 1 2 3 4 5 6 
#
# 1 100.4952 18.5207 36.9844 1.5004 -8.9542 0.3238
# 2 18.5207 73.1835 35.8188 2.8161 6.4226 -0.2780
# 3 36.9844 35.8188 134.3729 4.7830 -5.4279 -4.0603
# 4 1.5004 2.8161 4.7830 43.7853 -2.7190 -4.0134
# 5 -8.9542 6.4226 -5.4279 -2.7190 31.9874 -2.2509
# 6 0.3238 -0.2780 -4.0603 -4.0134 -2.2509 39.7478
#
#
#
# Elastic Compliance Matrix: (Units=1/GPa)
#
#
# Indices 1 2 3 4 5 6 
#
# 1 0.011527 -0.001967 -0.002531 0.000191 0.003197 -0.000166
# 2 -0.001967 0.016593 -0.004058 -0.000907 -0.004693 -0.000640
# 3 -0.002531 -0.004058 0.009337 -0.000474 0.001720 0.000996
# 4 0.000191 -0.000907 -0.000474 0.023308 0.002307 0.002428
# 5 0.003197 -0.004693 0.001720 0.002307 0.033747 0.002261
# 6 -0.000166 -0.000640 0.000996 0.002428 0.002261 0.025630
#
#
# Mechanical properties :
#
#
# Convention : Reuss Voigt Hill
#
# Bulk Modulus (GPa) = 49.15416 54.52215 51.83816
# Shear Modulus (GPa) = 34.71364 37.55263 36.13313
#
# Velocity S-wave (km/s) = 3.77175 3.92295 3.84809
# Velocity P-wave (km/s) = 6.25396 6.54700 6.40216
#
# Compressibility (1/GPa) = 0.02034416
#
# Stress axis : x y z
#
# Youngs Moduli (GPa) = 86.75102 60.26781 107.10251
#
# Poissons Ratio (x) = 0.11854 0.27109
# Poissons Ratio (y) = 0.17064 0.43465
# Poissons Ratio (z) = 0.21957 0.24458
#
# Static dielectric constant tensor:
#      x y z
#    x 4.200250 -0.123040 -0.073430 
#    y -0.123040 4.735720 0.014820 
#    z -0.073430 0.014820 4.350170 
# 
# 
# High freq. dielectric constant tensor:
#      x y z
#    x 1.953980 -0.012010 -0.011620 
#    y -0.012010 1.992960 -0.002340 
#    z -0.011620 -0.002340 1.972370 
# 
# From -- ./inp_files/72026.got.cif
#   From: 2010.06.25/outbox.cif.g09.slc.cpg/sg2_37_cif.got.tgz:72026.got - 2010.06.27 13:26:56.
