data_PCOD8021718
_publ_section_title
;
Structure prediction by ZEFSAII (Michael W. Deem and Ramdas Pophale) SiO2 
 PCOD8021718
Probable space group: P -1
;
_chemical_formula_sum "Si O2"
_cell_formula_units_Z 16
_cell_length_a 11.475491
_cell_length_b 11.063496
_cell_length_c 16.165711
_cell_angle_alpha 31.752250
_cell_angle_beta 129.263631
_cell_angle_gamma 107.474824
_cell_volume 678.911267
_symmetry_space_group_name_H-M "P -1"
_symmetry_group_IT_number 2
_symmetry_cell_setting 'triclinic'
loop_
_space_group_symop_operation_xyz
x,y,z
-x,-y,-z
loop_
_atom_site_type_symbol
_atom_site_label
_atom_site_fract_x
_atom_site_fract_y
_atom_site_fract_z
Si Si1 0.992471 0.245012 0.253858
Si Si2 0.245977 0.148344 0.800939
Si Si3 0.717220 0.331181 0.210242
Si Si4 0.246590 0.227223 0.951361
Si Si5 0.057503 0.920606 0.316018
Si Si6 0.032100 0.680071 0.096775
Si Si7 0.582065 0.545792 0.304563
Si Si8 0.460833 0.338334 0.512680
O O1 0.978206 0.528740 0.095594
O O2 0.814583 0.288625 0.191122
O O3 0.190893 0.982002 0.530908
O O4 0.978404 0.186227 0.186027
O O5 0.259582 0.152123 0.904604
O O6 0.299372 0.342733 0.667942
O O7 0.045236 0.237583 0.628257
O O8 0.392003 0.823853 0.023225
O O9 0.771183 0.484338 0.210420
O O10 0.500000 0.500000 0.000000
O O11 0.076588 0.244593 0.909014
O O12 0.433960 0.985098 0.224106
O O13 0.277380 0.680893 0.569882
O O14 0.019510 0.036259 0.137253
O O15 0.246562 0.473636 0.333518
O O16 0.539927 0.364877 0.447115
O O17 0.500000 0.500000 0.500000
#
# Coordination Sequence:
#
# PCOD8021718 Si02
#       8
#     2   2   2   2   2   2   2   2
#     4  10  24  43  64  96 128 165 220 261 316 385
#     4  11  25  42  63  97 130 169 210 267 321 376
#     4  10  22  44  67  94 125 170 216 267 317 376
#     4  11  23  41  69  94 127 171 217 262 322 382
#     4  12  23  42  65  92 131 172 208 262 323 381
#     4  11  24  42  66  93 131 168 213 267 320 375
#     4  11  24  41  60  95 132 162 217 256 320 383
#     4  12  23  42  64  96 129 171 214 266 315 383
#
# _framework density 23.567143999999999
#
# number of rings (size 3 to 8) (size 9 to 14) (size 15 to 20)
#    0.000    1.000    3.750    2.250    1.750    4.000 
#    4.500    0.625    0.000    0.000    0.000    0.000 
#    0.000    0.000    0.000    0.000    0.000    0.000 
#
# Total GULP energy -198351.034668 kJ/mol
# GULP energy per Si atom -12396.939667 kJ/mol
# Density = 2.351350 g / cm^3
# Si number density = 23.567144 Si / 1000 Ang^3
#
#
#
# Elastic Constant Matrix: (Units=GPa)
#
#
# Indices 1 2 3 4 5 6 
#
# 1 97.9918 13.3578 38.2711 17.1531 28.1766 1.8264
# 2 13.3578 50.9431 -3.6516 1.1483 9.6292 -6.7110
# 3 38.2711 -3.6516 79.5090 -2.2595 23.5785 -6.8254
# 4 17.1531 1.1483 -2.2595 32.8933 8.9886 7.0054
# 5 28.1766 9.6292 23.5785 8.9886 44.5525 -6.6036
# 6 1.8264 -6.7110 -6.8254 7.0054 -6.6036 26.6771
#
#
#
# Elastic Compliance Matrix: (Units=1/GPa)
#
#
# Indices 1 2 3 4 5 6 
#
# 1 0.016107 -0.004123 -0.007022 -0.006740 -0.004713 -0.003333
# 2 -0.004123 0.022589 0.004842 0.001664 -0.004329 0.005695
# 3 -0.007022 0.004842 0.018792 0.006131 -0.007331 0.003082
# 4 -0.006740 0.001664 0.006131 0.038733 -0.008617 -0.009856
# 5 -0.004713 -0.004329 -0.007331 -0.008617 0.033140 0.007824
# 6 -0.003333 0.005695 0.003082 -0.009856 0.007824 0.044460
#
#
# Mechanical properties :
#
#
# Convention : Reuss Voigt Hill
#
# Bulk Modulus (GPa) = 22.28092 36.04427 29.16260
# Shear Modulus (GPa) = 24.82778 32.85568 28.84173
#
# Velocity S-wave (km/s) = 3.24927 3.73786 3.50210
# Velocity P-wave (km/s) = 4.85302 5.82720 5.36228
#
# Compressibility (1/GPa) = 0.04488145
#
# Stress axis : x y z
#
# Youngs Moduli (GPa) = 62.08622 44.26964 53.21290
#
# Poissons Ratio (x) = 0.18252 0.37367
# Poissons Ratio (y) = 0.25598 -0.25765
# Poissons Ratio (z) = 0.43598 -0.21435
#
# Static dielectric constant tensor:
#      x y z
#    x 4.067500 -0.112280 0.902310 
#    y -0.112280 3.832750 -0.124510 
#    z 0.902310 -0.124510 3.054510 
# 
# 
# High freq. dielectric constant tensor:
#      x y z
#    x 1.950280 0.003060 0.011660 
#    y 0.003060 1.905370 -0.021070 
#    z 0.011660 -0.021070 1.942470 
# 
# From -- ./inp_files/568497.got.cif
#   From: 2010.06.25/outbox.cif.g09.slc.cpg/sg2_285_cif.got.tgz:568497.got - 2010.06.27 13:26:56.
