data_PCOD8021824
_publ_section_title
;
Structure prediction by ZEFSAII (Michael W. Deem and Ramdas Pophale) SiO2 
 PCOD8021824
Probable space group: P -1
;
_chemical_formula_sum "Si O2"
_cell_formula_units_Z 12
_cell_length_a 11.083170
_cell_length_b 7.943727
_cell_length_c 9.324037
_cell_angle_alpha 86.653816
_cell_angle_beta 72.157082
_cell_angle_gamma 40.936990
_cell_volume 491.893929
_symmetry_space_group_name_H-M "P -1"
_symmetry_group_IT_number 2
_symmetry_cell_setting 'triclinic'
loop_
_space_group_symop_operation_xyz
x,y,z
-x,-y,-z
loop_
_atom_site_type_symbol
_atom_site_label
_atom_site_fract_x
_atom_site_fract_y
_atom_site_fract_z
Si Si1 0.132357 0.711145 0.518434
Si Si2 0.955765 0.874149 0.103777
Si Si3 0.132124 0.481049 0.270039
Si Si4 0.430364 0.800438 0.594939
Si Si5 0.468255 0.957408 0.306483
Si Si6 0.089421 0.558175 0.813430
O O1 0.090353 0.588847 0.440830
O O2 0.368676 0.524587 0.449005
O O3 0.064416 0.737812 0.702648
O O4 0.000000 0.000000 0.500000
O O5 0.143702 0.634887 0.154615
O O6 0.751103 0.100180 0.259159
O O7 0.938470 0.745325 0.992876
O O8 0.000000 0.000000 0.000000
O O9 0.943608 0.580263 0.257805
O O10 0.319019 0.155732 0.217327
O O11 0.373127 0.908352 0.445607
O O12 0.510790 0.889686 0.626660
O O13 0.686973 0.672719 0.188046
#
# Coordination Sequence:
#
# PCOD8021824 Si02
#       6
#     2   2   2   2   2   2
#     4  10  22  44  69 101 130 176 227 275 337 400
#     4  12  26  44  64  98 146 181 209 276 351 394
#     4  11  23  41  74  96 132 175 226 277 327 400
#     4   9  20  41  70  93 141 166 222 285 324 398
#     4   9  20  41  70 104 119 172 235 279 325 380
#     4  11  23  44  68  99 136 170 229 278 326 399
#
# _framework density 24.395502
#
# number of rings (size 3 to 8) (size 9 to 14) (size 15 to 20)
#    0.000    1.667    1.667    3.000    2.333    0.667 
#    6.000    6.667    0.000    0.000    0.000    0.000 
#    0.000    0.000    0.000    0.000    0.000    0.000 
#
# Total GULP energy -148674.634306 kJ/mol
# GULP energy per Si atom -12389.552859 kJ/mol
# Density = 2.433998 g / cm^3
# Si number density = 24.395502 Si / 1000 Ang^3
#
#
#
# Elastic Constant Matrix: (Units=GPa)
#
#
# Indices 1 2 3 4 5 6 
#
# 1 49.4275 26.2054 22.5116 -3.6625 -11.6513 -16.8109
# 2 26.2054 196.5578 75.9484 -30.1076 -16.8287 -20.0393
# 3 22.5116 75.9484 120.0581 -19.3804 -20.5577 -24.5575
# 4 -3.6625 -30.1076 -19.3804 28.1207 1.0967 2.6548
# 5 -11.6513 -16.8287 -20.5577 1.0967 37.5497 -2.2193
# 6 -16.8109 -20.0393 -24.5575 2.6548 -2.2193 27.7767
#
#
#
# Elastic Compliance Matrix: (Units=1/GPa)
#
#
# Indices 1 2 3 4 5 6 
#
# 1 0.029151 -0.001435 0.001024 0.000854 0.010015 0.018231
# 2 -0.001435 0.007593 -0.003152 0.005595 0.001150 0.001380
# 3 0.001024 -0.003152 0.014596 0.005461 0.007406 0.011320
# 4 0.000854 0.005595 0.005461 0.044722 0.004781 0.005489
# 5 0.010015 0.001150 0.007406 0.004781 0.035102 0.015786
# 6 0.018231 0.001380 0.011320 0.005489 0.015786 0.058776
#
#
# Mechanical properties :
#
#
# Convention : Reuss Voigt Hill
#
# Bulk Modulus (GPa) = 22.61730 68.37492 45.49611
# Shear Modulus (GPa) = 23.60673 34.78128 29.19401
#
# Velocity S-wave (km/s) = 3.11411 3.77997 3.46308
# Velocity P-wave (km/s) = 4.71396 6.86582 5.88901
#
# Compressibility (1/GPa) = 0.04421393
#
# Stress axis : x y z
#
# Youngs Moduli (GPa) = 34.30427 131.70179 68.51064
#
# Poissons Ratio (x) = 0.18900 -0.07013
# Poissons Ratio (y) = 0.04923 0.21593
# Poissons Ratio (z) = -0.03512 0.41509
#
# Static dielectric constant tensor:
#      x y z
#    x 4.058970 -0.099320 0.159300 
#    y -0.099320 5.139970 -0.287900 
#    z 0.159300 -0.287900 4.517110 
# 
# 
# High freq. dielectric constant tensor:
#      x y z
#    x 1.937420 0.005580 0.003010 
#    y 0.005580 1.992540 -0.019690 
#    z 0.003010 -0.019690 1.961330 
# 
# From -- ./inp_files/238270.got.cif
#   From: 2010.06.25/outbox.cif.g09.slc.cpg/sg2_120_cif.got.tgz:238270.got - 2010.06.27 13:26:56.
