data_PCOD8021330
_publ_section_title
;
Structure prediction by ZEFSAII (Michael W. Deem and Ramdas Pophale) SiO2 
 PCOD8021330
Probable space group: P -1
;
_chemical_formula_sum "Si O2"
_cell_formula_units_Z 14
_cell_length_a 9.729177
_cell_length_b 11.916685
_cell_length_c 12.823203
_cell_angle_alpha 35.467565
_cell_angle_beta 131.049138
_cell_angle_gamma 121.632984
_cell_volume 650.385668
_symmetry_space_group_name_H-M "P -1"
_symmetry_group_IT_number 2
_symmetry_cell_setting 'triclinic'
loop_
_space_group_symop_operation_xyz
x,y,z
-x,-y,-z
loop_
_atom_site_type_symbol
_atom_site_label
_atom_site_fract_x
_atom_site_fract_y
_atom_site_fract_z
Si Si1 0.224820 0.171572 0.532028
Si Si2 0.664960 0.352582 0.186953
Si Si3 0.444866 0.020737 0.235259
Si Si4 0.182643 0.823845 0.409173
Si Si5 0.917391 0.792962 0.133092
Si Si6 0.981388 0.873829 0.749332
Si Si7 0.012965 0.542013 0.169498
O O1 0.178399 0.386824 0.389827
O O2 0.149917 0.174142 0.374860
O O3 0.442632 0.122835 0.678277
O O4 0.140556 0.009719 0.686509
O O5 0.601349 0.144332 0.275326
O O6 0.746721 0.341311 0.352607
O O7 0.827668 0.424806 0.138452
O O8 0.500000 0.500000 0.000000
O O9 0.345066 0.881086 0.370552
O O10 0.302091 0.171198 0.993974
O O11 0.011643 0.724645 0.340019
O O12 0.130080 0.018982 0.296162
O O13 0.975599 0.657902 0.169052
O O14 0.000000 0.000000 0.000000
O O15 0.060143 0.677783 0.991778
#
# Coordination Sequence:
#
# PCOD8021330 Si02
#       7
#     2   2   2   2   2   2   2
#     4  11  24  39  64 102 135 174 218 273 339 391
#     4  12  22  37  67 106 125 163 234 276 316 387
#     4  11  22  42  67 101 131 166 227 283 319 388
#     4  11  22  43  71  91 136 180 214 273 337 385
#     4  10  22  43  70  94 130 181 222 264 335 398
#     4  11  21  43  66  92 139 178 212 270 342 391
#     4  12  23  42  68  97 137 176 221 270 337 400
#
# _framework density 21.525687999999999
#
# number of rings (size 3 to 8) (size 9 to 14) (size 15 to 20)
#    0.000    0.857    7.143    1.714    2.000    0.571 
#    0.000    3.571    0.000    0.000    0.000    0.000 
#    0.000    0.000    0.000    0.000    0.000    0.000 
#
# Total GULP energy -173540.927380 kJ/mol
# GULP energy per Si atom -12395.780527 kJ/mol
# Density = 2.147669 g / cm^3
# Si number density = 21.525688 Si / 1000 Ang^3
#
#
#
# Elastic Constant Matrix: (Units=GPa)
#
#
# Indices 1 2 3 4 5 6 
#
# 1 124.2369 34.0692 68.6267 -17.8455 27.6177 -1.5899
# 2 34.0692 74.0833 48.7923 0.1982 9.2564 -4.4603
# 3 68.6267 48.7923 156.1046 -2.7899 5.0851 -1.6707
# 4 -17.8455 0.1982 -2.7899 33.6330 -1.3304 1.3678
# 5 27.6177 9.2564 5.0851 -1.3304 41.0700 -16.6517
# 6 -1.5899 -4.4603 -1.6707 1.3678 -16.6517 22.7235
#
#
#
# Elastic Compliance Matrix: (Units=1/GPa)
#
#
# Indices 1 2 3 4 5 6 
#
# 1 0.015787 -0.002482 -0.005704 0.007801 -0.013100 -0.009871
# 2 -0.002482 0.017842 -0.004466 -0.001927 -0.000852 0.002492
# 3 -0.005704 -0.004466 0.010150 -0.002095 0.004772 0.003094
# 4 0.007801 -0.001927 -0.002095 0.033732 -0.006085 -0.006476
# 5 -0.013100 -0.000852 0.004772 -0.006085 0.046114 0.033426
# 6 -0.009871 0.002492 0.003094 -0.006476 0.033426 0.068917
#
#
# Mechanical properties :
#
#
# Convention : Reuss Voigt Hill
#
# Bulk Modulus (GPa) = 54.12492 73.04457 63.58475
# Shear Modulus (GPa) = 22.32098 33.01439 27.66769
#
# Velocity S-wave (km/s) = 3.22366 3.92052 3.58904
# Velocity P-wave (km/s) = 6.24939 7.38250 6.83945
#
# Compressibility (1/GPa) = 0.01847578
#
# Stress axis : x y z
#
# Youngs Moduli (GPa) = 63.34394 56.04598 98.52544
#
# Poissons Ratio (x) = 0.13909 0.56199
# Poissons Ratio (y) = 0.15720 0.44001
# Poissons Ratio (z) = 0.36132 0.25030
#
# Static dielectric constant tensor:
#      x y z
#    x 3.953110 -0.150520 0.084350 
#    y -0.150520 5.400180 0.891380 
#    z 0.084350 0.891380 4.983680 
# 
# 
# High freq. dielectric constant tensor:
#      x y z
#    x 1.840800 -0.005580 0.005660 
#    y -0.005580 1.832290 -0.015390 
#    z 0.005660 -0.015390 1.852540 
# 
# From -- ./inp_files/383128.got.cif
#   From: 2010.06.25/outbox.cif.g09.slc.cpg/sg2_192_cif.got.tgz:383128.got - 2010.06.27 13:26:56.
