data_PCOD8021353
_publ_section_title
;
Structure prediction by ZEFSAII (Michael W. Deem and Ramdas Pophale) SiO2 
 PCOD8021353
Probable space group: P -1
;
_chemical_formula_sum "Si O2"
_cell_formula_units_Z 14
_cell_length_a 14.457625
_cell_length_b 14.320873
_cell_length_c 9.080741
_cell_angle_alpha 33.923033
_cell_angle_beta 39.542615
_cell_angle_gamma 40.257277
_cell_volume 626.528503
_symmetry_space_group_name_H-M "P -1"
_symmetry_group_IT_number 2
_symmetry_cell_setting 'triclinic'
loop_
_space_group_symop_operation_xyz
x,y,z
-x,-y,-z
loop_
_atom_site_type_symbol
_atom_site_label
_atom_site_fract_x
_atom_site_fract_y
_atom_site_fract_z
Si Si1 0.702201 0.602328 0.935475
Si Si2 0.575678 0.512241 0.687969
Si Si3 0.802789 0.946668 0.868377
Si Si4 0.182870 0.379988 0.924477
Si Si5 0.678505 0.923886 0.362913
Si Si6 0.681718 0.222710 0.174116
Si Si7 0.143650 0.795589 0.737983
O O1 0.740278 0.714658 0.607187
O O2 0.537055 0.575564 0.144532
O O3 0.726512 0.696282 0.933650
O O4 0.833751 0.409715 0.047981
O O5 0.714957 0.512397 0.411783
O O6 0.475040 0.709768 0.618287
O O7 0.664797 0.389621 0.872844
O O8 0.969200 0.917705 0.769284
O O9 0.750574 0.132174 0.596669
O O10 0.800570 0.791796 0.966043
O O11 0.697795 0.957086 0.124796
O O12 0.000000 0.500000 0.000000
O O13 0.500000 0.000000 0.500000
O O14 0.734378 0.041741 0.253391
O O15 0.826092 0.184160 0.154709
#
# Coordination Sequence:
#
# PCOD8021353 Si02
#       7
#     2   2   2   2   2   2   2
#     4  11  24  45  71 102 137 177 229 273 345 402
#     4  10  23  42  72 100 136 175 228 282 331 403
#     4  11  26  45  68  99 144 173 229 281 336 403
#     4  12  25  43  69 102 136 179 227 280 335 401
#     4  12  25  42  69 103 136 176 226 282 334 401
#     4  10  22  43  70  98 135 176 228 275 340 399
#     4  10  24  46  69  99 135 185 222 278 342 404
#
# _framework density 22.345354
#
# number of rings (size 3 to 8) (size 9 to 14) (size 15 to 20)
#    0.000    1.143    2.857    2.143    6.000    4.571 
#    0.000    5.000    0.000    0.000    0.000    0.000 
#    0.000    0.000    0.000    0.000    0.000    0.000 
#
# Total GULP energy -173439.741765 kJ/mol
# GULP energy per Si atom -12388.552983 kJ/mol
# Density = 2.229450 g / cm^3
# Si number density = 22.345354 Si / 1000 Ang^3
#
#
#
# Elastic Constant Matrix: (Units=GPa)
#
#
# Indices 1 2 3 4 5 6 
#
# 1 123.3950 22.0171 16.6360 -8.5501 20.2815 21.9854
# 2 22.0171 82.5985 35.8001 -7.6249 2.3791 22.5236
# 3 16.6360 35.8001 86.7534 -11.6822 19.4309 9.1901
# 4 -8.5501 -7.6249 -11.6822 40.3441 1.0805 0.7368
# 5 20.2815 2.3791 19.4309 1.0805 34.3548 -5.0853
# 6 21.9854 22.5236 9.1901 0.7368 -5.0853 36.7418
#
#
#
# Elastic Compliance Matrix: (Units=1/GPa)
#
#
# Indices 1 2 3 4 5 6 
#
# 1 0.011028 -0.000950 0.001361 0.002916 -0.008429 -0.007582
# 2 -0.000950 0.017456 -0.006320 0.001376 0.001647 -0.008351
# 3 0.001361 -0.006320 0.017136 0.004391 -0.010608 -0.002782
# 4 0.002916 0.001376 0.004391 0.027187 -0.005903 -0.005049
# 5 -0.008429 0.001647 -0.010608 -0.005903 0.042023 0.012622
# 6 -0.007582 -0.008351 -0.002782 -0.005049 0.012622 0.039418
#
#
# Mechanical properties :
#
#
# Convention : Reuss Voigt Hill
#
# Bulk Modulus (GPa) = 29.58424 49.07258 39.32841
# Shear Modulus (GPa) = 28.19531 36.84105 32.51818
#
# Velocity S-wave (km/s) = 3.55603 4.06484 3.81892
# Velocity P-wave (km/s) = 5.48897 6.63620 6.08966
#
# Compressibility (1/GPa) = 0.03380178
#
# Stress axis : x y z
#
# Youngs Moduli (GPa) = 90.67491 57.28591 58.35657
#
# Poissons Ratio (x) = 0.05442 -0.07942
# Poissons Ratio (y) = 0.08614 0.36884
# Poissons Ratio (z) = -0.12340 0.36207
#
# Static dielectric constant tensor:
#      x y z
#    x 4.119050 0.041040 -0.073220 
#    y 0.041040 3.883110 -0.095210 
#    z -0.073220 -0.095210 3.693120 
# 
# 
# High freq. dielectric constant tensor:
#      x y z
#    x 1.905660 0.009830 0.012960 
#    y 0.009830 1.863650 -0.011880 
#    z 0.012960 -0.011880 1.879990 
# 
# From -- ./inp_files/157602.got.cif
#   From: 2010.06.25/outbox.cif.g09.slc.cpg/sg2_79_cif.got.tgz:157602.got - 2010.06.27 13:26:56.
