data_PCOD8021292
_publ_section_title
;
Structure prediction by ZEFSAII (Michael W. Deem and Ramdas Pophale) SiO2 
 PCOD8021292
Probable space group: P -1
;
_chemical_formula_sum "Si O2"
_cell_formula_units_Z 16
_cell_length_a 10.471786
_cell_length_b 8.697490
_cell_length_c 16.277136
_cell_angle_alpha 104.671563
_cell_angle_beta 132.132315
_cell_angle_gamma 112.353945
_cell_volume 682.471564
_symmetry_space_group_name_H-M "P -1"
_symmetry_group_IT_number 2
_symmetry_cell_setting 'triclinic'
loop_
_space_group_symop_operation_xyz
x,y,z
-x,-y,-z
loop_
_atom_site_type_symbol
_atom_site_label
_atom_site_fract_x
_atom_site_fract_y
_atom_site_fract_z
Si Si1 0.079346 0.216659 0.842174
Si Si2 0.563343 0.299143 0.836092
Si Si3 0.922824 0.881667 0.863692
Si Si4 0.660182 0.096267 0.964589
Si Si5 0.959256 0.039730 0.344318
Si Si6 0.953039 0.393399 0.375090
Si Si7 0.910920 0.397465 0.704106
Si Si8 0.540763 0.343652 0.648525
O O1 0.889325 0.996649 0.797642
O O2 0.905953 0.214905 0.711375
O O3 0.312751 0.470198 0.026138
O O4 0.192789 0.155147 0.824010
O O5 0.663258 0.194487 0.892385
O O6 0.649522 0.372421 0.789001
O O7 0.242025 0.091291 0.682843
O O8 0.640213 0.591096 0.704001
O O9 0.166531 0.937390 0.957251
O O10 0.000000 0.000000 0.000000
O O11 0.357937 0.831212 0.816690
O O12 0.795575 0.316562 0.115609
O O13 0.058876 0.287847 0.399847
O O14 0.220035 0.116352 0.483228
O O15 0.119540 0.617072 0.410560
O O16 0.000000 0.500000 0.500000
O O17 0.663492 0.310520 0.630244
#
# Coordination Sequence:
#
# PCOD8021292 Si02
#       8
#     2   2   2   2   2   2   2   2
#     4  11  24  42  70  99 134 177 227 276 331 398
#     4  10  22  43  69  99 135 181 223 275 333 400
#     4  11  23  39  67  98 130 176 222 273 322 393
#     4   9  22  41  67  94 132 175 224 271 329 398
#     4  11  25  44  65  98 137 178 223 282 333 397
#     4  11  25  45  69  96 134 181 222 275 339 407
#     4  10  24  44  69  98 134 178 223 277 338 392
#     4  11  24  43  66 100 142 176 223 278 336 397
#
# _framework density 23.444198
#
# number of rings (size 3 to 8) (size 9 to 14) (size 15 to 20)
#    0.000    1.500    1.250    2.625    3.500   10.000 
#    0.000    0.000    0.000    0.000    0.000    0.000 
#    0.000    0.000    0.000    0.000    0.000    0.000 
#
# Total GULP energy -198279.009325 kJ/mol
# GULP energy per Si atom -12392.438083 kJ/mol
# Density = 2.339084 g / cm^3
# Si number density = 23.444198 Si / 1000 Ang^3
#
#
#
# Elastic Constant Matrix: (Units=GPa)
#
#
# Indices 1 2 3 4 5 6 
#
# 1 103.5347 62.5685 38.2003 -12.7477 -22.1250 12.3539
# 2 62.5685 170.3022 24.1969 -21.4674 -11.2135 10.9776
# 3 38.2003 24.1969 73.2061 -8.4264 10.3291 0.6941
# 4 -12.7477 -21.4674 -8.4264 24.5108 8.6968 -9.0453
# 5 -22.1250 -11.2135 10.3291 8.6968 30.7403 2.0573
# 6 12.3539 10.9776 0.6941 -9.0453 2.0573 42.9034
#
#
#
# Elastic Compliance Matrix: (Units=1/GPa)
#
#
# Indices 1 2 3 4 5 6 
#
# 1 0.022748 -0.005477 -0.014070 -0.008483 0.022022 -0.007766
# 2 -0.005477 0.008218 0.001312 0.006290 -0.003227 0.000934
# 3 -0.014070 0.001312 0.025135 0.012991 -0.022245 0.007115
# 4 -0.008483 0.006290 0.012991 0.061222 -0.026487 0.014800
# 5 0.022022 -0.003227 -0.022245 -0.026487 0.063093 -0.013765
# 6 -0.007766 0.000934 0.007115 0.014800 -0.013765 0.028971
#
#
# Mechanical properties :
#
#
# Convention : Reuss Voigt Hill
#
# Bulk Modulus (GPa) = 50.93928 66.33049 58.63489
# Shear Modulus (GPa) = 19.80989 34.43605 27.12297
#
# Velocity S-wave (km/s) = 2.91001 3.83672 3.40504
# Velocity P-wave (km/s) = 5.75030 6.92687 6.36583
#
# Compressibility (1/GPa) = 0.01963122
#
# Stress axis : x y z
#
# Youngs Moduli (GPa) = 43.95985 121.68549 39.78530
#
# Poissons Ratio (x) = 0.66649 0.55978
# Poissons Ratio (y) = 0.24077 -0.05221
# Poissons Ratio (z) = 0.61851 -0.15969
#
# Static dielectric constant tensor:
#      x y z
#    x 3.864960 0.246240 -0.196990 
#    y 0.246240 4.067560 0.114930 
#    z -0.196990 0.114930 4.048170 
# 
# 
# High freq. dielectric constant tensor:
#      x y z
#    x 1.922860 0.000460 -0.008350 
#    y 0.000460 1.941510 0.002240 
#    z -0.008350 0.002240 1.917790 
# 
# From -- ./inp_files/566044.got.cif
#   From: 2010.06.25/outbox.cif.g09.slc.cpg/sg2_284_cif.got.tgz:566044.got - 2010.06.27 13:26:56.
