data_PCOD8021483
_publ_section_title
;
Structure prediction by ZEFSAII (Michael W. Deem and Ramdas Pophale) SiO2 
 PCOD8021483
Probable space group: P -1
;
_chemical_formula_sum "Si O2"
_cell_formula_units_Z 14
_cell_length_a 9.517438
_cell_length_b 11.847655
_cell_length_c 12.625566
_cell_angle_alpha 46.665506
_cell_angle_beta 145.311365
_cell_angle_gamma 123.230636
_cell_volume 588.868128
_symmetry_space_group_name_H-M "P -1"
_symmetry_group_IT_number 2
_symmetry_cell_setting 'triclinic'
loop_
_space_group_symop_operation_xyz
x,y,z
-x,-y,-z
loop_
_atom_site_type_symbol
_atom_site_label
_atom_site_fract_x
_atom_site_fract_y
_atom_site_fract_z
Si Si1 0.525455 0.134241 0.245786
Si Si2 0.662051 0.571987 0.300125
Si Si3 0.074548 0.283281 0.977983
Si Si4 0.547907 0.354997 0.546828
Si Si5 0.175893 0.564942 0.720659
Si Si6 0.382734 0.881185 0.924672
Si Si7 0.167927 0.156456 0.343226
O O1 0.672677 0.290458 0.244564
O O2 0.513276 0.081395 0.150604
O O3 0.665505 0.996247 0.487240
O O4 0.247421 0.159750 0.100284
O O5 0.597748 0.413420 0.420906
O O6 0.663835 0.541502 0.194668
O O7 0.927794 0.627126 0.468722
O O8 0.461928 0.706081 0.120214
O O9 0.122289 0.460359 0.857826
O O10 0.786721 0.250085 0.799680
O O11 0.127096 0.266514 0.145553
O O12 0.500000 0.500000 0.500000
O O13 0.308177 0.251080 0.460869
O O14 0.087066 0.898222 0.730819
O O15 0.500000 0.000000 0.000000
#
# Coordination Sequence:
#
# PCOD8021483 Si02
#       7
#     2   2   2   2   2   2   2
#     4  12  26  46  75 105 147 190 252 295 359 437
#     4  10  22  43  74 104 144 186 245 296 359 435
#     4  11  25  48  76 105 144 188 244 305 359 421
#     4  11  27  45  73 109 151 189 241 299 370 435
#     4  10  22  44  74 110 136 185 245 306 355 425
#     4  12  28  47  74 105 149 198 241 297 371 435
#     4  12  29  47  72 107 150 192 240 303 367 430
#
# _framework density 23.774424
#
# number of rings (size 3 to 8) (size 9 to 14) (size 15 to 20)
#    0.000    0.857    1.429    3.857   10.000    1.714 
#    2.571    0.000    0.000    0.000    0.000    0.000 
#    0.000    0.000    0.000    0.000    0.000    0.000 
#
# Total GULP energy -173684.597490 kJ/mol
# GULP energy per Si atom -12406.042678 kJ/mol
# Density = 2.372031 g / cm^3
# Si number density = 23.774424 Si / 1000 Ang^3
#
#
#
# Elastic Constant Matrix: (Units=GPa)
#
#
# Indices 1 2 3 4 5 6 
#
# 1 94.8316 39.1695 29.7296 12.7164 14.5597 -10.7625
# 2 39.1695 128.7987 59.7422 22.8609 13.6029 -6.3578
# 3 29.7296 59.7422 130.2802 -3.9172 15.6446 -2.6858
# 4 12.7164 22.8609 -3.9172 38.3844 3.0811 7.0451
# 5 14.5597 13.6029 15.6446 3.0811 53.8587 2.0952
# 6 -10.7625 -6.3578 -2.6858 7.0451 2.0952 26.9494
#
#
#
# Elastic Compliance Matrix: (Units=1/GPa)
#
#
# Indices 1 2 3 4 5 6 
#
# 1 0.013641 -0.001849 -0.001957 -0.004546 -0.002634 0.006210
# 2 -0.001849 0.012527 -0.005390 -0.008040 -0.000788 0.003843
# 3 -0.001957 -0.005390 0.010893 0.005511 -0.001500 -0.002292
# 4 -0.004546 -0.008040 0.005511 0.035169 0.000128 -0.012367
# 5 -0.002634 -0.000788 -0.001500 0.000128 0.020022 -0.002977
# 6 0.006210 0.003843 -0.002292 -0.012367 -0.002977 0.043729
#
#
# Mechanical properties :
#
#
# Convention : Reuss Voigt Hill
#
# Bulk Modulus (GPa) = 53.57025 67.91035 60.74030
# Shear Modulus (GPa) = 31.13409 38.85644 34.99527
#
# Velocity S-wave (km/s) = 3.62271 4.04713 3.84079
# Velocity P-wave (km/s) = 6.33091 7.10391 6.72852
#
# Compressibility (1/GPa) = 0.01866708
#
# Stress axis : x y z
#
# Youngs Moduli (GPa) = 73.30847 79.83066 91.80396
#
# Poissons Ratio (x) = 0.14760 0.17970
# Poissons Ratio (y) = 0.13554 0.49485
# Poissons Ratio (z) = 0.14349 0.43031
#
# Static dielectric constant tensor:
#      x y z
#    x 4.393920 0.040080 0.144060 
#    y 0.040080 4.019890 -0.004030 
#    z 0.144060 -0.004030 4.678920 
# 
# 
# High freq. dielectric constant tensor:
#      x y z
#    x 1.943850 0.001560 0.004330 
#    y 0.001560 1.926930 0.002890 
#    z 0.004330 0.002890 1.967890 
# 
# From -- ./inp_files/392248.got.cif
#   From: 2010.06.25/outbox.cif.g09.slc.cpg/sg2_197_cif.got.tgz:392248.got - 2010.06.27 13:26:56.
