data_PCOD8021213
_publ_section_title
;
Structure prediction by ZEFSAII (Michael W. Deem and Ramdas Pophale) SiO2 
 PCOD8021213
Probable space group: P -1
;
_chemical_formula_sum "Si O2"
_cell_formula_units_Z 12
_cell_length_a 12.303448
_cell_length_b 15.250305
_cell_length_c 8.890638
_cell_angle_alpha 139.646973
_cell_angle_beta 126.281335
_cell_angle_gamma 27.689811
_cell_volume 482.422532
_symmetry_space_group_name_H-M "P -1"
_symmetry_group_IT_number 2
_symmetry_cell_setting 'triclinic'
loop_
_space_group_symop_operation_xyz
x,y,z
-x,-y,-z
loop_
_atom_site_type_symbol
_atom_site_label
_atom_site_fract_x
_atom_site_fract_y
_atom_site_fract_z
Si Si1 0.774044 0.490605 0.972608
Si Si2 0.668811 0.870992 0.326759
Si Si3 0.981201 0.234985 0.360653
Si Si4 0.196108 0.947485 0.624501
Si Si5 0.622953 0.666573 0.420234
Si Si6 0.682818 0.227426 0.174750
O O1 0.768251 0.638030 0.068388
O O2 0.680160 0.578895 0.182226
O O3 0.598241 0.532118 0.794935
O O4 0.053929 0.209744 0.833792
O O5 0.889595 0.792410 0.434395
O O6 0.500000 0.000000 0.500000
O O7 0.487104 0.087817 0.335564
O O8 0.860020 0.449401 0.433536
O O9 0.785171 0.294722 0.347042
O O10 0.178338 0.986174 0.104770
O O11 0.409095 0.749251 0.417608
O O12 0.305995 0.846082 0.747946
O O13 0.000000 0.000000 0.500000
#
# Coordination Sequence:
#
# PCOD8021213 Si02
#       6
#     2   2   2   2   2   2
#     4  11  25  47  71  96 139 179 225 277 333 403
#     4  10  22  43  69 100 132 182 225 269 340 398
#     4  11  22  40  73  97 134 177 227 273 333 404
#     4  12  27  43  68 105 138 174 227 279 338 398
#     4  11  24  43  69  99 133 180 222 277 334 395
#     4  11  24  42  68 103 132 180 223 276 340 393
#
# _framework density 24.874462000000001
#
# number of rings (size 3 to 8) (size 9 to 14) (size 15 to 20)
#    0.000    1.000    5.000    2.000    2.333   10.000 
#    0.000    1.667    0.000    0.000    0.000    0.000 
#    0.000    0.000    0.000    0.000    0.000    0.000 
#
# Total GULP energy -148775.110398 kJ/mol
# GULP energy per Si atom -12397.925867 kJ/mol
# Density = 2.481785 g / cm^3
# Si number density = 24.874462 Si / 1000 Ang^3
#
#
#
# Elastic Constant Matrix: (Units=GPa)
#
#
# Indices 1 2 3 4 5 6 
#
# 1 50.8577 22.0425 12.9082 -2.9534 16.2067 0.9960
# 2 22.0425 136.5927 18.1492 8.0108 -2.4777 24.4678
# 3 12.9082 18.1492 63.0798 4.5497 4.8228 -0.1112
# 4 -2.9534 8.0108 4.5497 30.4298 0.2227 7.9395
# 5 16.2067 -2.4777 4.8228 0.2227 36.1647 2.5415
# 6 0.9960 24.4678 -0.1112 7.9395 2.5415 48.6404
#
#
#
# Elastic Compliance Matrix: (Units=1/GPa)
#
#
# Indices 1 2 3 4 5 6 
#
# 1 0.026505 -0.004570 -0.003482 0.003932 -0.011872 0.001727
# 2 -0.004570 0.009259 -0.001881 -0.001449 0.003258 -0.004502
# 3 -0.003482 -0.001881 0.017390 -0.002846 -0.000981 0.001573
# 4 0.003932 -0.001449 -0.002846 0.035382 -0.001344 -0.005063
# 5 -0.011872 0.003258 -0.000981 -0.001344 0.033540 -0.002931
# 6 0.001727 -0.004502 0.001573 -0.005063 -0.002931 0.023772
#
#
# Mechanical properties :
#
#
# Convention : Reuss Voigt Hill
#
# Bulk Modulus (GPa) = 30.04131 39.63667 34.83899
# Shear Modulus (GPa) = 28.27905 36.20898 32.24402
#
# Velocity S-wave (km/s) = 3.37541 3.81946 3.60428
# Velocity P-wave (km/s) = 5.22442 5.95150 5.59977
#
# Compressibility (1/GPa) = 0.03328750
#
# Stress axis : x y z
#
# Youngs Moduli (GPa) = 37.72892 108.00295 57.50503
#
# Poissons Ratio (x) = 0.49355 0.20022
# Poissons Ratio (y) = 0.17241 0.10819
# Poissons Ratio (z) = 0.13137 0.20320
#
# Static dielectric constant tensor:
#      x y z
#    x 4.844760 0.311390 0.257830 
#    y 0.311390 5.099690 0.551460 
#    z 0.257830 0.551460 4.613220 
# 
# 
# High freq. dielectric constant tensor:
#      x y z
#    x 2.001440 0.009000 -0.005610 
#    y 0.009000 2.009200 0.025130 
#    z -0.005610 0.025130 1.971280 
# 
# From -- ./inp_files/203306.got.cif
#   From: 2010.06.25/outbox.cif.g09.slc.cpg/sg2_102_cif.got.tgz:203306.got - 2010.06.27 13:26:56.
