data_PCOD8021627
_publ_section_title
;
Structure prediction by ZEFSAII (Michael W. Deem and Ramdas Pophale) SiO2 
 PCOD8021627
Probable space group: P -1
;
_chemical_formula_sum "Si O2"
_cell_formula_units_Z 16
_cell_length_a 23.585928
_cell_length_b 6.767421
_cell_length_c 13.067218
_cell_angle_alpha 102.002724
_cell_angle_beta 34.701672
_cell_angle_gamma 127.564934
_cell_volume 715.377884
_symmetry_space_group_name_H-M "P -1"
_symmetry_group_IT_number 2
_symmetry_cell_setting 'triclinic'
loop_
_space_group_symop_operation_xyz
x,y,z
-x,-y,-z
loop_
_atom_site_type_symbol
_atom_site_label
_atom_site_fract_x
_atom_site_fract_y
_atom_site_fract_z
Si Si1 0.333559 0.520250 0.418814
Si Si2 0.829772 0.724048 0.164832
Si Si3 0.201974 0.718059 0.942084
Si Si4 0.363312 0.216842 0.594545
Si Si5 0.144960 0.126795 0.357347
Si Si6 0.401966 0.293702 0.866886
Si Si7 0.136063 0.859292 0.537864
Si Si8 0.675447 0.238496 0.726744
O O1 0.306748 0.545414 0.577694
O O2 0.509369 0.689659 0.171905
O O3 0.326440 0.715610 0.386426
O O4 0.195320 0.142644 0.547359
O O5 0.787442 0.871653 0.196430
O O6 0.813565 0.549563 0.071929
O O7 0.000000 0.000000 0.000000
O O8 0.020640 0.498516 0.217438
O O9 0.266782 0.872937 0.748086
O O10 0.322328 0.999468 0.878483
O O11 0.500000 0.500000 0.500000
O O12 0.457946 0.347478 0.359692
O O13 0.212453 0.420325 0.350458
O O14 0.095748 0.870030 0.482725
O O15 0.271214 0.237636 0.100339
O O16 0.000000 0.000000 0.500000
O O17 0.273952 0.908392 0.338342
O O18 0.500000 0.000000 0.000000
#
# Coordination Sequence:
#
# PCOD8021627 Si02
#       8
#     2   2   2   2   2   2   2   2
#     4  10  23  42  63  94 135 166 212 276 318 379
#     4  11  23  41  65  96 130 169 221 267 321 389
#     4  11  24  41  69  94 133 173 213 266 328 388
#     4   9  23  42  63  95 132 171 214 269 321 386
#     4  11  25  44  67  95 131 167 215 278 319 378
#     4  10  22  44  65  95 134 171 218 270 321 389
#     4  11  24  42  64  98 129 167 219 267 324 385
#     4  11  24  41  67  94 125 174 218 260 328 389
#
# _framework density 22.365803
#
# number of rings (size 3 to 8) (size 9 to 14) (size 15 to 20)
#    0.000    1.500    1.250    2.250    1.750   15.000 
#    0.000    1.250    0.000    0.000    0.000    0.000 
#    0.000    0.000    0.000    0.000    0.000    0.000 
#
# Total GULP energy -198239.613556 kJ/mol
# GULP energy per Si atom -12389.975847 kJ/mol
# Density = 2.231490 g / cm^3
# Si number density = 22.365803 Si / 1000 Ang^3
#
#
#
# Elastic Constant Matrix: (Units=GPa)
#
#
# Indices 1 2 3 4 5 6 
#
# 1 118.4635 20.1009 37.1830 4.0547 -15.6483 -20.5814
# 2 20.1009 54.1727 14.0140 5.0721 5.4932 -9.2724
# 3 37.1830 14.0140 120.4446 3.9208 -8.8968 -18.0953
# 4 4.0547 5.0721 3.9208 36.6209 -0.8193 -0.3693
# 5 -15.6483 5.4932 -8.8968 -0.8193 41.0679 3.7426
# 6 -20.5814 -9.2724 -18.0953 -0.3693 3.7426 30.8632
#
#
#
# Elastic Compliance Matrix: (Units=1/GPa)
#
#
# Indices 1 2 3 4 5 6 
#
# 1 0.010917 -0.003053 -0.002018 -0.000440 0.003691 0.004727
# 2 -0.003053 0.021335 -0.001169 -0.002554 -0.004707 0.004229
# 3 -0.002018 -0.001169 0.009746 -0.000594 0.001134 0.003873
# 4 -0.000440 -0.002554 -0.000594 0.027777 0.000706 -0.001162
# 5 0.003691 -0.004707 0.001134 0.000706 0.026785 -0.001527
# 6 0.004727 0.004229 0.003873 -0.001162 -0.001527 0.039266
#
#
# Mechanical properties :
#
#
# Convention : Reuss Voigt Hill
#
# Bulk Modulus (GPa) = 33.87694 48.40852 41.14273
# Shear Modulus (GPa) = 31.61671 36.49593 34.05632
#
# Velocity S-wave (km/s) = 3.76389 4.04390 3.90641
# Velocity P-wave (km/s) = 5.83685 6.59509 6.22752
#
# Compressibility (1/GPa) = 0.02951860
#
# Stress axis : x y z
#
# Youngs Moduli (GPa) = 91.60353 46.87163 102.60095
#
# Poissons Ratio (x) = 0.14309 0.20703
# Poissons Ratio (y) = 0.27964 0.11995
# Poissons Ratio (z) = 0.18484 0.05480
#
# Static dielectric constant tensor:
#      x y z
#    x 4.289140 -0.256960 0.074530 
#    y -0.256960 3.804240 0.045470 
#    z 0.074530 0.045470 4.236010 
# 
# 
# High freq. dielectric constant tensor:
#      x y z
#    x 1.886940 0.001400 -0.002820 
#    y 0.001400 1.870680 0.000520 
#    z -0.002820 0.000520 1.893660 
# 
# From -- ./inp_files/526025.got.cif
#   From: 2010.06.25/outbox.cif.g09.slc.cpg/sg2_264_cif.got.tgz:526025.got - 2010.06.27 13:26:56.
