data_PCOD8021931
_publ_section_title
;
Structure prediction by ZEFSAII (Michael W. Deem and Ramdas Pophale) SiO2 
 PCOD8021931
Probable space group: P -1
;
_chemical_formula_sum "Si O2"
_cell_formula_units_Z 16
_cell_length_a 20.217619
_cell_length_b 11.308750
_cell_length_c 14.377849
_cell_angle_alpha 129.960906
_cell_angle_beta 152.741937
_cell_angle_gamma 32.278004
_cell_volume 719.246068
_symmetry_space_group_name_H-M "P -1"
_symmetry_group_IT_number 2
_symmetry_cell_setting 'triclinic'
loop_
_space_group_symop_operation_xyz
x,y,z
-x,-y,-z
loop_
_atom_site_type_symbol
_atom_site_label
_atom_site_fract_x
_atom_site_fract_y
_atom_site_fract_z
Si Si1 0.619777 0.043459 0.072640
Si Si2 0.637580 0.233449 0.018719
Si Si3 0.999161 0.503948 0.230216
Si Si4 0.829922 0.121481 0.501045
Si Si5 0.940449 0.960447 0.758964
Si Si6 0.118238 0.489498 0.722732
Si Si7 0.599592 0.616358 0.391718
Si Si8 0.195058 0.024546 0.204798
O O1 0.552444 0.188833 0.968726
O O2 0.794605 0.993895 0.333140
O O3 0.736478 0.788529 0.050071
O O4 0.384538 0.208642 0.920721
O O5 0.500000 0.500000 0.000000
O O6 0.566135 0.231267 0.827669
O O7 0.910686 0.034857 0.267334
O O8 0.049358 0.421540 0.357991
O O9 0.159305 0.500327 0.384375
O O10 0.039378 0.306233 0.129044
O O11 0.782544 0.132520 0.558048
O O12 0.651496 0.397830 0.378180
O O13 0.791093 0.033419 0.698428
O O14 0.114898 0.677686 0.803043
O O15 0.095260 0.974620 0.989357
O O16 0.000000 0.500000 0.500000
O O17 0.462658 0.821653 0.406041
#
# Coordination Sequence:
#
# PCOD8021931 Si02
#       8
#     2   2   2   2   2   2   2   2
#     4  12  23  41  68 105 139 173 225 287 342 414
#     4  12  22  39  65 103 141 174 214 281 350 402
#     4  11  24  41  65  99 139 180 229 278 332 411
#     4  12  23  41  70 107 132 170 232 281 347 404
#     4  10  22  44  70  98 131 181 232 284 328 403
#     4  11  23  44  69 100 137 176 221 285 356 401
#     4  12  23  43  68 100 140 181 225 281 341 401
#     4  10  23  45  69  94 138 186 235 274 334 397
#
# _framework density 22.245515999999999
#
# number of rings (size 3 to 8) (size 9 to 14) (size 15 to 20)
#    0.000    0.750    3.750    4.875    0.000    0.500 
#    0.000    6.250    0.000    0.000    0.000    0.000 
#    0.000    0.000    0.000    0.000    0.000    0.000 
#
# Total GULP energy -198308.619040 kJ/mol
# GULP energy per Si atom -12394.288690 kJ/mol
# Density = 2.219488 g / cm^3
# Si number density = 22.245516 Si / 1000 Ang^3
#
#
#
# Elastic Constant Matrix: (Units=GPa)
#
#
# Indices 1 2 3 4 5 6 
#
# 1 108.2748 37.6372 27.8975 -3.4977 -6.6315 -11.3698
# 2 37.6372 166.5815 34.9983 0.9729 2.5015 -5.4238
# 3 27.8975 34.9983 76.0776 -3.7505 -2.3036 -9.0302
# 4 -3.4977 0.9729 -3.7505 25.8191 -2.3941 3.5430
# 5 -6.6315 2.5015 -2.3036 -2.3941 40.2213 -9.1492
# 6 -11.3698 -5.4238 -9.0302 3.5430 -9.1492 33.9667
#
#
#
# Elastic Compliance Matrix: (Units=1/GPa)
#
#
# Indices 1 2 3 4 5 6 
#
# 1 0.011123 -0.001885 -0.002692 0.000975 0.002607 0.003307
# 2 -0.001885 0.006994 -0.002653 -0.000946 -0.001045 -0.000402
# 3 -0.002692 -0.002653 0.015849 0.001746 0.001436 0.003094
# 4 0.000975 -0.000946 0.001746 0.039746 0.002011 -0.002965
# 5 0.002607 -0.001045 0.001436 0.002011 0.027440 0.008269
# 6 0.003307 -0.000402 0.003094 -0.002965 0.008269 0.033842
#
#
# Mechanical properties :
#
#
# Convention : Reuss Voigt Hill
#
# Bulk Modulus (GPa) = 51.26317 61.33334 56.29826
# Shear Modulus (GPa) = 32.06038 36.69480 34.37759
#
# Velocity S-wave (km/s) = 3.80044 4.06586 3.93539
# Velocity P-wave (km/s) = 6.50785 7.04787 6.78324
#
# Compressibility (1/GPa) = 0.01950718
#
# Stress axis : x y z
#
# Youngs Moduli (GPa) = 89.90384 142.97347 63.09652
#
# Poissons Ratio (x) = 0.26946 0.16987
# Poissons Ratio (y) = 0.16944 0.16737
# Poissons Ratio (z) = 0.24204 0.37924
#
# Static dielectric constant tensor:
#      x y z
#    x 5.421570 0.020070 -0.666810 
#    y 0.020070 4.456180 -0.454520 
#    z -0.666810 -0.454520 4.822240 
# 
# 
# High freq. dielectric constant tensor:
#      x y z
#    x 1.900680 -0.000240 0.003850 
#    y -0.000240 1.888750 -0.003460 
#    z 0.003850 -0.003460 1.845410 
# 
# From -- ./inp_files/540985.got.cif
#   From: 2010.06.25/outbox.cif.g09.slc.cpg/sg2_271_cif.got.tgz:540985.got - 2010.06.27 13:26:56.
