data_PCOD8021553
_publ_section_title
;
Structure prediction by ZEFSAII (Michael W. Deem and Ramdas Pophale) SiO2 
 PCOD8021553
Probable space group: P -1
;
_chemical_formula_sum "Si O2"
_cell_formula_units_Z 16
_cell_length_a 6.010239
_cell_length_b 8.891648
_cell_length_c 17.484094
_cell_angle_alpha 77.233944
_cell_angle_beta 77.165310
_cell_angle_gamma 50.856091
_cell_volume 702.514992
_symmetry_space_group_name_H-M "P -1"
_symmetry_group_IT_number 2
_symmetry_cell_setting 'triclinic'
loop_
_space_group_symop_operation_xyz
x,y,z
-x,-y,-z
loop_
_atom_site_type_symbol
_atom_site_label
_atom_site_fract_x
_atom_site_fract_y
_atom_site_fract_z
Si Si1 0.256756 0.893595 0.657026
Si Si2 0.696987 0.237026 0.586474
Si Si3 0.336167 0.162238 0.720729
Si Si4 0.331355 0.908993 0.147078
Si Si5 0.314467 0.414314 0.451230
Si Si6 0.166377 0.703324 0.813956
Si Si7 0.792727 0.387967 0.822218
Si Si8 0.107440 0.402098 0.921354
O O1 0.570110 0.737937 0.610678
O O2 0.128021 0.795328 0.722143
O O3 0.307189 0.008821 0.700395
O O4 0.015968 0.033230 0.595283
O O5 0.453997 0.241088 0.646633
O O6 0.585143 0.292056 0.502292
O O7 0.712735 0.402683 0.600656
O O8 0.537746 0.063421 0.790799
O O9 0.027455 0.358641 0.748897
O O10 0.234971 0.775481 0.185135
O O11 0.570375 0.804910 0.072663
O O12 0.045761 0.127783 0.126089
O O13 0.000000 0.500000 0.500000
O O14 0.497392 0.605197 0.819346
O O15 0.117143 0.539899 0.843575
O O16 0.900842 0.358230 0.905466
O O17 0.000000 0.500000 0.000000
#
# Coordination Sequence:
#
# PCOD8021553 Si02
#       8
#     2   2   2   2   2   2   2   2
#     4  12  26  42  70  98 135 173 227 282 338 393
#     4  11  25  46  67  94 137 174 227 277 338 396
#     4  11  22  42  69  95 134 173 217 287 332 385
#     4  10  22  44  64 100 137 165 225 276 327 398
#     4  11  28  47  66  96 134 184 224 273 345 402
#     4  11  24  40  69 104 129 175 228 273 335 396
#     4  10  23  41  67  98 136 168 222 274 335 391
#     4  10  25  45  69  99 140 180 218 271 334 402
#
# _framework density 22.775316
#
# number of rings (size 3 to 8) (size 9 to 14) (size 15 to 20)
#    0.000    1.250    2.500    1.125   10.500    6.500 
#    0.000    1.250    0.000    0.000    0.000    0.000 
#    0.000    0.000    0.000    0.000    0.000    0.000 
#
# Total GULP energy -198246.808765 kJ/mol
# GULP energy per Si atom -12390.425548 kJ/mol
# Density = 2.272348 g / cm^3
# Si number density = 22.775316 Si / 1000 Ang^3
#
#
#
# Elastic Constant Matrix: (Units=GPa)
#
#
# Indices 1 2 3 4 5 6 
#
# 1 95.9298 58.1945 28.5259 7.7783 -0.2345 -8.9640
# 2 58.1945 152.7735 40.3950 31.4518 2.3994 -31.4082
# 3 28.5259 40.3950 61.9062 22.8182 1.7881 0.2318
# 4 7.7783 31.4518 22.8182 41.5454 -0.7980 -10.7936
# 5 -0.2345 2.3994 1.7881 -0.7980 22.8023 6.4271
# 6 -8.9640 -31.4082 0.2318 -10.7936 6.4271 38.5750
#
#
#
# Elastic Compliance Matrix: (Units=1/GPa)
#
#
# Indices 1 2 3 4 5 6 
#
# 1 0.014661 -0.005055 -0.004913 0.003856 0.001144 0.000209
# 2 -0.005055 0.012078 -0.004035 -0.003927 -0.003443 0.008158
# 3 -0.004913 -0.004035 0.025547 -0.012133 0.000204 -0.008010
# 4 0.003856 -0.003927 -0.012133 0.034933 0.000525 0.007458
# 5 0.001144 -0.003443 0.000204 0.000525 0.047119 -0.010243
# 6 0.000209 0.008158 -0.008010 0.007458 -0.010243 0.036457
#
#
# Mechanical properties :
#
#
# Convention : Reuss Voigt Hill
#
# Bulk Modulus (GPa) = 41.18555 62.76002 51.97278
# Shear Modulus (GPa) = 24.16703 32.81748 28.49226
#
# Velocity S-wave (km/s) = 3.26100 3.80007 3.54081
# Velocity P-wave (km/s) = 5.68344 6.84617 6.29172
#
# Compressibility (1/GPa) = 0.02428036
#
# Stress axis : x y z
#
# Youngs Moduli (GPa) = 68.20767 82.79568 39.14374
#
# Poissons Ratio (x) = 0.41849 0.19230
# Poissons Ratio (y) = 0.34476 0.15796
# Poissons Ratio (z) = 0.33509 0.33412
#
# Static dielectric constant tensor:
#      x y z
#    x 4.341040 -0.221960 -0.055480 
#    y -0.221960 4.356460 0.127430 
#    z -0.055480 0.127430 3.799210 
# 
# 
# High freq. dielectric constant tensor:
#      x y z
#    x 1.905820 -0.013230 -0.007060 
#    y -0.013230 1.913570 0.015280 
#    z -0.007060 0.015280 1.872940 
# 
# From -- ./inp_files/548027.got.cif
#   From: 2010.06.25/outbox.cif.g09.slc.cpg/sg2_275_cif.got.tgz:548027.got - 2010.06.27 13:26:56.
