data_PCOD8021665
_publ_section_title
;
Structure prediction by ZEFSAII (Michael W. Deem and Ramdas Pophale) SiO2 
 PCOD8021665
Probable space group: P -1
;
_chemical_formula_sum "Si O2"
_cell_formula_units_Z 12
_cell_length_a 14.408456
_cell_length_b 10.471961
_cell_length_c 14.016767
_cell_angle_alpha 131.477270
_cell_angle_beta 149.682650
_cell_angle_gamma 32.663662
_cell_volume 559.853962
_symmetry_space_group_name_H-M "P -1"
_symmetry_group_IT_number 2
_symmetry_cell_setting 'triclinic'
loop_
_space_group_symop_operation_xyz
x,y,z
-x,-y,-z
loop_
_atom_site_type_symbol
_atom_site_label
_atom_site_fract_x
_atom_site_fract_y
_atom_site_fract_z
Si Si1 0.413956 0.788771 0.308870
Si Si2 0.381440 0.745477 0.468443
Si Si3 0.918039 0.656558 0.719304
Si Si4 0.938736 0.996350 0.333496
Si Si5 0.421230 0.485921 0.025827
Si Si6 0.930515 0.481748 0.827029
O O1 0.310539 0.770105 0.306277
O O2 0.730240 0.622016 0.503365
O O3 0.336697 0.707692 0.119052
O O4 0.259527 0.061710 0.285664
O O5 0.500000 0.500000 0.500000
O O6 0.616822 0.725419 0.665144
O O7 0.136814 0.970432 0.426779
O O8 0.053759 0.518587 0.872755
O O9 0.166993 0.529897 0.808883
O O10 0.647000 0.239899 0.164005
O O11 0.000000 0.000000 0.500000
O O12 0.979788 0.770475 0.237066
O O13 0.500000 0.500000 0.000000
O O14 0.000000 0.500000 0.000000
#
# Coordination Sequence:
#
# PCOD8021665 Si02
#       6
#     2   2   2   2   2   2
#     4  10  22  44  66  92 129 175 219 261 326 389
#     4   9  19  39  65  86 122 174 213 253 317 392
#     4  10  23  42  66  92 129 170 221 266 314 400
#     4  11  24  42  64  96 136 169 210 273 339 380
#     4  12  26  40  66 100 133 169 215 273 334 381
#     4  10  23  39  65  94 120 172 224 261 311 387
#
# _framework density 21.434159999999999
#
# number of rings (size 3 to 8) (size 9 to 14) (size 15 to 20)
#    0.000    1.667    0.000    4.500    9.333    1.333 
#    3.000    0.000    0.000    0.000    0.000    0.000 
#    0.000    0.000    0.000    0.000    0.000    0.000 
#
# Total GULP energy -148699.065369 kJ/mol
# GULP energy per Si atom -12391.588781 kJ/mol
# Density = 2.138537 g / cm^3
# Si number density = 21.434160 Si / 1000 Ang^3
#
#
#
# Elastic Constant Matrix: (Units=GPa)
#
#
# Indices 1 2 3 4 5 6 
#
# 1 160.7258 21.7809 45.1939 5.2625 -4.1823 -4.1852
# 2 21.7809 73.7533 19.9941 -2.4666 -6.9436 2.9384
# 3 45.1939 19.9941 78.0641 -0.1086 -8.6688 -8.8977
# 4 5.2625 -2.4666 -0.1086 33.4822 -10.5924 -2.8408
# 5 -4.1823 -6.9436 -8.6688 -10.5924 48.4307 -7.6284
# 6 -4.1852 2.9384 -8.8977 -2.8408 -7.6284 37.3819
#
#
#
# Elastic Compliance Matrix: (Units=1/GPa)
#
#
# Indices 1 2 3 4 5 6 
#
# 1 0.007590 -0.001205 -0.004194 -0.001526 -0.000649 -0.000302
# 2 -0.001205 0.015041 -0.003160 0.001654 0.001594 -0.001618
# 3 -0.004194 -0.003160 0.016955 0.001945 0.003378 0.004652
# 4 -0.001526 0.001654 0.001945 0.033274 0.008425 0.004410
# 5 -0.000649 0.001594 0.003378 0.008425 0.024243 0.006194
# 6 -0.000302 -0.001618 0.004652 0.004410 0.006194 0.029550
#
#
# Mechanical properties :
#
#
# Convention : Reuss Voigt Hill
#
# Bulk Modulus (GPa) = 44.50698 54.05345 49.28022
# Shear Modulus (GPa) = 33.05545 38.89726 35.97635
#
# Velocity S-wave (km/s) = 3.93133 4.26459 4.10134
# Velocity P-wave (km/s) = 6.43558 7.03719 6.74310
#
# Compressibility (1/GPa) = 0.02246838
#
# Stress axis : x y z
#
# Youngs Moduli (GPa) = 131.76084 66.48507 58.97813
#
# Poissons Ratio (x) = 0.08008 0.24736
# Poissons Ratio (y) = 0.15871 0.18638
# Poissons Ratio (z) = 0.55261 0.21011
#
# Static dielectric constant tensor:
#      x y z
#    x 3.843960 -0.085020 0.468210 
#    y -0.085020 3.573240 -0.299760 
#    z 0.468210 -0.299760 4.025930 
# 
# 
# High freq. dielectric constant tensor:
#      x y z
#    x 1.861800 0.010240 0.001720 
#    y 0.010240 1.828910 -0.018160 
#    z 0.001720 -0.018160 1.838600 
# 
# From -- ./inp_files/314518.got.cif
#   From: 2010.06.25/outbox.cif.g09.slc.cpg/sg2_158_cif.got.tgz:314518.got - 2010.06.27 13:26:56.
