data_PCOD8021226
_publ_section_title
;
Structure prediction by ZEFSAII (Michael W. Deem and Ramdas Pophale) SiO2 
 PCOD8021226
Probable space group: P -1
;
_chemical_formula_sum "Si O2"
_cell_formula_units_Z 16
_cell_length_a 8.863285
_cell_length_b 15.617374
_cell_length_c 5.417788
_cell_angle_alpha 79.336346
_cell_angle_beta 105.511651
_cell_angle_gamma 75.303862
_cell_volume 672.760263
_symmetry_space_group_name_H-M "P -1"
_symmetry_group_IT_number 2
_symmetry_cell_setting 'triclinic'
loop_
_space_group_symop_operation_xyz
x,y,z
-x,-y,-z
loop_
_atom_site_type_symbol
_atom_site_label
_atom_site_fract_x
_atom_site_fract_y
_atom_site_fract_z
Si Si1 0.209497 0.693270 0.274625
Si Si2 0.325427 0.860153 0.267787
Si Si3 0.071116 0.606788 0.650689
Si Si4 0.621594 0.915064 0.453793
Si Si5 0.876653 0.742932 0.878347
Si Si6 0.190689 0.961935 0.663671
Si Si7 0.212456 0.406848 0.819325
Si Si8 0.479107 0.556924 0.209480
O O1 0.317952 0.758173 0.353954
O O2 0.217690 0.622201 0.539502
O O3 0.294821 0.633146 0.102774
O O4 0.013669 0.750573 0.132550
O O5 0.512018 0.861974 0.290443
O O6 0.272391 0.908040 0.482515
O O7 0.213657 0.903802 0.957379
O O8 0.156323 0.507961 0.877561
O O9 0.993861 0.697729 0.727068
O O10 0.922499 0.594172 0.436695
O O11 0.749939 0.843749 0.728171
O O12 0.500000 0.000000 0.500000
O O13 0.730539 0.955877 0.295762
O O14 0.772708 0.675098 0.938086
O O15 0.000000 0.000000 0.500000
O O16 0.387122 0.388700 0.768674
O O17 0.500000 0.500000 0.500000
O O18 0.500000 0.500000 0.000000
#
# Coordination Sequence:
#
# PCOD8021226 Si02
#       8
#     2   2   2   2   2   2   2   2
#     4  11  26  43  71 108 147 192 253 309 372 447
#     4  11  26  45  72 107 145 186 243 303 370 442
#     4  10  22  43  69 102 146 189 246 303 367 443
#     4  10  25  48  71 102 150 191 250 308 381 438
#     4  11  24  45  72 103 141 200 251 308 368 451
#     4  11  24  47  75 107 141 191 238 305 374 446
#     4  10  23  42  69 102 143 193 246 300 371 435
#     4  12  27  44  70 103 148 194 242 303 372 434
#
# _framework density 23.782615
#
# number of rings (size 3 to 8) (size 9 to 14) (size 15 to 20)
#    0.000    1.250    1.250    2.625    7.000    3.000 
#    9.000    0.000    0.000    0.000    0.000    0.000 
#    0.000    0.000    0.000    0.000    0.000    0.000 
#
# Total GULP energy -198273.273641 kJ/mol
# GULP energy per Si atom -12392.079603 kJ/mol
# Density = 2.372848 g / cm^3
# Si number density = 23.782615 Si / 1000 Ang^3
#
#
#
# Elastic Constant Matrix: (Units=GPa)
#
#
# Indices 1 2 3 4 5 6 
#
# 1 166.0296 51.9117 24.9295 -8.9656 -9.0698 19.2539
# 2 51.9117 99.1230 25.3309 -14.2537 -2.6906 0.8749
# 3 24.9295 25.3309 87.5766 -1.7217 -12.2647 -4.5577
# 4 -8.9656 -14.2537 -1.7217 36.1663 -3.3797 4.1990
# 5 -9.0698 -2.6906 -12.2647 -3.3797 35.1706 -2.9553
# 6 19.2539 0.8749 -4.5577 4.1990 -2.9553 46.2230
#
#
#
# Elastic Compliance Matrix: (Units=1/GPa)
#
#
# Indices 1 2 3 4 5 6 
#
# 1 0.007825 -0.003598 -0.001180 0.000958 0.001144 -0.003322
# 2 -0.003598 0.013249 -0.002758 0.004091 -0.000435 0.000577
# 3 -0.001180 -0.002758 0.013246 -0.000607 0.004228 0.002175
# 4 0.000958 0.004091 -0.000607 0.030107 0.002983 -0.003081
# 5 0.001144 -0.000435 0.004228 0.002983 0.030593 0.001634
# 6 -0.003322 0.000577 0.002175 -0.003081 0.001634 0.023606
#
#
# Mechanical properties :
#
#
# Convention : Reuss Voigt Hill
#
# Bulk Modulus (GPa) = 51.95964 61.89706 56.92835
# Shear Modulus (GPa) = 35.68505 40.21579 37.95042
#
# Velocity S-wave (km/s) = 3.87779 4.11661 3.99898
# Velocity P-wave (km/s) = 6.47648 6.97696 6.73137
#
# Compressibility (1/GPa) = 0.01924571
#
# Stress axis : x y z
#
# Youngs Moduli (GPa) = 127.80102 75.47684 75.49508
#
# Poissons Ratio (x) = 0.27157 0.08912
# Poissons Ratio (y) = 0.45984 0.20825
# Poissons Ratio (z) = 0.15087 0.20820
#
# Static dielectric constant tensor:
#      x y z
#    x 5.591360 0.221000 -0.045400 
#    y 0.221000 4.355850 -0.085910 
#    z -0.045400 -0.085910 4.155410 
# 
# 
# High freq. dielectric constant tensor:
#      x y z
#    x 1.972890 0.011870 0.004400 
#    y 0.011870 1.934390 -0.008090 
#    z 0.004400 -0.008090 1.927830 
# 
# From -- ./inp_files/38112.got.cif
#   From: 2010.06.25/outbox.cif.g09.slc.cpg/sg2_20_cif.got.tgz:38112.got - 2010.06.27 13:26:56.
