data_PCOD8021860
_publ_section_title
;
Structure prediction by ZEFSAII (Michael W. Deem and Ramdas Pophale) SiO2 
 PCOD8021860
Probable space group: P -1
;
_chemical_formula_sum "Si O2"
_cell_formula_units_Z 14
_cell_length_a 12.460328
_cell_length_b 10.157631
_cell_length_c 10.057004
_cell_angle_alpha 40.839708
_cell_angle_beta 72.350170
_cell_angle_gamma 52.751593
_cell_volume 632.663373
_symmetry_space_group_name_H-M "P -1"
_symmetry_group_IT_number 2
_symmetry_cell_setting 'triclinic'
loop_
_space_group_symop_operation_xyz
x,y,z
-x,-y,-z
loop_
_atom_site_type_symbol
_atom_site_label
_atom_site_fract_x
_atom_site_fract_y
_atom_site_fract_z
Si Si1 0.053980 0.664789 0.003565
Si Si2 0.628659 0.701821 0.460545
Si Si3 0.428571 0.800071 0.947212
Si Si4 0.838591 0.567534 0.144050
Si Si5 0.829974 0.221973 0.609170
Si Si6 0.341934 0.474251 0.140854
Si Si7 0.391587 0.873252 0.206103
O O1 0.117522 0.511382 0.962071
O O2 0.183682 0.558177 0.136292
O O3 0.979683 0.962094 0.787593
O O4 0.944302 0.615765 0.137883
O O5 0.773175 0.420380 0.600294
O O6 0.576419 0.717861 0.618669
O O7 0.517261 0.741870 0.364062
O O8 0.660921 0.901246 0.272044
O O9 0.580239 0.660806 0.923986
O O10 0.340338 0.716230 0.977111
O O11 0.449437 0.737315 0.144630
O O12 0.846327 0.343763 0.381404
O O13 0.678904 0.829143 0.010544
O O14 0.722918 0.155563 0.668418
#
# Coordination Sequence:
#
# PCOD8021860 Si02
#       7
#     2   2   2   2   2   2   2
#     4  10  24  44  64  96 132 169 217 260 322 382
#     4  12  24  40  66 100 130 168 215 262 325 380
#     4  11  24  43  65  97 131 171 212 262 329 374
#     4  10  22  44  69  95 125 170 218 272 311 377
#     4  11  23  39  69  95 128 167 217 264 317 376
#     4  11  26  43  64  96 137 168 208 268 321 387
#     4  11  23  41  69 100 126 165 220 269 314 380
#
# _framework density 22.128671000000001
#
# number of rings (size 3 to 8) (size 9 to 14) (size 15 to 20)
#    0.000    1.143    2.857    2.571    2.000    2.857 
#    0.000    1.429    0.000    0.000    0.000    0.000 
#    0.000    0.000    0.000    0.000    0.000    0.000 
#
# Total GULP energy -173625.039978 kJ/mol
# GULP energy per Si atom -12401.788570 kJ/mol
# Density = 2.207831 g / cm^3
# Si number density = 22.128671 Si / 1000 Ang^3
#
#
#
# Elastic Constant Matrix: (Units=GPa)
#
#
# Indices 1 2 3 4 5 6 
#
# 1 72.7301 24.2915 31.5483 6.5534 14.4653 11.6172
# 2 24.2915 105.1395 28.5590 -0.7012 21.8754 2.9770
# 3 31.5483 28.5590 98.2766 6.2813 -0.1569 9.4015
# 4 6.5534 -0.7012 6.2813 41.9595 1.0180 -7.1483
# 5 14.4653 21.8754 -0.1569 1.0180 29.9747 -8.5826
# 6 11.6172 2.9770 9.4015 -7.1483 -8.5826 21.2324
#
#
#
# Elastic Compliance Matrix: (Units=1/GPa)
#
#
# Indices 1 2 3 4 5 6 
#
# 1 0.022620 -0.000001 -0.005172 -0.005508 -0.016029 -0.018420
# 2 -0.000001 0.012750 -0.003297 0.000188 -0.010634 -0.004563
# 3 -0.005172 -0.003297 0.012998 -0.001487 0.004719 -0.001056
# 4 -0.005508 0.000188 -0.001487 0.027375 0.005956 0.015270
# 5 -0.016029 -0.010634 0.004719 0.005956 0.058347 0.033763
# 6 -0.018420 -0.004563 -0.001056 0.015270 0.033763 0.077072
#
#
# Mechanical properties :
#
#
# Convention : Reuss Voigt Hill
#
# Bulk Modulus (GPa) = 31.82097 49.43818 40.62957
# Shear Modulus (GPa) = 20.95735 31.41649 26.18692
#
# Velocity S-wave (km/s) = 3.08079 3.77200 3.44378
# Velocity P-wave (km/s) = 5.20252 6.43121 5.84921
#
# Compressibility (1/GPa) = 0.03142582
#
# Stress axis : x y z
#
# Youngs Moduli (GPa) = 44.20849 78.43046 76.93713
#
# Poissons Ratio (x) = 0.00010 0.39796
# Poissons Ratio (y) = 0.00006 0.25368
# Poissons Ratio (z) = 0.22867 0.25861
#
# Static dielectric constant tensor:
#      x y z
#    x 3.989940 -0.014920 -0.276900 
#    y -0.014920 4.195570 -0.123390 
#    z -0.276900 -0.123390 3.994630 
# 
# 
# High freq. dielectric constant tensor:
#      x y z
#    x 1.860800 0.004280 -0.021920 
#    y 0.004280 1.882810 -0.005220 
#    z -0.021920 -0.005220 1.868840 
# 
# From -- ./inp_files/241968.got.cif
#   From: 2010.06.25/outbox.cif.g09.slc.cpg/sg2_121_cif.got.tgz:241968.got - 2010.06.27 13:26:56.
