data_PCOD8021138
_publ_section_title
;
Structure prediction by ZEFSAII (Michael W. Deem and Ramdas Pophale) SiO2 
 PCOD8021138
Probable space group: P -1
;
_chemical_formula_sum "Si O2"
_cell_formula_units_Z 16
_cell_length_a 9.874765
_cell_length_b 15.401485
_cell_length_c 9.291374
_cell_angle_alpha 118.141963
_cell_angle_beta 63.370708
_cell_angle_gamma 143.270166
_cell_volume 738.550125
_symmetry_space_group_name_H-M "P -1"
_symmetry_group_IT_number 2
_symmetry_cell_setting 'triclinic'
loop_
_space_group_symop_operation_xyz
x,y,z
-x,-y,-z
loop_
_atom_site_type_symbol
_atom_site_label
_atom_site_fract_x
_atom_site_fract_y
_atom_site_fract_z
Si Si1 0.833606 0.542076 0.675583
Si Si2 0.604572 0.943155 0.880115
Si Si3 0.739887 0.898331 0.062521
Si Si4 0.577911 0.436684 0.988235
Si Si5 0.003439 0.884910 0.387839
Si Si6 0.341927 0.015694 0.565486
Si Si7 0.437657 0.454632 0.659492
Si Si8 0.316263 0.725712 0.595141
O O1 0.679890 0.556209 0.702919
O O2 0.784308 0.431744 0.497406
O O3 0.103287 0.698937 0.660703
O O4 0.776905 0.490089 0.830555
O O5 0.434183 0.797814 0.748512
O O6 0.855627 0.075232 0.791585
O O7 0.621516 0.886224 0.969620
O O8 0.500000 0.000000 0.000000
O O9 0.737871 0.984279 0.245099
O O10 0.618149 0.740609 0.051598
O O11 0.000000 0.000000 0.000000
O O12 0.660975 0.500423 0.164424
O O13 0.500000 0.500000 0.000000
O O14 0.741742 0.721798 0.374584
O O15 0.121501 0.887528 0.469662
O O16 0.000000 0.000000 0.500000
O O17 0.496343 0.172313 0.537414
O O18 0.500000 0.000000 0.500000
O O19 0.500000 0.500000 0.500000
#
# Coordination Sequence:
#
# PCOD8021138 Si02
#       8
#     2   2   2   2   2   2   2   2
#     4  10  22  44  67  91 132 184 218 280 348 420
#     4  11  26  44  69 103 143 184 237 292 357 418
#     4  12  26  43  75 106 140 187 245 294 350 422
#     4  10  25  43  66 102 142 179 229 295 353 416
#     4  11  25  45  73  96 139 186 231 292 349 423
#     4  11  24  43  69 100 137 178 240 286 348 420
#     4  11  26  41  69 105 138 170 234 290 357 407
#     4  10  22  43  68  87 133 182 225 269 352 420
#
# _framework density 21.664066999999999
#
# number of rings (size 3 to 8) (size 9 to 14) (size 15 to 20)
#    0.000    1.250    1.250    3.750   14.000    2.000 
#    0.000    0.625    0.000    0.000    0.000    0.000 
#    0.000    0.000    0.000    0.000    0.000    0.000 
#
# Total GULP energy -198305.532461 kJ/mol
# GULP energy per Si atom -12394.095779 kJ/mol
# Density = 2.161476 g / cm^3
# Si number density = 21.664067 Si / 1000 Ang^3
#
#
#
# Elastic Constant Matrix: (Units=GPa)
#
#
# Indices 1 2 3 4 5 6 
#
# 1 99.3552 8.3430 30.7084 -9.2803 1.8933 3.3685
# 2 8.3430 69.2262 23.2431 -10.9566 -4.3459 8.4611
# 3 30.7084 23.2431 164.0210 -15.7284 -0.0984 2.2767
# 4 -9.2803 -10.9566 -15.7284 27.2676 -1.0451 -6.8652
# 5 1.8933 -4.3459 -0.0984 -1.0451 41.1187 1.4639
# 6 3.3685 8.4611 2.2767 -6.8652 1.4639 35.2272
#
#
#
# Elastic Compliance Matrix: (Units=1/GPa)
#
#
# Indices 1 2 3 4 5 6 
#
# 1 0.010884 -0.000320 -0.001752 0.002458 -0.000464 -0.000352
# 2 -0.000320 0.016308 -0.001752 0.004772 0.001960 -0.002925
# 3 -0.001752 -0.001752 0.006939 0.002878 -0.000040 0.000702
# 4 0.002458 0.004772 0.002878 0.042829 0.001247 0.006728
# 5 -0.000464 0.001960 -0.000040 0.001247 0.024623 -0.001204
# 6 -0.000352 -0.002925 0.000702 0.006728 -0.001204 0.030439
#
#
# Mechanical properties :
#
#
# Convention : Reuss Voigt Hill
#
# Bulk Modulus (GPa) = 37.76027 50.79907 44.27967
# Shear Modulus (GPa) = 33.67059 38.74321 36.20690
#
# Velocity S-wave (km/s) = 3.94663 4.23349 4.09257
# Velocity P-wave (km/s) = 6.18349 6.88448 6.54338
#
# Compressibility (1/GPa) = 0.02648286
#
# Stress axis : x y z
#
# Youngs Moduli (GPa) = 91.88054 61.32003 144.10925
#
# Poissons Ratio (x) = 0.01965 0.25247
# Poissons Ratio (y) = 0.02945 0.25242
# Poissons Ratio (z) = 0.16097 0.10741
#
# Static dielectric constant tensor:
#      x y z
#    x 3.918710 0.209460 -0.048330 
#    y 0.209460 3.958980 -0.211400 
#    z -0.048330 -0.211400 4.620420 
# 
# 
# High freq. dielectric constant tensor:
#      x y z
#    x 1.839240 0.011750 -0.005930 
#    y 0.011750 1.846020 -0.004150 
#    z -0.005930 -0.004150 1.879290 
# 
# From -- ./inp_files/208255.got.cif
#   From: 2010.06.25/outbox.cif.g09.slc.cpg/sg2_105_cif.got.tgz:208255.got - 2010.06.27 13:26:56.
