data_PCOD8021719
_publ_section_title
;
Structure prediction by ZEFSAII (Michael W. Deem and Ramdas Pophale) SiO2 
 PCOD8021719
Probable space group: P -1
;
_chemical_formula_sum "Si O2"
_cell_formula_units_Z 16
_cell_length_a 8.423175
_cell_length_b 17.354833
_cell_length_c 8.645107
_cell_angle_alpha 130.987232
_cell_angle_beta 52.359274
_cell_angle_gamma 108.719588
_cell_volume 748.667823
_symmetry_space_group_name_H-M "P -1"
_symmetry_group_IT_number 2
_symmetry_cell_setting 'triclinic'
loop_
_space_group_symop_operation_xyz
x,y,z
-x,-y,-z
loop_
_atom_site_type_symbol
_atom_site_label
_atom_site_fract_x
_atom_site_fract_y
_atom_site_fract_z
Si Si1 0.287933 0.218324 0.871556
Si Si2 0.380181 0.917436 0.373432
Si Si3 0.021476 0.044920 0.876249
Si Si4 0.561961 0.501252 0.140130
Si Si5 0.016478 0.601418 0.218324
Si Si6 0.600033 0.097115 0.023347
Si Si7 0.824121 0.572738 0.620893
Si Si8 0.310734 0.274297 0.586985
O O1 0.520842 0.191035 0.754931
O O2 0.287347 0.214385 0.681185
O O3 0.150549 0.140031 0.927013
O O4 0.203974 0.330700 0.122987
O O5 0.500000 0.000000 0.500000
O O6 0.395978 0.907171 0.168026
O O7 0.142001 0.947413 0.585888
O O8 0.815577 0.086397 0.965867
O O9 0.000000 0.000000 0.000000
O O10 0.381487 0.479588 0.333193
O O11 0.616745 0.613859 0.295166
O O12 0.500000 0.500000 0.000000
O O13 0.742441 0.404526 0.914353
O O14 0.889201 0.601100 0.450370
O O15 0.915188 0.704579 0.325637
O O16 0.000000 0.500000 0.000000
O O17 0.467455 0.203307 0.292668
O O18 0.500000 0.000000 0.000000
O O19 0.000000 0.500000 0.500000
#
# Coordination Sequence:
#
# PCOD8021719 Si02
#       8
#     2   2   2   2   2   2   2   2
#     4  11  23  44  68  99 133 181 229 282 349 418
#     4  10  22  44  67  94 130 172 227 283 343 410
#     4  11  24  44  71  99 135 180 226 289 351 415
#     4  11  22  45  70 101 138 188 231 283 346 412
#     4  10  23  43  63  97 139 178 231 290 339 406
#     4  12  24  43  67 100 134 174 227 288 348 414
#     4  12  23  41  72 101 140 183 233 282 345 419
#     4  11  24  44  67  99 139 178 227 287 347 418
#
# _framework density 21.371292
#
# number of rings (size 3 to 8) (size 9 to 14) (size 15 to 20)
#    0.000    1.000    2.500    5.625    1.750    2.000 
#    9.000    0.000    0.000    0.000    0.000    0.000 
#    0.000    0.000    0.000    0.000    0.000    0.000 
#
# Total GULP energy -198287.583746 kJ/mol
# GULP energy per Si atom -12392.973984 kJ/mol
# Density = 2.132265 g / cm^3
# Si number density = 21.371292 Si / 1000 Ang^3
#
#
#
# Elastic Constant Matrix: (Units=GPa)
#
#
# Indices 1 2 3 4 5 6 
#
# 1 140.8089 39.7863 69.1909 7.0381 -27.3189 -36.3553
# 2 39.7863 100.6570 44.9010 -5.3099 -9.5052 -15.0961
# 3 69.1909 44.9010 172.3953 5.2077 -14.0892 -23.4702
# 4 7.0381 -5.3099 5.2077 40.7458 -10.3087 1.5159
# 5 -27.3189 -9.5052 -14.0892 -10.3087 54.4607 -0.5203
# 6 -36.3553 -15.0961 -23.4702 1.5159 -0.5203 48.5589
#
#
#
# Elastic Compliance Matrix: (Units=1/GPa)
#
#
# Indices 1 2 3 4 5 6 
#
# 1 0.011825 -0.001957 -0.002876 -0.000993 0.004725 0.006936
# 2 -0.001957 0.012085 -0.002192 0.002410 0.001028 0.001168
# 3 -0.002876 -0.002192 0.007674 -0.000799 0.000017 0.000900
# 4 -0.000993 0.002410 -0.000799 0.026361 0.004695 -0.001153
# 5 0.004725 0.001028 0.000017 0.004695 0.021842 0.003953
# 6 0.006936 0.001168 0.000900 -0.001153 0.003953 0.026663
#
#
# Mechanical properties :
#
#
# Convention : Reuss Voigt Hill
#
# Bulk Modulus (GPa) = 57.03035 80.17974 68.60505
# Shear Modulus (GPa) = 39.57418 46.08528 42.82973
#
# Velocity S-wave (km/s) = 4.30786 4.64875 4.48155
# Velocity P-wave (km/s) = 7.17544 8.14945 7.67791
#
# Compressibility (1/GPa) = 0.01753452
#
# Stress axis : x y z
#
# Youngs Moduli (GPa) = 84.56563 82.74380 130.31411
#
# Poissons Ratio (x) = 0.16194 0.37476
# Poissons Ratio (y) = 0.16551 0.28564
# Poissons Ratio (z) = 0.24320 0.18137
#
# Static dielectric constant tensor:
#      x y z
#    x 4.602150 -0.191900 -0.211190 
#    y -0.191900 3.849110 0.186070 
#    z -0.211190 0.186070 3.841550 
# 
# 
# High freq. dielectric constant tensor:
#      x y z
#    x 1.854060 -0.021260 -0.010810 
#    y -0.021260 1.829240 0.002300 
#    z -0.010810 0.002300 1.862580 
# 
# From -- ./inp_files/215700.got.cif
#   From: 2010.06.25/outbox.cif.g09.slc.cpg/sg2_108_cif.got.tgz:215700.got - 2010.06.27 13:26:56.
