data_PCOD8021487
_publ_section_title
;
Structure prediction by ZEFSAII (Michael W. Deem and Ramdas Pophale) SiO2 
 PCOD8021487
Probable space group: P -1
;
_chemical_formula_sum "Si O2"
_cell_formula_units_Z 16
_cell_length_a 22.625760
_cell_length_b 16.506558
_cell_length_c 8.348038
_cell_angle_alpha 114.531578
_cell_angle_beta 122.754439
_cell_angle_gamma 17.472045
_cell_volume 721.677881
_symmetry_space_group_name_H-M "P -1"
_symmetry_group_IT_number 2
_symmetry_cell_setting 'triclinic'
loop_
_space_group_symop_operation_xyz
x,y,z
-x,-y,-z
loop_
_atom_site_type_symbol
_atom_site_label
_atom_site_fract_x
_atom_site_fract_y
_atom_site_fract_z
Si Si1 0.750608 0.184284 0.042881
Si Si2 0.505847 0.087359 0.493962
Si Si3 0.353406 0.093305 0.806624
Si Si4 0.995660 0.735129 0.214440
Si Si5 0.300010 0.804720 0.390089
Si Si6 0.952397 0.618242 0.875064
Si Si7 0.406173 0.835154 0.788104
Si Si8 0.120995 0.796854 0.875336
O O1 0.730764 0.164487 0.820849
O O2 0.500000 0.500000 0.000000
O O3 0.854234 0.158833 0.189309
O O4 0.904436 0.938629 0.183403
O O5 0.253828 0.437666 0.418194
O O6 0.500000 0.000000 0.500000
O O7 0.630996 0.923601 0.373773
O O8 0.674882 0.951126 0.721050
O O9 0.090688 0.419239 0.756142
O O10 0.454303 0.878073 0.842825
O O11 0.500000 0.000000 0.000000
O O12 0.824781 0.896763 0.224727
O O13 0.028235 0.627749 0.026688
O O14 0.500000 0.500000 0.500000
O O15 0.365657 0.824828 0.559891
O O16 0.050500 0.076404 0.325305
O O17 0.000000 0.500000 0.000000
O O18 0.628372 0.538376 0.973324
O O19 0.000000 0.000000 0.000000
#
# Coordination Sequence:
#
# PCOD8021487 Si02
#       8
#     2   2   2   2   2   2   2   2
#     4  11  23  47  73 105 148 191 235 302 373 431
#     4  12  26  47  73 102 143 191 243 304 372 433
#     4  12  26  47  77 105 145 196 247 305 369 438
#     4  12  26  46  71 106 148 188 245 301 369 439
#     4  11  23  44  72 100 140 189 244 299 359 438
#     4  12  24  50  71 102 146 191 239 309 362 440
#     4  12  25  47  71 108 142 193 245 300 370 441
#     4  10  22  43  74  95 143 185 232 294 363 426
#
# _framework density 22.170553999999999
#
# number of rings (size 3 to 8) (size 9 to 14) (size 15 to 20)
#    0.000    0.500    7.500    0.375    5.250    1.000 
#    2.250    1.250    0.000    0.000    0.000    0.000 
#    0.000    0.000    0.000    0.000    0.000    0.000 
#
# Total GULP energy -198325.740038 kJ/mol
# GULP energy per Si atom -12395.358752 kJ/mol
# Density = 2.212009 g / cm^3
# Si number density = 22.170554 Si / 1000 Ang^3
#
#
#
# Elastic Constant Matrix: (Units=GPa)
#
#
# Indices 1 2 3 4 5 6 
#
# 1 160.4936 56.0559 43.6420 -11.6881 0.9564 9.6986
# 2 56.0559 129.3417 39.9042 -27.7624 -1.2485 -3.2000
# 3 43.6420 39.9042 101.1843 -29.1580 13.6817 4.4440
# 4 -11.6881 -27.7624 -29.1580 44.1126 -4.6178 2.9187
# 5 0.9564 -1.2485 13.6817 -4.6178 43.7984 4.9728
# 6 9.6986 -3.2000 4.4440 2.9187 4.9728 47.5774
#
#
#
# Elastic Compliance Matrix: (Units=1/GPa)
#
#
# Indices 1 2 3 4 5 6 
#
# 1 0.007984 -0.002955 -0.002682 -0.001350 0.000614 -0.001557
# 2 -0.002955 0.010624 -0.001750 0.004813 0.001302 0.001049
# 3 -0.002682 -0.001750 0.014388 0.007388 -0.003594 -0.000993
# 4 -0.001350 0.004813 0.007388 0.030501 0.001313 -0.002100
# 5 0.000614 0.001302 -0.003594 0.001313 0.024381 -0.002331
# 6 -0.001557 0.001049 -0.000993 -0.002100 -0.002331 0.021872
#
#
# Mechanical properties :
#
#
# Convention : Reuss Voigt Hill
#
# Bulk Modulus (GPa) = 54.87887 74.46929 64.67408
# Shear Modulus (GPa) = 38.28509 43.85884 41.07197
#
# Velocity S-wave (km/s) = 4.16004 4.45257 4.30879
# Velocity P-wave (km/s) = 6.91964 7.75217 7.34770
#
# Compressibility (1/GPa) = 0.01822195
#
# Stress axis : x y z
#
# Youngs Moduli (GPa) = 125.24459 94.12727 69.50000
#
# Poissons Ratio (x) = 0.27818 0.18639
# Poissons Ratio (y) = 0.37014 0.12165
# Poissons Ratio (z) = 0.33588 0.16475
#
# Static dielectric constant tensor:
#      x y z
#    x 5.120740 0.100290 1.040490 
#    y 0.100290 3.865430 0.217300 
#    z 1.040490 0.217300 4.952500 
# 
# 
# High freq. dielectric constant tensor:
#      x y z
#    x 1.886140 -0.007970 0.009470 
#    y -0.007970 1.882400 -0.008560 
#    z 0.009470 -0.008560 1.868720 
# 
# From -- ./inp_files/347633.got.cif
#   From: 2010.06.25/outbox.cif.g09.slc.cpg/sg2_174_cif.got.tgz:347633.got - 2010.06.27 13:26:56.
