data_PCOD8021810
_publ_section_title
;
Structure prediction by ZEFSAII (Michael W. Deem and Ramdas Pophale) SiO2 
 PCOD8021810
Probable space group: P -1
;
_chemical_formula_sum "Si O2"
_cell_formula_units_Z 14
_cell_length_a 8.792101
_cell_length_b 13.745214
_cell_length_c 9.440415
_cell_angle_alpha 58.330846
_cell_angle_beta 43.627073
_cell_angle_gamma 82.428964
_cell_volume 607.119606
_symmetry_space_group_name_H-M "P -1"
_symmetry_group_IT_number 2
_symmetry_cell_setting 'triclinic'
loop_
_space_group_symop_operation_xyz
x,y,z
-x,-y,-z
loop_
_atom_site_type_symbol
_atom_site_label
_atom_site_fract_x
_atom_site_fract_y
_atom_site_fract_z
Si Si1 0.393301 0.093102 0.935034
Si Si2 0.096040 0.554266 0.045165
Si Si3 0.176286 0.995936 0.640943
Si Si4 0.433062 0.826928 0.552662
Si Si5 0.981752 0.372857 0.680614
Si Si6 0.255083 0.380449 0.236236
Si Si7 0.557920 0.795463 0.898042
O O1 0.534716 0.156518 0.649799
O O2 0.452129 0.205043 0.924667
O O3 0.500000 0.000000 0.000000
O O4 0.104292 0.028058 0.149397
O O5 0.350178 0.678978 0.758599
O O6 0.936674 0.598649 0.229745
O O7 0.095216 0.432138 0.214633
O O8 0.000000 0.500000 0.000000
O O9 0.310712 0.090710 0.607030
O O10 0.306064 0.060835 0.356911
O O11 0.222335 0.869406 0.715855
O O12 0.000000 0.500000 0.500000
O O13 0.144238 0.325161 0.509352
O O14 0.705684 0.267767 0.946853
O O15 0.276416 0.272511 0.212179
O O16 0.500000 0.500000 0.000000
#
# Coordination Sequence:
#
# PCOD8021810 Si02
#       7
#     2   2   2   2   2   2   2
#     4  12  28  44  72 107 137 187 243 296 357 418
#     4  11  25  44  70 104 142 182 225 297 352 413
#     4  11  25  48  71 100 145 186 238 294 358 423
#     4  11  25  49  69 102 148 184 234 290 364 425
#     4  10  22  44  68  98 136 186 226 278 352 416
#     4  11  23  44  72  99 139 185 235 276 348 429
#     4  12  24  44  72 105 134 182 244 293 347 419
#
# _framework density 23.059705000000001
#
# number of rings (size 3 to 8) (size 9 to 14) (size 15 to 20)
#    0.000    0.857    5.714    0.857    8.000    0.000 
#    5.143    1.429    0.000    0.000    0.000    0.000 
#    0.000    0.000    0.000    0.000    0.000    0.000 
#
# Total GULP energy -173457.063699 kJ/mol
# GULP energy per Si atom -12389.790264 kJ/mol
# Density = 2.300722 g / cm^3
# Si number density = 23.059705 Si / 1000 Ang^3
#
#
#
# Elastic Constant Matrix: (Units=GPa)
#
#
# Indices 1 2 3 4 5 6 
#
# 1 111.4007 45.6611 34.1916 30.9341 7.1247 26.8943
# 2 45.6611 127.7934 42.7956 31.2681 7.5017 25.7064
# 3 34.1916 42.7956 101.3065 25.5234 11.4901 12.1750
# 4 30.9341 31.2681 25.5234 44.9015 12.2301 11.1357
# 5 7.1247 7.5017 11.4901 12.2301 46.7646 16.5467
# 6 26.8943 25.7064 12.1750 11.1357 16.5467 44.3747
#
#
#
# Elastic Compliance Matrix: (Units=1/GPa)
#
#
# Indices 1 2 3 4 5 6 
#
# 1 0.013144 -0.001539 -0.001797 -0.006142 0.002391 -0.005932
# 2 -0.001539 0.011178 -0.002733 -0.004600 0.001847 -0.004327
# 3 -0.001797 -0.002733 0.012689 -0.003805 -0.001684 0.000774
# 4 -0.006142 -0.004600 -0.003805 0.033294 -0.006649 0.001556
# 5 0.002391 0.001847 -0.001684 -0.006649 0.026511 -0.010274
# 6 -0.005932 -0.004327 0.000774 0.001556 -0.010274 0.031866
#
#
# Mechanical properties :
#
#
# Convention : Reuss Voigt Hill
#
# Bulk Modulus (GPa) = 40.20483 65.08857 52.64670
# Shear Modulus (GPa) = 33.53261 41.73164 37.63213
#
# Velocity S-wave (km/s) = 3.81749 4.25870 4.04411
# Velocity P-wave (km/s) = 6.07486 7.24358 6.68481
#
# Compressibility (1/GPa) = 0.02487263
#
# Stress axis : x y z
#
# Youngs Moduli (GPa) = 76.08306 89.46354 78.81099
#
# Poissons Ratio (x) = 0.13767 0.14161
# Poissons Ratio (y) = 0.11708 0.21539
# Poissons Ratio (z) = 0.13671 0.24450
#
# Static dielectric constant tensor:
#      x y z
#    x 3.802260 0.377960 0.235860 
#    y 0.377960 4.390910 0.277190 
#    z 0.235860 0.277190 4.422660 
# 
# 
# High freq. dielectric constant tensor:
#      x y z
#    x 1.895140 0.015410 0.021670 
#    y 0.015410 1.920960 0.008130 
#    z 0.021670 0.008130 1.919010 
# 
# From -- ./inp_files/188263.got.cif
#   From: 2010.06.25/outbox.cif.g09.slc.cpg/sg2_95_cif.got.tgz:188263.got - 2010.06.27 13:26:56.
