data_PCOD8021159
_publ_section_title
;
Structure prediction by ZEFSAII (Michael W. Deem and Ramdas Pophale) SiO2 
 PCOD8021159
Probable space group: P -1
;
_chemical_formula_sum "Si O2"
_cell_formula_units_Z 12
_cell_length_a 19.533842
_cell_length_b 16.196437
_cell_length_c 14.006479
_cell_angle_alpha 24.915066
_cell_angle_beta 160.067051
_cell_angle_gamma 158.406013
_cell_volume 536.631646
_symmetry_space_group_name_H-M "P -1"
_symmetry_group_IT_number 2
_symmetry_cell_setting 'triclinic'
loop_
_space_group_symop_operation_xyz
x,y,z
-x,-y,-z
loop_
_atom_site_type_symbol
_atom_site_label
_atom_site_fract_x
_atom_site_fract_y
_atom_site_fract_z
Si Si1 0.307670 0.867014 0.308101
Si Si2 0.848721 0.607731 0.716389
Si Si3 0.079248 0.035429 0.708815
Si Si4 0.418417 0.127408 0.686919
Si Si5 0.364933 0.148718 0.378287
Si Si6 0.991831 0.707143 0.228821
O O1 0.386910 0.730092 0.484632
O O2 0.058729 0.705974 0.206019
O O3 0.500000 0.000000 0.500000
O O4 0.289369 0.060881 0.022763
O O5 0.596630 0.406634 0.641483
O O6 0.003367 0.819301 0.767284
O O7 0.805601 0.716531 0.451721
O O8 0.000000 0.500000 0.000000
O O9 0.851805 0.969032 0.542791
O O10 0.419089 0.075505 0.628999
O O11 0.500000 0.000000 0.000000
O O12 0.176367 0.927402 0.302320
O O13 0.265574 0.318868 0.080235
O O14 0.000000 0.500000 0.500000
#
# Coordination Sequence:
#
# PCOD8021159 Si02
#       6
#     2   2   2   2   2   2
#     4  10  22  43  68  94 133 176 220 283 340 399
#     4  11  24  43  67  99 133 184 232 279 349 407
#     4  11  24  45  68  96 142 178 231 289 337 414
#     4  12  24  43  69 102 138 182 229 283 346 409
#     4  10  23  43  64  94 139 170 223 286 332 405
#     4  10  22  43  68  98 127 177 228 275 345 405
#
# _framework density 22.361706999999999
#
# number of rings (size 3 to 8) (size 9 to 14) (size 15 to 20)
#    0.000    1.333    3.333    1.500    2.333    4.667 
#    3.000    0.000    0.000    0.000    0.000    0.000 
#    0.000    0.000    0.000    0.000    0.000    0.000 
#
# Total GULP energy -148672.333253 kJ/mol
# GULP energy per Si atom -12389.361104 kJ/mol
# Density = 2.231081 g / cm^3
# Si number density = 22.361707 Si / 1000 Ang^3
#
#
#
# Elastic Constant Matrix: (Units=GPa)
#
#
# Indices 1 2 3 4 5 6 
#
# 1 163.1917 16.5041 95.9000 -6.3378 6.8501 17.8698
# 2 16.5041 63.7118 41.0606 -16.4689 -6.0796 16.6726
# 3 95.9000 41.0606 190.7146 -5.6047 -9.0354 20.0152
# 4 -6.3378 -16.4689 -5.6047 36.8266 3.1798 -7.8192
# 5 6.8501 -6.0796 -9.0354 3.1798 51.5003 4.1392
# 6 17.8698 16.6726 20.0152 -7.8192 4.1392 29.5530
#
#
#
# Elastic Compliance Matrix: (Units=1/GPa)
#
#
# Indices 1 2 3 4 5 6 
#
# 1 0.009134 0.001463 -0.004679 0.001100 -0.001718 -0.002648
# 2 0.001463 0.022625 -0.004349 0.007636 0.001962 -0.008957
# 3 -0.004679 -0.004349 0.008710 -0.001877 0.001863 -0.001374
# 4 0.001100 0.007636 -0.001877 0.031691 -0.001929 0.004953
# 5 -0.001718 0.001962 0.001863 -0.001929 0.020704 -0.004740
# 6 -0.002648 -0.008957 -0.001374 0.004953 -0.004740 0.043396
#
#
# Mechanical properties :
#
#
# Convention : Reuss Voigt Hill
#
# Bulk Modulus (GPa) = 39.46679 80.50529 59.98604
# Shear Modulus (GPa) = 31.28145 41.18619 36.23382
#
# Velocity S-wave (km/s) = 3.74422 4.29630 4.02973
# Velocity P-wave (km/s) = 6.03157 7.79041 6.96672
#
# Compressibility (1/GPa) = 0.02533776
#
# Stress axis : x y z
#
# Youngs Moduli (GPa) = 109.47566 44.19910 114.80930
#
# Poissons Ratio (x) = -0.06465 0.53724
# Poissons Ratio (y) = -0.16014 0.49934
# Poissons Ratio (z) = 0.51228 0.19223
#
# Static dielectric constant tensor:
#      x y z
#    x 5.025000 0.289700 -0.030240 
#    y 0.289700 4.040510 0.018800 
#    z -0.030240 0.018800 4.504280 
# 
# 
# High freq. dielectric constant tensor:
#      x y z
#    x 1.901600 0.008640 -0.003290 
#    y 0.008640 1.851200 0.015610 
#    z -0.003290 0.015610 1.901810 
# 
# From -- ./inp_files/28995.got.cif
#   From: 2010.06.25/outbox.cif.g09.slc.cpg/sg2_15_cif.got.tgz:28995.got - 2010.06.27 13:26:56.
