data_PCOD8021068
_publ_section_title
;
Structure prediction by ZEFSAII (Michael W. Deem and Ramdas Pophale) SiO2 
 PCOD8021068
Probable space group: P -1
;
_chemical_formula_sum "Si O2"
_cell_formula_units_Z 16
_cell_length_a 9.292066
_cell_length_b 13.556313
_cell_length_c 7.869891
_cell_angle_alpha 78.294555
_cell_angle_beta 47.632888
_cell_angle_gamma 70.416151
_cell_volume 689.696805
_symmetry_space_group_name_H-M "P -1"
_symmetry_group_IT_number 2
_symmetry_cell_setting 'triclinic'
loop_
_space_group_symop_operation_xyz
x,y,z
-x,-y,-z
loop_
_atom_site_type_symbol
_atom_site_label
_atom_site_fract_x
_atom_site_fract_y
_atom_site_fract_z
Si Si1 0.620083 0.354792 0.007110
Si Si2 0.570085 0.635071 0.508542
Si Si3 0.328081 0.403173 0.918147
Si Si4 0.401831 0.880943 0.894026
Si Si5 0.020643 0.040438 0.283553
Si Si6 0.986726 0.435868 0.699957
Si Si7 0.681072 0.835229 0.997417
Si Si8 0.426325 0.874780 0.505059
O O1 0.476459 0.415545 0.948999
O O2 0.613923 0.236623 0.057618
O O3 0.849116 0.358197 0.794718
O O4 0.539280 0.410146 0.234845
O O5 0.415428 0.429447 0.657536
O O6 0.795357 0.634731 0.390876
O O7 0.441283 0.752217 0.529985
O O8 0.296048 0.287558 0.973182
O O9 0.110996 0.483871 0.099266
O O10 0.555217 0.891973 0.915252
O O11 0.178097 0.952752 0.081102
O O12 0.488220 0.907202 0.632648
O O13 0.806606 0.064540 0.354894
O O14 0.098096 0.145463 0.194334
O O15 0.000000 0.000000 0.500000
O O16 0.000000 0.500000 0.500000
O O17 0.568236 0.897208 0.233228
#
# Coordination Sequence:
#
# PCOD8021068 Si02
#       8
#     2   2   2   2   2   2   2   2
#     4  10  23  45  64  93 134 162 208 270 310 372
#     4  10  23  44  64  96 128 164 215 260 315 376
#     4  10  22  43  67  94 126 169 210 259 322 367
#     4  10  22  43  67  94 126 169 210 259 322 367
#     4  12  24  42  67  96 128 168 214 257 314 381
#     4  12  24  42  67  96 128 168 214 257 314 381
#     4  10  23  45  64  93 134 162 208 270 310 372
#     4  10  23  44  64  96 128 164 215 260 315 376
#
# _framework density 23.198599000000002
#
# number of rings (size 3 to 8) (size 9 to 14) (size 15 to 20)
#    0.000    1.500    2.500    1.500    0.000    6.000 
#    4.500    0.000    0.000    0.000    0.000    0.000 
#    0.000    0.000    0.000    0.000    0.000    0.000 
#
# Total GULP energy -198423.033170 kJ/mol
# GULP energy per Si atom -12401.439573 kJ/mol
# Density = 2.314580 g / cm^3
# Si number density = 23.198599 Si / 1000 Ang^3
#
#
#
# Elastic Constant Matrix: (Units=GPa)
#
#
# Indices 1 2 3 4 5 6 
#
# 1 94.8685 7.8871 39.0491 -17.4300 25.4400 -5.9999
# 2 7.8871 29.0135 14.8741 6.2426 9.9709 -11.3884
# 3 39.0491 14.8741 118.1030 -16.2039 22.1903 0.6600
# 4 -17.4300 6.2426 -16.2039 39.1785 -1.9225 0.5824
# 5 25.4400 9.9709 22.1903 -1.9225 54.8558 7.2688
# 6 -5.9999 -11.3884 0.6600 0.5824 7.2688 32.9677
#
#
#
# Elastic Compliance Matrix: (Units=1/GPa)
#
#
# Indices 1 2 3 4 5 6 
#
# 1 0.014500 0.000179 -0.003077 0.004803 -0.005870 0.003972
# 2 0.000179 0.051626 -0.006387 -0.011581 -0.009993 0.020402
# 3 -0.003077 -0.006387 0.011150 0.004232 -0.001409 -0.002753
# 4 0.004803 -0.011581 0.004232 0.031300 -0.000245 -0.003710
# 5 -0.005870 -0.009993 -0.001409 -0.000245 0.024645 -0.009921
# 6 0.003972 0.020402 -0.002753 -0.003710 -0.009921 0.040411
#
#
# Mechanical properties :
#
#
# Convention : Reuss Voigt Hill
#
# Bulk Modulus (GPa) = 17.03380 40.62285 28.82832
# Shear Modulus (GPa) = 23.61043 37.41205 30.51124
#
# Velocity S-wave (km/s) = 3.19368 4.02018 3.63053
# Velocity P-wave (km/s) = 4.57799 6.25285 5.47979
#
# Compressibility (1/GPa) = 0.05870682
#
# Stress axis : x y z
#
# Youngs Moduli (GPa) = 68.96339 19.36994 89.68855
#
# Poissons Ratio (x) = -0.00346 0.27598
# Poissons Ratio (y) = -0.01233 0.57280
# Poissons Ratio (z) = 0.21221 0.12371
#
# Static dielectric constant tensor:
#      x y z
#    x 4.415680 -0.197100 0.374010 
#    y -0.197100 4.113040 0.064500 
#    z 0.374010 0.064500 4.560350 
# 
# 
# High freq. dielectric constant tensor:
#      x y z
#    x 1.918550 -0.004180 0.021790 
#    y -0.004180 1.929140 -0.002420 
#    z 0.021790 -0.002420 1.926080 
# 
# From -- ./inp_files/206645.got.cif
#   From: 2010.06.25/outbox.cif.g09.slc.cpg/sg2_104_cif.got.tgz:206645.got - 2010.06.27 13:26:56.
