data_PCOD8021201
_publ_section_title
;
Structure prediction by ZEFSAII (Michael W. Deem and Ramdas Pophale) SiO2 
 PCOD8021201
Probable space group: P -1
;
_chemical_formula_sum "Si O2"
_cell_formula_units_Z 16
_cell_length_a 13.421764
_cell_length_b 9.070508
_cell_length_c 13.283966
_cell_angle_alpha 86.663277
_cell_angle_beta 146.985304
_cell_angle_gamma 73.873959
_cell_volume 703.482707
_symmetry_space_group_name_H-M "P -1"
_symmetry_group_IT_number 2
_symmetry_cell_setting 'triclinic'
loop_
_space_group_symop_operation_xyz
x,y,z
-x,-y,-z
loop_
_atom_site_type_symbol
_atom_site_label
_atom_site_fract_x
_atom_site_fract_y
_atom_site_fract_z
Si Si1 0.070820 0.872105 0.967962
Si Si2 0.198385 0.485023 0.111733
Si Si3 0.381563 0.811472 0.052184
Si Si4 0.869252 0.445449 0.462258
Si Si5 0.438768 0.969214 0.761315
Si Si6 0.188545 0.426294 0.876908
Si Si7 0.571615 0.074884 0.469826
Si Si8 0.910155 0.229718 0.334551
O O1 0.187829 0.665111 0.116312
O O2 0.248037 0.864652 0.042958
O O3 0.843482 0.959790 0.706269
O O4 0.000000 0.000000 0.000000
O O5 0.442145 0.296614 0.359819
O O6 0.136220 0.489851 0.943634
O O7 0.000000 0.500000 0.000000
O O8 0.604471 0.601605 0.253065
O O9 0.466510 0.936479 0.101487
O O10 0.230388 0.840882 0.825152
O O11 0.881987 0.275653 0.428914
O O12 0.000000 0.500000 0.500000
O O13 0.000893 0.395768 0.682205
O O14 0.498762 0.963392 0.694485
O O15 0.560641 0.765148 0.916744
O O16 0.172820 0.073320 0.543295
O O17 0.186362 0.578479 0.808641
O O18 0.500000 0.000000 0.500000
#
# Coordination Sequence:
#
# PCOD8021201 Si02
#       8
#     2   2   2   2   2   2   2   2
#     4  12  26  43  65 104 139 177 236 283 338 410
#     4  11  23  41  70  97 132 189 227 277 347 409
#     4  12  23  43  72 100 142 178 228 291 339 405
#     4  10  22  44  74  98 133 188 224 281 356 406
#     4  11  23  42  68  98 134 183 221 280 345 404
#     4  10  22  43  68  98 137 176 230 275 342 414
#     4  11  22  42  68  92 136 183 226 278 339 403
#     4  11  22  47  69  98 138 178 227 283 347 405
#
# _framework density 22.743984000000001
#
# number of rings (size 3 to 8) (size 9 to 14) (size 15 to 20)
#    0.000    1.000    6.250    1.125    1.750    2.000 
#    4.500    0.625    0.000    0.000    0.000    0.000 
#    0.000    0.000    0.000    0.000    0.000    0.000 
#
# Total GULP energy -198354.376690 kJ/mol
# GULP energy per Si atom -12397.148543 kJ/mol
# Density = 2.269222 g / cm^3
# Si number density = 22.743984 Si / 1000 Ang^3
#
#
#
# Elastic Constant Matrix: (Units=GPa)
#
#
# Indices 1 2 3 4 5 6 
#
# 1 37.1129 11.9238 24.9433 -6.3631 8.7412 -19.7943
# 2 11.9238 123.9913 71.2193 -3.5611 -8.8867 -26.8044
# 3 24.9433 71.2193 140.6994 -11.1150 13.7665 5.5216
# 4 -6.3631 -3.5611 -11.1150 49.9396 -2.8367 -3.4765
# 5 8.7412 -8.8867 13.7665 -2.8367 35.3103 -4.3628
# 6 -19.7943 -26.8044 5.5216 -3.4765 -4.3628 29.9252
#
#
#
# Elastic Compliance Matrix: (Units=1/GPa)
#
#
# Indices 1 2 3 4 5 6 
#
# 1 0.119696 0.052539 -0.054268 0.018139 0.023728 0.141814
# 2 0.052539 0.045107 -0.037207 0.009038 0.024279 0.086610
# 3 -0.054268 -0.037207 0.040315 -0.007480 -0.022228 -0.080771
# 4 0.018139 0.009038 -0.007480 0.023379 0.005670 0.025017
# 5 0.023728 0.024279 -0.022228 0.005670 0.043679 0.048570
# 6 0.141814 0.086610 -0.080771 0.025017 0.048570 0.229689
#
#
# Mechanical properties :
#
#
# Convention : Reuss Voigt Hill
#
# Bulk Modulus (GPa) = 7.85875 57.55295 32.70585
# Shear Modulus (GPa) = 8.03662 35.94949 21.99306
#
# Velocity S-wave (km/s) = 1.88180 3.98001 3.11301
# Velocity P-wave (km/s) = 2.86084 6.81764 5.22803
#
# Compressibility (1/GPa) = 0.12724662
#
# Stress axis : x y z
#
# Youngs Moduli (GPa) = 8.35448 22.16962 24.80460
#
# Poissons Ratio (x) = -1.16477 1.34610
# Poissons Ratio (y) = -0.43894 0.92290
# Poissons Ratio (z) = 0.45338 0.82486
#
# Static dielectric constant tensor:
#      x y z
#    x 3.967960 -0.387350 -0.157330 
#    y -0.387350 4.537810 0.080870 
#    z -0.157330 0.080870 4.591300 
# 
# 
# High freq. dielectric constant tensor:
#      x y z
#    x 1.886270 -0.024130 0.002210 
#    y -0.024130 1.905340 -0.005830 
#    z 0.002210 -0.005830 1.912070 
# 
# From -- ./inp_files/529808.got.cif
#   From: 2010.06.25/outbox.cif.g09.slc.cpg/sg2_265_cif.got.tgz:529808.got - 2010.06.27 13:26:56.
