data_PCOD8021015
_publ_section_title
;
Structure prediction by ZEFSAII (Michael W. Deem and Ramdas Pophale) SiO2 
 PCOD8021015
Probable space group: P -1
;
_chemical_formula_sum "Si O2"
_cell_formula_units_Z 12
_cell_length_a 14.296720
_cell_length_b 16.642218
_cell_length_c 5.329598
_cell_angle_alpha 90.697033
_cell_angle_beta 95.230852
_cell_angle_gamma 155.212245
_cell_volume 515.565027
_symmetry_space_group_name_H-M "P -1"
_symmetry_group_IT_number 2
_symmetry_cell_setting 'triclinic'
loop_
_space_group_symop_operation_xyz
x,y,z
-x,-y,-z
loop_
_atom_site_type_symbol
_atom_site_label
_atom_site_fract_x
_atom_site_fract_y
_atom_site_fract_z
Si Si1 0.697985 0.948149 0.551035
Si Si2 0.180049 0.719779 0.812533
Si Si3 0.766806 0.819141 0.587216
Si Si4 0.075383 0.817717 0.889306
Si Si5 0.647704 0.584038 0.817813
Si Si6 0.713695 0.264582 0.661244
O O1 0.695076 0.853484 0.636022
O O2 0.446237 0.782174 0.405848
O O3 0.856766 0.081530 0.346322
O O4 0.765106 0.048584 0.822148
O O5 0.068750 0.719824 0.810958
O O6 0.319136 0.821705 0.587014
O O7 0.978230 0.496707 0.747463
O O8 0.347214 0.828724 0.094470
O O9 0.810789 0.790549 0.820586
O O10 0.538198 0.596370 0.424415
O O11 0.000000 0.000000 0.500000
O O12 0.824425 0.649653 0.916037
O O13 0.500000 0.500000 0.000000
#
# Coordination Sequence:
#
# PCOD8021015 Si02
#       6
#     2   2   2   2   2   2
#     4  12  26  42  70 101 140 182 229 288 347 416
#     4  10  22  43  67  94 138 176 232 286 339 417
#     4  11  24  47  71 101 142 181 235 290 349 419
#     4  12  26  43  68 103 139 180 232 287 348 414
#     4  11  26  45  73 102 138 189 231 293 351 411
#     4  10  22  43  66  97 132 184 227 284 348 401
#
# _framework density 23.275433
#
# number of rings (size 3 to 8) (size 9 to 14) (size 15 to 20)
#    0.000    1.000    1.667    4.000    4.667    5.333 
#    9.000    0.000    0.000    0.000    0.000    0.000 
#    0.000    0.000    0.000    0.000    0.000    0.000 
#
# Total GULP energy -148669.282547 kJ/mol
# GULP energy per Si atom -12389.106879 kJ/mol
# Density = 2.322246 g / cm^3
# Si number density = 23.275433 Si / 1000 Ang^3
#
#
#
# Elastic Constant Matrix: (Units=GPa)
#
#
# Indices 1 2 3 4 5 6 
#
# 1 187.2332 27.3110 46.7505 -7.1782 -4.0054 9.2609
# 2 27.3110 58.3526 38.4645 -12.0787 1.1765 3.3114
# 3 46.7505 38.4645 131.3865 -26.1705 -11.2453 -3.2776
# 4 -7.1782 -12.0787 -26.1705 31.9707 5.8694 0.6549
# 5 -4.0054 1.1765 -11.2453 5.8694 38.4098 -1.6703
# 6 9.2609 3.3114 -3.2776 0.6549 -1.6703 37.2719
#
#
#
# Elastic Compliance Matrix: (Units=1/GPa)
#
#
# Indices 1 2 3 4 5 6 
#
# 1 0.006101 -0.001723 -0.001845 -0.000799 0.000206 -0.001502
# 2 -0.001723 0.022654 -0.005494 0.004317 -0.003241 -0.002289
# 3 -0.001845 -0.005494 0.011398 0.006355 0.002426 0.001946
# 4 -0.000799 0.004317 0.006355 0.038731 -0.004295 -0.000499
# 5 0.000206 -0.003241 0.002426 -0.004295 0.027599 0.001763
# 6 -0.001502 -0.002289 0.001946 -0.000499 0.001763 0.027665
#
#
# Mechanical properties :
#
#
# Convention : Reuss Voigt Hill
#
# Bulk Modulus (GPa) = 45.39581 66.89159 56.14370
# Shear Modulus (GPa) = 31.32523 39.16025 35.24274
#
# Velocity S-wave (km/s) = 3.67256 4.10624 3.89544
# Velocity P-wave (km/s) = 6.12615 7.16123 6.66382
#
# Compressibility (1/GPa) = 0.02202846
#
# Stress axis : x y z
#
# Youngs Moduli (GPa) = 163.90348 44.14282 87.73378
#
# Poissons Ratio (x) = 0.07607 0.16190
# Poissons Ratio (y) = 0.28247 0.48197
# Poissons Ratio (z) = 0.30247 0.24250
#
# Static dielectric constant tensor:
#      x y z
#    x 4.294170 -0.086000 0.096580 
#    y -0.086000 4.076480 -0.145900 
#    z 0.096580 -0.145900 4.521740 
# 
# 
# High freq. dielectric constant tensor:
#      x y z
#    x 1.936510 0.001830 0.000920 
#    y 0.001830 1.924640 0.000950 
#    z 0.000920 0.000950 1.928500 
# 
# From -- ./inp_files/45917.got.cif
#   From: 2010.06.25/outbox.cif.g09.slc.cpg/sg2_23_cif.got.tgz:45917.got - 2010.06.27 13:26:56.
