data_PCOD8021801
_publ_section_title
;
Structure prediction by ZEFSAII (Michael W. Deem and Ramdas Pophale) SiO2 
 PCOD8021801
Probable space group: P -1
;
_chemical_formula_sum "Si O2"
_cell_formula_units_Z 16
_cell_length_a 17.628842
_cell_length_b 8.582693
_cell_length_c 14.298701
_cell_angle_alpha 93.212989
_cell_angle_beta 159.486760
_cell_angle_gamma 84.507289
_cell_volume 751.128744
_symmetry_space_group_name_H-M "P -1"
_symmetry_group_IT_number 2
_symmetry_cell_setting 'triclinic'
loop_
_space_group_symop_operation_xyz
x,y,z
-x,-y,-z
loop_
_atom_site_type_symbol
_atom_site_label
_atom_site_fract_x
_atom_site_fract_y
_atom_site_fract_z
Si Si1 0.526176 0.705699 0.948793
Si Si2 0.196539 0.938166 0.470445
Si Si3 0.075310 0.127924 0.522426
Si Si4 0.359218 0.214197 0.568134
Si Si5 0.965787 0.345605 0.010981
Si Si6 0.840198 0.880010 0.922412
Si Si7 0.583244 0.211217 0.629380
Si Si8 0.651441 0.352999 0.058722
O O1 0.364950 0.788327 0.687447
O O2 0.382943 0.683094 0.873793
O O3 0.708810 0.817008 0.183653
O O4 0.636707 0.539417 0.030664
O O5 0.127721 0.052889 0.480256
O O6 0.308417 0.036942 0.524172
O O7 0.978755 0.873575 0.177626
O O8 0.890225 0.275433 0.300940
O O9 0.000000 0.000000 0.500000
O O10 0.133920 0.325270 0.291147
O O11 0.518726 0.213252 0.663796
O O12 0.465851 0.282770 0.783668
O O13 0.005969 0.194433 0.985136
O O14 0.000000 0.500000 0.000000
O O15 0.717762 0.356334 0.764184
O O16 0.630270 0.782195 0.683513
O O17 0.750616 0.056721 0.796961
#
# Coordination Sequence:
#
# PCOD8021801 Si02
#       8
#     2   2   2   2   2   2   2   2
#     4  11  25  44  66  99 142 173 221 286 336 394
#     4  12  23  43  68 103 134 179 232 278 332 401
#     4  12  23  44  68  98 134 184 227 276 332 398
#     4  11  24  41  70  97 130 179 223 277 328 405
#     4  11  25  45  66  96 139 173 210 275 340 400
#     4  10  23  39  68  97 131 167 224 279 322 398
#     4  10  22  44  68  97 128 174 221 275 337 389
#     4  11  24  44  68  98 138 179 220 277 341 396
#
# _framework density 21.301275
#
# number of rings (size 3 to 8) (size 9 to 14) (size 15 to 20)
#    0.000    1.000    3.750    2.625    5.250    2.000 
#    0.000    2.500    0.000    0.000    0.000    0.000 
#    0.000    0.000    0.000    0.000    0.000    0.000 
#
# Total GULP energy -198443.779547 kJ/mol
# GULP energy per Si atom -12402.736222 kJ/mol
# Density = 2.125279 g / cm^3
# Si number density = 21.301275 Si / 1000 Ang^3
#
#
#
# Elastic Constant Matrix: (Units=GPa)
#
#
# Indices 1 2 3 4 5 6 
#
# 1 79.6866 48.8083 48.4841 3.4126 9.9792 14.7869
# 2 48.8083 70.3406 36.4846 -18.5077 3.9129 11.9560
# 3 48.4841 36.4846 154.9404 -9.5296 -12.1040 11.1815
# 4 3.4126 -18.5077 -9.5296 29.0245 3.4432 2.5289
# 5 9.9792 3.9129 -12.1040 3.4432 42.4982 3.6820
# 6 14.7869 11.9560 11.1815 2.5289 3.6820 39.7866
#
#
#
# Elastic Compliance Matrix: (Units=1/GPa)
#
#
# Indices 1 2 3 4 5 6 
#
# 1 0.033573 -0.025123 -0.006232 -0.021245 -0.005510 -0.001316
# 2 -0.025123 0.039636 0.000674 0.028793 0.000511 -0.004640
# 3 -0.006232 0.000674 0.008831 0.003706 0.003698 -0.000946
# 4 -0.021245 0.028793 0.003706 0.057086 -0.000768 -0.005355
# 5 -0.005510 0.000511 0.003698 -0.000768 0.026023 -0.001505
# 6 -0.001316 -0.004640 -0.000946 -0.005355 -0.001505 0.027763
#
#
# Mechanical properties :
#
#
# Convention : Reuss Voigt Hill
#
# Bulk Modulus (GPa) = 48.36255 63.61353 55.98804
# Shear Modulus (GPa) = 19.14495 33.67458 26.40976
#
# Velocity S-wave (km/s) = 3.00120 3.98033 3.52493
# Velocity P-wave (km/s) = 5.89601 7.14511 6.55040
#
# Compressibility (1/GPa) = 0.02067716
#
# Stress axis : x y z
#
# Youngs Moduli (GPa) = 29.78582 25.22989 113.24316
#
# Poissons Ratio (x) = 0.63385 0.70573
# Poissons Ratio (y) = 0.74831 -0.07633
# Poissons Ratio (z) = 0.18562 -0.01701
#
# Static dielectric constant tensor:
#      x y z
#    x 3.822660 -0.057780 0.038460 
#    y -0.057780 3.897890 0.033030 
#    z 0.038460 0.033030 4.138280 
# 
# 
# High freq. dielectric constant tensor:
#      x y z
#    x 1.829570 -0.001860 0.003000 
#    y -0.001860 1.831350 0.002440 
#    z 0.003000 0.002440 1.854010 
# 
# From -- ./inp_files/90340.got.cif
#   From: 2010.06.25/outbox.cif.g09.slc.cpg/sg2_46_cif.got.tgz:90340.got - 2010.06.27 13:26:56.
