data_PCOD8021599
_publ_section_title
;
Structure prediction by ZEFSAII (Michael W. Deem and Ramdas Pophale) SiO2 
 PCOD8021599
Probable space group: P -1
;
_chemical_formula_sum "Si O2"
_cell_formula_units_Z 14
_cell_length_a 9.183535
_cell_length_b 11.493931
_cell_length_c 11.202148
_cell_angle_alpha 121.800629
_cell_angle_beta 65.297020
_cell_angle_gamma 140.657995
_cell_volume 636.962810
_symmetry_space_group_name_H-M "P -1"
_symmetry_group_IT_number 2
_symmetry_cell_setting 'triclinic'
loop_
_space_group_symop_operation_xyz
x,y,z
-x,-y,-z
loop_
_atom_site_type_symbol
_atom_site_label
_atom_site_fract_x
_atom_site_fract_y
_atom_site_fract_z
Si Si1 0.541435 0.830911 0.471017
Si Si2 0.942380 0.231794 0.629644
Si Si3 0.152700 0.557425 0.090760
Si Si4 0.003843 0.798935 0.910266
Si Si5 0.440303 0.463673 0.639053
Si Si6 0.633944 0.764509 0.933668
Si Si7 0.809011 0.162773 0.386454
O O1 0.501184 0.644720 0.377757
O O2 0.307108 0.760462 0.556904
O O3 0.609024 0.931891 0.370986
O O4 0.749188 0.993972 0.580787
O O5 0.169610 0.328411 0.674989
O O6 0.828999 0.300023 0.754871
O O7 0.992786 0.286230 0.499663
O O8 0.024348 0.359711 0.098778
O O9 0.404719 0.665957 0.026391
O O10 0.000000 0.500000 0.000000
O O11 0.063882 0.813446 0.759429
O O12 0.768896 0.742226 0.962204
O O13 0.207497 0.005543 0.018944
O O14 0.500000 0.500000 0.500000
O O15 0.580025 0.666241 0.769749
#
# Coordination Sequence:
#
# PCOD8021599 Si02
#       7
#     2   2   2   2   2   2   2
#     4   9  22  40  69 100 138 171 228 290 335 406
#     4  10  22  44  65 101 132 181 227 276 351 401
#     4  12  26  46  71 103 141 184 227 285 354 413
#     4  11  26  47  75  98 142 182 234 293 333 421
#     4  12  25  41  66 102 140 181 225 284 346 415
#     4  11  27  47  66 107 136 185 237 277 352 408
#     4   9  21  43  72 104 125 181 235 279 348 389
#
# _framework density 21.979306000000001
#
# number of rings (size 3 to 8) (size 9 to 14) (size 15 to 20)
#    0.857    0.571    1.429    2.571    4.000    4.571 
#    0.000    0.000    0.000    0.000    0.000    0.000 
#    0.000    0.000    0.000    0.000    0.000    0.000 
#
# Total GULP energy -173596.371724 kJ/mol
# GULP energy per Si atom -12399.740837 kJ/mol
# Density = 2.192928 g / cm^3
# Si number density = 21.979306 Si / 1000 Ang^3
#
#
#
# Elastic Constant Matrix: (Units=GPa)
#
#
# Indices 1 2 3 4 5 6 
#
# 1 98.8510 28.7698 35.3588 -7.8051 -15.5043 8.2936
# 2 28.7698 58.7898 36.0836 -0.0758 -9.8487 3.4583
# 3 35.3588 36.0836 131.6089 9.5872 -9.9990 -1.6864
# 4 -7.8051 -0.0758 9.5872 30.5591 4.9242 5.6613
# 5 -15.5043 -9.8487 -9.9990 4.9242 37.9811 4.5532
# 6 8.2936 3.4583 -1.6864 5.6613 4.5532 33.2739
#
#
#
# Elastic Compliance Matrix: (Units=1/GPa)
#
#
# Indices 1 2 3 4 5 6 
#
# 1 0.013557 -0.004153 -0.002603 0.004476 0.003713 -0.004349
# 2 -0.004153 0.022710 -0.004934 0.000430 0.003087 -0.002071
# 3 -0.002603 -0.004934 0.010042 -0.004354 0.000587 0.002331
# 4 0.004476 0.000430 -0.004354 0.037086 -0.003145 -0.007261
# 5 0.003713 0.003087 0.000587 -0.003145 0.029777 -0.004756
# 6 -0.004349 -0.002071 0.002331 -0.007261 -0.004756 0.033357
#
#
# Mechanical properties :
#
#
# Convention : Reuss Voigt Hill
#
# Bulk Modulus (GPa) = 43.61399 54.40823 49.01111
# Shear Modulus (GPa) = 28.16070 32.96530 30.56300
#
# Velocity S-wave (km/s) = 3.58332 3.87697 3.73303
# Velocity P-wave (km/s) = 6.08330 6.69696 6.39749
#
# Compressibility (1/GPa) = 0.02292842
#
# Stress axis : x y z
#
# Youngs Moduli (GPa) = 73.76382 44.03357 99.58063
#
# Poissons Ratio (x) = 0.18286 0.25925
# Poissons Ratio (y) = 0.30632 0.49134
# Poissons Ratio (z) = 0.19204 0.21726
#
# Static dielectric constant tensor:
#      x y z
#    x 4.006640 0.207320 -0.125230 
#    y 0.207320 3.862180 0.209670 
#    z -0.125230 0.209670 3.981300 
# 
# 
# High freq. dielectric constant tensor:
#      x y z
#    x 1.872490 0.016260 -0.010550 
#    y 0.016260 1.853770 0.011410 
#    z -0.010550 0.011410 1.868360 
# 
# From -- ./inp_files/391016.got.cif
#   From: 2010.06.25/outbox.cif.g09.slc.cpg/sg2_196_cif.got.tgz:391016.got - 2010.06.27 13:26:56.
