data_PCOD8021260
_publ_section_title
;
Structure prediction by ZEFSAII (Michael W. Deem and Ramdas Pophale) SiO2 
 PCOD8021260
Probable space group: P -1
;
_chemical_formula_sum "Si O2"
_cell_formula_units_Z 16
_cell_length_a 15.667745
_cell_length_b 8.632166
_cell_length_c 12.963183
_cell_angle_alpha 130.947325
_cell_angle_beta 35.605824
_cell_angle_gamma 117.153140
_cell_volume 759.230098
_symmetry_space_group_name_H-M "P -1"
_symmetry_group_IT_number 2
_symmetry_cell_setting 'triclinic'
loop_
_space_group_symop_operation_xyz
x,y,z
-x,-y,-z
loop_
_atom_site_type_symbol
_atom_site_label
_atom_site_fract_x
_atom_site_fract_y
_atom_site_fract_z
Si Si1 0.650165 0.042523 0.821007
Si Si2 0.319883 0.109087 0.503991
Si Si3 0.352262 0.082988 0.857403
Si Si4 0.901126 0.184360 0.409048
Si Si5 0.348323 0.542438 0.106759
Si Si6 0.911594 0.830849 0.972720
Si Si7 0.868387 0.520284 0.056374
Si Si8 0.832440 0.055376 0.840715
O O1 0.634650 0.287111 0.921144
O O2 0.788552 0.988891 0.740353
O O3 0.678857 0.909396 0.629592
O O4 0.500000 0.000000 0.000000
O O5 0.276719 0.348093 0.686786
O O6 0.475456 0.015926 0.364903
O O7 0.194782 0.983074 0.615819
O O8 0.324133 0.332410 0.986070
O O9 0.252547 0.037639 0.837828
O O10 0.294429 0.000608 0.984044
O O11 0.789974 0.381859 0.648260
O O12 0.003597 0.263377 0.255984
O O13 0.004933 0.073166 0.350766
O O14 0.500000 0.500000 0.000000
O O15 0.911346 0.640548 0.966460
O O16 0.000000 0.000000 0.000000
O O17 0.832519 0.300694 0.959562
O O18 0.000000 0.500000 0.000000
#
# Coordination Sequence:
#
# PCOD8021260 Si02
#       8
#     2   2   2   2   2   2   2   2
#     4  11  22  43  66 102 136 174 215 278 333 395
#     4  11  22  43  71  94 139 172 223 271 337 384
#     4  11  23  44  68  97 133 175 216 281 320 398
#     4  10  22  43  69  95 130 175 219 274 330 390
#     4  11  21  40  67  95 134 168 218 270 330 386
#     4  11  23  44  68  93 130 174 226 267 327 393
#     4  12  24  46  67  99 134 178 217 279 329 398
#     4  11  23  43  69  97 140 172 223 273 332 392
#
# _framework density 21.073982000000001
#
# number of rings (size 3 to 8) (size 9 to 14) (size 15 to 20)
#    0.000    1.000    6.250    1.500    0.000    5.000 
#    6.750    0.000    0.000    0.000    0.000    0.000 
#    0.000    0.000    0.000    0.000    0.000    0.000 
#
# Total GULP energy -198382.174613 kJ/mol
# GULP energy per Si atom -12398.885913 kJ/mol
# Density = 2.102602 g / cm^3
# Si number density = 21.073982 Si / 1000 Ang^3
#
#
#
# Elastic Constant Matrix: (Units=GPa)
#
#
# Indices 1 2 3 4 5 6 
#
# 1 169.5025 40.4730 57.7445 -3.3958 -24.3469 -8.8865
# 2 40.4730 111.3425 45.6969 -10.8243 3.7134 -14.3900
# 3 57.7445 45.6969 129.1915 8.9240 -19.0514 -4.5660
# 4 -3.3958 -10.8243 8.9240 35.7050 1.2349 3.7186
# 5 -24.3469 3.7134 -19.0514 1.2349 39.1643 -0.1922
# 6 -8.8865 -14.3900 -4.5660 3.7186 -0.1922 37.4272
#
#
#
# Elastic Compliance Matrix: (Units=1/GPa)
#
#
# Indices 1 2 3 4 5 6 
#
# 1 0.007712 -0.001867 -0.002220 0.000504 0.003879 0.000812
# 2 -0.001867 0.012530 -0.004480 0.004552 -0.004655 0.003351
# 3 -0.002220 -0.004480 0.011306 -0.004516 0.004685 -0.000398
# 4 0.000504 0.004552 -0.004516 0.030862 -0.003297 -0.001764
# 5 0.003879 -0.004655 0.004685 -0.003297 0.030770 0.000188
# 6 0.000812 0.003351 -0.000398 -0.001764 0.000188 0.028328
#
#
# Mechanical properties :
#
#
# Convention : Reuss Voigt Hill
#
# Bulk Modulus (GPa) = 69.38461 77.54059 73.46260
# Shear Modulus (GPa) = 34.85627 40.20078 37.52852
#
# Velocity S-wave (km/s) = 4.07135 4.37235 4.22453
# Velocity P-wave (km/s) = 7.42273 7.89710 7.66359
#
# Compressibility (1/GPa) = 0.01441242
#
# Stress axis : x y z
#
# Youngs Moduli (GPa) = 129.67141 79.81093 88.44730
#
# Poissons Ratio (x) = 0.14904 0.19639
# Poissons Ratio (y) = 0.24215 0.39622
# Poissons Ratio (z) = 0.28793 0.35753
#
# Static dielectric constant tensor:
#      x y z
#    x 4.143930 0.672240 -0.345310 
#    y 0.672240 10.393370 -2.866730 
#    z -0.345310 -2.866730 4.911320 
# 
# 
# High freq. dielectric constant tensor:
#      x y z
#    x 1.845750 0.003540 -0.010980 
#    y 0.003540 1.829010 -0.008970 
#    z -0.010980 -0.008970 1.818100 
# 
# From -- ./inp_files/343600.got.cif
#   From: 2010.06.25/outbox.cif.g09.slc.cpg/sg2_172_cif.got.tgz:343600.got - 2010.06.27 13:26:56.
