data_PCOD8021063
_publ_section_title
;
Structure prediction by ZEFSAII (Michael W. Deem and Ramdas Pophale) SiO2 
 PCOD8021063
Probable space group: P -1
;
_chemical_formula_sum "Si O2"
_cell_formula_units_Z 10
_cell_length_a 12.310448
_cell_length_b 8.794880
_cell_length_c 15.171764
_cell_angle_alpha 148.818854
_cell_angle_beta 37.219284
_cell_angle_gamma 123.161140
_cell_volume 464.722545
_symmetry_space_group_name_H-M "P -1"
_symmetry_group_IT_number 2
_symmetry_cell_setting 'triclinic'
loop_
_space_group_symop_operation_xyz
x,y,z
-x,-y,-z
loop_
_atom_site_type_symbol
_atom_site_label
_atom_site_fract_x
_atom_site_fract_y
_atom_site_fract_z
Si Si1 0.181033 0.191184 0.267996
Si Si2 0.424018 0.222733 0.280715
Si Si3 0.914209 0.876283 0.247268
Si Si4 0.369348 0.919612 0.616126
Si Si5 0.447430 0.851243 0.250210
O O1 0.231810 0.254597 0.365407
O O2 0.000000 0.500000 0.500000
O O3 0.108031 0.910664 0.172114
O O4 0.379725 0.092318 0.032918
O O5 0.459325 0.547379 0.408177
O O6 0.383220 0.144198 0.366815
O O7 0.840365 0.006384 0.259508
O O8 0.737369 0.056300 0.519214
O O9 0.000000 0.500000 0.000000
O O10 0.500000 0.000000 0.500000
O O11 0.363446 0.145809 0.816213
O O12 0.500000 0.500000 0.000000
#
# Coordination Sequence:
#
# PCOD8021063 Si02
#       5
#     2   2   2   2   2
#     4  11  22  41  68 101 133 176 229 274 343 400
#     4  11  24  42  70  97 139 178 223 285 334 401
#     4  11  24  44  68  98 138 180 225 276 337 413
#     4  10  22  43  67  93 135 182 219 268 347 401
#     4  11  25  43  69 101 135 175 229 282 337 395
#
# _framework density 21.518214
#
# number of rings (size 3 to 8) (size 9 to 14) (size 15 to 20)
#    0.000    1.200    2.000    4.200   11.200    0.800 
#    3.600    2.000    0.000    0.000    0.000    0.000 
#    0.000    0.000    0.000    0.000    0.000    0.000 
#
# Total GULP energy -123911.192322 kJ/mol
# GULP energy per Si atom -12391.119232 kJ/mol
# Density = 2.146924 g / cm^3
# Si number density = 21.518214 Si / 1000 Ang^3
#
#
#
# Elastic Constant Matrix: (Units=GPa)
#
#
# Indices 1 2 3 4 5 6 
#
# 1 189.1928 65.2233 51.0165 3.0176 14.1303 3.8764
# 2 65.2233 97.2258 23.9713 31.4218 4.6780 3.6819
# 3 51.0165 23.9713 109.6034 22.7579 4.5925 1.2964
# 4 3.0176 31.4218 22.7579 35.7969 6.9072 -2.8749
# 5 14.1303 4.6780 4.5925 6.9072 38.3532 6.8950
# 6 3.8764 3.6819 1.2964 -2.8749 6.8950 40.2556
#
#
#
# Elastic Compliance Matrix: (Units=1/GPa)
#
#
# Indices 1 2 3 4 5 6 
#
# 1 0.009597 -0.008569 -0.004632 0.010567 -0.004102 0.001466
# 2 -0.008569 0.022277 0.003599 -0.022326 0.004700 -0.003728
# 3 -0.004632 0.003599 0.012795 -0.011417 0.002055 -0.001462
# 4 0.010567 -0.022326 -0.011417 0.056681 -0.011338 0.007382
# 5 -0.004102 0.004700 0.002055 -0.011338 0.029892 -0.006031
# 6 0.001466 -0.003728 -0.001462 0.007382 -0.006031 0.026648
#
#
# Mechanical properties :
#
#
# Convention : Reuss Voigt Hill
#
# Bulk Modulus (GPa) = 39.27075 75.16046 57.21560
# Shear Modulus (GPa) = 26.94236 39.93520 33.43878
#
# Velocity S-wave (km/s) = 3.54230 4.31267 3.94633
# Velocity P-wave (km/s) = 5.91778 7.73326 6.88562
#
# Compressibility (1/GPa) = 0.02546425
#
# Stress axis : x y z
#
# Youngs Moduli (GPa) = 104.20273 44.88957 78.15781
#
# Poissons Ratio (x) = 0.38466 0.36206
# Poissons Ratio (y) = 0.89291 -0.28132
# Poissons Ratio (z) = 0.48271 -0.16157
#
# Static dielectric constant tensor:
#      x y z
#    x 3.974350 -0.441560 0.104870 
#    y -0.441560 3.433670 0.351450 
#    z 0.104870 0.351450 3.528640 
# 
# 
# High freq. dielectric constant tensor:
#      x y z
#    x 1.873760 0.008180 0.003760 
#    y 0.008180 1.844550 0.025120 
#    z 0.003760 0.025120 1.826060 
# 
# From -- ./inp_files/57582.got.cif
#   From: 2010.06.25/outbox.cif.g09.slc.cpg/sg2_29_cif.got.tgz:57582.got - 2010.06.27 13:26:56.
