data_PCOD8021662
_publ_section_title
;
Structure prediction by ZEFSAII (Michael W. Deem and Ramdas Pophale) SiO2 
 PCOD8021662
Probable space group: P -1
;
_chemical_formula_sum "Si O2"
_cell_formula_units_Z 16
_cell_length_a 9.018446
_cell_length_b 22.188270
_cell_length_c 20.288584
_cell_angle_alpha 19.314262
_cell_angle_beta 37.862542
_cell_angle_gamma 31.225699
_cell_volume 692.470234
_symmetry_space_group_name_H-M "P -1"
_symmetry_group_IT_number 2
_symmetry_cell_setting 'triclinic'
loop_
_space_group_symop_operation_xyz
x,y,z
-x,-y,-z
loop_
_atom_site_type_symbol
_atom_site_label
_atom_site_fract_x
_atom_site_fract_y
_atom_site_fract_z
Si Si1 0.777920 0.825720 0.268834
Si Si2 0.660130 0.785702 0.708595
Si Si3 0.187466 0.722248 0.639092
Si Si4 0.774127 0.044174 0.735616
Si Si5 0.786179 0.452024 0.911953
Si Si6 0.176340 0.960861 0.784924
Si Si7 0.302065 0.749365 0.090685
Si Si8 0.629475 0.731690 0.553202
O O1 0.784836 0.685354 0.474401
O O2 0.102706 0.706349 0.251974
O O3 0.570688 0.834811 0.274336
O O4 0.641407 0.077988 0.074324
O O5 0.863300 0.592623 0.786232
O O6 0.402622 0.771847 0.849001
O O7 0.869172 0.767715 0.714326
O O8 0.500000 0.000000 0.500000
O O9 0.408982 0.472720 0.798933
O O10 0.302677 0.797675 0.582201
O O11 0.114536 0.878055 0.442280
O O12 0.864091 0.103458 0.712286
O O13 0.935477 0.786910 0.937671
O O14 0.753275 0.528258 0.768343
O O15 0.500000 0.500000 0.000000
O O16 0.338064 0.086582 0.610908
O O17 0.127924 0.860656 0.969709
#
# Coordination Sequence:
#
# PCOD8021662 Si02
#       8
#     2   2   2   2   2   2   2   2
#     4   9  22  44  67  90 123 159 206 262 310 356
#     4  12  22  41  63  90 129 165 197 258 308 363
#     4  11  23  40  64  92 125 164 209 246 309 369
#     4  11  22  39  63  95 124 165 205 251 304 371
#     4  12  22  39  63  89 129 164 200 250 304 365
#     4  11  22  41  62  92 129 160 208 253 305 366
#     4  10  22  44  66  91 123 160 207 262 305 363
#     4  10  23  40  62  93 124 163 207 252 303 369
#
# _framework density 23.105685000000001
#
# number of rings (size 3 to 8) (size 9 to 14) (size 15 to 20)
#    0.000    1.250    3.750    1.500    0.000    3.500 
#    4.500    1.250    0.000    6.000    0.000    0.000 
#    0.000    0.000    0.000    0.000    0.000    0.000 
#
# Total GULP energy -198209.338723 kJ/mol
# GULP energy per Si atom -12388.083670 kJ/mol
# Density = 2.305309 g / cm^3
# Si number density = 23.105685 Si / 1000 Ang^3
#
#
#
# Elastic Constant Matrix: (Units=GPa)
#
#
# Indices 1 2 3 4 5 6 
#
# 1 144.4533 18.2456 21.8803 0.1544 14.7682 -12.3033
# 2 18.2456 50.7025 20.2297 13.4916 6.7855 -9.3189
# 3 21.8803 20.2297 99.9010 6.5748 23.2942 2.7995
# 4 0.1544 13.4916 6.5748 36.2685 10.1038 -1.2558
# 5 14.7682 6.7855 23.2942 10.1038 34.2542 0.6783
# 6 -12.3033 -9.3189 2.7995 -1.2558 0.6783 27.5120
#
#
#
# Elastic Compliance Matrix: (Units=1/GPa)
#
#
# Indices 1 2 3 4 5 6 
#
# 1 0.007872 -0.002020 -0.000812 0.001818 -0.003038 0.003076
# 2 -0.002020 0.026006 -0.004799 -0.008927 0.001459 0.007950
# 3 -0.000812 -0.004799 0.012992 0.001536 -0.007927 -0.003045
# 4 0.001818 -0.008927 0.001536 0.033339 -0.009882 -0.000601
# 5 -0.003038 0.001459 -0.007927 -0.009882 0.038549 -0.001460
# 6 0.003076 0.007950 -0.003045 -0.000601 -0.001460 0.040735
#
#
# Mechanical properties :
#
#
# Convention : Reuss Voigt Hill
#
# Bulk Modulus (GPa) = 31.63915 46.19645 38.91780
# Shear Modulus (GPa) = 26.98451 35.25368 31.11910
#
# Velocity S-wave (km/s) = 3.42112 3.91033 3.67388
# Velocity P-wave (km/s) = 5.41557 6.35803 5.90563
#
# Compressibility (1/GPa) = 0.03160641
#
# Stress axis : x y z
#
# Youngs Moduli (GPa) = 127.03926 38.45264 76.96891
#
# Poissons Ratio (x) = 0.07769 0.06253
# Poissons Ratio (y) = 0.25666 0.36938
# Poissons Ratio (z) = 0.10320 0.18454
#
# Static dielectric constant tensor:
#      x y z
#    x 4.856040 0.120820 -0.160970 
#    y 0.120820 3.804350 0.189210 
#    z -0.160970 0.189210 4.269890 
# 
# 
# High freq. dielectric constant tensor:
#      x y z
#    x 1.937020 -0.006150 -0.006940 
#    y -0.006150 1.877720 0.011190 
#    z -0.006940 0.011190 1.920130 
# 
# From -- ./inp_files/222295.got.cif
#   From: 2010.06.25/outbox.cif.g09.slc.cpg/sg2_112_cif.got.tgz:222295.got - 2010.06.27 13:26:56.
