data_PCOD8021484
_publ_section_title
;
Structure prediction by ZEFSAII (Michael W. Deem and Ramdas Pophale) SiO2 
 PCOD8021484
Probable space group: P -1
;
_chemical_formula_sum "Si O2"
_cell_formula_units_Z 16
_cell_length_a 8.447725
_cell_length_b 9.327707
_cell_length_c 11.872623
_cell_angle_alpha 121.495343
_cell_angle_beta 80.672076
_cell_angle_gamma 111.414240
_cell_volume 742.162410
_symmetry_space_group_name_H-M "P -1"
_symmetry_group_IT_number 2
_symmetry_cell_setting 'triclinic'
loop_
_space_group_symop_operation_xyz
x,y,z
-x,-y,-z
loop_
_atom_site_type_symbol
_atom_site_label
_atom_site_fract_x
_atom_site_fract_y
_atom_site_fract_z
Si Si1 0.773058 0.483830 0.285148
Si Si2 0.332733 0.366162 0.017117
Si Si3 0.308700 0.972339 0.478038
Si Si4 0.545245 0.833658 0.885582
Si Si5 0.841984 0.568958 0.551435
Si Si6 0.163069 0.561753 0.272941
Si Si7 0.158560 0.181213 0.741580
Si Si8 0.802116 0.926596 0.689370
O O1 0.633995 0.310247 0.183223
O O2 0.721698 0.498721 0.427891
O O3 0.771258 0.651037 0.279944
O O4 0.960004 0.466390 0.253007
O O5 0.363287 0.242684 0.060627
O O6 0.233563 0.495847 0.126852
O O7 0.500000 0.500000 0.000000
O O8 0.229663 0.230690 0.878479
O O9 0.217079 0.022894 0.617499
O O10 0.302418 0.098053 0.425281
O O11 0.500000 0.000000 0.500000
O O12 0.210791 0.773065 0.364302
O O13 0.670583 0.902431 0.795087
O O14 0.500000 0.000000 0.000000
O O15 0.750647 0.499830 0.652949
O O16 0.898630 0.782217 0.628855
O O17 0.000000 0.500000 0.500000
O O18 0.953784 0.116992 0.750389
#
# Coordination Sequence:
#
# PCOD8021484 Si02
#       8
#     2   2   2   2   2   2   2   2
#     4  11  24  47  75 104 142 192 238 294 366 434
#     4  12  27  48  71 103 146 190 243 292 363 433
#     4  12  27  44  75 114 150 186 243 303 364 428
#     4  12  31  48  70 106 149 188 245 305 363 425
#     4  10  22  43  74 107 141 178 242 302 355 424
#     4  11  25  46  74 107 144 194 240 292 367 437
#     4  12  25  46  79 104 144 195 240 296 360 442
#     4  12  26  48  74 110 144 190 245 303 359 431
#
# _framework density 21.558624999999999
#
# number of rings (size 3 to 8) (size 9 to 14) (size 15 to 20)
#    0.000    0.500    5.000    2.625    7.000    3.500 
#    0.000    0.000    0.000    0.000    0.000    0.000 
#    0.000    0.000    0.000    0.000    0.000    0.000 
#
# Total GULP energy -198374.446143 kJ/mol
# GULP energy per Si atom -12398.402884 kJ/mol
# Density = 2.150956 g / cm^3
# Si number density = 21.558625 Si / 1000 Ang^3
#
#
#
# Elastic Constant Matrix: (Units=GPa)
#
#
# Indices 1 2 3 4 5 6 
#
# 1 116.2043 52.7067 74.2134 2.5455 2.8621 16.9304
# 2 52.7067 109.5333 61.9292 0.4941 -1.7961 4.7177
# 3 74.2134 61.9292 179.4662 -1.3388 -6.0936 -0.3187
# 4 2.5455 0.4941 -1.3388 41.9045 -3.5194 0.0363
# 5 2.8621 -1.7961 -6.0936 -3.5194 39.3854 -1.2338
# 6 16.9304 4.7177 -0.3187 0.0363 -1.2338 33.5698
#
#
#
# Elastic Compliance Matrix: (Units=1/GPa)
#
#
# Indices 1 2 3 4 5 6 
#
# 1 0.014546 -0.004073 -0.004709 -0.001173 -0.002292 -0.006891
# 2 -0.004073 0.012577 -0.002639 0.000054 0.000475 0.000279
# 3 -0.004709 -0.002639 0.008498 0.000728 0.001692 0.002888
# 4 -0.001173 0.000054 0.000728 0.024157 0.002379 0.000652
# 5 -0.002292 0.000475 0.001692 0.002379 0.026117 0.002063
# 6 -0.006891 0.000279 0.002888 0.000652 0.002063 0.033328
#
#
# Mechanical properties :
#
#
# Convention : Reuss Voigt Hill
#
# Bulk Modulus (GPa) = 78.24363 86.98912 82.61638
# Shear Modulus (GPa) = 34.17099 37.39556 35.78328
#
# Velocity S-wave (km/s) = 3.98556 4.16937 4.07850
# Velocity P-wave (km/s) = 7.58629 7.97595 7.78356
#
# Compressibility (1/GPa) = 0.01278059
#
# Stress axis : x y z
#
# Youngs Moduli (GPa) = 68.74701 79.51084 117.67836
#
# Poissons Ratio (x) = 0.32383 0.55409
# Poissons Ratio (y) = 0.27999 0.31052
# Poissons Ratio (z) = 0.32370 0.20981
#
# Static dielectric constant tensor:
#      x y z
#    x 3.911630 -0.135720 0.081400 
#    y -0.135720 4.393930 -0.853510 
#    z 0.081400 -0.853510 5.617630 
# 
# 
# High freq. dielectric constant tensor:
#      x y z
#    x 1.848200 -0.010160 0.001300 
#    y -0.010160 1.856970 -0.008460 
#    z 0.001300 -0.008460 1.859570 
# 
# From -- ./inp_files/185409.got.cif
#   From: 2010.06.25/outbox.cif.g09.slc.cpg/sg2_93_cif.got.tgz:185409.got - 2010.06.27 13:26:56.
