data_PCOD8021941
_publ_section_title
;
Structure prediction by ZEFSAII (Michael W. Deem and Ramdas Pophale) SiO2 
 PCOD8021941
Probable space group: P -1
;
_chemical_formula_sum "Si O2"
_cell_formula_units_Z 14
_cell_length_a 18.096484
_cell_length_b 8.530057
_cell_length_c 8.706895
_cell_angle_alpha 118.035064
_cell_angle_beta 147.315652
_cell_angle_gamma 63.564087
_cell_volume 637.147784
_symmetry_space_group_name_H-M "P -1"
_symmetry_group_IT_number 2
_symmetry_cell_setting 'triclinic'
loop_
_space_group_symop_operation_xyz
x,y,z
-x,-y,-z
loop_
_atom_site_type_symbol
_atom_site_label
_atom_site_fract_x
_atom_site_fract_y
_atom_site_fract_z
Si Si1 0.157820 0.413428 0.051482
Si Si2 0.540382 0.674668 0.565199
Si Si3 0.488854 0.040453 0.820609
Si Si4 0.744726 0.653961 0.475196
Si Si5 0.009211 0.345926 0.316548
Si Si6 0.354246 0.700479 0.960691
Si Si7 0.950193 0.184539 0.425762
O O1 0.295620 0.333277 0.170254
O O2 0.165460 0.394168 0.238196
O O3 0.114018 0.617605 0.009603
O O4 0.024497 0.325308 0.719828
O O5 0.500000 0.500000 0.500000
O O6 0.489260 0.852845 0.648991
O O7 0.477011 0.684029 0.289995
O O8 0.347884 0.158810 0.583643
O O9 0.615062 0.151396 0.043403
O O10 0.500000 0.000000 0.000000
O O11 0.648990 0.494530 0.209790
O O12 0.841518 0.675658 0.509071
O O13 0.987723 0.172941 0.303439
O O14 0.000000 0.500000 0.500000
O O15 0.212300 0.766539 0.824685
O O16 0.000000 0.000000 0.500000
#
# Coordination Sequence:
#
# PCOD8021941 Si02
#       7
#     2   2   2   2   2   2   2
#     4  11  24  46  72 103 144 188 247 292 363 424
#     4  12  27  47  76 104 144 194 241 296 368 434
#     4  12  29  45  73 110 149 185 242 306 360 431
#     4  12  25  46  73 108 145 188 244 302 358 425
#     4  10  22  44  70  99 138 193 235 287 355 428
#     4  12  25  48  72 106 146 190 243 291 371 430
#     4  11  25  43  73 101 145 194 241 291 358 430
#
# _framework density 21.972923999999999
#
# number of rings (size 3 to 8) (size 9 to 14) (size 15 to 20)
#    0.000    0.571    4.286    3.857   12.000    0.000 
#    0.000    0.714    0.000    0.000    0.000    0.000 
#    0.000    0.000    0.000    0.000    0.000    0.000 
#
# Total GULP energy -173585.706829 kJ/mol
# GULP energy per Si atom -12398.979059 kJ/mol
# Density = 2.192291 g / cm^3
# Si number density = 21.972924 Si / 1000 Ang^3
#
#
#
# Elastic Constant Matrix: (Units=GPa)
#
#
# Indices 1 2 3 4 5 6 
#
# 1 158.3952 56.9577 46.6381 2.2461 1.2222 28.6638
# 2 56.9577 139.0981 33.0444 -3.1909 -2.4786 16.2218
# 3 46.6381 33.0444 99.9052 -14.0585 -2.7588 10.8194
# 4 2.2461 -3.1909 -14.0585 29.2205 0.8294 -7.1090
# 5 1.2222 -2.4786 -2.7588 0.8294 45.6337 -10.7517
# 6 28.6638 16.2218 10.8194 -7.1090 -10.7517 45.8090
#
#
#
# Elastic Compliance Matrix: (Units=1/GPa)
#
#
# Indices 1 2 3 4 5 6 
#
# 1 0.009226 -0.002467 -0.003533 -0.003862 -0.001718 -0.005068
# 2 -0.002467 0.008712 -0.001591 0.000101 0.000180 -0.001108
# 3 -0.003533 -0.001591 0.013034 0.006568 0.000895 0.000925
# 4 -0.003862 0.000101 0.006568 0.039424 0.001510 0.007302
# 5 -0.001718 0.000180 0.000895 0.001510 0.023542 0.006560
# 6 -0.005068 -0.001108 0.000925 0.007302 0.006560 0.027847
#
#
# Mechanical properties :
#
#
# Convention : Reuss Voigt Hill
#
# Bulk Modulus (GPa) = 63.33049 74.51988 68.92519
# Shear Modulus (GPa) = 35.15453 41.51654 38.33553
#
# Velocity S-wave (km/s) = 4.00422 4.35149 4.18146
# Velocity P-wave (km/s) = 7.08964 7.69645 7.39926
#
# Compressibility (1/GPa) = 0.01579018
#
# Stress axis : x y z
#
# Youngs Moduli (GPa) = 108.39345 114.78599 76.72353
#
# Poissons Ratio (x) = 0.28313 0.27107
# Poissons Ratio (y) = 0.26737 0.12206
# Poissons Ratio (z) = 0.38296 0.18261
#
# Static dielectric constant tensor:
#      x y z
#    x 4.376670 0.464240 -0.054120 
#    y 0.464240 4.930670 -0.142010 
#    z -0.054120 -0.142010 4.030930 
# 
# 
# High freq. dielectric constant tensor:
#      x y z
#    x 1.887790 0.013340 0.003140 
#    y 0.013340 1.866680 -0.023370 
#    z 0.003140 -0.023370 1.862020 
# 
# From -- ./inp_files/156762.got.cif
#   From: 2010.06.25/outbox.cif.g09.slc.cpg/sg2_79_cif.got.tgz:156762.got - 2010.06.27 13:26:56.
