data_PCOD8021731
_publ_section_title
;
Structure prediction by ZEFSAII (Michael W. Deem and Ramdas Pophale) SiO2 
 PCOD8021731
Probable space group: P -1
;
_chemical_formula_sum "Si O2"
_cell_formula_units_Z 16
_cell_length_a 9.516298
_cell_length_b 17.741806
_cell_length_c 11.563173
_cell_angle_alpha 43.154069
_cell_angle_beta 84.643519
_cell_angle_gamma 50.565117
_cell_volume 736.005250
_symmetry_space_group_name_H-M "P -1"
_symmetry_group_IT_number 2
_symmetry_cell_setting 'triclinic'
loop_
_space_group_symop_operation_xyz
x,y,z
-x,-y,-z
loop_
_atom_site_type_symbol
_atom_site_label
_atom_site_fract_x
_atom_site_fract_y
_atom_site_fract_z
Si Si1 0.807990 0.530458 0.936357
Si Si2 0.202569 0.711806 0.291580
Si Si3 0.296819 0.133929 0.263909
Si Si4 0.849466 0.488027 0.415450
Si Si5 0.021189 0.006414 0.796550
Si Si6 0.391376 0.189911 0.762703
Si Si7 0.548236 0.728277 0.962441
Si Si8 0.398130 0.855712 0.423066
O O1 0.596437 0.646284 0.922222
O O2 0.657992 0.648642 0.696340
O O3 0.000000 0.500000 0.000000
O O4 0.010456 0.302970 0.147938
O O5 0.500000 0.500000 0.500000
O O6 0.094405 0.658000 0.350150
O O7 0.121252 0.835169 0.049781
O O8 0.107329 0.825041 0.293168
O O9 0.348067 0.213723 0.101085
O O10 0.500000 0.000000 0.500000
O O11 0.316303 0.021088 0.303079
O O12 0.644934 0.707668 0.238495
O O13 0.125490 0.361638 0.521323
O O14 0.725604 0.538937 0.244672
O O15 0.251751 0.914320 0.811864
O O16 0.818365 0.098598 0.611149
O O17 0.578331 0.133377 0.727098
O O18 0.500000 0.000000 0.000000
#
# Coordination Sequence:
#
# PCOD8021731 Si02
#       8
#     2   2   2   2   2   2   2   2
#     4  10  22  44  67  96 132 172 227 281 343 405
#     4  11  23  45  66  94 145 187 230 268 351 407
#     4  11  23  43  72  97 127 179 226 286 347 404
#     4  11  24  40  68 100 133 181 228 286 338 416
#     4  11  27  42  68 103 138 189 228 284 339 416
#     4  11  24  40  66 105 136 172 231 290 344 401
#     4  11  23  44  69  99 134 176 235 272 345 418
#     4  12  24  43  68  97 141 174 224 288 346 397
#
# _framework density 21.738976000000001
#
# number of rings (size 3 to 8) (size 9 to 14) (size 15 to 20)
#    0.000    1.000    3.750    3.750    5.250    4.500 
#    0.000    0.625    0.000    0.000    0.000    0.000 
#    0.000    0.000    0.000    0.000    0.000    0.000 
#
# Total GULP energy -198301.045366 kJ/mol
# GULP energy per Si atom -12393.815335 kJ/mol
# Density = 2.168950 g / cm^3
# Si number density = 21.738976 Si / 1000 Ang^3
#
#
#
# Elastic Constant Matrix: (Units=GPa)
#
#
# Indices 1 2 3 4 5 6 
#
# 1 86.5182 34.7506 26.6075 -9.0325 7.8973 -1.8574
# 2 34.7506 123.7474 51.9079 -20.1493 5.0069 -17.8574
# 3 26.6075 51.9079 114.0751 -13.5180 4.6958 5.0724
# 4 -9.0325 -20.1493 -13.5180 38.4004 2.8861 2.0180
# 5 7.8973 5.0069 4.6958 2.8861 39.5750 -5.4358
# 6 -1.8574 -17.8574 5.0724 2.0180 -5.4358 28.4778
#
#
#
# Elastic Compliance Matrix: (Units=1/GPa)
#
#
# Indices 1 2 3 4 5 6 
#
# 1 0.013573 -0.003088 -0.001445 0.001317 -0.002428 -0.001350
# 2 -0.003088 0.012941 -0.005128 0.003766 0.000502 0.008656
# 3 -0.001445 -0.005128 0.011940 0.001583 -0.001394 -0.005814
# 4 0.001317 0.003766 0.001583 0.029145 -0.003121 -0.000495
# 5 -0.002428 0.000502 -0.001394 -0.003121 0.026873 0.005755
# 6 -0.001350 0.008656 -0.005814 -0.000495 0.005755 0.042624
#
#
# Mechanical properties :
#
#
# Convention : Reuss Voigt Hill
#
# Bulk Modulus (GPa) = 52.26351 61.20808 56.73579
# Shear Modulus (GPa) = 30.71371 35.36228 33.03800
#
# Velocity S-wave (km/s) = 3.76285 4.03758 3.90264
# Velocity P-wave (km/s) = 6.55533 7.06775 6.81636
#
# Compressibility (1/GPa) = 0.01913381
#
# Stress axis : x y z
#
# Youngs Moduli (GPa) = 73.67618 77.27435 83.75305
#
# Poissons Ratio (x) = 0.23859 0.12100
# Poissons Ratio (y) = 0.22748 0.42945
# Poissons Ratio (z) = 0.10644 0.39623
#
# Static dielectric constant tensor:
#      x y z
#    x 4.846700 -0.160090 -0.418240 
#    y -0.160090 4.368770 -0.328320 
#    z -0.418240 -0.328320 4.259710 
# 
# 
# High freq. dielectric constant tensor:
#      x y z
#    x 1.841160 -0.004510 0.010290 
#    y -0.004510 1.861970 -0.013330 
#    z 0.010290 -0.013330 1.862680 
# 
# From -- ./inp_files/402840.got.cif
#   From: 2010.06.25/outbox.cif.g09.slc.cpg/sg2_202_cif.got.tgz:402840.got - 2010.06.27 13:26:56.
