data_PCOD8021808
_publ_section_title
;
Structure prediction by ZEFSAII (Michael W. Deem and Ramdas Pophale) SiO2 
 PCOD8021808
Probable space group: P -1
;
_chemical_formula_sum "Si O2"
_cell_formula_units_Z 12
_cell_length_a 5.353160
_cell_length_b 13.754718
_cell_length_c 9.079934
_cell_angle_alpha 125.838372
_cell_angle_beta 93.989278
_cell_angle_gamma 67.174333
_cell_volume 488.311520
_symmetry_space_group_name_H-M "P -1"
_symmetry_group_IT_number 2
_symmetry_cell_setting 'triclinic'
loop_
_space_group_symop_operation_xyz
x,y,z
-x,-y,-z
loop_
_atom_site_type_symbol
_atom_site_label
_atom_site_fract_x
_atom_site_fract_y
_atom_site_fract_z
Si Si1 0.588783 0.997173 0.667524
Si Si2 0.607399 0.734605 0.502451
Si Si3 0.835450 0.462463 0.620397
Si Si4 0.654513 0.296489 0.263541
Si Si5 0.025818 0.855062 0.131087
Si Si6 0.686169 0.360005 0.812263
O O1 0.820583 0.052053 0.739605
O O2 0.307974 0.071166 0.817511
O O3 0.500000 0.000000 0.500000
O O4 0.731338 0.843038 0.588300
O O5 0.385472 0.784161 0.670982
O O6 0.483729 0.719045 0.326856
O O7 0.833755 0.585221 0.428362
O O8 0.753797 0.403645 0.421488
O O9 0.639023 0.620095 0.763006
O O10 0.841478 0.387438 0.706275
O O11 0.882297 0.195639 0.075071
O O12 0.104511 0.733192 0.139619
O O13 0.500000 0.500000 0.000000
#
# Coordination Sequence:
#
# PCOD8021808 Si02
#       6
#     2   2   2   2   2   2
#     4  12  27  47  73 101 146 188 232 288 345 417
#     4  11  25  42  71  97 139 191 229 285 355 417
#     4  10  22  44  68  97 143 179 231 289 358 409
#     4  10  24  43  67 103 138 180 232 293 350 410
#     4  12  27  46  73 107 140 183 240 287 343 420
#     4  11  23  42  69 103 134 177 235 291 349 411
#
# _framework density 24.574476000000001
#
# number of rings (size 3 to 8) (size 9 to 14) (size 15 to 20)
#    0.000    1.000    3.333    2.000    7.000    3.333 
#    0.000    0.000    0.000    0.000    0.000    0.000 
#    0.000    0.000    0.000    0.000    0.000    0.000 
#
# Total GULP energy -148727.767837 kJ/mol
# GULP energy per Si atom -12393.980653 kJ/mol
# Density = 2.451854 g / cm^3
# Si number density = 24.574476 Si / 1000 Ang^3
#
#
#
# Elastic Constant Matrix: (Units=GPa)
#
#
# Indices 1 2 3 4 5 6 
#
# 1 59.0931 3.3030 8.2881 3.7220 -15.5823 4.4875
# 2 3.3030 70.5983 17.0670 9.4190 -3.2284 6.6320
# 3 8.2881 17.0670 114.1297 -7.5668 -25.4725 10.0724
# 4 3.7220 9.4190 -7.5668 33.7908 -3.3030 -0.8528
# 5 -15.5823 -3.2284 -25.4725 -3.3030 34.2788 10.0946
# 6 4.4875 6.6320 10.0724 -0.8528 10.0946 40.1577
#
#
#
# Elastic Compliance Matrix: (Units=1/GPa)
#
#
# Indices 1 2 3 4 5 6 
#
# 1 0.020377 -0.000169 0.001709 -0.000774 0.012134 -0.005745
# 2 -0.000169 0.015625 -0.002589 -0.005009 -0.000450 -0.001905
# 3 0.001709 -0.002589 0.012492 0.004352 0.011946 -0.005807
# 4 -0.000774 -0.005009 0.004352 0.032596 0.005831 -0.000952
# 5 0.012134 -0.000450 0.011946 0.005831 0.048930 -0.016454
# 6 -0.005745 -0.001905 -0.005807 -0.000952 -0.016454 0.031431
#
#
# Mechanical properties :
#
#
# Convention : Reuss Voigt Hill
#
# Bulk Modulus (GPa) = 21.55288 33.45971 27.50629
# Shear Modulus (GPa) = 27.93102 35.98967 31.96035
#
# Velocity S-wave (km/s) = 3.37499 3.83105 3.61023
# Velocity P-wave (km/s) = 4.89662 5.76320 5.34749
#
# Compressibility (1/GPa) = 0.04639752
#
# Stress axis : x y z
#
# Youngs Moduli (GPa) = 49.07549 63.99995 80.05081
#
# Poissons Ratio (x) = 0.01081 -0.13684
# Poissons Ratio (y) = 0.00829 0.20723
# Poissons Ratio (z) = -0.08389 0.16568
#
# Static dielectric constant tensor:
#      x y z
#    x 4.446710 0.050060 -0.239540 
#    y 0.050060 4.614150 -0.005730 
#    z -0.239540 -0.005730 4.522000 
# 
# 
# High freq. dielectric constant tensor:
#      x y z
#    x 1.972720 0.004670 -0.020950 
#    y 0.004670 1.989580 -0.004290 
#    z -0.020950 -0.004290 1.975850 
# 
# From -- ./inp_files/20968.got.cif
#   From: 2010.06.25/outbox.cif.g09.slc.cpg/sg2_11_cif.got.tgz:20968.got - 2010.06.27 13:26:56.
