data_PCOD8021764
_publ_section_title
;
Structure prediction by ZEFSAII (Michael W. Deem and Ramdas Pophale) SiO2 
 PCOD8021764
Probable space group: P -1
;
_chemical_formula_sum "Si O2"
_cell_formula_units_Z 16
_cell_length_a 8.327090
_cell_length_b 15.438214
_cell_length_c 15.231556
_cell_angle_alpha 28.360353
_cell_angle_beta 105.259327
_cell_angle_gamma 87.506802
_cell_volume 717.663121
_symmetry_space_group_name_H-M "P -1"
_symmetry_group_IT_number 2
_symmetry_cell_setting 'triclinic'
loop_
_space_group_symop_operation_xyz
x,y,z
-x,-y,-z
loop_
_atom_site_type_symbol
_atom_site_label
_atom_site_fract_x
_atom_site_fract_y
_atom_site_fract_z
Si Si1 0.722853 0.363037 0.104479
Si Si2 0.356365 0.183994 0.604308
Si Si3 0.059219 0.930881 0.914871
Si Si4 0.926798 0.861339 0.518951
Si Si5 0.200113 0.635615 0.604398
Si Si6 0.654352 0.448243 0.829076
Si Si7 0.182622 0.250837 0.893156
Si Si8 0.734090 0.871440 0.172168
O O1 0.913893 0.330951 0.214110
O O2 0.792401 0.111157 0.317974
O O3 0.500000 0.500000 0.000000
O O4 0.706550 0.487215 0.899810
O O5 0.240904 0.166414 0.521323
O O6 0.372710 0.382840 0.400634
O O7 0.221347 0.245610 0.620344
O O8 0.587214 0.957017 0.856487
O O9 0.219182 0.940570 0.990124
O O10 0.173353 0.810608 0.946306
O O11 0.869370 0.198165 0.637290
O O12 0.984706 0.792311 0.068784
O O13 0.094987 0.809161 0.516020
O O14 0.446507 0.467616 0.793361
O O15 0.121689 0.478090 0.729763
O O16 0.151595 0.301952 0.738436
O O17 0.500000 0.000000 0.000000
#
# Coordination Sequence:
#
# PCOD8021764 Si02
#       8
#     2   2   2   2   2   2   2   2
#     4  11  23  41  71  97 132 175 229 280 342 404
#     4  11  23  44  69  99 140 182 227 280 346 407
#     4  12  24  45  70 101 137 185 228 279 347 401
#     4  11  23  43  68  98 132 179 222 279 344 404
#     4  12  23  44  73  98 139 183 225 281 343 401
#     4  12  24  44  69 101 138 179 228 283 342 411
#     4  11  25  44  70 102 137 184 234 280 334 406
#     4  10  22  44  68 100 138 179 232 283 332 399
#
# _framework density 22.294582999999999
#
# number of rings (size 3 to 8) (size 9 to 14) (size 15 to 20)
#    0.000    0.750    5.000    3.375    0.000    1.000 
#    2.250    2.500    0.000    0.000    0.000    0.000 
#    0.000    0.000    0.000    0.000    0.000    0.000 
#
# Total GULP energy -198233.552381 kJ/mol
# GULP energy per Si atom -12389.597024 kJ/mol
# Density = 2.224384 g / cm^3
# Si number density = 22.294583 Si / 1000 Ang^3
#
#
#
# Elastic Constant Matrix: (Units=GPa)
#
#
# Indices 1 2 3 4 5 6 
#
# 1 122.0055 45.8238 39.9086 10.3301 6.0657 10.4048
# 2 45.8238 131.7579 47.0131 8.7671 12.2096 2.4771
# 3 39.9086 47.0131 109.3435 10.0085 2.5538 -0.9675
# 4 10.3301 8.7671 10.0085 31.0774 0.0914 10.7233
# 5 6.0657 12.2096 2.5538 0.0914 36.0696 -1.1029
# 6 10.4048 2.4771 -0.9675 10.7233 -1.1029 40.1021
#
#
#
# Elastic Compliance Matrix: (Units=1/GPa)
#
#
# Indices 1 2 3 4 5 6 
#
# 1 0.010302 -0.002466 -0.002602 -0.001090 -0.000781 -0.002313
# 2 -0.002466 0.009904 -0.003204 -0.000982 -0.002704 0.000139
# 3 -0.002602 -0.003204 0.011715 -0.002657 0.000757 0.001887
# 4 -0.001090 -0.000982 -0.002657 0.036985 0.000317 -0.009602
# 5 -0.000781 -0.002704 0.000757 0.000317 0.028750 0.001094
# 6 -0.002313 0.000139 0.001887 -0.009602 0.001094 0.028171
#
#
# Mechanical properties :
#
#
# Convention : Reuss Voigt Hill
#
# Bulk Modulus (GPa) = 65.03304 69.84422 67.43863
# Shear Modulus (GPa) = 33.89886 36.80724 35.35305
#
# Velocity S-wave (km/s) = 3.90359 4.06760 3.98643
# Velocity P-wave (km/s) = 7.03921 7.31138 7.17659
#
# Compressibility (1/GPa) = 0.01537680
#
# Stress axis : x y z
#
# Youngs Moduli (GPa) = 97.06638 100.97070 85.36008
#
# Poissons Ratio (x) = 0.24899 0.22213
# Poissons Ratio (y) = 0.23937 0.27348
# Poissons Ratio (z) = 0.25260 0.32350
#
# Static dielectric constant tensor:
#      x y z
#    x 4.020800 -0.143460 0.236920 
#    y -0.143460 5.378980 0.189050 
#    z 0.236920 0.189050 4.116240 
# 
# 
# High freq. dielectric constant tensor:
#      x y z
#    x 1.876580 0.000740 0.026200 
#    y 0.000740 1.883920 0.005350 
#    z 0.026200 0.005350 1.882100 
# 
# From -- ./inp_files/505049.got.cif
#   From: 2010.06.25/outbox.cif.g09.slc.cpg/sg2_253_cif.got.tgz:505049.got - 2010.06.27 13:26:56.
