data_PCOD8021533
_publ_section_title
;
Structure prediction by ZEFSAII (Michael W. Deem and Ramdas Pophale) SiO2 
 PCOD8021533
Probable space group: P -1
;
_chemical_formula_sum "Si O2"
_cell_formula_units_Z 16
_cell_length_a 19.994870
_cell_length_b 19.503315
_cell_length_c 6.785617
_cell_angle_alpha 63.763621
_cell_angle_beta 73.292505
_cell_angle_gamma 19.799699
_cell_volume 728.610619
_symmetry_space_group_name_H-M "P -1"
_symmetry_group_IT_number 2
_symmetry_cell_setting 'triclinic'
loop_
_space_group_symop_operation_xyz
x,y,z
-x,-y,-z
loop_
_atom_site_type_symbol
_atom_site_label
_atom_site_fract_x
_atom_site_fract_y
_atom_site_fract_z
Si Si1 0.457930 0.544282 0.749411
Si Si2 0.492182 0.740736 0.485390
Si Si3 0.045378 0.568932 0.470032
Si Si4 0.179539 0.558981 0.080122
Si Si5 0.641801 0.888014 0.350644
Si Si6 0.652104 0.694031 0.133832
Si Si7 0.116906 0.027276 0.422927
Si Si8 0.710040 0.387719 0.493753
O O1 0.681361 0.341957 0.713382
O O2 0.386611 0.534954 0.740127
O O3 0.270265 0.798596 0.518110
O O4 0.500000 0.500000 0.000000
O O5 0.635812 0.597540 0.739556
O O6 0.486199 0.826165 0.262015
O O7 0.581279 0.590812 0.436520
O O8 0.257184 0.953123 0.485425
O O9 0.051769 0.622889 0.216515
O O10 0.215919 0.324285 0.600843
O O11 0.117001 0.532048 0.663540
O O12 0.800545 0.791018 0.418143
O O13 0.294323 0.410503 0.972561
O O14 0.018765 0.796423 0.868411
O O15 0.500000 0.000000 0.500000
O O16 0.468073 0.102570 0.072859
O O17 0.959609 0.155739 0.560742
#
# Coordination Sequence:
#
# PCOD8021533 Si02
#       8
#     2   2   2   2   2   2   2   2
#     4  10  24  44  66  93 131 163 210 266 312 381
#     4  10  24  43  63  93 131 165 211 267 310 376
#     4  10  24  43  64  94 130 167 214 258 318 377
#     4  11  23  44  64  94 130 165 215 260 314 382
#     4  11  22  42  66  96 127 172 211 263 318 369
#     4  11  22  43  65  92 133 168 211 265 312 376
#     4  11  23  42  67  93 125 168 208 262 319 372
#     4  10  22  44  62  97 123 163 216 252 316 378
#
# _framework density 21.959602
#
# number of rings (size 3 to 8) (size 9 to 14) (size 15 to 20)
#    0.000    1.500    2.500    1.500    3.500    2.000 
#   11.250    0.000    0.000    0.000    0.000    0.000 
#    0.000    0.000    0.000    0.000    0.000    0.000 
#
# Total GULP energy -198322.160300 kJ/mol
# GULP energy per Si atom -12395.135019 kJ/mol
# Density = 2.190962 g / cm^3
# Si number density = 21.959602 Si / 1000 Ang^3
#
#
#
# Elastic Constant Matrix: (Units=GPa)
#
#
# Indices 1 2 3 4 5 6 
#
# 1 99.1843 46.5808 57.0951 8.1497 4.6289 -26.1580
# 2 46.5808 101.4067 54.1855 7.2435 0.6317 -35.6825
# 3 57.0951 54.1855 144.9942 7.9829 4.9002 -5.4163
# 4 8.1497 7.2435 7.9829 19.2609 4.8159 -4.0519
# 5 4.6289 0.6317 4.9002 4.8159 34.8642 -0.4368
# 6 -26.1580 -35.6825 -5.4163 -4.0519 -0.4368 58.1128
#
#
#
# Elastic Compliance Matrix: (Units=1/GPa)
#
#
# Indices 1 2 3 4 5 6 
#
# 1 0.015618 -0.002802 -0.004765 -0.002349 -0.000970 0.004694
# 2 -0.002802 0.016827 -0.004814 -0.001624 0.001075 0.008517
# 3 -0.004765 -0.004814 0.010505 -0.001255 -0.000636 -0.004214
# 4 -0.002349 -0.001624 -0.001255 0.056206 -0.007225 0.001693
# 5 -0.000970 0.001075 -0.000636 -0.007225 0.029878 -0.000115
# 6 0.004694 0.008517 -0.004214 0.001693 -0.000115 0.024275
#
#
# Mechanical properties :
#
#
# Convention : Reuss Voigt Hill
#
# Bulk Modulus (GPa) = 54.98184 73.47868 64.23026
# Shear Modulus (GPa) = 27.15429 34.96250 31.05840
#
# Velocity S-wave (km/s) = 3.52029 3.99448 3.76485
# Velocity P-wave (km/s) = 6.45099 7.40324 6.94346
#
# Compressibility (1/GPa) = 0.01818782
#
# Stress axis : x y z
#
# Youngs Moduli (GPa) = 64.03059 59.42932 95.18984
#
# Poissons Ratio (x) = 0.16652 0.45360
# Poissons Ratio (y) = 0.17942 0.45821
# Poissons Ratio (z) = 0.30512 0.28607
#
# Static dielectric constant tensor:
#      x y z
#    x 4.527590 -0.392280 -0.150210 
#    y -0.392280 4.183640 -0.009750 
#    z -0.150210 -0.009750 3.910530 
# 
# 
# High freq. dielectric constant tensor:
#      x y z
#    x 1.881900 -0.015670 -0.005690 
#    y -0.015670 1.856780 0.005680 
#    z -0.005690 0.005680 1.858180 
# 
# From -- ./inp_files/120371.got.cif
#   From: 2010.06.25/outbox.cif.g09.slc.cpg/sg2_61_cif.got.tgz:120371.got - 2010.06.27 13:26:56.
