data_PCOD8021326
_publ_section_title
;
Structure prediction by ZEFSAII (Michael W. Deem and Ramdas Pophale) SiO2 
 PCOD8021326
Probable space group: P -1
;
_chemical_formula_sum "Si O2"
_cell_formula_units_Z 14
_cell_length_a 7.435221
_cell_length_b 16.844592
_cell_length_c 9.144304
_cell_angle_alpha 121.263647
_cell_angle_beta 62.073957
_cell_angle_gamma 146.797693
_cell_volume 534.650914
_symmetry_space_group_name_H-M "P -1"
_symmetry_group_IT_number 2
_symmetry_cell_setting 'triclinic'
loop_
_space_group_symop_operation_xyz
x,y,z
-x,-y,-z
loop_
_atom_site_type_symbol
_atom_site_label
_atom_site_fract_x
_atom_site_fract_y
_atom_site_fract_z
Si Si1 0.188769 0.760505 0.508931
Si Si2 0.282176 0.539584 0.770179
Si Si3 0.112188 0.168397 0.346773
Si Si4 0.269712 0.511800 0.076732
Si Si5 0.065451 0.754567 0.868345
Si Si6 0.189613 0.995972 0.114195
Si Si7 0.273079 0.189333 0.637384
O O1 0.061120 0.697137 0.663246
O O2 0.549706 0.846348 0.432231
O O3 0.937578 0.622912 0.361207
O O4 0.206451 0.878055 0.580790
O O5 0.604898 0.666194 0.672291
O O6 0.084981 0.565548 0.869032
O O7 0.408048 0.557245 0.901852
O O8 0.226697 0.185357 0.481157
O O9 0.057280 0.051041 0.167769
O O10 0.504137 0.649573 0.229659
O O11 0.206589 0.385249 0.047554
O O12 0.418940 0.867833 0.919940
O O13 0.019172 0.849811 0.948849
O O14 0.079925 0.940529 0.272426
#
# Coordination Sequence:
#
# PCOD8021326 Si02
#       7
#     2   2   2   2   2   2   2
#     4  11  25  44  74 107 139 182 245 286 356 411
#     4  10  22  43  70 114 138 180 241 300 347 416
#     4  12  24  45  73 104 147 185 232 300 345 430
#     4  10  22  44  77 100 145 185 237 294 352 415
#     4  11  24  48  73 104 141 194 235 287 353 429
#     4  11  26  46  73 102 147 190 235 282 362 425
#     4  11  25  48  72 107 142 189 233 293 356 419
#
# _framework density 26.185312
#
# number of rings (size 3 to 8) (size 9 to 14) (size 15 to 20)
#    0.000    1.143    2.857    1.714    4.000    4.000 
#    0.000    0.000    0.000    0.000    0.000    0.000 
#    0.000    0.000    0.000    0.000    0.000    0.000 
#
# Total GULP energy -173632.160704 kJ/mol
# GULP energy per Si atom -12402.297193 kJ/mol
# Density = 2.612571 g / cm^3
# Si number density = 26.185312 Si / 1000 Ang^3
#
#
#
# Elastic Constant Matrix: (Units=GPa)
#
#
# Indices 1 2 3 4 5 6 
#
# 1 90.0500 8.4339 0.4070 13.5235 -26.0654 -25.3691
# 2 8.4339 100.7774 16.4904 2.2987 -1.8477 -8.7741
# 3 0.4070 16.4904 93.1980 16.7402 -12.3530 -0.6133
# 4 13.5235 2.2987 16.7402 41.1308 2.0507 -13.5339
# 5 -26.0654 -1.8477 -12.3530 2.0507 36.7723 14.1021
# 6 -25.3691 -8.7741 -0.6133 -13.5339 14.1021 30.8393
#
#
#
# Elastic Compliance Matrix: (Units=1/GPa)
#
#
# Indices 1 2 3 4 5 6 
#
# 1 0.016782 -0.000894 0.002330 -0.004674 0.010267 0.006851
# 2 -0.000894 0.010739 -0.002703 0.002489 -0.002945 0.004705
# 3 0.002330 -0.002703 0.014010 -0.009020 0.009333 -0.006800
# 4 -0.004674 0.002489 -0.009020 0.036811 -0.016000 0.020155
# 5 0.010267 -0.002945 0.009333 -0.016000 0.046148 -0.020331
# 6 0.006851 0.004705 -0.006800 0.020155 -0.020331 0.057408
#
#
# Mechanical properties :
#
#
# Convention : Reuss Voigt Hill
#
# Bulk Modulus (GPa) = 25.64257 37.18756 31.41507
# Shear Modulus (GPa) = 25.32529 38.99476 32.16002
#
# Velocity S-wave (km/s) = 3.11329 3.86318 3.50833
# Velocity P-wave (km/s) = 4.76837 5.84221 5.33239
#
# Compressibility (1/GPa) = 0.03899765
#
# Stress axis : x y z
#
# Youngs Moduli (GPa) = 59.58769 93.12002 71.37539
#
# Poissons Ratio (x) = 0.08329 -0.16633
# Poissons Ratio (y) = 0.05330 0.19291
# Poissons Ratio (z) = -0.13886 0.25168
#
# Static dielectric constant tensor:
#      x y z
#    x 4.987220 -0.058230 -0.406340 
#    y -0.058230 4.616390 0.062520 
#    z -0.406340 0.062520 4.897290 
# 
# 
# High freq. dielectric constant tensor:
#      x y z
#    x 2.067190 0.003210 -0.018080 
#    y 0.003210 2.046510 0.000970 
#    z -0.018080 0.000970 2.059780 
# 
# From -- ./inp_files/218205.got.cif
#   From: 2010.06.25/outbox.cif.g09.slc.cpg/sg2_110_cif.got.tgz:218205.got - 2010.06.27 13:26:56.
