data_PCOD8021113
_publ_section_title
;
Structure prediction by ZEFSAII (Michael W. Deem and Ramdas Pophale) SiO2 
 PCOD8021113
Probable space group: P -1
;
_chemical_formula_sum "Si O2"
_cell_formula_units_Z 14
_cell_length_a 11.978131
_cell_length_b 18.218944
_cell_length_c 10.098410
_cell_angle_alpha 35.934496
_cell_angle_beta 47.631451
_cell_angle_gamma 28.551052
_cell_volume 612.624618
_symmetry_space_group_name_H-M "P -1"
_symmetry_group_IT_number 2
_symmetry_cell_setting 'triclinic'
loop_
_space_group_symop_operation_xyz
x,y,z
-x,-y,-z
loop_
_atom_site_type_symbol
_atom_site_label
_atom_site_fract_x
_atom_site_fract_y
_atom_site_fract_z
Si Si1 0.193521 0.272194 0.045046
Si Si2 0.722552 0.173682 0.453100
Si Si3 0.802811 0.023916 0.136292
Si Si4 0.876485 0.327935 0.032781
Si Si5 0.470498 0.239233 0.322858
Si Si6 0.132991 0.288013 0.372052
Si Si7 0.332366 0.945763 0.086920
O O1 0.443336 0.102388 0.015949
O O2 0.012692 0.280998 0.126890
O O3 0.089426 0.477190 0.796233
O O4 0.242526 0.217541 0.240366
O O5 0.642893 0.119711 0.486694
O O6 0.613895 0.203216 0.637574
O O7 0.680171 0.343828 0.193307
O O8 0.000000 0.000000 0.500000
O O9 0.928176 0.814080 0.386813
O O10 0.617677 0.191524 0.148083
O O11 0.667131 0.105619 0.986911
O O12 0.000000 0.000000 0.000000
O O13 0.724093 0.539181 0.793751
O O14 0.079249 0.169213 0.994482
O O15 0.334791 0.199783 0.445923
#
# Coordination Sequence:
#
# PCOD8021113 Si02
#       7
#     2   2   2   2   2   2   2
#     4  10  22  43  68 100 130 173 222 274 325 388
#     4  10  23  41  65  96 135 176 215 270 334 386
#     4  12  26  42  67  98 132 171 225 276 325 390
#     4  10  23  41  69  94 138 175 219 269 333 393
#     4  11  23  45  68  94 133 184 216 263 338 397
#     4  10  24  43  68  96 135 175 218 269 337 390
#     4  11  24  41  63 103 130 170 225 274 324 385
#
# _framework density 22.852494
#
# number of rings (size 3 to 8) (size 9 to 14) (size 15 to 20)
#    0.000    1.429    1.429    3.000    6.000    3.429 
#    0.000    4.286    0.000    0.000    0.000    0.000 
#    0.000    0.000    0.000    0.000    0.000    0.000 
#
# Total GULP energy -173498.870062 kJ/mol
# GULP energy per Si atom -12392.776433 kJ/mol
# Density = 2.280048 g / cm^3
# Si number density = 22.852494 Si / 1000 Ang^3
#
#
#
# Elastic Constant Matrix: (Units=GPa)
#
#
# Indices 1 2 3 4 5 6 
#
# 1 122.1850 18.1678 56.9464 5.5656 7.2842 -4.4188
# 2 18.1678 90.5326 28.7566 17.3202 1.7363 5.8612
# 3 56.9464 28.7566 108.9860 20.2673 5.4160 0.7054
# 4 5.5656 17.3202 20.2673 28.0466 -3.7048 2.0523
# 5 7.2842 1.7363 5.4160 -3.7048 42.2388 7.6432
# 6 -4.4188 5.8612 0.7054 2.0523 7.6432 25.3881
#
#
#
# Elastic Compliance Matrix: (Units=1/GPa)
#
#
# Indices 1 2 3 4 5 6 
#
# 1 0.011174 -0.000925 -0.005970 0.002298 -0.001384 0.002555
# 2 -0.000925 0.013213 -0.001754 -0.006559 -0.000273 -0.002550
# 3 -0.005970 -0.001754 0.014379 -0.008326 -0.001488 0.000087
# 4 0.002298 -0.006559 -0.008326 0.046244 0.005590 -0.003276
# 5 -0.001384 -0.000273 -0.001488 0.005590 0.026136 -0.008457
# 6 0.002555 -0.002550 0.000087 -0.003276 -0.008457 0.043231
#
#
# Mechanical properties :
#
#
# Convention : Reuss Voigt Hill
#
# Bulk Modulus (GPa) = 46.57444 58.82723 52.70084
# Shear Modulus (GPa) = 27.95934 33.65689 30.80812
#
# Velocity S-wave (km/s) = 3.50161 3.84186 3.67567
# Velocity P-wave (km/s) = 6.06408 6.74373 6.41291
#
# Compressibility (1/GPa) = 0.02147100
#
# Stress axis : x y z
#
# Youngs Moduli (GPa) = 89.49011 75.68056 69.54480
#
# Poissons Ratio (x) = 0.06998 0.41517
# Poissons Ratio (y) = 0.08275 0.12195
# Poissons Ratio (z) = 0.53424 0.13271
#
# Static dielectric constant tensor:
#      x y z
#    x 5.615910 0.044000 -1.661270 
#    y 0.044000 4.142100 -0.136060 
#    z -1.661270 -0.136060 5.494800 
# 
# 
# High freq. dielectric constant tensor:
#      x y z
#    x 1.918740 -0.005890 0.004550 
#    y -0.005890 1.892600 -0.002210 
#    z 0.004550 -0.002210 1.899550 
# 
# From -- ./inp_files/189077.got.cif
#   From: 2010.06.25/outbox.cif.g09.slc.cpg/sg2_95_cif.got.tgz:189077.got - 2010.06.27 13:26:56.
