data_PCOD8021878
_publ_section_title
;
Structure prediction by ZEFSAII (Michael W. Deem and Ramdas Pophale) SiO2 
 PCOD8021878
Probable space group: P -1
;
_chemical_formula_sum "Si O2"
_cell_formula_units_Z 16
_cell_length_a 11.594934
_cell_length_b 20.839035
_cell_length_c 8.950963
_cell_angle_alpha 32.421708
_cell_angle_beta 125.022799
_cell_angle_gamma 137.817133
_cell_volume 770.615578
_symmetry_space_group_name_H-M "P -1"
_symmetry_group_IT_number 2
_symmetry_cell_setting 'triclinic'
loop_
_space_group_symop_operation_xyz
x,y,z
-x,-y,-z
loop_
_atom_site_type_symbol
_atom_site_label
_atom_site_fract_x
_atom_site_fract_y
_atom_site_fract_z
Si Si1 0.197492 0.098531 0.407292
Si Si2 0.360654 0.271841 0.907834
Si Si3 0.860239 0.456131 0.861428
Si Si4 0.430060 0.848559 0.827958
Si Si5 0.656324 0.085470 0.062338
Si Si6 0.667744 0.556772 0.686599
Si Si7 0.702627 0.624805 0.907712
Si Si8 0.019967 0.382481 0.673853
O O1 0.286933 0.229510 0.336990
O O2 0.296436 0.022109 0.631358
O O3 0.209722 0.150645 0.143177
O O4 0.000000 0.000000 0.500000
O O5 0.461672 0.421825 0.793391
O O6 0.280270 0.301405 0.649352
O O7 0.457343 0.208590 0.025936
O O8 0.720701 0.462613 0.831371
O O9 0.930226 0.570912 0.551818
O O10 0.772120 0.285143 0.090129
O O11 0.000000 0.500000 0.000000
O O12 0.427496 0.872486 0.955418
O O13 0.500000 0.000000 0.500000
O O14 0.833966 0.224836 0.849955
O O15 0.500000 0.000000 0.000000
O O16 0.759537 0.620225 0.790078
O O17 0.500000 0.500000 0.000000
O O18 0.825859 0.612745 0.136767
O O19 0.000000 0.500000 0.500000
#
# Coordination Sequence:
#
# PCOD8021878 Si02
#       8
#     2   2   2   2   2   2   2   2
#     4  12  25  46  68 101 146 184 231 292 357 419
#     4  10  22  44  69  98 135 181 232 293 347 418
#     4  11  25  43  72 100 141 182 228 296 361 414
#     4  11  24  45  69  99 140 182 233 291 351 430
#     4  12  29  46  71 102 145 192 238 291 366 422
#     4  10  23  40  69 101 130 176 237 283 350 413
#     4  12  26  43  73 103 141 187 238 290 356 423
#     4  12  26  47  72 104 143 181 244 299 347 428
#
# _framework density 20.762623000000001
#
# number of rings (size 3 to 8) (size 9 to 14) (size 15 to 20)
#    0.000    0.750    5.000    1.500    8.750    0.000 
#    0.000    0.625    0.000    0.000    0.000    0.000 
#    0.000    0.000    0.000    0.000    0.000    0.000 
#
# Total GULP energy -198227.729457 kJ/mol
# GULP energy per Si atom -12389.233091 kJ/mol
# Density = 2.071537 g / cm^3
# Si number density = 20.762623 Si / 1000 Ang^3
#
#
#
# Elastic Constant Matrix: (Units=GPa)
#
#
# Indices 1 2 3 4 5 6 
#
# 1 105.2218 58.6770 43.7588 -2.3001 -14.8644 -9.5864
# 2 58.6770 154.9989 73.4838 3.0292 -16.1336 -1.3778
# 3 43.7588 73.4838 142.0958 2.4238 -16.7366 1.9051
# 4 -2.3001 3.0292 2.4238 42.6756 -4.1494 0.2089
# 5 -14.8644 -16.1336 -16.7366 -4.1494 45.1432 -2.9345
# 6 -9.5864 -1.3778 1.9051 0.2089 -2.9345 44.7955
#
#
#
# Elastic Compliance Matrix: (Units=1/GPa)
#
#
# Indices 1 2 3 4 5 6 
#
# 1 0.013036 -0.003813 -0.001801 0.001311 0.002572 0.002912
# 2 -0.003813 0.009774 -0.003776 -0.000609 0.000762 -0.000302
# 3 -0.001801 -0.003776 0.009748 -0.000223 0.001598 -0.000810
# 4 0.001311 -0.000609 -0.000223 0.023785 0.002338 0.000314
# 5 0.002572 0.000762 0.001598 0.002338 0.024214 0.002081
# 6 0.002912 -0.000302 -0.000810 0.000314 0.002081 0.023107
#
#
# Mechanical properties :
#
#
# Convention : Reuss Voigt Hill
#
# Bulk Modulus (GPa) = 72.58265 83.79508 78.18886
# Shear Modulus (GPa) = 39.35866 41.61600 40.48733
#
# Velocity S-wave (km/s) = 4.35863 4.48188 4.42068
# Velocity P-wave (km/s) = 7.76945 8.19934 7.98729
#
# Compressibility (1/GPa) = 0.01377740
#
# Stress axis : x y z
#
# Youngs Moduli (GPa) = 76.70772 102.31272 102.58711
#
# Poissons Ratio (x) = 0.39015 0.18477
# Poissons Ratio (y) = 0.29251 0.38737
# Poissons Ratio (z) = 0.13816 0.38634
#
# Static dielectric constant tensor:
#      x y z
#    x 3.432420 -0.514760 0.446880 
#    y -0.514760 3.607460 0.034200 
#    z 0.446880 0.034200 3.971290 
# 
# 
# High freq. dielectric constant tensor:
#      x y z
#    x 1.833910 -0.012320 -0.001340 
#    y -0.012320 1.808630 -0.009960 
#    z -0.001340 -0.009960 1.821020 
# 
# From -- ./inp_files/282656.got.cif
#   From: 2010.06.25/outbox.cif.g09.slc.cpg/sg2_142_cif.got.tgz:282656.got - 2010.06.27 13:26:56.
