data_PCOD8021646
_publ_section_title
;
Structure prediction by ZEFSAII (Michael W. Deem and Ramdas Pophale) SiO2 
 PCOD8021646
Probable space group: P -1
;
_chemical_formula_sum "Si O2"
_cell_formula_units_Z 16
_cell_length_a 9.926909
_cell_length_b 8.921839
_cell_length_c 13.817566
_cell_angle_alpha 102.866277
_cell_angle_beta 106.318496
_cell_angle_gamma 132.186036
_cell_volume 709.859838
_symmetry_space_group_name_H-M "P -1"
_symmetry_group_IT_number 2
_symmetry_cell_setting 'triclinic'
loop_
_space_group_symop_operation_xyz
x,y,z
-x,-y,-z
loop_
_atom_site_type_symbol
_atom_site_label
_atom_site_fract_x
_atom_site_fract_y
_atom_site_fract_z
Si Si1 0.152607 0.515246 0.257965
Si Si2 0.582746 0.398564 0.992555
Si Si3 0.793352 0.008967 0.015572
Si Si4 0.732286 0.664486 0.622404
Si Si5 0.449490 0.094014 0.736209
Si Si6 0.015371 0.846515 0.524193
Si Si7 0.037770 0.920400 0.137413
Si Si8 0.104786 0.554217 0.632938
O O1 0.288324 0.481269 0.319109
O O2 0.325455 0.756139 0.257711
O O3 0.934776 0.277529 0.117841
O O4 0.069553 0.551970 0.332885
O O5 0.510061 0.269983 0.855565
O O6 0.464757 0.198745 0.026353
O O7 0.500000 0.500000 0.000000
O O8 0.856325 0.633090 0.091534
O O9 0.793891 0.004777 0.898702
O O10 0.902252 0.948384 0.071568
O O11 0.500000 0.500000 0.500000
O O12 0.914056 0.752862 0.597715
O O13 0.815645 0.899332 0.715770
O O14 0.274845 0.018237 0.613500
O O15 0.344345 0.850501 0.730773
O O16 0.874522 0.613896 0.388851
O O17 0.000000 0.000000 0.500000
O O18 0.000000 0.500000 0.500000
#
# Coordination Sequence:
#
# PCOD8021646 Si02
#       8
#     2   2   2   2   2   2   2   2
#     4  11  19  35  61  89 123 155 203 251 305 357
#     4  10  17  28  52  87 121 149 192 254 304 345
#     4   9  16  29  51  83 119 148 190 253 301 341
#     4  11  22  39  56  86 129 163 202 250 296 368
#     4  11  20  35  61  91 124 157 199 256 306 355
#     4  11  23  42  58  85 124 164 206 246 304 368
#     4   9  18  31  50  82 119 152 195 243 304 348
#     4  10  21  39  58  85 126 155 205 255 300 359
#
# _framework density 22.539660000000001
#
# number of rings (size 3 to 8) (size 9 to 14) (size 15 to 20)
#    0.000    1.750    5.000    2.250    1.750    2.000 
#    4.500    0.000    0.000    0.000    0.000    9.625 
#    0.000    0.000    0.000    0.000    0.000    0.000 
#
# Total GULP energy -198351.939303 kJ/mol
# GULP energy per Si atom -12396.996206 kJ/mol
# Density = 2.248836 g / cm^3
# Si number density = 22.539660 Si / 1000 Ang^3
#
#
#
# Elastic Constant Matrix: (Units=GPa)
#
#
# Indices 1 2 3 4 5 6 
#
# 1 69.6787 64.8891 48.8796 6.2061 -37.1827 16.8896
# 2 64.8891 145.2787 54.4271 29.6001 -16.5239 37.3022
# 3 48.8796 54.4271 134.7161 31.2269 -37.9541 14.6617
# 4 6.2061 29.6001 31.2269 30.2522 3.1459 -6.6922
# 5 -37.1827 -16.5239 -37.9541 3.1459 40.3604 -4.2474
# 6 16.8896 37.3022 14.6617 -6.6922 -4.2474 52.5446
#
#
#
# Elastic Compliance Matrix: (Units=1/GPa)
#
#
# Indices 1 2 3 4 5 6 
#
# 1 0.057852 -0.022962 -0.002918 0.010064 0.040693 0.003091
# 2 -0.022962 0.023512 0.004149 -0.024978 -0.007177 -0.014230
# 3 -0.002918 0.004149 0.019371 -0.027451 0.018374 -0.009424
# 4 0.010064 -0.024978 -0.027451 0.093964 -0.030764 0.031638
# 5 0.040693 -0.007177 0.018374 -0.030764 0.077874 -0.010735
# 6 0.003091 -0.014230 -0.009424 0.031638 -0.010735 0.033931
#
#
# Mechanical properties :
#
#
# Convention : Reuss Voigt Hill
#
# Bulk Modulus (GPa) = 17.46068 76.22948 46.84508
# Shear Modulus (GPa) = 13.54804 36.72994 25.13899
#
# Velocity S-wave (km/s) = 2.45434 4.04117 3.34327
# Velocity P-wave (km/s) = 3.97432 7.46112 5.97761
#
# Compressibility (1/GPa) = 0.05727153
#
# Stress axis : x y z
#
# Youngs Moduli (GPa) = 17.28557 42.53225 51.62341
#
# Poissons Ratio (x) = 0.97663 0.15065
# Poissons Ratio (y) = 0.39691 -0.21418
# Poissons Ratio (z) = 0.05044 -0.17646
#
# Static dielectric constant tensor:
#      x y z
#    x 2.040460 0.022330 1.739410 
#    y 0.022330 4.572170 0.694280 
#    z 1.739410 0.694280 1.520320 
# 
# 
# High freq. dielectric constant tensor:
#      x y z
#    x 1.864180 0.021890 -0.033260 
#    y 0.021890 1.893450 0.018100 
#    z -0.033260 0.018100 1.882850 
# 
# From -- ./inp_files/495479.got.cif
#   From: 2010.06.25/outbox.cif.g09.slc.cpg/sg2_248_cif.got.tgz:495479.got - 2010.06.27 13:26:56.
