data_PCOD8021545
_publ_section_title
;
Structure prediction by ZEFSAII (Michael W. Deem and Ramdas Pophale) SiO2 
 PCOD8021545
Probable space group: P -1
;
_chemical_formula_sum "Si O2"
_cell_formula_units_Z 14
_cell_length_a 9.889338
_cell_length_b 19.143725
_cell_length_c 6.955038
_cell_angle_alpha 40.170928
_cell_angle_beta 49.241633
_cell_angle_gamma 52.872949
_cell_volume 628.429808
_symmetry_space_group_name_H-M "P -1"
_symmetry_group_IT_number 2
_symmetry_cell_setting 'triclinic'
loop_
_space_group_symop_operation_xyz
x,y,z
-x,-y,-z
loop_
_atom_site_type_symbol
_atom_site_label
_atom_site_fract_x
_atom_site_fract_y
_atom_site_fract_z
Si Si1 0.864759 0.457152 0.073863
Si Si2 0.201606 0.923822 0.281384
Si Si3 0.956375 0.763713 0.829341
Si Si4 0.557157 0.780838 0.122006
Si Si5 0.433803 0.398347 0.183370
Si Si6 0.041685 0.854827 0.933231
Si Si7 0.337151 0.691738 0.198332
O O1 0.710771 0.413753 0.429189
O O2 0.974876 0.363399 0.028027
O O3 0.760953 0.560235 0.826612
O O4 0.000000 0.500000 0.000000
O O5 0.413793 0.890303 0.096556
O O6 0.176381 0.915787 0.553812
O O7 0.094033 0.837162 0.461081
O O8 0.119336 0.050082 0.026140
O O9 0.956032 0.773939 0.041607
O O10 0.752313 0.811510 0.837619
O O11 0.587769 0.686827 0.452859
O O12 0.489687 0.736091 0.081882
O O13 0.500000 0.500000 0.000000
O O14 0.589019 0.339090 0.017848
O O15 0.151131 0.785571 0.151189
#
# Coordination Sequence:
#
# PCOD8021545 Si02
#       7
#     2   2   2   2   2   2   2
#     4  12  26  40  63  95 133 170 220 262 316 383
#     4   9  19  45  65  96 127 169 211 261 329 378
#     4  10  22  44  63  96 129 169 215 262 315 389
#     4  12  24  41  69  94 134 165 216 266 319 385
#     4  12  24  42  63  91 127 177 213 264 322 373
#     4   9  20  41  72  87 133 169 208 268 324 376
#     4  12  23  44  64  96 130 171 215 270 315 381
#
# _framework density 22.277747000000002
#
# number of rings (size 3 to 8) (size 9 to 14) (size 15 to 20)
#    0.857    0.286    4.286    2.143    4.000    1.714 
#    0.000    0.714    0.000    0.000    0.000    0.000 
#    0.000    0.000    0.000    0.000    0.000    0.000 
#
# Total GULP energy -173605.726151 kJ/mol
# GULP energy per Si atom -12400.409011 kJ/mol
# Density = 2.222704 g / cm^3
# Si number density = 22.277747 Si / 1000 Ang^3
#
#
#
# Elastic Constant Matrix: (Units=GPa)
#
#
# Indices 1 2 3 4 5 6 
#
# 1 146.8233 38.7582 12.4408 -12.9746 12.0726 -9.3584
# 2 38.7582 129.9028 15.0107 -17.2846 13.3091 -20.6160
# 3 12.4408 15.0107 22.3748 -5.0304 11.9688 0.6272
# 4 -12.9746 -17.2846 -5.0304 22.0592 -6.9401 -0.2439
# 5 12.0726 13.3091 11.9688 -6.9401 32.1469 6.3737
# 6 -9.3584 -20.6160 0.6272 -0.2439 6.3737 36.3082
#
#
#
# Elastic Compliance Matrix: (Units=1/GPa)
#
#
# Indices 1 2 3 4 5 6 
#
# 1 0.007788 -0.001346 -0.002189 0.002639 -0.001285 0.001524
# 2 -0.001346 0.010560 -0.003920 0.005917 -0.002353 0.006170
# 3 -0.002189 -0.003920 0.059374 0.003240 -0.018866 -0.000482
# 4 0.002639 0.005917 0.003240 0.054322 0.006443 0.003218
# 5 -0.001285 -0.002353 -0.018866 0.006443 0.042723 -0.008798
# 6 0.001524 0.006170 -0.000482 0.003218 -0.008798 0.033012
#
#
# Mechanical properties :
#
#
# Convention : Reuss Voigt Hill
#
# Bulk Modulus (GPa) = 15.92084 47.94670 31.93377
# Shear Modulus (GPa) = 20.52318 33.62895 27.07607
#
# Velocity S-wave (km/s) = 3.03849 3.88948 3.49002
# Velocity P-wave (km/s) = 4.41270 6.46063 5.53225
#
# Compressibility (1/GPa) = 0.06281075
#
# Stress axis : x y z
#
# Youngs Moduli (GPa) = 128.40730 94.69603 16.84243
#
# Poissons Ratio (x) = 0.12745 0.03687
# Poissons Ratio (y) = 0.17282 0.06603
# Poissons Ratio (z) = 0.28112 0.37123
#
# Static dielectric constant tensor:
#      x y z
#    x 4.080290 -0.157030 0.138410 
#    y -0.157030 4.192690 -0.071220 
#    z 0.138410 -0.071220 3.731420 
# 
# 
# High freq. dielectric constant tensor:
#      x y z
#    x 1.880230 -0.005340 0.011830 
#    y -0.005340 1.893140 0.004420 
#    z 0.011830 0.004420 1.841890 
# 
# From -- ./inp_files/46121.got.cif
#   From: 2010.06.25/outbox.cif.g09.slc.cpg/sg2_24_cif.got.tgz:46121.got - 2010.06.27 13:26:56.
