data_PCOD8021588
_publ_section_title
;
Structure prediction by ZEFSAII (Michael W. Deem and Ramdas Pophale) SiO2 
 PCOD8021588
Probable space group: P -1
;
_chemical_formula_sum "Si O2"
_cell_formula_units_Z 16
_cell_length_a 14.513150
_cell_length_b 9.283189
_cell_length_c 14.374442
_cell_angle_alpha 58.495600
_cell_angle_beta 151.711344
_cell_angle_gamma 122.346008
_cell_volume 768.965454
_symmetry_space_group_name_H-M "P -1"
_symmetry_group_IT_number 2
_symmetry_cell_setting 'triclinic'
loop_
_space_group_symop_operation_xyz
x,y,z
-x,-y,-z
loop_
_atom_site_type_symbol
_atom_site_label
_atom_site_fract_x
_atom_site_fract_y
_atom_site_fract_z
Si Si1 0.458480 0.295921 0.177501
Si Si2 0.109523 0.129770 0.256799
Si Si3 0.247863 0.760831 0.993482
Si Si4 0.145354 0.498852 0.545136
Si Si5 0.975768 0.757808 0.189758
Si Si6 0.245073 0.364355 0.134247
Si Si7 0.382704 0.990884 0.685202
Si Si8 0.908464 0.168370 0.369472
O O1 0.623100 0.458363 0.233763
O O2 0.430454 0.314171 0.258546
O O3 0.519023 0.114291 0.268738
O O4 0.243804 0.299846 0.938073
O O5 0.234118 0.279374 0.254317
O O6 0.912579 0.188030 0.097201
O O7 0.241729 0.103163 0.471860
O O8 0.054089 0.959221 0.203284
O O9 0.191491 0.781518 0.829707
O O10 0.271506 0.567887 0.100838
O O11 0.456438 0.883681 0.154618
O O12 0.000000 0.500000 0.500000
O O13 0.126574 0.654823 0.406527
O O14 0.093588 0.317456 0.508794
O O15 0.956063 0.710031 0.078487
O O16 0.254949 0.853252 0.687407
O O17 0.000000 0.000000 0.500000
#
# Coordination Sequence:
#
# PCOD8021588 Si02
#       8
#     2   2   2   2   2   2   2   2
#     4  10  23  43  64  98 130 166 225 268 328 385
#     4  12  23  45  70  95 135 175 226 269 333 387
#     4  12  25  47  64  97 140 174 224 266 332 401
#     4  12  23  43  69  96 134 172 221 272 328 394
#     4  10  22  44  64  98 132 167 224 272 329 387
#     4  10  25  44  67  99 130 180 218 279 326 390
#     4  12  25  43  67 100 130 179 221 271 332 393
#     4  12  25  44  69  98 136 178 212 277 333 397
#
# _framework density 20.807176999999999
#
# number of rings (size 3 to 8) (size 9 to 14) (size 15 to 20)
#    0.750    0.000    6.250    1.125    1.750    1.500 
#    6.750    0.000    0.000    0.000    0.000    0.000 
#    0.000    0.000    0.000    0.000    0.000    0.000 
#
# Total GULP energy -198385.832910 kJ/mol
# GULP energy per Si atom -12399.114557 kJ/mol
# Density = 2.075982 g / cm^3
# Si number density = 20.807177 Si / 1000 Ang^3
#
#
#
# Elastic Constant Matrix: (Units=GPa)
#
#
# Indices 1 2 3 4 5 6 
#
# 1 64.2598 20.3310 1.1638 -13.0008 -5.1220 9.9208
# 2 20.3310 145.4268 39.9629 -4.9612 -6.1837 -0.8769
# 3 1.1638 39.9629 50.9657 14.1067 4.6083 5.9292
# 4 -13.0008 -4.9612 14.1067 34.1367 -3.3818 1.4920
# 5 -5.1220 -6.1837 4.6083 -3.3818 28.8825 -3.7646
# 6 9.9208 -0.8769 5.9292 1.4920 -3.7646 33.7509
#
#
#
# Elastic Compliance Matrix: (Units=1/GPa)
#
#
# Indices 1 2 3 4 5 6 
#
# 1 0.018897 -0.002137 -0.000519 0.007654 0.003155 -0.005506
# 2 -0.002137 0.010401 -0.010321 0.005279 0.004501 0.002980
# 3 -0.000519 -0.010321 0.034005 -0.016506 -0.010512 -0.006532
# 4 0.007654 0.005279 -0.016506 0.040775 0.009907 0.000090
# 5 0.003155 0.004501 -0.010512 0.009907 0.039638 0.005019
# 6 -0.005506 0.002980 -0.006532 0.000090 0.005019 0.033028
#
#
# Mechanical properties :
#
#
# Convention : Reuss Voigt Hill
#
# Bulk Modulus (GPa) = 26.77519 42.61863 34.69691
# Shear Modulus (GPa) = 23.23979 32.63365 27.93672
#
# Velocity S-wave (km/s) = 3.34565 3.96458 3.66819
# Velocity P-wave (km/s) = 5.27453 6.44083 5.88664
#
# Compressibility (1/GPa) = 0.03734801
#
# Stress axis : x y z
#
# Youngs Moduli (GPa) = 52.91734 96.14623 29.40738
#
# Poissons Ratio (x) = 0.20548 0.01526
# Poissons Ratio (y) = 0.11309 0.30352
# Poissons Ratio (z) = 0.02747 0.99236
#
# Static dielectric constant tensor:
#      x y z
#    x 3.726580 -0.005920 -0.006380 
#    y -0.005920 3.928520 0.037410 
#    z -0.006380 0.037410 3.890840 
# 
# 
# High freq. dielectric constant tensor:
#      x y z
#    x 1.809200 -0.008510 0.005450 
#    y -0.008510 1.828030 0.008100 
#    z 0.005450 0.008100 1.808090 
# 
# From -- ./inp_files/529491.got.cif
#   From: 2010.06.25/outbox.cif.g09.slc.cpg/sg2_265_cif.got.tgz:529491.got - 2010.06.27 13:26:56.
