data_PCOD8021933
_publ_section_title
;
Structure prediction by ZEFSAII (Michael W. Deem and Ramdas Pophale) SiO2 
 PCOD8021933
Probable space group: P -1
;
_chemical_formula_sum "Si O2"
_cell_formula_units_Z 16
_cell_length_a 11.629309
_cell_length_b 9.291991
_cell_length_c 18.157094
_cell_angle_alpha 132.901828
_cell_angle_beta 141.040877
_cell_angle_gamma 75.348366
_cell_volume 722.874313
_symmetry_space_group_name_H-M "P -1"
_symmetry_group_IT_number 2
_symmetry_cell_setting 'triclinic'
loop_
_space_group_symop_operation_xyz
x,y,z
-x,-y,-z
loop_
_atom_site_type_symbol
_atom_site_label
_atom_site_fract_x
_atom_site_fract_y
_atom_site_fract_z
Si Si1 0.899691 0.279576 0.430013
Si Si2 0.406741 0.267063 0.054604
Si Si3 0.418243 0.608936 0.441419
Si Si4 0.999857 0.075290 0.682836
Si Si5 0.972814 0.408934 0.679724
Si Si6 0.715678 0.507353 0.822453
Si Si7 0.375032 0.872008 0.985070
Si Si8 0.788871 0.109654 0.729654
O O1 0.910885 0.363740 0.547635
O O2 0.000000 0.500000 0.500000
O O3 0.046262 0.174933 0.455528
O O4 0.631551 0.067117 0.208672
O O5 0.464152 0.487837 0.213951
O O6 0.280152 0.012082 0.949991
O O7 0.245843 0.246670 0.903616
O O8 0.628379 0.306845 0.141420
O O9 0.500000 0.500000 0.500000
O O10 0.225467 0.617437 0.383443
O O11 0.317001 0.440016 0.258984
O O12 0.637250 0.880439 0.626815
O O13 0.010199 0.218777 0.666105
O O14 0.809977 0.024417 0.629604
O O15 0.204161 0.690406 0.901019
O O16 0.667185 0.243028 0.707154
O O17 0.968176 0.716389 0.049225
#
# Coordination Sequence:
#
# PCOD8021933 Si02
#       8
#     2   2   2   2   2   2   2   2
#     4  11  25  44  73 102 132 181 226 270 340 401
#     4   9  20  41  71  98 123 180 221 266 337 398
#     4  12  29  43  66 101 139 176 224 284 331 395
#     4  10  22  44  70  98 136 173 223 284 327 400
#     4  12  26  45  64 102 139 174 226 278 337 396
#     4  10  22  44  72  95 127 178 224 273 337 404
#     4  10  23  44  66 100 137 171 224 281 327 400
#     4  10  23  47  69  96 131 177 227 274 337 401
#
# _framework density 22.133862000000001
#
# number of rings (size 3 to 8) (size 9 to 14) (size 15 to 20)
#    0.000    1.500    1.250    3.000    7.000    4.500 
#    2.250    0.000    0.000    0.000    0.000    0.000 
#    0.000    0.000    0.000    0.000    0.000    0.000 
#
# Total GULP energy -198385.893070 kJ/mol
# GULP energy per Si atom -12399.118317 kJ/mol
# Density = 2.208348 g / cm^3
# Si number density = 22.133862 Si / 1000 Ang^3
#
#
#
# Elastic Constant Matrix: (Units=GPa)
#
#
# Indices 1 2 3 4 5 6 
#
# 1 73.7439 11.9867 23.0010 1.8552 -9.9248 8.4628
# 2 11.9867 130.5724 19.8073 -3.4665 6.0742 15.5612
# 3 23.0010 19.8073 52.0805 4.9446 3.2697 11.7992
# 4 1.8552 -3.4665 4.9446 37.5726 10.4248 0.4135
# 5 -9.9248 6.0742 3.2697 10.4248 41.2310 6.2727
# 6 8.4628 15.5612 11.7992 0.4135 6.2727 40.9945
#
#
#
# Elastic Compliance Matrix: (Units=1/GPa)
#
#
# Indices 1 2 3 4 5 6 
#
# 1 0.016809 -0.000528 -0.006954 -0.001425 0.005351 -0.002073
# 2 -0.000528 0.008452 -0.002550 0.001503 -0.001216 -0.002194
# 3 -0.006954 -0.002550 0.024591 -0.002541 -0.001944 -0.004351
# 4 -0.001425 0.001503 -0.002541 0.029362 -0.007997 0.001383
# 5 0.005351 -0.001216 -0.001944 -0.007997 0.028562 -0.004373
# 6 -0.002073 -0.002194 -0.004351 0.001383 -0.004373 0.027562
#
#
# Mechanical properties :
#
#
# Convention : Reuss Voigt Hill
#
# Bulk Modulus (GPa) = 33.57107 40.66520 37.11814
# Shear Modulus (GPa) = 30.24204 37.39976 33.82090
#
# Velocity S-wave (km/s) = 3.70039 4.11506 3.91323
# Velocity P-wave (km/s) = 5.78424 6.40239 6.10115
#
# Compressibility (1/GPa) = 0.02978755
#
# Stress axis : x y z
#
# Youngs Moduli (GPa) = 59.49158 118.31596 40.66490
#
# Poissons Ratio (x) = 0.06247 0.28278
# Poissons Ratio (y) = 0.03141 0.10371
# Poissons Ratio (z) = 0.41370 0.30176
#
# Static dielectric constant tensor:
#      x y z
#    x 4.272180 -0.210570 -0.113490 
#    y -0.210570 4.061880 -0.050370 
#    z -0.113490 -0.050370 3.951330 
# 
# 
# High freq. dielectric constant tensor:
#      x y z
#    x 1.879160 -0.010900 -0.002270 
#    y -0.010900 1.878520 -0.008190 
#    z -0.002270 -0.008190 1.872210 
# 
# From -- ./inp_files/566960.got.cif
#   From: 2010.06.25/outbox.cif.g09.slc.cpg/sg2_284_cif.got.tgz:566960.got - 2010.06.27 13:26:56.
