data_PCOD8021367
_publ_section_title
;
Structure prediction by ZEFSAII (Michael W. Deem and Ramdas Pophale) SiO2 
 PCOD8021367
Probable space group: P -1
;
_chemical_formula_sum "Si O2"
_cell_formula_units_Z 12
_cell_length_a 8.979133
_cell_length_b 14.421262
_cell_length_c 8.955432
_cell_angle_alpha 49.244575
_cell_angle_beta 108.907758
_cell_angle_gamma 139.590380
_cell_volume 532.914992
_symmetry_space_group_name_H-M "P -1"
_symmetry_group_IT_number 2
_symmetry_cell_setting 'triclinic'
loop_
_space_group_symop_operation_xyz
x,y,z
-x,-y,-z
loop_
_atom_site_type_symbol
_atom_site_label
_atom_site_fract_x
_atom_site_fract_y
_atom_site_fract_z
Si Si1 0.333586 0.619901 0.657689
Si Si2 0.281880 0.142829 0.971426
Si Si3 0.950630 0.276932 0.089587
Si Si4 0.449163 0.097949 0.801195
Si Si5 0.421350 0.469229 0.176870
Si Si6 0.458013 0.850650 0.729870
O O1 0.327400 0.726213 0.422107
O O2 0.524001 0.634204 0.632513
O O3 0.424937 0.719069 0.745116
O O4 0.069930 0.402838 0.842137
O O5 0.408157 0.181356 0.817139
O O6 0.418955 0.342543 0.871363
O O7 0.311126 0.046872 0.197905
O O8 0.000000 0.000000 0.000000
O O9 0.782325 0.281260 0.104901
O O10 0.137339 0.340934 0.212159
O O11 0.789093 0.063554 0.211620
O O12 0.500000 0.000000 0.000000
O O13 0.500000 0.500000 0.000000
O O14 0.500000 0.000000 0.500000
#
# Coordination Sequence:
#
# PCOD8021367 Si02
#       6
#     2   2   2   2   2   2
#     4  11  24  44  73 100 139 189 238 277 351 427
#     4  12  25  45  70 104 150 177 234 302 349 413
#     4  11  23  44  73 102 141 183 236 288 344 423
#     4  12  26  45  67 108 144 179 233 295 356 406
#     4  10  22  43  71 101 133 188 236 280 351 419
#     4  12  23  44  73 107 135 189 239 284 347 422
#
# _framework density 22.517661
#
# number of rings (size 3 to 8) (size 9 to 14) (size 15 to 20)
#    0.000    0.667    6.667    2.500    0.000    3.333 
#    0.000    3.333    0.000    0.000    0.000    0.000 
#    0.000    0.000    0.000    0.000    0.000    0.000 
#
# Total GULP energy -148711.514934 kJ/mol
# GULP energy per Si atom -12392.626244 kJ/mol
# Density = 2.246641 g / cm^3
# Si number density = 22.517661 Si / 1000 Ang^3
#
#
#
# Elastic Constant Matrix: (Units=GPa)
#
#
# Indices 1 2 3 4 5 6 
#
# 1 148.4715 69.2934 49.7922 6.6533 3.6343 -4.8363
# 2 69.2934 129.3010 16.7671 2.7763 2.7961 -19.0649
# 3 49.7922 16.7671 132.2706 -0.8911 0.6784 3.9849
# 4 6.6533 2.7763 -0.8911 29.7897 -0.7938 4.2709
# 5 3.6343 2.7961 0.6784 -0.7938 34.5480 7.4096
# 6 -4.8363 -19.0649 3.9849 4.2709 7.4096 51.1394
#
#
#
# Elastic Compliance Matrix: (Units=1/GPa)
#
#
# Indices 1 2 3 4 5 6 
#
# 1 0.010280 -0.005105 -0.003219 -0.001868 -0.000553 -0.000444
# 2 -0.005105 0.011012 0.000415 -0.000450 -0.001188 0.003800
# 3 -0.003219 0.000415 0.008754 0.001092 0.000368 -0.000977
# 4 -0.001868 -0.000450 0.001092 0.034621 0.001774 -0.003578
# 5 -0.000553 -0.001188 0.000368 0.001774 0.030216 -0.005050
# 6 -0.000444 0.003800 -0.000977 -0.003578 -0.005050 0.022036
#
#
# Mechanical properties :
#
#
# Convention : Reuss Voigt Hill
#
# Bulk Modulus (GPa) = 70.29057 75.74983 73.02020
# Shear Modulus (GPa) = 36.36874 41.37478 38.87176
#
# Velocity S-wave (km/s) = 4.02322 4.29118 4.15936
# Velocity P-wave (km/s) = 7.27085 7.63319 7.45422
#
# Compressibility (1/GPa) = 0.01422666
#
# Stress axis : x y z
#
# Youngs Moduli (GPa) = 97.27291 90.81241 114.22798
#
# Poissons Ratio (x) = 0.46363 0.36772
# Poissons Ratio (y) = 0.49661 -0.04735
# Poissons Ratio (z) = 0.31314 -0.03765
#
# Static dielectric constant tensor:
#      x y z
#    x 4.963010 -0.011800 0.490270 
#    y -0.011800 4.344690 0.188010 
#    z 0.490270 0.188010 4.476970 
# 
# 
# High freq. dielectric constant tensor:
#      x y z
#    x 1.899620 -0.016100 0.008690 
#    y -0.016100 1.888860 0.007400 
#    z 0.008690 0.007400 1.877090 
# 
# From -- ./inp_files/199827.got.cif
#   From: 2010.06.25/outbox.cif.g09.slc.cpg/sg2_100_cif.got.tgz:199827.got - 2010.06.27 13:26:56.
