data_PCOD8021280
_publ_section_title
;
Structure prediction by ZEFSAII (Michael W. Deem and Ramdas Pophale) SiO2 
 PCOD8021280
Probable space group: P -1
;
_chemical_formula_sum "Si O2"
_cell_formula_units_Z 16
_cell_length_a 10.123776
_cell_length_b 10.928172
_cell_length_c 11.757169
_cell_angle_alpha 52.170658
_cell_angle_beta 40.314330
_cell_angle_gamma 68.755513
_cell_volume 650.430312
_symmetry_space_group_name_H-M "P -1"
_symmetry_group_IT_number 2
_symmetry_cell_setting 'triclinic'
loop_
_space_group_symop_operation_xyz
x,y,z
-x,-y,-z
loop_
_atom_site_type_symbol
_atom_site_label
_atom_site_fract_x
_atom_site_fract_y
_atom_site_fract_z
Si Si1 0.573047 0.930950 0.377248
Si Si2 0.563188 0.575347 0.035996
Si Si3 0.254441 0.427545 0.697726
Si Si4 0.839172 0.433273 0.549116
Si Si5 0.583111 0.921875 0.818271
Si Si6 0.032676 0.882310 0.892794
Si Si7 0.724046 0.370995 0.219220
Si Si8 0.175218 0.908188 0.242320
O O1 0.510203 0.736396 0.533338
O O2 0.500000 0.000000 0.500000
O O3 0.438013 0.986084 0.335323
O O4 0.822669 0.016005 0.159430
O O5 0.388598 0.577770 0.244505
O O6 0.719435 0.480358 0.048553
O O7 0.500000 0.500000 0.000000
O O8 0.652277 0.756939 0.842586
O O9 0.500000 0.500000 0.500000
O O10 0.140636 0.468097 0.636246
O O11 0.171907 0.513883 0.811636
O O12 0.189226 0.232390 0.856587
O O13 0.910327 0.271590 0.564545
O O14 0.000000 0.500000 0.500000
O O15 0.772579 0.010535 0.718022
O O16 0.368836 0.910509 0.031571
O O17 0.142678 0.758026 0.826668
O O18 0.994176 0.013388 0.754450
#
# Coordination Sequence:
#
# PCOD8021280 Si02
#       8
#     2   2   2   2   2   2   2   2
#     4  10  23  43  67  97 138 178 229 281 343 410
#     4  11  23  42  73  99 140 184 227 284 354 410
#     4  12  26  46  72 102 142 187 234 290 349 416
#     4  11  27  46  69 103 139 181 236 293 349 416
#     4  10  22  43  69  98 135 183 226 283 351 412
#     4  11  26  44  70 107 138 183 235 286 349 417
#     4  11  24  46  72 101 141 186 235 287 348 422
#     4  10  24  43  70  97 138 179 230 285 349 414
#
# _framework density 24.599101000000001
#
# number of rings (size 3 to 8) (size 9 to 14) (size 15 to 20)
#    0.000    1.250    1.250    3.375   12.250    0.500 
#    0.000    3.125    0.000    0.000    0.000    0.000 
#    0.000    0.000    0.000    0.000    0.000    0.000 
#
# Total GULP energy -198274.506494 kJ/mol
# GULP energy per Si atom -12392.156656 kJ/mol
# Density = 2.454311 g / cm^3
# Si number density = 24.599101 Si / 1000 Ang^3
#
#
#
# Elastic Constant Matrix: (Units=GPa)
#
#
# Indices 1 2 3 4 5 6 
#
# 1 160.6039 43.5274 31.0951 -32.3758 36.0347 7.2859
# 2 43.5274 101.0942 7.5876 -42.6349 12.3420 0.3426
# 3 31.0951 7.5876 47.3669 -25.7606 7.4212 -3.1308
# 4 -32.3758 -42.6349 -25.7606 47.1808 0.5293 -6.6399
# 5 36.0347 12.3420 7.4212 0.5293 52.1827 -6.3810
# 6 7.2859 0.3426 -3.1308 -6.6399 -6.3810 50.8002
#
#
#
# Elastic Compliance Matrix: (Units=1/GPa)
#
#
# Indices 1 2 3 4 5 6 
#
# 1 0.009350 -0.002117 -0.003855 0.002181 -0.005673 -0.001992
# 2 -0.002117 0.021015 0.012666 0.025013 -0.005127 0.003568
# 3 -0.003855 0.012666 0.040137 0.031675 -0.005583 0.006380
# 4 0.002181 0.025013 0.031675 0.063897 -0.011551 0.008371
# 5 -0.005673 -0.005127 -0.005583 -0.011551 0.025473 0.002194
# 6 -0.001992 0.003568 0.006380 0.008371 0.002194 0.021710
#
#
# Mechanical properties :
#
#
# Convention : Reuss Voigt Hill
#
# Bulk Modulus (GPa) = 11.92057 52.60947 32.26502
# Shear Modulus (GPa) = 25.48979 45.15641 35.32310
#
# Velocity S-wave (km/s) = 3.22251 4.28915 3.79351
# Velocity P-wave (km/s) = 4.32465 6.77954 5.68616
#
# Compressibility (1/GPa) = 0.08388860
#
# Stress axis : x y z
#
# Youngs Moduli (GPa) = 106.95646 47.58423 24.91486
#
# Poissons Ratio (x) = 0.10074 0.09606
# Poissons Ratio (y) = 0.22644 -0.31557
# Poissons Ratio (z) = 0.41235 -0.60270
#
# Static dielectric constant tensor:
#      x y z
#    x 4.443890 0.182570 -0.113200 
#    y 0.182570 4.691240 -0.341820 
#    z -0.113200 -0.341820 5.016440 
# 
# 
# High freq. dielectric constant tensor:
#      x y z
#    x 1.984800 0.010930 0.003940 
#    y 0.010930 1.997750 -0.009340 
#    z 0.003940 -0.009340 1.979340 
# 
# From -- ./inp_files/391957.got.cif
#   From: 2010.06.25/outbox.cif.g09.slc.cpg/sg2_196_cif.got.tgz:391957.got - 2010.06.27 13:26:56.
