data_PCOD8021690
_publ_section_title
;
Structure prediction by ZEFSAII (Michael W. Deem and Ramdas Pophale) SiO2 
 PCOD8021690
Probable space group: P -1
;
_chemical_formula_sum "Si O2"
_cell_formula_units_Z 16
_cell_length_a 17.477490
_cell_length_b 6.714410
_cell_length_c 11.143754
_cell_angle_alpha 91.409820
_cell_angle_beta 124.814173
_cell_angle_gamma 52.466761
_cell_volume 739.085377
_symmetry_space_group_name_H-M "P -1"
_symmetry_group_IT_number 2
_symmetry_cell_setting 'triclinic'
loop_
_space_group_symop_operation_xyz
x,y,z
-x,-y,-z
loop_
_atom_site_type_symbol
_atom_site_label
_atom_site_fract_x
_atom_site_fract_y
_atom_site_fract_z
Si Si1 0.942090 0.463643 0.056102
Si Si2 0.483769 0.721099 0.564931
Si Si3 0.283558 0.342073 0.300871
Si Si4 0.863440 0.919123 0.162706
Si Si5 0.857018 0.123574 0.395890
Si Si6 0.085035 0.894714 0.293580
Si Si7 0.441106 0.578226 0.131874
Si Si8 0.431669 0.307747 0.902343
O O1 0.799292 0.595080 0.889769
O O2 0.929215 0.613307 0.168719
O O3 0.000000 0.500000 0.000000
O O4 0.046152 0.124301 0.167667
O O5 0.500000 0.500000 0.500000
O O6 0.607419 0.675729 0.651885
O O7 0.476561 0.659397 0.693803
O O8 0.346128 0.048239 0.413345
O O9 0.193989 0.581898 0.327031
O O10 0.951808 0.973930 0.207371
O O11 0.847646 0.943867 0.295826
O O12 0.717215 0.162637 0.972386
O O13 0.850960 0.091725 0.532571
O O14 0.730892 0.464848 0.255124
O O15 0.000000 0.000000 0.500000
O O16 0.502537 0.704556 0.161969
O O17 0.467997 0.405069 0.038630
O O18 0.500000 0.000000 0.000000
#
# Coordination Sequence:
#
# PCOD8021690 Si02
#       8
#     2   2   2   2   2   2   2   2
#     4  12  25  40  68  97 131 182 224 273 338 404
#     4  11  26  43  67  97 139 177 229 280 337 403
#     4  11  26  42  65 104 132 186 226 279 342 398
#     4  10  22  44  66  98 134 174 224 276 343 400
#     4   9  22  43  67  97 130 173 222 278 340 396
#     4  11  24  42  68  96 140 171 227 284 334 407
#     4  10  23  41  65  97 130 170 222 271 324 409
#     4  10  23  42  69  95 131 174 218 273 339 400
#
# _framework density 21.64838
#
# number of rings (size 3 to 8) (size 9 to 14) (size 15 to 20)
#    0.000    1.500    1.250    1.875    7.000    5.500 
#    0.000    2.500    0.000    0.000    0.000    0.000 
#    0.000    0.000    0.000    0.000    0.000    0.000 
#
# Total GULP energy -198343.912664 kJ/mol
# GULP energy per Si atom -12396.494541 kJ/mol
# Density = 2.159911 g / cm^3
# Si number density = 21.648380 Si / 1000 Ang^3
#
#
#
# Elastic Constant Matrix: (Units=GPa)
#
#
# Indices 1 2 3 4 5 6 
#
# 1 90.2156 52.8608 48.7502 -18.3610 -13.4700 4.1580
# 2 52.8608 148.5035 71.2703 -15.1044 -4.5489 -0.5873
# 3 48.7502 71.2703 145.2137 -14.2646 -13.3178 2.5239
# 4 -18.3610 -15.1044 -14.2646 44.0763 -0.1430 -5.9152
# 5 -13.4700 -4.5489 -13.3178 -0.1430 29.1885 -6.0683
# 6 4.1580 -0.5873 2.5239 -5.9152 -6.0683 32.9283
#
#
#
# Elastic Compliance Matrix: (Units=1/GPa)
#
#
# Indices 1 2 3 4 5 6 
#
# 1 0.016711 -0.004024 -0.002627 0.004746 0.005901 -0.000041
# 2 -0.004024 0.009924 -0.003636 0.000642 -0.001811 0.000745
# 3 -0.002627 -0.003636 0.009892 0.000895 0.002777 0.000181
# 4 0.004746 0.000642 0.000895 0.025815 0.003798 0.004681
# 5 0.005901 -0.001811 0.002777 0.003798 0.039433 0.006959
# 6 -0.000041 0.000745 0.000181 0.004681 0.006959 0.032497
#
#
# Mechanical properties :
#
#
# Convention : Reuss Voigt Hill
#
# Bulk Modulus (GPa) = 62.68368 81.07729 71.88049
# Shear Modulus (GPa) = 31.21819 35.30872 33.26346
#
# Velocity S-wave (km/s) = 3.80156 4.04296 3.92412
# Velocity P-wave (km/s) = 6.94891 7.70242 7.33535
#
# Compressibility (1/GPa) = 0.01595311
#
# Stress axis : x y z
#
# Youngs Moduli (GPa) = 59.84131 100.76675 101.09205
#
# Poissons Ratio (x) = 0.40552 0.26555
# Poissons Ratio (y) = 0.24082 0.36753
# Poissons Ratio (z) = 0.15719 0.36635
#
# Static dielectric constant tensor:
#      x y z
#    x 4.498010 -0.006140 -0.488150 
#    y -0.006140 4.110450 0.220650 
#    z -0.488150 0.220650 4.980830 
# 
# 
# High freq. dielectric constant tensor:
#      x y z
#    x 1.847560 -0.011560 0.005650 
#    y -0.011560 1.849570 0.005030 
#    z 0.005650 0.005030 1.865400 
# 
# From -- ./inp_files/81234.got.cif
#   From: 2010.06.25/outbox.cif.g09.slc.cpg/sg2_41_cif.got.tgz:81234.got - 2010.06.27 13:26:56.
