data_PCOD8021939
_publ_section_title
;
Structure prediction by ZEFSAII (Michael W. Deem and Ramdas Pophale) SiO2 
 PCOD8021939
Probable space group: P -1
;
_chemical_formula_sum "Si O2"
_cell_formula_units_Z 16
_cell_length_a 5.439907
_cell_length_b 17.883694
_cell_length_c 9.744844
_cell_angle_alpha 48.247632
_cell_angle_beta 81.448348
_cell_angle_gamma 83.999468
_cell_volume 699.378422
_symmetry_space_group_name_H-M "P -1"
_symmetry_group_IT_number 2
_symmetry_cell_setting 'triclinic'
loop_
_space_group_symop_operation_xyz
x,y,z
-x,-y,-z
loop_
_atom_site_type_symbol
_atom_site_label
_atom_site_fract_x
_atom_site_fract_y
_atom_site_fract_z
Si Si1 0.372771 0.578120 0.606299
Si Si2 0.294589 0.171995 0.506388
Si Si3 0.723477 0.011755 0.072508
Si Si4 0.141300 0.793523 0.041407
Si Si5 0.507478 0.639884 0.094556
Si Si6 0.323671 0.665508 0.788919
Si Si7 0.111013 0.309759 0.582095
Si Si8 0.091924 0.217942 0.193237
O O1 0.403707 0.460515 0.712044
O O2 0.319019 0.587209 0.761610
O O3 0.631934 0.632430 0.482299
O O4 0.134525 0.619442 0.492232
O O5 0.555395 0.228594 0.396584
O O6 0.116010 0.246304 0.517988
O O7 0.187920 0.145798 0.395287
O O8 0.328809 0.067731 0.707124
O O9 0.690780 0.122084 0.005058
O O10 0.500000 0.000000 0.000000
O O11 0.000000 0.000000 0.000000
O O12 0.270471 0.685567 0.137058
O O13 0.914924 0.767980 0.194687
O O14 0.063521 0.839237 0.842087
O O15 0.464088 0.614939 0.967881
O O16 0.699925 0.729698 0.979402
O O17 0.047759 0.690910 0.829909
#
# Coordination Sequence:
#
# PCOD8021939 Si02
#       8
#     2   2   2   2   2   2   2   2
#     4  11  24  41  69 104 136 195 238 283 338 416
#     4  10  22  45  72 105 136 181 236 294 347 417
#     4  12  29  47  80 108 135 182 235 289 358 427
#     4  11  27  46  68 105 144 184 228 299 355 418
#     4  10  24  41  66 100 147 185 233 287 351 407
#     4   9  20  40  66 101 139 183 235 290 336 407
#     4  11  25  41  71 101 142 182 241 288 343 408
#     4  10  22  44  70  98 147 186 228 293 352 408
#
# _framework density 22.877455999999999
#
# number of rings (size 3 to 8) (size 9 to 14) (size 15 to 20)
#    0.000    1.500    2.500    0.375   12.250    2.000 
#    0.000    5.625    0.000    0.000    0.000    0.000 
#    0.000    0.000    0.000    0.000    0.000    0.000 
#
# Total GULP energy -198306.223514 kJ/mol
# GULP energy per Si atom -12394.138970 kJ/mol
# Density = 2.282539 g / cm^3
# Si number density = 22.877456 Si / 1000 Ang^3
#
#
#
# Elastic Constant Matrix: (Units=GPa)
#
#
# Indices 1 2 3 4 5 6 
#
# 1 103.9567 17.2598 31.4053 11.7866 12.6723 -0.0051
# 2 17.2598 83.5582 37.5316 8.9282 11.0384 12.7084
# 3 31.4053 37.5316 126.4377 1.1888 6.2628 0.4589
# 4 11.7866 8.9282 1.1888 29.7741 -4.8104 5.2817
# 5 12.6723 11.0384 6.2628 -4.8104 28.7176 8.7083
# 6 -0.0051 12.7084 0.4589 5.2817 8.7083 15.5748
#
#
#
# Elastic Compliance Matrix: (Units=1/GPa)
#
#
# Indices 1 2 3 4 5 6 
#
# 1 0.012279 -0.000801 -0.002369 -0.007213 -0.008146 0.007728
# 2 -0.000801 0.016427 -0.004509 -0.002777 -0.002052 -0.011182
# 3 -0.002369 -0.004509 0.009813 0.001374 -0.000022 0.002935
# 4 -0.007213 -0.002777 0.001374 0.044276 0.018359 -0.023057
# 5 -0.008146 -0.002052 -0.000022 0.018359 0.052581 -0.033953
# 6 0.007728 -0.011182 0.002935 -0.023057 -0.033953 0.100050
#
#
# Mechanical properties :
#
#
# Convention : Reuss Voigt Hill
#
# Bulk Modulus (GPa) = 43.17437 54.03844 48.60641
# Shear Modulus (GPa) = 19.34209 29.99705 24.66957
#
# Velocity S-wave (km/s) = 2.91084 3.62499 3.28736
# Velocity P-wave (km/s) = 5.49639 6.41816 5.97508
#
# Compressibility (1/GPa) = 0.02316189
#
# Stress axis : x y z
#
# Youngs Moduli (GPa) = 81.43857 60.87629 101.90189
#
# Poissons Ratio (x) = 0.04875 0.24141
# Poissons Ratio (y) = 0.06522 0.45946
# Poissons Ratio (z) = 0.19293 0.27448
#
# Static dielectric constant tensor:
#      x y z
#    x 4.121710 -0.029570 -0.040400 
#    y -0.029570 3.953150 0.287270 
#    z -0.040400 0.287270 4.197520 
# 
# 
# High freq. dielectric constant tensor:
#      x y z
#    x 1.900900 -0.002340 -0.002170 
#    y -0.002340 1.891550 0.024920 
#    z -0.002170 0.024920 1.909070 
# 
# From -- ./inp_files/48346.got.cif
#   From: 2010.06.25/outbox.cif.g09.slc.cpg/sg2_25_cif.got.tgz:48346.got - 2010.06.27 13:26:56.
