data_PCOD8021355
_publ_section_title
;
Structure prediction by ZEFSAII (Michael W. Deem and Ramdas Pophale) SiO2 
 PCOD8021355
Probable space group: P -1
;
_chemical_formula_sum "Si O2"
_cell_formula_units_Z 14
_cell_length_a 11.886642
_cell_length_b 14.491089
_cell_length_c 5.778653
_cell_angle_alpha 75.052136
_cell_angle_beta 71.768222
_cell_angle_gamma 36.096401
_cell_volume 556.958332
_symmetry_space_group_name_H-M "P -1"
_symmetry_group_IT_number 2
_symmetry_cell_setting 'triclinic'
loop_
_space_group_symop_operation_xyz
x,y,z
-x,-y,-z
loop_
_atom_site_type_symbol
_atom_site_label
_atom_site_fract_x
_atom_site_fract_y
_atom_site_fract_z
Si Si1 0.545598 0.891162 0.358382
Si Si2 0.784399 0.810043 0.872244
Si Si3 0.210234 0.761198 0.929824
Si Si4 0.214414 0.557326 0.867406
Si Si5 0.518810 0.276037 0.522726
Si Si6 0.852559 0.069999 0.747714
Si Si7 0.892296 0.559609 0.776118
O O1 0.562602 0.769818 0.515792
O O2 0.500000 0.000000 0.500000
O O3 0.368084 0.010070 0.208742
O O4 0.746108 0.790376 0.166265
O O5 0.757483 0.740545 0.746263
O O6 0.001624 0.712979 0.797098
O O7 0.284187 0.607297 0.927515
O O8 0.351414 0.744598 0.718578
O O9 0.976638 0.920019 0.928201
O O10 0.220873 0.784311 0.176246
O O11 0.346908 0.448984 0.630603
O O12 0.221708 0.468223 0.113912
O O13 0.657134 0.148518 0.722885
O O14 0.000000 0.000000 0.500000
O O15 0.000000 0.500000 0.500000
O O16 0.000000 0.500000 0.000000
#
# Coordination Sequence:
#
# PCOD8021355 Si02
#       7
#     2   2   2   2   2   2   2
#     4  11  25  42  70  98 134 182 239 289 354 424
#     4  10  24  44  65  97 136 184 234 290 357 413
#     4  10  22  43  70  99 132 185 227 283 349 427
#     4  11  23  44  70  99 143 178 233 287 363 425
#     4  11  23  43  65 102 139 174 230 293 349 423
#     4   9  21  43  66  89 137 173 233 279 342 406
#     4  10  23  45  68 101 142 186 235 292 357 426
#
# _framework density 25.136533
#
# number of rings (size 3 to 8) (size 9 to 14) (size 15 to 20)
#    0.000    1.714    1.429    1.286    4.000    6.286 
#   15.429    0.000    0.000    0.000    0.000    0.000 
#    0.000    0.000    0.000    0.000    0.000    0.000 
#
# Total GULP energy -173440.441935 kJ/mol
# GULP energy per Si atom -12388.602995 kJ/mol
# Density = 2.507932 g / cm^3
# Si number density = 25.136533 Si / 1000 Ang^3
#
#
#
# Elastic Constant Matrix: (Units=GPa)
#
#
# Indices 1 2 3 4 5 6 
#
# 1 122.3219 39.6922 45.9100 25.9996 -7.8963 45.4097
# 2 39.6922 86.3708 41.2082 33.4305 -8.1673 26.1635
# 3 45.9100 41.2082 129.7677 39.2501 2.6878 23.2023
# 4 25.9996 33.4305 39.2501 50.4885 9.5370 4.5436
# 5 -7.8963 -8.1673 2.6878 9.5370 30.9799 10.5131
# 6 45.4097 26.1635 23.2023 4.5436 10.5131 64.7363
#
#
#
# Elastic Compliance Matrix: (Units=1/GPa)
#
#
# Indices 1 2 3 4 5 6 
#
# 1 0.015294 0.001994 -0.001276 -0.009282 0.011567 -0.012304
# 2 0.001994 0.022904 -0.000953 -0.017414 0.015955 -0.011683
# 3 -0.001276 -0.000953 0.011109 -0.007426 0.001572 -0.002435
# 4 -0.009282 -0.017414 -0.007426 0.045267 -0.026109 0.017273
# 5 0.011567 0.015955 0.001572 -0.026109 0.054870 -0.022204
# 6 -0.012304 -0.011683 -0.002435 0.017273 -0.022204 0.032066
#
#
# Mechanical properties :
#
#
# Convention : Reuss Voigt Hill
#
# Bulk Modulus (GPa) = 20.47665 65.78680 43.13172
# Shear Modulus (GPa) = 25.21934 43.35092 34.28513
#
# Velocity S-wave (km/s) = 3.17092 4.15736 3.69718
# Velocity P-wave (km/s) = 4.64437 7.01950 5.95162
#
# Compressibility (1/GPa) = 0.04883611
#
# Stress axis : x y z
#
# Youngs Moduli (GPa) = 65.38399 43.65988 90.01537
#
# Poissons Ratio (x) = -0.08705 0.11489
# Poissons Ratio (y) = -0.13036 0.08581
# Poissons Ratio (z) = 0.08345 0.04162
#
# Static dielectric constant tensor:
#      x y z
#    x 4.788920 -0.214170 0.294610 
#    y -0.214170 6.034510 -0.091160 
#    z 0.294610 -0.091160 4.469700 
# 
# 
# High freq. dielectric constant tensor:
#      x y z
#    x 1.999490 0.003010 0.012750 
#    y 0.003010 2.021440 0.016490 
#    z 0.012750 0.016490 1.992870 
# 
# From -- ./inp_files/77570.got.cif
#   From: 2010.06.25/outbox.cif.g09.slc.cpg/sg2_39_cif.got.tgz:77570.got - 2010.06.27 13:26:56.
