data_PCOD8021027
_publ_section_title
;
Structure prediction by ZEFSAII (Michael W. Deem and Ramdas Pophale) SiO2 
 PCOD8021027
Probable space group: P -1
;
_chemical_formula_sum "Si O2"
_cell_formula_units_Z 14
_cell_length_a 9.001705
_cell_length_b 10.366235
_cell_length_c 15.484650
_cell_angle_alpha 137.442992
_cell_angle_beta 133.496316
_cell_angle_gamma 43.208261
_cell_volume 632.286245
_symmetry_space_group_name_H-M "P -1"
_symmetry_group_IT_number 2
_symmetry_cell_setting 'triclinic'
loop_
_space_group_symop_operation_xyz
x,y,z
-x,-y,-z
loop_
_atom_site_type_symbol
_atom_site_label
_atom_site_fract_x
_atom_site_fract_y
_atom_site_fract_z
Si Si1 0.134207 0.127329 0.087186
Si Si2 0.522526 0.155748 0.653761
Si Si3 0.415142 0.063161 0.741513
Si Si4 0.252961 0.203303 0.994567
Si Si5 0.911504 0.572363 0.300914
Si Si6 0.726508 0.299489 0.521239
Si Si7 0.166067 0.670122 0.221032
O O1 0.411797 0.985935 0.133633
O O2 0.088981 0.199903 0.005853
O O3 0.059298 0.324176 0.220157
O O4 0.000000 0.000000 0.000000
O O5 0.276385 0.372757 0.670970
O O6 0.718725 0.220989 0.740307
O O7 0.500000 0.000000 0.500000
O O8 0.575017 0.026801 0.701895
O O9 0.284652 0.916104 0.614861
O O10 0.221638 0.311034 0.784549
O O11 0.280644 0.418987 0.119919
O O12 0.109917 0.212367 0.853983
O O13 0.500000 0.000000 0.000000
O O14 0.073180 0.683392 0.445554
O O15 0.500000 0.500000 0.500000
O O16 0.780427 0.303598 0.645923
#
# Coordination Sequence:
#
# PCOD8021027 Si02
#       7
#     2   2   2   2   2   2   2
#     4  12  25  45  65 100 135 173 235 271 317 416
#     4  10  22  43  67 100 132 178 209 274 349 390
#     4  10  23  40  70  95 135 167 225 265 345 389
#     4  11  27  43  68  97 129 184 223 272 337 382
#     4  10  24  41  67  99 127 183 216 269 345 382
#     4  12  21  44  71  99 133 172 222 279 336 406
#     4  11  23  47  66  94 143 164 227 279 326 402
#
# _framework density 22.141870000000001
#
# number of rings (size 3 to 8) (size 9 to 14) (size 15 to 20)
#    0.857    0.286    4.286    1.286    4.000    0.571 
#    5.143    1.429    0.000    0.000    0.000    0.000 
#    0.000    0.000    0.000    0.000    0.000    0.000 
#
# Total GULP energy -173485.484521 kJ/mol
# GULP energy per Si atom -12391.820323 kJ/mol
# Density = 2.209147 g / cm^3
# Si number density = 22.141870 Si / 1000 Ang^3
#
#
#
# Elastic Constant Matrix: (Units=GPa)
#
#
# Indices 1 2 3 4 5 6 
#
# 1 60.6268 -1.1620 26.0077 -0.7574 20.5385 9.4182
# 2 -1.1620 114.7362 24.2016 -11.2769 16.4607 -6.0018
# 3 26.0077 24.2016 101.9110 -11.1328 28.0358 12.6513
# 4 -0.7574 -11.2769 -11.1328 39.1172 9.7196 8.0955
# 5 20.5385 16.4607 28.0358 9.7196 43.0019 -1.9474
# 6 9.4182 -6.0018 12.6513 8.0955 -1.9474 34.6713
#
#
#
# Elastic Compliance Matrix: (Units=1/GPa)
#
#
# Indices 1 2 3 4 5 6 
#
# 1 0.022469 0.002436 -0.001535 0.005170 -0.012149 -0.007011
# 2 0.002436 0.010124 -0.001275 0.003775 -0.005043 0.000391
# 3 -0.001535 -0.001275 0.015502 0.008457 -0.011163 -0.008062
# 4 0.005170 0.003775 0.008457 0.036470 -0.018277 -0.013379
# 5 -0.012149 -0.005043 -0.011163 -0.018277 0.042994 0.013183
# 6 -0.007011 0.000391 -0.008062 -0.013379 0.013183 0.037621
#
#
# Mechanical properties :
#
#
# Convention : Reuss Voigt Hill
#
# Bulk Modulus (GPa) = 21.12019 41.70763 31.41391
# Shear Modulus (GPa) = 27.51628 38.57318 33.04473
#
# Velocity S-wave (km/s) = 3.52906 4.17837 3.86736
# Velocity P-wave (km/s) = 5.11517 6.49275 5.84469
#
# Compressibility (1/GPa) = 0.04734806
#
# Stress axis : x y z
#
# Youngs Moduli (GPa) = 44.50537 98.77280 64.50607
#
# Poissons Ratio (x) = -0.24059 0.09902
# Poissons Ratio (y) = -0.10840 0.08222
# Poissons Ratio (z) = 0.06832 0.12590
#
# Static dielectric constant tensor:
#      x y z
#    x 4.333140 0.454810 0.212080 
#    y 0.454810 4.312490 -0.260960 
#    z 0.212080 -0.260960 3.988840 
# 
# 
# High freq. dielectric constant tensor:
#      x y z
#    x 1.876610 0.002950 0.013170 
#    y 0.002950 1.877710 -0.005740 
#    z 0.013170 -0.005740 1.866380 
# 
# From -- ./inp_files/559341.got.cif
#   From: 2010.06.25/outbox.cif.g09.slc.cpg/sg2_280_cif.got.tgz:559341.got - 2010.06.27 13:26:56.
