data_PCOD8021435
_publ_section_title
;
Structure prediction by ZEFSAII (Michael W. Deem and Ramdas Pophale) SiO2 
 PCOD8021435
Probable space group: P -1
;
_chemical_formula_sum "Si O2"
_cell_formula_units_Z 16
_cell_length_a 5.368276
_cell_length_b 31.306261
_cell_length_c 5.240042
_cell_angle_alpha 70.858358
_cell_angle_beta 95.836352
_cell_angle_gamma 54.445895
_cell_volume 625.972023
_symmetry_space_group_name_H-M "P -1"
_symmetry_group_IT_number 2
_symmetry_cell_setting 'triclinic'
loop_
_space_group_symop_operation_xyz
x,y,z
-x,-y,-z
loop_
_atom_site_type_symbol
_atom_site_label
_atom_site_fract_x
_atom_site_fract_y
_atom_site_fract_z
Si Si1 0.954425 0.273987 0.811577
Si Si2 0.716310 0.233367 0.522858
Si Si3 0.741161 0.431227 0.240645
Si Si4 0.274416 0.164164 0.341856
Si Si5 0.089771 0.114811 0.043382
Si Si6 0.237192 0.933236 0.058397
Si Si7 0.995740 0.678935 0.796200
Si Si8 0.846239 0.540178 0.653208
O O1 0.280348 0.203202 0.049738
O O2 0.815862 0.316670 0.965765
O O3 0.027507 0.298481 0.537106
O O4 0.677384 0.271037 0.691665
O O5 0.384811 0.276739 0.235556
O O6 0.025477 0.215128 0.425077
O O7 0.799929 0.172549 0.734524
O O8 0.550315 0.421661 0.445953
O O9 0.839628 0.389958 0.083398
O O10 0.069723 0.415895 0.425895
O O11 0.500000 0.500000 0.000000
O O12 0.115757 0.135448 0.281701
O O13 0.633873 0.111111 0.598801
O O14 0.454147 0.080208 0.026390
O O15 0.983924 0.074469 0.128449
O O16 0.000000 0.000000 0.000000
O O17 0.000000 0.500000 0.500000
O O18 0.000000 0.500000 0.000000
#
# Coordination Sequence:
#
# PCOD8021435 Si02
#       8
#     2   2   2   2   2   2   2   2
#     4  11  25  45  67 106 139 187 241 301 365 427
#     4  10  24  44  69 104 138 189 242 304 365 434
#     4  10  25  48  71 108 142 192 234 295 363 440
#     4  10  23  44  72 101 146 188 247 298 372 425
#     4  10  24  40  71  99 140 195 241 299 362 426
#     4  11  24  44  67 106 148 192 245 296 358 433
#     4  12  27  42  75 103 148 182 245 301 366 436
#     4  10  22  43  72  95 135 181 235 278 343 424
#
# _framework density 25.560248000000001
#
# number of rings (size 3 to 8) (size 9 to 14) (size 15 to 20)
#    0.000    1.500    1.250    1.500    8.750    7.000 
#    0.000    1.250    0.000    0.000    0.000    0.000 
#    0.000    0.000    0.000    0.000    0.000    0.000 
#
# Total GULP energy -198228.151504 kJ/mol
# GULP energy per Si atom -12389.259469 kJ/mol
# Density = 2.550207 g / cm^3
# Si number density = 25.560248 Si / 1000 Ang^3
#
#
#
# Elastic Constant Matrix: (Units=GPa)
#
#
# Indices 1 2 3 4 5 6 
#
# 1 152.9449 55.1538 11.1544 8.8315 9.5373 17.6563
# 2 55.1538 173.1237 34.0438 18.5698 11.5494 25.8750
# 3 11.1544 34.0438 80.5861 22.0659 -6.8584 7.4744
# 4 8.8315 18.5698 22.0659 36.3455 5.6981 8.9753
# 5 9.5373 11.5494 -6.8584 5.6981 18.6217 8.4586
# 6 17.6563 25.8750 7.4744 8.9753 8.4586 46.5600
#
#
#
# Elastic Compliance Matrix: (Units=1/GPa)
#
#
# Indices 1 2 3 4 5 6 
#
# 1 0.007571 -0.002024 -0.000252 0.000006 -0.002116 -0.001322
# 2 -0.002024 0.007621 -0.002888 -0.000533 -0.003567 -0.002253
# 3 -0.000252 -0.002888 0.017831 -0.010912 0.012424 -0.001316
# 4 0.000006 -0.000533 -0.010912 0.037232 -0.013900 -0.002606
# 5 -0.002116 -0.003567 0.012424 -0.013900 0.070028 -0.009252
# 6 -0.001322 -0.002253 -0.001316 -0.002606 -0.009252 0.025626
#
#
# Mechanical properties :
#
#
# Convention : Reuss Voigt Hill
#
# Bulk Modulus (GPa) = 44.06253 67.48430 55.77342
# Shear Modulus (GPa) = 27.20315 40.72562 33.96439
#
# Velocity S-wave (km/s) = 3.26586 3.99597 3.64922
# Velocity P-wave (km/s) = 5.61224 6.91012 6.29472
#
# Compressibility (1/GPa) = 0.02269502
#
# Stress axis : x y z
#
# Youngs Moduli (GPa) = 132.08469 131.21843 56.08155
#
# Poissons Ratio (x) = 0.26562 0.01412
# Poissons Ratio (y) = 0.26737 0.16196
# Poissons Ratio (z) = 0.03326 0.37895
#
# Static dielectric constant tensor:
#      x y z
#    x 8.549670 0.495830 0.236050 
#    y 0.495830 4.690340 0.138170 
#    z 0.236050 0.138170 4.777290 
# 
# 
# High freq. dielectric constant tensor:
#      x y z
#    x 2.016010 0.018220 0.008600 
#    y 0.018220 2.028980 0.010260 
#    z 0.008600 0.010260 2.004970 
# 
# From -- ./inp_files/14977.got.cif
#   From: 2010.06.25/outbox.cif.g09.slc.cpg/sg2_8_cif.got.tgz:14977.got - 2010.06.27 13:26:56.
