data_PCOD8021228
_publ_section_title
;
Structure prediction by ZEFSAII (Michael W. Deem and Ramdas Pophale) SiO2 
 PCOD8021228
Probable space group: P -1
;
_chemical_formula_sum "Si O2"
_cell_formula_units_Z 16
_cell_length_a 12.383939
_cell_length_b 17.713765
_cell_length_c 7.935086
_cell_angle_alpha 44.473182
_cell_angle_beta 138.177386
_cell_angle_gamma 139.233413
_cell_volume 712.070941
_symmetry_space_group_name_H-M "P -1"
_symmetry_group_IT_number 2
_symmetry_cell_setting 'triclinic'
loop_
_space_group_symop_operation_xyz
x,y,z
-x,-y,-z
loop_
_atom_site_type_symbol
_atom_site_label
_atom_site_fract_x
_atom_site_fract_y
_atom_site_fract_z
Si Si1 0.810707 0.430340 0.131105
Si Si2 0.002589 0.899676 0.286582
Si Si3 0.376706 0.596615 0.387975
Si Si4 0.238166 0.187604 0.547741
Si Si5 0.127491 0.358108 0.620013
Si Si6 0.366556 0.044355 0.685790
Si Si7 0.940617 0.686249 0.025688
Si Si8 0.328297 0.717803 0.471240
O O1 0.674119 0.355506 0.246052
O O2 0.991970 0.416288 0.363239
O O3 0.714046 0.381306 0.918472
O O4 0.873400 0.574118 0.995118
O O5 0.827448 0.864237 0.260053
O O6 0.971011 0.779518 0.342501
O O7 0.195399 0.942967 0.541574
O O8 0.000000 0.000000 0.000000
O O9 0.595079 0.672035 0.489087
O O10 0.309031 0.451300 0.573626
O O11 0.317243 0.644342 0.406573
O O12 0.286302 0.093170 0.661687
O O13 0.069521 0.197647 0.248863
O O14 0.185024 0.357584 0.881675
O O15 0.485695 0.152074 0.519821
O O16 0.500000 0.000000 0.000000
O O17 0.153584 0.740886 0.236664
#
# Coordination Sequence:
#
# PCOD8021228 Si02
#       8
#     2   2   2   2   2   2   2   2
#     4  11  22  38  72 105 143 176 231 282 358 428
#     4  12  28  47  69 101 144 188 235 295 353 409
#     4  11  23  41  69 108 136 177 232 290 355 419
#     4  11  27  44  71 101 138 180 234 294 356 418
#     4  11  23  42  71 103 140 180 234 283 352 423
#     4  11  26  48  74  95 136 193 242 286 342 426
#     4  11  21  44  69 105 142 179 219 292 364 417
#     4  10  22  43  69 103 136 180 238 286 344 420
#
# _framework density 22.469671999999999
#
# number of rings (size 3 to 8) (size 9 to 14) (size 15 to 20)
#    0.000    1.000    2.500    3.750    7.000    4.500 
#    0.000    3.125    0.000    0.000    0.000    0.000 
#    0.000    0.000    0.000    0.000    0.000    0.000 
#
# Total GULP energy -198402.961557 kJ/mol
# GULP energy per Si atom -12400.185097 kJ/mol
# Density = 2.241853 g / cm^3
# Si number density = 22.469672 Si / 1000 Ang^3
#
#
#
# Elastic Constant Matrix: (Units=GPa)
#
#
# Indices 1 2 3 4 5 6 
#
# 1 124.6348 49.0555 50.0835 -13.6135 -20.1629 7.2356
# 2 49.0555 131.8318 33.7150 -8.7060 -4.6690 -0.4361
# 3 50.0835 33.7150 110.9516 -15.5848 -7.3214 -7.5650
# 4 -13.6135 -8.7060 -15.5848 29.9903 -5.1244 -0.3857
# 5 -20.1629 -4.6690 -7.3214 -5.1244 40.7506 -5.7020
# 6 7.2356 -0.4361 -7.5650 -0.3857 -5.7020 34.8335
#
#
#
# Elastic Compliance Matrix: (Units=1/GPa)
#
#
# Indices 1 2 3 4 5 6 
#
# 1 0.012157 -0.003132 -0.003899 0.003409 0.005027 -0.002551
# 2 -0.003132 0.009092 -0.001303 0.000437 -0.000634 0.000382
# 3 -0.003899 -0.001303 0.012112 0.004392 0.001162 0.003663
# 4 0.003409 0.000437 0.004392 0.038633 0.007654 0.001932
# 5 0.005027 -0.000634 0.001162 0.007654 0.028683 0.003980
# 6 -0.002551 0.000382 0.003663 0.001932 0.003980 0.030711
#
#
# Mechanical properties :
#
#
# Convention : Reuss Voigt Hill
#
# Bulk Modulus (GPa) = 59.90777 70.34738 65.12757
# Shear Modulus (GPa) = 32.54771 36.75250 34.65010
#
# Velocity S-wave (km/s) = 3.81007 4.04870 3.93120
# Velocity P-wave (km/s) = 6.78786 7.29600 7.04651
#
# Compressibility (1/GPa) = 0.01669233
#
# Stress axis : x y z
#
# Youngs Moduli (GPa) = 82.25962 109.98974 82.55968
#
# Poissons Ratio (x) = 0.34445 0.32191
# Poissons Ratio (y) = 0.25761 0.10761
# Poissons Ratio (z) = 0.32074 0.14337
#
# Static dielectric constant tensor:
#      x y z
#    x 4.305410 0.208960 -0.222400 
#    y 0.208960 4.243790 -0.064570 
#    z -0.222400 -0.064570 3.993050 
# 
# 
# High freq. dielectric constant tensor:
#      x y z
#    x 1.897810 0.009060 -0.010440 
#    y 0.009060 1.889290 -0.006210 
#    z -0.010440 -0.006210 1.881930 
# 
# From -- ./inp_files/278881.got.cif
#   From: 2010.06.25/outbox.cif.g09.slc.cpg/sg2_140_cif.got.tgz:278881.got - 2010.06.27 13:26:56.
