data_PCOD8021029
_publ_section_title
;
Structure prediction by ZEFSAII (Michael W. Deem and Ramdas Pophale) SiO2 
 PCOD8021029
Probable space group: P -1
;
_chemical_formula_sum "Si O2"
_cell_formula_units_Z 16
_cell_length_a 15.920486
_cell_length_b 8.425794
_cell_length_c 14.722217
_cell_angle_alpha 97.956304
_cell_angle_beta 26.977921
_cell_angle_gamma 81.911319
_cell_volume 717.847328
_symmetry_space_group_name_H-M "P -1"
_symmetry_group_IT_number 2
_symmetry_cell_setting 'triclinic'
loop_
_space_group_symop_operation_xyz
x,y,z
-x,-y,-z
loop_
_atom_site_type_symbol
_atom_site_label
_atom_site_fract_x
_atom_site_fract_y
_atom_site_fract_z
Si Si1 0.057523 0.856380 0.215559
Si Si2 0.674408 0.884305 0.713533
Si Si3 0.123428 0.037856 0.997946
Si Si4 0.336985 0.705575 0.624075
Si Si5 0.169206 0.549507 0.479495
Si Si6 0.311107 0.183827 0.963564
Si Si7 0.519620 0.588670 0.249380
Si Si8 0.094397 0.080856 0.348479
O O1 0.010132 0.963712 0.171155
O O2 0.842048 0.879451 0.474818
O O3 0.159406 0.953061 0.183588
O O4 0.245291 0.626061 0.001038
O O5 0.706596 0.678280 0.680991
O O6 0.696715 0.948501 0.797708
O O7 0.414316 0.037257 0.939836
O O8 0.293368 0.873993 0.747523
O O9 0.913198 0.231794 0.163166
O O10 0.291549 0.078801 0.887197
O O11 0.500000 0.500000 0.500000
O O12 0.481573 0.675515 0.393596
O O13 0.314547 0.584725 0.410294
O O14 0.102224 0.684998 0.464299
O O15 0.937980 0.622689 0.759535
O O16 0.474799 0.252600 0.801300
O O17 0.000000 0.000000 0.500000
#
# Coordination Sequence:
#
# PCOD8021029 Si02
#       8
#     2   2   2   2   2   2   2   2
#     4  11  21  44  71  99 137 183 224 277 341 398
#     4  11  25  43  68 101 136 180 230 277 333 399
#     4  11  23  43  69 100 133 177 221 276 337 400
#     4  11  23  41  72  98 134 172 222 277 336 400
#     4  12  24  45  70  99 137 181 226 277 341 396
#     4  12  25  45  73  98 137 181 225 274 339 402
#     4  12  24  45  70 100 137 180 223 281 338 401
#     4  10  22  43  67 100 138 177 230 280 325 398
#
# _framework density 22.288861000000001
#
# number of rings (size 3 to 8) (size 9 to 14) (size 15 to 20)
#    0.000    0.750    5.000    3.375    0.000    1.000 
#    2.250    2.500    0.000    0.000    0.000    0.000 
#    0.000    0.000    0.000    0.000    0.000    0.000 
#
# Total GULP energy -198275.115785 kJ/mol
# GULP energy per Si atom -12392.194737 kJ/mol
# Density = 2.223813 g / cm^3
# Si number density = 22.288861 Si / 1000 Ang^3
#
#
#
# Elastic Constant Matrix: (Units=GPa)
#
#
# Indices 1 2 3 4 5 6 
#
# 1 146.3586 48.5971 31.4105 13.6993 -3.5809 6.2861
# 2 48.5971 121.0719 17.3044 10.2249 -11.9232 5.3805
# 3 31.4105 17.3044 57.3834 16.0304 -8.1342 0.9118
# 4 13.6993 10.2249 16.0304 43.3117 -4.9285 -2.5648
# 5 -3.5809 -11.9232 -8.1342 -4.9285 31.7981 5.7860
# 6 6.2861 5.3805 0.9118 -2.5648 5.7860 31.2745
#
#
#
# Elastic Compliance Matrix: (Units=1/GPa)
#
#
# Indices 1 2 3 4 5 6 
#
# 1 0.008719 -0.002945 -0.003780 -0.000841 -0.001036 -0.001013
# 2 -0.002945 0.010032 -0.000638 -0.000916 0.003458 -0.001830
# 3 -0.003780 -0.000638 0.022092 -0.006417 0.004187 -0.001076
# 4 -0.000841 -0.000916 -0.006417 0.026264 0.001558 0.002379
# 5 -0.001036 0.003458 0.004187 0.001558 0.035195 -0.006892
# 6 -0.001013 -0.001830 -0.001076 0.002379 -0.006892 0.033995
#
#
# Mechanical properties :
#
#
# Convention : Reuss Voigt Hill
#
# Bulk Modulus (GPa) = 38.29111 57.71532 48.00321
# Shear Modulus (GPa) = 31.30316 36.44366 33.87341
#
# Velocity S-wave (km/s) = 3.75164 4.04798 3.90262
# Velocity P-wave (km/s) = 5.99860 6.91365 6.47232
#
# Compressibility (1/GPa) = 0.02611572
#
# Stress axis : x y z
#
# Youngs Moduli (GPa) = 114.69735 99.67973 45.26620
#
# Poissons Ratio (x) = 0.29358 0.17110
# Poissons Ratio (y) = 0.33781 0.02888
# Poissons Ratio (z) = 0.43355 0.06361
#
# Static dielectric constant tensor:
#      x y z
#    x 6.032730 -0.131910 0.705330 
#    y -0.131910 4.155010 0.005980 
#    z 0.705330 0.005980 4.414910 
# 
# 
# High freq. dielectric constant tensor:
#      x y z
#    x 1.890860 -0.007050 -0.001020 
#    y -0.007050 1.882260 0.005600 
#    z -0.001020 0.005600 1.886800 
# 
# From -- ./inp_files/315251.got.cif
#   From: 2010.06.25/outbox.cif.g09.slc.cpg/sg2_158_cif.got.tgz:315251.got - 2010.06.27 13:26:56.
