data_PCOD8021165
_publ_section_title
;
Structure prediction by ZEFSAII (Michael W. Deem and Ramdas Pophale) SiO2 
 PCOD8021165
Probable space group: P -1
;
_chemical_formula_sum "Si O2"
_cell_formula_units_Z 14
_cell_length_a 9.372968
_cell_length_b 8.437404
_cell_length_c 12.089271
_cell_angle_alpha 121.335031
_cell_angle_beta 76.365028
_cell_angle_gamma 128.873137
_cell_volume 629.829113
_symmetry_space_group_name_H-M "P -1"
_symmetry_group_IT_number 2
_symmetry_cell_setting 'triclinic'
loop_
_space_group_symop_operation_xyz
x,y,z
-x,-y,-z
loop_
_atom_site_type_symbol
_atom_site_label
_atom_site_fract_x
_atom_site_fract_y
_atom_site_fract_z
Si Si1 0.883450 0.581277 0.507781
Si Si2 0.317721 0.889849 0.233961
Si Si3 0.915960 0.562540 0.245403
Si Si4 0.494528 0.193988 0.511358
Si Si5 0.702455 0.075772 0.991701
Si Si6 0.593925 0.768543 0.093483
Si Si7 0.184476 0.115886 0.688436
O O1 0.829013 0.505012 0.362386
O O2 0.695016 0.447118 0.565481
O O3 0.000000 0.500000 0.500000
O O4 0.000905 0.859694 0.598227
O O5 0.434137 0.793892 0.156539
O O6 0.135416 0.701234 0.268921
O O7 0.436887 0.125283 0.369076
O O8 0.250450 0.936236 0.148590
O O9 0.842727 0.333708 0.106907
O O10 0.866896 0.708564 0.238679
O O11 0.348235 0.212558 0.605352
O O12 0.500000 0.000000 0.500000
O O13 0.703637 0.897080 0.006157
O O14 0.500000 0.000000 0.000000
O O15 0.745941 0.889491 0.205692
O O16 0.500000 0.500000 0.000000
#
# Coordination Sequence:
#
# PCOD8021165 Si02
#       7
#     2   2   2   2   2   2   2
#     4  12  23  42  69 100 138 185 224 275 342 401
#     4  11  22  44  70  96 137 180 223 280 342 400
#     4  12  25  44  68 101 139 175 229 284 335 405
#     4  12  23  43  71 102 138 184 220 279 345 399
#     4  10  22  43  68  95 131 182 223 273 344 396
#     4  11  24  46  71  96 135 178 229 282 334 406
#     4  12  25  45  68 105 141 173 232 281 331 411
#
# _framework density 22.228251
#
# number of rings (size 3 to 8) (size 9 to 14) (size 15 to 20)
#    0.000    0.571    4.286    5.143    0.000    0.571 
#    7.714    1.429    0.000    0.000    0.000    0.000 
#    0.000    0.000    0.000    0.000    0.000    0.000 
#
# Total GULP energy -173642.558768 kJ/mol
# GULP energy per Si atom -12403.039912 kJ/mol
# Density = 2.217766 g / cm^3
# Si number density = 22.228251 Si / 1000 Ang^3
#
#
#
# Elastic Constant Matrix: (Units=GPa)
#
#
# Indices 1 2 3 4 5 6 
#
# 1 77.3775 40.6580 19.5281 -0.9684 14.1958 -3.5423
# 2 40.6580 141.5686 41.4032 2.9386 10.0411 6.3620
# 3 19.5281 41.4032 120.2260 -7.4036 30.1153 -12.6261
# 4 -0.9684 2.9386 -7.4036 35.4385 -4.1832 8.1087
# 5 14.1958 10.0411 30.1153 -4.1832 25.4544 -1.0479
# 6 -3.5423 6.3620 -12.6261 8.1087 -1.0479 49.6034
#
#
#
# Elastic Compliance Matrix: (Units=1/GPa)
#
#
# Indices 1 2 3 4 5 6 
#
# 1 0.016784 -0.004649 0.001339 -0.000410 -0.009095 0.002010
# 2 -0.004649 0.009321 -0.003423 -0.000785 0.002746 -0.002213
# 3 0.001339 -0.003423 0.013467 0.000539 -0.015094 0.003556
# 4 -0.000410 -0.000785 0.000539 0.029983 0.004639 -0.004595
# 5 -0.009095 0.002746 -0.015094 0.004639 0.061718 -0.004298
# 6 0.002010 -0.002213 0.003556 -0.004595 -0.004298 0.022153
#
#
# Mechanical properties :
#
#
# Convention : Reuss Voigt Hill
#
# Bulk Modulus (GPa) = 38.30664 60.26117 49.28391
# Shear Modulus (GPa) = 28.47490 37.93810 33.20650
#
# Velocity S-wave (km/s) = 3.58302 4.13577 3.86928
# Velocity P-wave (km/s) = 5.86414 7.06931 6.49474
#
# Compressibility (1/GPa) = 0.02610513
#
# Stress axis : x y z
#
# Youngs Moduli (GPa) = 59.58102 107.28546 74.25830
#
# Poissons Ratio (x) = 0.49872 -0.09942
# Poissons Ratio (y) = 0.27697 0.25421
# Poissons Ratio (z) = -0.07977 0.36727
#
# Static dielectric constant tensor:
#      x y z
#    x 4.064980 0.142790 0.267210 
#    y 0.142790 4.687200 -0.349110 
#    z 0.267210 -0.349110 4.282160 
# 
# 
# High freq. dielectric constant tensor:
#      x y z
#    x 1.869730 0.005120 0.019130 
#    y 0.005120 1.886760 -0.006260 
#    z 0.019130 -0.006260 1.882420 
# 
# From -- ./inp_files/241868.got.cif
#   From: 2010.06.25/outbox.cif.g09.slc.cpg/sg2_121_cif.got.tgz:241868.got - 2010.06.27 13:26:56.
