data_PCOD8021333
_publ_section_title
;
Structure prediction by ZEFSAII (Michael W. Deem and Ramdas Pophale) SiO2 
 PCOD8021333
Probable space group: P -1
;
_chemical_formula_sum "Si O2"
_cell_formula_units_Z 12
_cell_length_a 4.692178
_cell_length_b 14.771609
_cell_length_c 11.425096
_cell_angle_alpha 137.885535
_cell_angle_beta 86.181481
_cell_angle_gamma 99.478493
_cell_volume 521.947752
_symmetry_space_group_name_H-M "P -1"
_symmetry_group_IT_number 2
_symmetry_cell_setting 'triclinic'
loop_
_space_group_symop_operation_xyz
x,y,z
-x,-y,-z
loop_
_atom_site_type_symbol
_atom_site_label
_atom_site_fract_x
_atom_site_fract_y
_atom_site_fract_z
Si Si1 0.200873 0.392168 0.021288
Si Si2 0.873327 0.193813 0.019752
Si Si3 0.060624 0.259982 0.416454
Si Si4 0.373656 0.637735 0.618290
Si Si5 0.747692 0.586269 0.215873
Si Si6 0.324221 0.019720 0.905875
O O1 0.462943 0.484680 0.173350
O O2 0.067698 0.256681 0.966299
O O3 0.975065 0.489125 0.099567
O O4 0.306378 0.348339 0.847489
O O5 0.753458 0.310243 0.209331
O O6 0.075959 0.115140 0.021750
O O7 0.585835 0.092229 0.882827
O O8 0.892460 0.379138 0.483991
O O9 0.353642 0.250580 0.327200
O O10 0.150369 0.292605 0.579192
O O11 0.832202 0.119936 0.282199
O O12 0.500000 0.500000 0.500000
O O13 0.500000 0.000000 0.000000
#
# Coordination Sequence:
#
# PCOD8021333 Si02
#       6
#     2   2   2   2   2   2
#     4  10  22  44  69  98 129 175 217 278 343 392
#     4  12  25  43  69  97 134 178 229 266 330 404
#     4  12  25  43  64  98 135 180 226 265 337 396
#     4  12  26  41  64 100 140 171 216 284 340 397
#     4  10  22  43  70  95 135 171 218 277 341 398
#     4  12  26  45  65  91 138 191 222 267 326 396
#
# _framework density 22.99081
#
# number of rings (size 3 to 8) (size 9 to 14) (size 15 to 20)
#    0.000    0.667    1.667    6.000    0.000    2.667 
#    3.000    1.667    0.000    0.000    0.000    0.000 
#    0.000    0.000    0.000    0.000    0.000    0.000 
#
# Total GULP energy -148728.127892 kJ/mol
# GULP energy per Si atom -12394.010658 kJ/mol
# Density = 2.293848 g / cm^3
# Si number density = 22.990810 Si / 1000 Ang^3
#
#
#
# Elastic Constant Matrix: (Units=GPa)
#
#
# Indices 1 2 3 4 5 6 
#
# 1 143.2310 38.5921 39.0910 1.3211 7.6975 11.5182
# 2 38.5921 106.3014 59.8704 2.1605 9.8776 16.2146
# 3 39.0910 59.8704 116.9103 -2.5460 29.8241 2.3198
# 4 1.3211 2.1605 -2.5460 23.1574 1.1213 4.1431
# 5 7.6975 9.8776 29.8241 1.1213 50.0720 13.9227
# 6 11.5182 16.2146 2.3198 4.1431 13.9227 44.3281
#
#
#
# Elastic Compliance Matrix: (Units=1/GPa)
#
#
# Indices 1 2 3 4 5 6 
#
# 1 0.008061 -0.001593 -0.002045 -0.000284 0.000748 -0.001613
# 2 -0.001593 0.015069 -0.008039 -0.001356 0.003677 -0.005706
# 3 -0.002045 -0.008039 0.015558 0.002067 -0.008873 0.005251
# 4 -0.000284 -0.001356 0.002067 0.044202 -0.000975 -0.003364
# 5 0.000748 0.003677 -0.008873 -0.000975 0.027076 -0.009488
# 6 -0.001613 -0.005706 0.005251 -0.003364 -0.009488 0.028085
#
#
# Mechanical properties :
#
#
# Convention : Reuss Voigt Hill
#
# Bulk Modulus (GPa) = 65.20454 71.28330 68.24392
# Shear Modulus (GPa) = 30.02715 38.77077 34.39896
#
# Velocity S-wave (km/s) = 3.61785 4.11099 3.87228
# Velocity P-wave (km/s) = 6.77307 7.32161 7.05268
#
# Compressibility (1/GPa) = 0.01533635
#
# Stress axis : x y z
#
# Youngs Moduli (GPa) = 124.05341 66.36056 64.27370
#
# Poissons Ratio (x) = 0.10568 0.13142
# Poissons Ratio (y) = 0.19756 0.51669
# Poissons Ratio (z) = 0.25366 0.53347
#
# Static dielectric constant tensor:
#      x y z
#    x 4.905870 0.342260 0.257190 
#    y 0.342260 4.510790 0.188290 
#    z 0.257190 0.188290 3.904840 
# 
# 
# High freq. dielectric constant tensor:
#      x y z
#    x 1.946850 0.019450 0.009970 
#    y 0.019450 1.896470 0.011360 
#    z 0.009970 0.011360 1.881640 
# 
# From -- ./inp_files/485487.got.cif
#   From: 2010.06.25/outbox.cif.g09.slc.cpg/sg2_243_cif.got.tgz:485487.got - 2010.06.27 13:26:56.
