data_PCOD8021055
_publ_section_title
;
Structure prediction by ZEFSAII (Michael W. Deem and Ramdas Pophale) SiO2 
 PCOD8021055
Probable space group: P -1
;
_chemical_formula_sum "Si O2"
_cell_formula_units_Z 14
_cell_length_a 7.957199
_cell_length_b 6.520345
_cell_length_c 16.326833
_cell_angle_alpha 125.676304
_cell_angle_beta 86.897410
_cell_angle_gamma 113.186710
_cell_volume 614.816969
_symmetry_space_group_name_H-M "P -1"
_symmetry_group_IT_number 2
_symmetry_cell_setting 'triclinic'
loop_
_space_group_symop_operation_xyz
x,y,z
-x,-y,-z
loop_
_atom_site_type_symbol
_atom_site_label
_atom_site_fract_x
_atom_site_fract_y
_atom_site_fract_z
Si Si1 0.120574 0.808737 0.600354
Si Si2 0.012516 0.731358 0.117774
Si Si3 0.401728 0.564175 0.942764
Si Si4 0.335875 0.082196 0.501837
Si Si5 0.384356 0.113375 0.133060
Si Si6 0.044981 0.792941 0.306197
Si Si7 0.314725 0.609220 0.674430
O O1 0.198595 0.992860 0.560806
O O2 0.277732 0.814523 0.660312
O O3 0.000000 0.500000 0.500000
O O4 0.992712 0.950246 0.671040
O O5 0.074634 0.660319 0.189236
O O6 0.801764 0.707267 0.127892
O O7 0.171429 0.036857 0.151590
O O8 0.000000 0.500000 0.000000
O O9 0.531346 0.623063 0.871238
O O10 0.500000 0.500000 0.000000
O O11 0.372058 0.837822 0.024515
O O12 0.235250 0.921530 0.384337
O O13 0.500000 0.000000 0.500000
O O14 0.388482 0.415820 0.574435
O O15 0.519523 0.186865 0.224572
O O16 0.876135 0.561831 0.309305
#
# Coordination Sequence:
#
# PCOD8021055 Si02
#       7
#     2   2   2   2   2   2   2
#     4  11  21  40  66  91 123 178 218 256 331 395
#     4  10  23  44  64  94 134 169 219 279 322 389
#     4  10  22  43  67  92 129 168 219 275 329 389
#     4  11  25  40  61  97 137 166 214 279 324 388
#     4  10  23  41  65  94 126 173 214 270 336 385
#     4  11  22  43  65  91 135 175 216 276 326 387
#     4  11  22  42  65  92 131 169 224 264 325 409
#
# _framework density 22.771004999999999
#
# number of rings (size 3 to 8) (size 9 to 14) (size 15 to 20)
#    0.000    1.429    4.286    0.857    4.000    2.286 
#    2.571    0.000    0.000    0.000    0.000    0.000 
#    0.000    0.000    0.000    0.000    0.000    0.000 
#
# Total GULP energy -173476.432616 kJ/mol
# GULP energy per Si atom -12391.173758 kJ/mol
# Density = 2.271918 g / cm^3
# Si number density = 22.771005 Si / 1000 Ang^3
#
#
#
# Elastic Constant Matrix: (Units=GPa)
#
#
# Indices 1 2 3 4 5 6 
#
# 1 130.0354 55.6155 40.6237 -14.1391 36.7635 8.7778
# 2 55.6155 85.2141 21.7814 -24.2351 17.2827 1.0186
# 3 40.6237 21.7814 122.9418 -30.1853 32.2704 -0.5648
# 4 -14.1391 -24.2351 -30.1853 38.2033 -5.9970 4.1734
# 5 36.7635 17.2827 32.2704 -5.9970 44.2021 0.6978
# 6 8.7778 1.0186 -0.5648 4.1734 0.6978 48.5545
#
#
#
# Elastic Compliance Matrix: (Units=1/GPa)
#
#
# Indices 1 2 3 4 5 6 
#
# 1 0.013314 -0.007334 -0.001708 -0.001986 -0.007197 -0.001999
# 2 -0.007334 0.019432 0.002087 0.011020 -0.001527 0.000017
# 3 -0.001708 0.002087 0.012575 0.009518 -0.007280 -0.000302
# 4 -0.001986 0.011020 0.009518 0.039636 -0.004180 -0.003108
# 5 -0.007197 -0.001527 -0.007280 -0.004180 0.033937 0.001120
# 6 -0.001999 0.000017 -0.000302 -0.003108 0.001120 0.021204
#
#
# Mechanical properties :
#
#
# Convention : Reuss Voigt Hill
#
# Bulk Modulus (GPa) = 31.83482 63.80362 47.81922
# Shear Modulus (GPa) = 30.39923 40.87001 35.63462
#
# Velocity S-wave (km/s) = 3.65773 4.24114 3.96019
# Velocity P-wave (km/s) = 5.64352 7.21550 6.47738
#
# Compressibility (1/GPa) = 0.03141215
#
# Stress axis : x y z
#
# Youngs Moduli (GPa) = 75.10672 51.46121 79.52371
#
# Poissons Ratio (x) = 0.37744 0.13579
# Poissons Ratio (y) = 0.55086 -0.16599
# Poissons Ratio (z) = 0.12825 -0.10742
#
# Static dielectric constant tensor:
#      x y z
#    x 4.473890 0.129390 0.088680 
#    y 0.129390 4.845010 -0.225290 
#    z 0.088680 -0.225290 4.465900 
# 
# 
# High freq. dielectric constant tensor:
#      x y z
#    x 1.886470 0.015050 0.015800 
#    y 0.015050 1.888910 -0.012710 
#    z 0.015800 -0.012710 1.915890 
# 
# From -- ./inp_files/35942.got.cif
#   From: 2010.06.25/outbox.cif.g09.slc.cpg/sg2_18_cif.got.tgz:35942.got - 2010.06.27 13:26:56.
