data_PCOD8021942
_publ_section_title
;
Structure prediction by ZEFSAII (Michael W. Deem and Ramdas Pophale) SiO2 
 PCOD8021942
Probable space group: P -1
;
_chemical_formula_sum "Si O2"
_cell_formula_units_Z 14
_cell_length_a 9.565084
_cell_length_b 14.207935
_cell_length_c 11.524645
_cell_angle_alpha 149.806375
_cell_angle_beta 122.696779
_cell_angle_gamma 51.654888
_cell_volume 617.736386
_symmetry_space_group_name_H-M "P -1"
_symmetry_group_IT_number 2
_symmetry_cell_setting 'triclinic'
loop_
_space_group_symop_operation_xyz
x,y,z
-x,-y,-z
loop_
_atom_site_type_symbol
_atom_site_label
_atom_site_fract_x
_atom_site_fract_y
_atom_site_fract_z
Si Si1 0.874982 0.412032 0.917311
Si Si2 0.986273 0.224304 0.240710
Si Si3 0.913204 0.739425 0.932617
Si Si4 0.705687 0.469640 0.550644
Si Si5 0.069688 0.867262 0.544308
Si Si6 0.260656 0.084695 0.407386
Si Si7 0.470112 0.322030 0.867321
O O1 0.904476 0.186769 0.640394
O O2 0.673189 0.567788 0.980338
O O3 0.000000 0.500000 0.000000
O O4 0.924428 0.398105 0.060721
O O5 0.012411 0.302733 0.209696
O O6 0.148563 0.212758 0.386085
O O7 0.796053 0.361840 0.355963
O O8 0.000000 0.000000 0.000000
O O9 0.737741 0.680731 0.799322
O O10 0.857622 0.965477 0.196842
O O11 0.500000 0.500000 0.500000
O O12 0.803381 0.341098 0.566591
O O13 0.866938 0.909187 0.534252
O O14 0.401820 0.188439 0.607687
O O15 0.357175 0.842725 0.168222
O O16 0.500000 0.500000 0.000000
#
# Coordination Sequence:
#
# PCOD8021942 Si02
#       7
#     2   2   2   2   2   2   2
#     4  12  23  46  72 100 140 182 233 287 347 408
#     4  11  23  47  74  99 139 188 228 284 343 421
#     4  12  24  46  76  97 137 193 231 276 358 415
#     4  11  25  45  70 105 142 177 231 288 347 416
#     4  11  23  47  70  99 133 188 231 283 345 412
#     4  10  22  44  70  99 139 171 230 285 337 408
#     4  11  24  42  70 105 132 177 230 285 341 404
#
# _framework density 22.663388000000001
#
# number of rings (size 3 to 8) (size 9 to 14) (size 15 to 20)
#    0.000    0.857    5.714    2.571    0.000    1.714 
#    2.571    0.000    0.000    0.000    0.000    0.000 
#    0.000    0.000    0.000    0.000    0.000    0.000 
#
# Total GULP energy -173530.044447 kJ/mol
# GULP energy per Si atom -12395.003175 kJ/mol
# Density = 2.261181 g / cm^3
# Si number density = 22.663388 Si / 1000 Ang^3
#
#
#
# Elastic Constant Matrix: (Units=GPa)
#
#
# Indices 1 2 3 4 5 6 
#
# 1 144.2644 60.6946 68.4956 9.9372 -2.3357 -16.1043
# 2 60.6946 81.9892 33.0294 5.6903 -21.0899 -7.0454
# 3 68.4956 33.0294 149.0087 4.6716 -1.1416 -6.4923
# 4 9.9372 5.6903 4.6716 39.4872 3.4804 -7.3104
# 5 -2.3357 -21.0899 -1.1416 3.4804 50.4024 3.6560
# 6 -16.1043 -7.0454 -6.4923 -7.3104 3.6560 33.8929
#
#
#
# Elastic Compliance Matrix: (Units=1/GPa)
#
#
# Indices 1 2 3 4 5 6 
#
# 1 0.012632 -0.008274 -0.003815 -0.000554 -0.003199 0.003777
# 2 -0.008274 0.020846 -0.000742 -0.001778 0.008521 -0.001043
# 3 -0.003815 -0.000742 0.008614 0.000020 -0.000273 -0.000283
# 4 -0.000554 -0.001778 0.000020 0.027008 -0.003035 0.005524
# 5 -0.003199 0.008521 -0.000273 -0.003035 0.023679 -0.003010
# 6 0.003777 -0.001043 -0.000283 0.005524 -0.003010 0.032544
#
#
# Mechanical properties :
#
#
# Convention : Reuss Voigt Hill
#
# Bulk Modulus (GPa) = 60.86309 77.74461 69.30385
# Shear Modulus (GPa) = 31.95628 38.95935 35.45782
#
# Velocity S-wave (km/s) = 3.75912 4.15063 3.95972
# Velocity P-wave (km/s) = 6.76424 7.57290 7.17996
#
# Compressibility (1/GPa) = 0.01643032
#
# Stress axis : x y z
#
# Youngs Moduli (GPa) = 79.16222 47.96998 116.08776
#
# Poissons Ratio (x) = 0.39691 0.44290
# Poissons Ratio (y) = 0.65501 0.08611
# Poissons Ratio (z) = 0.30202 0.03558
#
# Static dielectric constant tensor:
#      x y z
#    x 2.937140 0.759980 0.461570 
#    y 0.759980 1.883330 -0.288090 
#    z 0.461570 -0.288090 4.428760 
# 
# 
# High freq. dielectric constant tensor:
#      x y z
#    x 1.884480 0.006780 0.006250 
#    y 0.006780 1.888040 0.007560 
#    z 0.006250 0.007560 1.917830 
# 
# From -- ./inp_files/190446.got.cif
#   From: 2010.06.25/outbox.cif.g09.slc.cpg/sg2_96_cif.got.tgz:190446.got - 2010.06.27 13:26:56.
