data_PCOD8021896
_publ_section_title
;
Structure prediction by ZEFSAII (Michael W. Deem and Ramdas Pophale) SiO2 
 PCOD8021896
Probable space group: P -1
;
_chemical_formula_sum "Si O2"
_cell_formula_units_Z 14
_cell_length_a 7.849452
_cell_length_b 16.850903
_cell_length_c 16.732774
_cell_angle_alpha 157.130767
_cell_angle_beta 46.975359
_cell_angle_gamma 133.271342
_cell_volume 616.126320
_symmetry_space_group_name_H-M "P -1"
_symmetry_group_IT_number 2
_symmetry_cell_setting 'triclinic'
loop_
_space_group_symop_operation_xyz
x,y,z
-x,-y,-z
loop_
_atom_site_type_symbol
_atom_site_label
_atom_site_fract_x
_atom_site_fract_y
_atom_site_fract_z
Si Si1 0.004833 0.848965 0.431914
Si Si2 0.230428 0.790356 0.871675
Si Si3 0.468430 0.473608 0.740038
Si Si4 0.052201 0.630393 0.490782
Si Si5 0.360787 0.216792 0.157915
Si Si6 0.918623 0.986734 0.269700
Si Si7 0.457650 0.649754 0.081582
O O1 0.210814 0.719800 0.238124
O O2 0.762798 0.680282 0.361430
O O3 0.044857 0.002606 0.637429
O O4 0.000000 0.000000 0.500000
O O5 0.466695 0.715571 0.757671
O O6 0.036918 0.604776 0.727577
O O7 0.126472 0.890437 0.074496
O O8 0.294545 0.964559 0.942745
O O9 0.685903 0.356401 0.544825
O O10 0.509638 0.690700 0.878837
O O11 0.446973 0.521780 0.884476
O O12 0.878577 0.691469 0.670278
O O13 0.067578 0.779201 0.547650
O O14 0.664373 0.852787 0.202300
O O15 0.500000 0.500000 0.000000
#
# Coordination Sequence:
#
# PCOD8021896 Si02
#       7
#     2   2   2   2   2   2   2
#     4  12  27  45  69 106 141 179 240 298 344 404
#     4  10  22  44  70 102 139 183 227 278 349 425
#     4  12  25  43  71 103 143 177 228 295 346 402
#     4  11  22  46  68 104 139 185 223 278 354 424
#     4  10  24  40  69 105 138 179 229 283 342 421
#     4  11  24  45  74  97 139 186 230 279 352 418
#     4  12  26  47  73 100 139 190 239 285 347 416
#
# _framework density 22.722611000000001
#
# number of rings (size 3 to 8) (size 9 to 14) (size 15 to 20)
#    0.000    0.857    1.429    5.143    4.000    2.857 
#    2.571    0.000    0.000    0.000    0.000    0.000 
#    0.000    0.000    0.000    0.000    0.000    0.000 
#
# Total GULP energy -173683.657850 kJ/mol
# GULP energy per Si atom -12405.975561 kJ/mol
# Density = 2.267089 g / cm^3
# Si number density = 22.722611 Si / 1000 Ang^3
#
#
#
# Elastic Constant Matrix: (Units=GPa)
#
#
# Indices 1 2 3 4 5 6 
#
# 1 88.5496 30.9816 33.8683 -3.7007 -15.9059 16.4150
# 2 30.9816 109.4932 28.6412 10.0936 -17.0340 2.5874
# 3 33.8683 28.6412 71.9961 8.4836 -11.8482 5.2869
# 4 -3.7007 10.0936 8.4836 30.9240 2.5956 -4.0565
# 5 -15.9059 -17.0340 -11.8482 2.5956 39.9243 2.9395
# 6 16.4150 2.5874 5.2869 -4.0565 2.9395 57.4725
#
#
#
# Elastic Compliance Matrix: (Units=1/GPa)
#
#
# Indices 1 2 3 4 5 6 
#
# 1 0.016028 -0.002652 -0.006058 0.003651 0.003500 -0.003823
# 2 -0.002652 0.011338 -0.002283 -0.003668 0.003340 0.000027
# 3 -0.006058 -0.002283 0.018731 -0.005385 0.002551 -0.000401
# 4 0.003651 -0.003668 -0.005385 0.036117 -0.004233 0.002384
# 5 0.003500 0.003340 0.002551 -0.004233 0.029133 -0.003174
# 6 -0.003823 0.000027 -0.000401 0.002384 -0.003174 0.018858
#
#
# Mechanical properties :
#
#
# Convention : Reuss Voigt Hill
#
# Bulk Modulus (GPa) = 41.47528 50.78013 46.12770
# Shear Modulus (GPa) = 31.20560 37.43403 34.31982
#
# Velocity S-wave (km/s) = 3.70986 4.06326 3.89058
# Velocity P-wave (km/s) = 6.05337 6.66407 6.36605
#
# Compressibility (1/GPa) = 0.02411075
#
# Stress axis : x y z
#
# Youngs Moduli (GPa) = 62.39043 88.20160 53.38615
#
# Poissons Ratio (x) = 0.23393 0.32343
# Poissons Ratio (y) = 0.16547 0.12187
# Poissons Ratio (z) = 0.37798 0.20135
#
# Static dielectric constant tensor:
#      x y z
#    x 4.104010 0.138400 -0.185610 
#    y 0.138400 4.400600 0.061330 
#    z -0.185610 0.061330 3.984610 
# 
# 
# High freq. dielectric constant tensor:
#      x y z
#    x 1.905540 0.006670 -0.013010 
#    y 0.006670 1.918270 0.007280 
#    z -0.013010 0.007280 1.891840 
# 
# From -- ./inp_files/562117.got.cif
#   From: 2010.06.25/outbox.cif.g09.slc.cpg/sg2_282_cif.got.tgz:562117.got - 2010.06.27 13:26:56.
