data_PCOD8021221
_publ_section_title
;
Structure prediction by ZEFSAII (Michael W. Deem and Ramdas Pophale) SiO2 
 PCOD8021221
Probable space group: P -1
;
_chemical_formula_sum "Si O2"
_cell_formula_units_Z 16
_cell_length_a 18.777610
_cell_length_b 21.210194
_cell_length_c 9.446023
_cell_angle_alpha 37.738198
_cell_angle_beta 139.143777
_cell_angle_gamma 161.602502
_cell_volume 726.381633
_symmetry_space_group_name_H-M "P -1"
_symmetry_group_IT_number 2
_symmetry_cell_setting 'triclinic'
loop_
_space_group_symop_operation_xyz
x,y,z
-x,-y,-z
loop_
_atom_site_type_symbol
_atom_site_label
_atom_site_fract_x
_atom_site_fract_y
_atom_site_fract_z
Si Si1 0.147547 0.870315 0.751976
Si Si2 0.961185 0.445163 0.874689
Si Si3 0.763358 0.440102 0.376889
Si Si4 0.830093 0.712156 0.346157
Si Si5 0.996480 0.942531 0.920707
Si Si6 0.449071 0.294176 0.353396
Si Si7 0.411135 0.811674 0.717457
Si Si8 0.131895 0.887765 0.019170
O O1 0.936919 0.720548 0.600626
O O2 0.369252 0.115500 0.601677
O O3 0.188687 0.782397 0.962766
O O4 0.086651 0.856313 0.841672
O O5 0.816139 0.414716 0.638538
O O6 0.198332 0.628210 0.826497
O O7 0.000000 0.500000 0.000000
O O8 0.602440 0.400866 0.255290
O O9 0.645962 0.277466 0.366001
O O10 0.999743 0.680266 0.250794
O O11 0.587495 0.466402 0.378238
O O12 0.996081 0.859724 0.196014
O O13 0.809397 0.809538 0.210484
O O14 0.756355 0.801238 0.821252
O O15 0.035758 0.916173 0.881212
O O16 0.500000 0.000000 0.500000
O O17 0.605668 0.903517 0.917014
#
# Coordination Sequence:
#
# PCOD8021221 Si02
#       8
#     2   2   2   2   2   2   2   2
#     4  11  27  45  67 106 145 176 236 287 345 417
#     4  12  27  48  72 103 144 181 229 296 345 411
#     4  12  26  46  74 103 141 187 236 281 338 419
#     4  10  22  43  69 101 139 175 237 284 334 408
#     4  10  24  44  74 102 140 182 238 284 337 416
#     4  11  25  43  76 105 138 184 238 281 345 412
#     4  12  27  46  72 101 137 189 234 282 350 411
#     4  12  26  46  72 102 146 185 228 288 345 412
#
# _framework density 22.026990000000001
#
# number of rings (size 3 to 8) (size 9 to 14) (size 15 to 20)
#    0.000    0.750    3.750    2.250   10.500    2.500 
#    0.000    1.250    0.000    0.000    0.000    0.000 
#    0.000    0.000    0.000    0.000    0.000    0.000 
#
# Total GULP energy -198442.822255 kJ/mol
# GULP energy per Si atom -12402.676391 kJ/mol
# Density = 2.197686 g / cm^3
# Si number density = 22.026990 Si / 1000 Ang^3
#
#
#
# Elastic Constant Matrix: (Units=GPa)
#
#
# Indices 1 2 3 4 5 6 
#
# 1 136.1136 49.9608 27.7277 24.3148 -12.9622 -12.2036
# 2 49.9608 121.8451 37.3619 5.8785 2.4771 -21.1760
# 3 27.7277 37.3619 76.7857 11.1435 -15.0174 3.4897
# 4 24.3148 5.8785 11.1435 33.2120 -5.1952 4.7099
# 5 -12.9622 2.4771 -15.0174 -5.1952 34.3091 4.3633
# 6 -12.2036 -21.1760 3.4897 4.7099 4.3633 41.9990
#
#
#
# Elastic Compliance Matrix: (Units=1/GPa)
#
#
# Indices 1 2 3 4 5 6 
#
# 1 0.010338 -0.003467 -0.000655 -0.006572 0.002649 0.001772
# 2 -0.003467 0.012862 -0.006535 0.000611 -0.005841 0.006559
# 3 -0.000655 -0.006535 0.018777 -0.002484 0.008790 -0.005680
# 4 -0.006572 0.000611 -0.002484 0.036895 0.002712 -0.005815
# 5 0.002649 -0.005841 0.008790 0.002712 0.035707 -0.006919
# 6 0.001772 0.006559 -0.005680 -0.005815 -0.006919 0.029475
#
#
# Mechanical properties :
#
#
# Convention : Reuss Voigt Hill
#
# Bulk Modulus (GPa) = 48.39610 62.76059 55.57835
# Shear Modulus (GPa) = 29.02655 36.55028 32.78842
#
# Velocity S-wave (km/s) = 3.63405 4.07792 3.86237
# Velocity P-wave (km/s) = 6.29503 7.12229 6.72140
#
# Compressibility (1/GPa) = 0.02066282
#
# Stress axis : x y z
#
# Youngs Moduli (GPa) = 96.73170 77.74947 53.25584
#
# Poissons Ratio (x) = 0.26955 0.03488
# Poissons Ratio (y) = 0.33536 0.34804
# Poissons Ratio (z) = 0.06335 0.50812
#
# Static dielectric constant tensor:
#      x y z
#    x 4.007320 -0.236280 -0.004260 
#    y -0.236280 4.153070 -0.172520 
#    z -0.004260 -0.172520 4.015440 
# 
# 
# High freq. dielectric constant tensor:
#      x y z
#    x 1.871210 -0.020710 0.001350 
#    y -0.020710 1.875360 -0.004110 
#    z 0.001350 -0.004110 1.869780 
# 
# From -- ./inp_files/338093.got.cif
#   From: 2010.06.25/outbox.cif.g09.slc.cpg/sg2_170_cif.got.tgz:338093.got - 2010.06.27 13:26:56.
