data_PCOD8021230
_publ_section_title
;
Structure prediction by ZEFSAII (Michael W. Deem and Ramdas Pophale) SiO2 
 PCOD8021230
Probable space group: P -1
;
_chemical_formula_sum "Si O2"
_cell_formula_units_Z 16
_cell_length_a 12.488722
_cell_length_b 5.276056
_cell_length_c 12.148356
_cell_angle_alpha 102.096623
_cell_angle_beta 125.294222
_cell_angle_gamma 92.535168
_cell_volume 624.977763
_symmetry_space_group_name_H-M "P -1"
_symmetry_group_IT_number 2
_symmetry_cell_setting 'triclinic'
loop_
_space_group_symop_operation_xyz
x,y,z
-x,-y,-z
loop_
_atom_site_type_symbol
_atom_site_label
_atom_site_fract_x
_atom_site_fract_y
_atom_site_fract_z
Si Si1 0.448967 0.759838 0.027597
Si Si2 0.495906 0.558251 0.375827
Si Si3 0.154205 0.120105 0.587145
Si Si4 0.192819 0.473352 0.198275
Si Si5 0.162259 0.473154 0.818845
Si Si6 0.090628 0.331554 0.347791
Si Si7 0.012704 0.182058 0.900937
Si Si8 0.403927 0.958665 0.659361
O O1 0.501318 0.834713 0.187009
O O2 0.500000 0.500000 0.000000
O O3 0.287468 0.716436 0.926931
O O4 0.500000 0.000000 0.000000
O O5 0.500000 0.500000 0.500000
O O6 0.341164 0.520575 0.242331
O O7 0.573340 0.862976 0.423869
O O8 0.558600 0.327108 0.336606
O O9 0.211353 0.264336 0.746897
O O10 0.169893 0.301138 0.503121
O O11 0.246831 0.906292 0.597971
O O12 0.000000 0.000000 0.500000
O O13 0.198846 0.482526 0.337041
O O14 0.121378 0.710523 0.141240
O O15 0.099056 0.191715 0.069138
O O16 0.118531 0.386856 0.908190
O O17 0.031879 0.529856 0.682342
O O18 0.017282 0.072023 0.215587
#
# Coordination Sequence:
#
# PCOD8021230 Si02
#       8
#     2   2   2   2   2   2   2   2
#     4  12  27  48  76 105 152 199 251 309 367 450
#     4  12  28  49  78 107 151 194 250 313 377 451
#     4  12  26  46  73 104 151 190 245 303 372 448
#     4  10  24  43  69 101 139 185 242 306 362 429
#     4  11  25  44  71 108 143 194 240 306 375 439
#     4  11  24  40  72 103 139 188 241 297 365 445
#     4  10  22  43  69 103 141 182 245 296 369 433
#     4  12  29  49  75 112 146 203 252 305 379 451
#
# _framework density 25.600909999999999
#
# number of rings (size 3 to 8) (size 9 to 14) (size 15 to 20)
#    0.000    0.750    2.500    3.375    8.750    1.000 
#    0.000    0.000    0.000    0.000    0.000    0.000 
#    0.000    0.000    0.000    0.000    0.000    0.000 
#
# Total GULP energy -198321.438049 kJ/mol
# GULP energy per Si atom -12395.089878 kJ/mol
# Density = 2.554264 g / cm^3
# Si number density = 25.600910 Si / 1000 Ang^3
#
#
#
# Elastic Constant Matrix: (Units=GPa)
#
#
# Indices 1 2 3 4 5 6 
#
# 1 158.5162 28.6360 20.0172 -7.8649 30.0844 -17.4913
# 2 28.6360 79.2089 -21.6297 -10.6394 4.4784 -10.7898
# 3 20.0172 -21.6297 66.0939 -12.3649 -5.5002 -4.3459
# 4 -7.8649 -10.6394 -12.3649 31.9739 -0.7076 4.0339
# 5 30.0844 4.4784 -5.5002 -0.7076 43.9387 8.5630
# 6 -17.4913 -10.7898 -4.3459 4.0339 8.5630 33.2396
#
#
#
# Elastic Compliance Matrix: (Units=1/GPa)
#
#
# Indices 1 2 3 4 5 6 
#
# 1 0.009607 -0.003802 -0.004751 -0.001597 -0.007867 0.005421
# 2 -0.003802 0.017925 0.008868 0.008025 0.001301 0.003669
# 3 -0.004751 0.008868 0.021862 0.010265 0.005120 0.000672
# 4 -0.001597 0.008025 0.010265 0.037852 0.002590 -0.002154
# 5 -0.007867 0.001301 0.005120 0.002590 0.030903 -0.011324
# 6 0.005421 0.003669 0.000672 -0.002154 -0.011324 0.037394
#
#
# Mechanical properties :
#
#
# Convention : Reuss Voigt Hill
#
# Bulk Modulus (GPa) = 19.98995 39.76289 29.87642
# Shear Modulus (GPa) = 29.13972 40.28349 34.71161
#
# Velocity S-wave (km/s) = 3.37743 3.97106 3.68621
# Velocity P-wave (km/s) = 4.79944 6.04908 5.46012
#
# Compressibility (1/GPa) = 0.05002515
#
# Stress axis : x y z
#
# Youngs Moduli (GPa) = 104.08740 55.78757 45.74187
#
# Poissons Ratio (x) = 0.21210 0.21732
# Poissons Ratio (y) = 0.39573 -0.40566
# Poissons Ratio (z) = 0.49452 -0.49474
#
# Static dielectric constant tensor:
#      x y z
#    x 5.117420 -0.090770 -0.375970 
#    y -0.090770 4.828940 -0.143140 
#    z -0.375970 -0.143140 5.376080 
# 
# 
# High freq. dielectric constant tensor:
#      x y z
#    x 2.042720 -0.000730 -0.003170 
#    y -0.000730 2.010320 -0.001130 
#    z -0.003170 -0.001130 2.035140 
# 
# From -- ./inp_files/410358.got.cif
#   From: 2010.06.25/outbox.cif.g09.slc.cpg/sg2_206_cif.got.tgz:410358.got - 2010.06.27 13:26:56.
