data_PCOD8021482
_publ_section_title
;
Structure prediction by ZEFSAII (Michael W. Deem and Ramdas Pophale) SiO2 
 PCOD8021482
Probable space group: P -1
;
_chemical_formula_sum "Si O2"
_cell_formula_units_Z 16
_cell_length_a 15.701120
_cell_length_b 9.606517
_cell_length_c 5.402219
_cell_angle_alpha 89.905271
_cell_angle_beta 64.757179
_cell_angle_gamma 114.260336
_cell_volume 656.296783
_symmetry_space_group_name_H-M "P -1"
_symmetry_group_IT_number 2
_symmetry_cell_setting 'triclinic'
loop_
_space_group_symop_operation_xyz
x,y,z
-x,-y,-z
loop_
_atom_site_type_symbol
_atom_site_label
_atom_site_fract_x
_atom_site_fract_y
_atom_site_fract_z
Si Si1 0.413751 0.193067 0.835221
Si Si2 0.044952 0.748761 0.908926
Si Si3 0.356622 0.640653 0.468870
Si Si4 0.671433 0.098046 0.789928
Si Si5 0.123143 0.666546 0.299126
Si Si6 0.828634 0.579973 0.959553
Si Si7 0.769975 0.933065 0.325754
Si Si8 0.296981 0.337799 0.248283
O O1 0.525261 0.296489 0.556118
O O2 0.307340 0.126994 0.809955
O O3 0.395182 0.304229 0.056265
O O4 0.424073 0.045636 0.949449
O O5 0.083576 0.691447 0.616251
O O6 0.109883 0.935777 0.879750
O O7 0.054639 0.663616 0.145357
O O8 0.920648 0.697970 0.026908
O O9 0.360385 0.792423 0.334054
O O10 0.263998 0.565907 0.781892
O O11 0.344424 0.515584 0.276196
O O12 0.757123 0.200698 0.890544
O O13 0.724037 0.016449 0.561497
O O14 0.122778 0.497082 0.299990
O O15 0.781202 0.683786 0.884894
O O16 0.772279 0.782285 0.450593
#
# Coordination Sequence:
#
# PCOD8021482 Si02
#       8
#     2   2   2   2   2   2   2   2
#     4  11  24  47  72  99 142 197 238 300 367 431
#     4  11  25  44  79 106 149 192 241 301 371 434
#     4  12  26  44  70 108 144 184 248 303 363 434
#     4  10  22  43  74 104 140 180 241 306 360 431
#     4  11  22  45  74 109 148 189 237 305 372 432
#     4  12  26  42  69 107 146 187 239 301 362 436
#     4  10  23  46  70 101 141 192 242 291 367 435
#     4  11  26  45  68  99 148 191 243 298 359 439
#
# _framework density 24.379214999999999
#
# number of rings (size 3 to 8) (size 9 to 14) (size 15 to 20)
#    0.000    1.000    2.500    3.750    1.750    5.000 
#    0.000    2.500    0.000    0.000    0.000    0.000 
#    0.000    0.000    0.000    0.000    0.000    0.000 
#
# Total GULP energy -198277.459263 kJ/mol
# GULP energy per Si atom -12392.341204 kJ/mol
# Density = 2.432373 g / cm^3
# Si number density = 24.379215 Si / 1000 Ang^3
#
#
#
# Elastic Constant Matrix: (Units=GPa)
#
#
# Indices 1 2 3 4 5 6 
#
# 1 82.4223 45.4962 35.8081 -20.6677 12.4254 -8.0916
# 2 45.4962 190.8820 57.8335 -2.2078 -19.6914 -19.5010
# 3 35.8081 57.8335 97.8702 -6.8918 7.3027 -2.2783
# 4 -20.6677 -2.2078 -6.8918 39.9584 0.7726 9.1697
# 5 12.4254 -19.6914 7.3027 0.7726 34.9475 -11.6458
# 6 -8.0916 -19.5010 -2.2783 9.1697 -11.6458 29.2136
#
#
#
# Elastic Compliance Matrix: (Units=1/GPa)
#
#
# Indices 1 2 3 4 5 6 
#
# 1 0.020892 -0.006338 -0.002228 0.012110 -0.013385 -0.007755
# 2 -0.006338 0.011133 -0.005498 -0.006882 0.014179 0.013060
# 3 -0.002228 -0.005498 0.014908 0.002915 -0.007878 -0.007181
# 4 0.012110 -0.006882 0.002915 0.035986 -0.015787 -0.018601
# 5 -0.013385 0.014179 -0.007878 -0.015787 0.053881 0.031578
# 6 -0.007755 0.013060 -0.007181 -0.018601 0.031578 0.058667
#
#
# Mechanical properties :
#
#
# Convention : Reuss Voigt Hill
#
# Bulk Modulus (GPa) = 53.17765 72.16112 62.66938
# Shear Modulus (GPa) = 21.75212 36.29303 29.02257
#
# Velocity S-wave (km/s) = 2.99028 3.86254 3.45405
# Velocity P-wave (km/s) = 5.81226 7.03960 6.45517
#
# Compressibility (1/GPa) = 0.01880489
#
# Stress axis : x y z
#
# Youngs Moduli (GPa) = 47.86527 89.82599 67.07891
#
# Poissons Ratio (x) = 0.56928 0.14944
# Poissons Ratio (y) = 0.30335 0.36883
# Poissons Ratio (z) = 0.10664 0.49390
#
# Static dielectric constant tensor:
#      x y z
#    x 4.387900 0.157030 -0.131700 
#    y 0.157030 4.764180 -0.422320 
#    z -0.131700 -0.422320 4.133120 
# 
# 
# High freq. dielectric constant tensor:
#      x y z
#    x 1.967760 0.010010 0.000310 
#    y 0.010010 1.988840 -0.005510 
#    z 0.000310 -0.005510 1.955620 
# 
# From -- ./inp_files/90079.got.cif
#   From: 2010.06.25/outbox.cif.g09.slc.cpg/sg2_46_cif.got.tgz:90079.got - 2010.06.27 13:26:56.
