data_PCOD8021383
_publ_section_title
;
Structure prediction by ZEFSAII (Michael W. Deem and Ramdas Pophale) SiO2 
 PCOD8021383
Probable space group: P -1
;
_chemical_formula_sum "Si O2"
_cell_formula_units_Z 16
_cell_length_a 14.148023
_cell_length_b 7.843437
_cell_length_c 13.705821
_cell_angle_alpha 131.909258
_cell_angle_beta 138.344291
_cell_angle_gamma 41.579514
_cell_volume 650.056011
_symmetry_space_group_name_H-M "P -1"
_symmetry_group_IT_number 2
_symmetry_cell_setting 'triclinic'
loop_
_space_group_symop_operation_xyz
x,y,z
-x,-y,-z
loop_
_atom_site_type_symbol
_atom_site_label
_atom_site_fract_x
_atom_site_fract_y
_atom_site_fract_z
Si Si1 0.755537 0.679256 0.613755
Si Si2 0.548665 0.554380 0.954762
Si Si3 0.819689 0.135248 0.871218
Si Si4 0.820354 0.583221 0.931711
Si Si5 0.777225 0.366463 0.323476
Si Si6 0.730279 0.762298 0.276335
Si Si7 0.918778 0.794090 0.259703
Si Si8 0.528973 0.746081 0.624498
O O1 0.759053 0.570752 0.468967
O O2 0.577734 0.788001 0.569274
O O3 0.894727 0.447881 0.701616
O O4 0.789812 0.916964 0.715452
O O5 0.693204 0.282693 0.917610
O O6 0.386065 0.661389 0.804707
O O7 0.500000 0.500000 0.000000
O O8 0.607309 0.767267 0.099061
O O9 0.803274 0.331417 0.848101
O O10 0.000000 0.000000 0.000000
O O11 0.673388 0.735634 0.800071
O O12 0.797259 0.759357 0.077668
O O13 0.000000 0.500000 0.000000
O O14 0.804700 0.482517 0.287101
O O15 0.921252 0.065029 0.341047
O O16 0.869785 0.784955 0.332145
O O17 0.640609 0.004134 0.374824
O O18 0.500000 0.500000 0.500000
#
# Coordination Sequence:
#
# PCOD8021383 Si02
#       8
#     2   2   2   2   2   2   2   2
#     4  12  26  48  69 110 152 193 247 312 369 452
#     4  10  22  43  71 105 140 188 245 303 362 447
#     4  12  24  45  77 106 143 190 251 306 371 446
#     4  12  26  48  76 107 145 200 245 311 376 438
#     4  11  27  43  74 106 150 196 238 306 382 433
#     4  11  25  47  72 106 146 193 250 307 365 452
#     4  12  25  49  74 105 149 194 256 304 365 452
#     4  12  28  47  74 112 152 190 253 310 374 445
#
# _framework density 24.613263
#
# number of rings (size 3 to 8) (size 9 to 14) (size 15 to 20)
#    0.000    0.500    3.750    3.375    5.250    6.500 
#    0.000    0.000    0.000    0.000    0.000    0.000 
#    0.000    0.000    0.000    0.000    0.000    0.000 
#
# Total GULP energy -198369.924868 kJ/mol
# GULP energy per Si atom -12398.120304 kJ/mol
# Density = 2.455724 g / cm^3
# Si number density = 24.613263 Si / 1000 Ang^3
#
#
#
# Elastic Constant Matrix: (Units=GPa)
#
#
# Indices 1 2 3 4 5 6 
#
# 1 129.9636 45.6668 24.9250 16.1863 2.1667 5.3255
# 2 45.6668 85.9372 9.7039 35.8041 -1.0524 1.6431
# 3 24.9250 9.7039 117.4702 32.1806 -3.9916 4.8995
# 4 16.1863 35.8041 32.1806 46.8821 2.7060 5.4067
# 5 2.1667 -1.0524 -3.9916 2.7060 30.6745 3.6248
# 6 5.3255 1.6431 4.8995 5.4067 3.6248 41.8328
#
#
#
# Elastic Compliance Matrix: (Units=1/GPa)
#
#
# Indices 1 2 3 4 5 6 
#
# 1 0.010114 -0.006520 -0.002557 0.003448 -0.001451 -0.001052
# 2 -0.006520 0.022172 0.004582 -0.018186 0.003245 0.001492
# 3 -0.002557 0.004582 0.011744 -0.010832 0.002830 -0.000075
# 4 0.003448 -0.018186 -0.010832 0.042181 -0.005594 -0.003423
# 5 -0.001451 0.003245 0.002830 -0.005594 0.033971 -0.002495
# 6 -0.001052 0.001492 -0.000075 -0.003423 -0.002495 0.024647
#
#
# Mechanical properties :
#
#
# Convention : Reuss Voigt Hill
#
# Bulk Modulus (GPa) = 28.53975 54.88471 41.71223
# Shear Modulus (GPa) = 30.21176 40.74957 35.48067
#
# Velocity S-wave (km/s) = 3.50731 4.07331 3.80086
# Velocity P-wave (km/s) = 5.29359 6.66856 6.02046
#
# Compressibility (1/GPa) = 0.03503885
#
# Stress axis : x y z
#
# Youngs Moduli (GPa) = 98.87572 45.10252 85.15270
#
# Poissons Ratio (x) = 0.29406 0.21776
# Poissons Ratio (y) = 0.64464 -0.39016
# Poissons Ratio (z) = 0.25285 -0.20666
#
# Static dielectric constant tensor:
#      x y z
#    x 4.497190 -0.308320 0.439980 
#    y -0.308320 4.491410 -0.414170 
#    z 0.439980 -0.414170 5.891770 
# 
# 
# High freq. dielectric constant tensor:
#      x y z
#    x 1.982740 -0.004370 -0.000930 
#    y -0.004370 1.969920 0.008340 
#    z -0.000930 0.008340 1.996410 
# 
# From -- ./inp_files/530261.got.cif
#   From: 2010.06.25/outbox.cif.g09.slc.cpg/sg2_266_cif.got.tgz:530261.got - 2010.06.27 13:26:56.
