data_PCOD8021264
_publ_section_title
;
Structure prediction by ZEFSAII (Michael W. Deem and Ramdas Pophale) SiO2 
 PCOD8021264
Probable space group: P -1
;
_chemical_formula_sum "Si O2"
_cell_formula_units_Z 14
_cell_length_a 9.844163
_cell_length_b 8.802294
_cell_length_c 10.913569
_cell_angle_alpha 83.898815
_cell_angle_beta 95.185942
_cell_angle_gamma 138.168372
_cell_volume 627.049640
_symmetry_space_group_name_H-M "P -1"
_symmetry_group_IT_number 2
_symmetry_cell_setting 'triclinic'
loop_
_space_group_symop_operation_xyz
x,y,z
-x,-y,-z
loop_
_atom_site_type_symbol
_atom_site_label
_atom_site_fract_x
_atom_site_fract_y
_atom_site_fract_z
Si Si1 0.915802 0.257671 0.749846
Si Si2 0.237303 0.692184 0.472541
Si Si3 0.915523 0.920756 0.761203
Si Si4 0.363341 0.143918 0.092860
Si Si5 0.662505 0.881469 0.182632
Si Si6 0.382048 0.499696 0.392290
Si Si7 0.322267 0.773597 0.740482
O O1 0.735864 0.167065 0.650179
O O2 0.088036 0.526697 0.756176
O O3 0.994730 0.158420 0.712901
O O4 0.799957 0.132452 0.880739
O O5 0.295748 0.573246 0.447118
O O6 0.366830 0.842243 0.592867
O O7 0.000000 0.500000 0.500000
O O8 0.748059 0.795626 0.868887
O O9 0.809533 0.755874 0.649995
O O10 0.102049 0.971051 0.813662
O O11 0.553366 0.262560 0.186348
O O12 0.429797 0.219381 0.952107
O O13 0.534397 0.670348 0.280944
O O14 0.641998 0.041411 0.199941
O O15 0.500000 0.500000 0.500000
#
# Coordination Sequence:
#
# PCOD8021264 Si02
#       7
#     2   2   2   2   2   2   2
#     4   9  23  41  71  96 131 175 219 264 337 389
#     4  10  22  43  69  96 130 176 216 266 335 388
#     4  10  25  44  68  96 137 174 216 275 328 394
#     4  10  24  43  69  98 131 179 222 268 330 391
#     4  12  27  43  68 101 133 176 224 272 330 389
#     4  12  28  44  68 102 134 172 224 275 333 392
#     4  11  23  43  70  97 133 172 223 278 322 394
#
# _framework density 22.326781
#
# number of rings (size 3 to 8) (size 9 to 14) (size 15 to 20)
#    0.857    0.571    0.000    4.286    8.000    4.000 
#    0.000    0.000    0.000    0.000    0.000    0.000 
#    0.000    0.000    0.000    0.000    0.000    0.000 
#
# Total GULP energy -173525.833439 kJ/mol
# GULP energy per Si atom -12394.702389 kJ/mol
# Density = 2.227596 g / cm^3
# Si number density = 22.326781 Si / 1000 Ang^3
#
#
#
# Elastic Constant Matrix: (Units=GPa)
#
#
# Indices 1 2 3 4 5 6 
#
# 1 132.2232 -2.8343 46.0714 -0.4370 4.9508 -2.6810
# 2 -2.8343 40.0607 9.1412 -3.7588 6.9538 -2.7133
# 3 46.0714 9.1412 140.2681 -8.9983 10.6538 6.9127
# 4 -0.4370 -3.7588 -8.9983 35.9842 0.9380 -0.9695
# 5 4.9508 6.9538 10.6538 0.9380 35.5877 8.9754
# 6 -2.6810 -2.7133 6.9127 -0.9695 8.9754 29.1955
#
#
#
# Elastic Compliance Matrix: (Units=1/GPa)
#
#
# Indices 1 2 3 4 5 6 
#
# 1 0.008727 0.001596 -0.003009 -0.000397 -0.001117 0.001992
# 2 0.001596 0.027212 -0.001897 0.002692 -0.006345 0.005165
# 3 -0.003009 -0.001897 0.008561 0.001886 -0.001316 -0.002013
# 4 -0.000397 0.002692 0.001886 0.028631 -0.002137 0.001375
# 5 -0.001117 -0.006345 -0.001316 -0.002137 0.032585 -0.010469
# 6 0.001992 0.005165 -0.002013 0.001375 -0.010469 0.038656
#
#
# Mechanical properties :
#
#
# Convention : Reuss Voigt Hill
#
# Bulk Modulus (GPa) = 26.40071 46.36763 36.38417
# Shear Modulus (GPa) = 30.55886 37.49839 34.02863
#
# Velocity S-wave (km/s) = 3.70362 4.10265 3.90823
# Velocity P-wave (km/s) = 5.48994 6.57686 6.05783
#
# Compressibility (1/GPa) = 0.03787777
#
# Stress axis : x y z
#
# Youngs Moduli (GPa) = 114.59296 36.74899 116.80457
#
# Poissons Ratio (x) = -0.05864 0.35147
# Poissons Ratio (y) = -0.18284 0.22162
# Poissons Ratio (z) = 0.34482 0.06973
#
# Static dielectric constant tensor:
#      x y z
#    x 3.909090 -0.029730 0.533220 
#    y -0.029730 3.799820 0.227810 
#    z 0.533220 0.227810 0.024130 
# 
# 
# High freq. dielectric constant tensor:
#      x y z
#    x 1.892820 0.006860 0.009740 
#    y 0.006860 1.874270 -0.001310 
#    z 0.009740 -0.001310 1.880680 
# 
# From -- ./inp_files/379245.got.cif
#   From: 2010.06.25/outbox.cif.g09.slc.cpg/sg2_190_cif.got.tgz:379245.got - 2010.06.27 13:26:56.
