data_PCOD8021858
_publ_section_title
;
Structure prediction by ZEFSAII (Michael W. Deem and Ramdas Pophale) SiO2 
 PCOD8021858
Probable space group: P -1
;
_chemical_formula_sum "Si O2"
_cell_formula_units_Z 16
_cell_length_a 8.751119
_cell_length_b 10.935030
_cell_length_c 11.567432
_cell_angle_alpha 128.135463
_cell_angle_beta 93.305889
_cell_angle_gamma 115.903096
_cell_volume 694.275125
_symmetry_space_group_name_H-M "P -1"
_symmetry_group_IT_number 2
_symmetry_cell_setting 'triclinic'
loop_
_space_group_symop_operation_xyz
x,y,z
-x,-y,-z
loop_
_atom_site_type_symbol
_atom_site_label
_atom_site_fract_x
_atom_site_fract_y
_atom_site_fract_z
Si Si1 0.434062 0.843028 0.506212
Si Si2 0.451914 0.532849 0.203976
Si Si3 0.022268 0.621945 0.463261
Si Si4 0.609426 0.833249 0.959785
Si Si5 0.196317 0.624204 0.904590
Si Si6 0.793259 0.672427 0.152444
Si Si7 0.017405 0.946763 0.743143
Si Si8 0.280006 0.001042 0.177148
O O1 0.396157 0.653086 0.338364
O O2 0.237393 0.778302 0.517610
O O3 0.500000 0.000000 0.500000
O O4 0.591562 0.923277 0.659312
O O5 0.402606 0.357590 0.182619
O O6 0.673448 0.664586 0.251967
O O7 0.330884 0.441450 0.030158
O O8 0.942248 0.744789 0.560485
O O9 0.000000 0.500000 0.500000
O O10 0.887392 0.450767 0.268752
O O11 0.429409 0.764073 0.993986
O O12 0.598157 0.924464 0.893591
O O13 0.801964 0.987430 0.130559
O O14 0.110702 0.433619 0.869259
O O15 0.143869 0.763307 0.033134
O O16 0.944401 0.899352 0.263621
O O17 0.846629 0.919830 0.793468
#
# Coordination Sequence:
#
# PCOD8021858 Si02
#       8
#     2   2   2   2   2   2   2   2
#     4  12  27  45  69  98 144 180 234 280 345 402
#     4   9  20  39  69  96 126 177 222 281 330 407
#     4  12  28  46  69 101 144 181 228 289 344 402
#     4  10  22  44  69  94 136 180 227 277 345 406
#     4  11  24  42  71  96 134 182 230 278 341 408
#     4   9  20  41  67  95 135 171 224 271 350 395
#     4  11  25  42  70  99 138 177 226 283 341 407
#     4  12  26  41  70 101 137 180 232 277 340 413
#
# _framework density 23.045618000000001
#
# number of rings (size 3 to 8) (size 9 to 14) (size 15 to 20)
#    0.000    1.250    0.000    5.250   10.500    1.500 
#    0.000    0.000    0.000    0.000    0.000    0.000 
#    0.000    0.000    0.000    0.000    0.000    0.000 
#
# Total GULP energy -198397.979872 kJ/mol
# GULP energy per Si atom -12399.873742 kJ/mol
# Density = 2.299317 g / cm^3
# Si number density = 23.045618 Si / 1000 Ang^3
#
#
#
# Elastic Constant Matrix: (Units=GPa)
#
#
# Indices 1 2 3 4 5 6 
#
# 1 77.2023 13.3038 51.4987 1.8199 -12.4194 -10.2034
# 2 13.3038 127.4344 14.6680 -6.0748 -4.2623 -18.9642
# 3 51.4987 14.6680 86.3468 10.6840 -11.9674 -8.6209
# 4 1.8199 -6.0748 10.6840 28.7602 -14.4764 -1.4992
# 5 -12.4194 -4.2623 -11.9674 -14.4764 49.8255 7.2294
# 6 -10.2034 -18.9642 -8.6209 -1.4992 7.2294 38.2225
#
#
#
# Elastic Compliance Matrix: (Units=1/GPa)
#
#
# Indices 1 2 3 4 5 6 
#
# 1 0.022751 -0.000061 -0.013483 0.005534 0.003669 0.002525
# 2 -0.000061 0.008764 -0.001315 0.002893 0.000676 0.004021
# 3 -0.013483 -0.001315 0.020696 -0.007455 -0.000705 0.000257
# 4 0.005534 0.002893 -0.007455 0.044165 0.012584 0.000584
# 5 0.003669 0.000676 -0.000705 0.012584 0.024975 -0.003075
# 6 0.002525 0.004021 0.000257 0.000584 -0.003075 0.029494
#
#
# Mechanical properties :
#
#
# Convention : Reuss Voigt Hill
#
# Bulk Modulus (GPa) = 44.45841 49.99162 47.22501
# Shear Modulus (GPa) = 26.58714 37.46250 32.02482
#
# Velocity S-wave (km/s) = 3.40026 4.03622 3.73181
# Velocity P-wave (km/s) = 5.89484 6.59250 6.25340
#
# Compressibility (1/GPa) = 0.02249293
#
# Stress axis : x y z
#
# Youngs Moduli (GPa) = 43.95438 114.10538 48.31766
#
# Poissons Ratio (x) = 0.00695 0.65146
# Poissons Ratio (y) = 0.00268 0.06355
# Poissons Ratio (z) = 0.59263 0.15008
#
# Static dielectric constant tensor:
#      x y z
#    x 4.095430 -0.083510 -0.194940 
#    y -0.083510 4.313460 0.130770 
#    z -0.194940 0.130770 4.008610 
# 
# 
# High freq. dielectric constant tensor:
#      x y z
#    x 1.911140 -0.013440 -0.009970 
#    y -0.013440 1.922080 0.003180 
#    z -0.009970 0.003180 1.906530 
# 
# From -- ./inp_files/185695.got.cif
#   From: 2010.06.25/outbox.cif.g09.slc.cpg/sg2_93_cif.got.tgz:185695.got - 2010.06.27 13:26:56.
