data_PCOD8021162
_publ_section_title
;
Structure prediction by ZEFSAII (Michael W. Deem and Ramdas Pophale) SiO2 
 PCOD8021162
Probable space group: P -1
;
_chemical_formula_sum "Si O2"
_cell_formula_units_Z 16
_cell_length_a 24.350474
_cell_length_b 8.152975
_cell_length_c 24.561190
_cell_angle_alpha 137.378276
_cell_angle_beta 167.842964
_cell_angle_gamma 43.406996
_cell_volume 694.473346
_symmetry_space_group_name_H-M "P -1"
_symmetry_group_IT_number 2
_symmetry_cell_setting 'triclinic'
loop_
_space_group_symop_operation_xyz
x,y,z
-x,-y,-z
loop_
_atom_site_type_symbol
_atom_site_label
_atom_site_fract_x
_atom_site_fract_y
_atom_site_fract_z
Si Si1 0.756511 0.694644 0.719479
Si Si2 0.086980 0.860228 0.981658
Si Si3 0.506011 0.764385 0.661133
Si Si4 0.201775 0.387306 0.921263
Si Si5 0.062958 0.755321 0.150710
Si Si6 0.689116 0.146011 0.390751
Si Si7 0.234303 0.163405 0.781221
Si Si8 0.247389 0.361537 0.730564
O O1 0.519863 0.532712 0.430944
O O2 0.875472 0.547718 0.855581
O O3 0.962259 0.706903 0.871857
O O4 0.675321 0.976488 0.724540
O O5 0.176581 0.677973 0.976021
O O6 0.908800 0.089649 0.840419
O O7 0.296665 0.865279 0.438935
O O8 0.435634 0.897231 0.681992
O O9 0.794224 0.827082 0.938981
O O10 0.181470 0.315018 0.821435
O O11 0.967410 0.266034 0.696767
O O12 0.486866 0.314921 0.201997
O O13 0.730656 0.901151 0.338210
O O14 0.231733 0.361236 0.780128
O O15 0.000000 0.000000 0.500000
O O16 0.500000 0.000000 0.000000
O O17 0.000000 0.500000 0.500000
O O18 0.500000 0.500000 0.000000
#
# Coordination Sequence:
#
# PCOD8021162 Si02
#       8
#     2   2   2   2   2   2   2   2
#     4   9  22  45  66  99 141 184 229 289 344 407
#     4  11  22  43  70 105 133 185 240 279 341 426
#     4  10  22  43  68  94 137 185 221 278 356 393
#     4  12  24  42  71 102 131 181 231 279 342 412
#     4  10  23  44  65  97 140 183 226 294 342 399
#     4  12  23  45  70  97 142 180 220 283 348 408
#     4  12  23  46  70  96 135 182 223 279 344 413
#     4  12  26  43  70 103 134 177 225 278 352 420
#
# _framework density 23.039042999999999
#
# number of rings (size 3 to 8) (size 9 to 14) (size 15 to 20)
#    0.750    0.250    3.750    3.375    0.000    3.500 
#    4.500    1.875    0.000    0.000    0.000    0.000 
#    0.000    0.000    0.000    0.000    0.000    0.000 
#
# Total GULP energy -198209.948462 kJ/mol
# GULP energy per Si atom -12388.121779 kJ/mol
# Density = 2.298660 g / cm^3
# Si number density = 23.039043 Si / 1000 Ang^3
#
#
#
# Elastic Constant Matrix: (Units=GPa)
#
#
# Indices 1 2 3 4 5 6 
#
# 1 123.6440 40.6180 7.4638 -5.0506 0.6022 5.6206
# 2 40.6180 99.2915 21.9583 -4.9257 -14.0356 -14.7412
# 3 7.4638 21.9583 106.6288 -10.5845 12.9673 4.9038
# 4 -5.0506 -4.9257 -10.5845 24.8373 -1.8301 -7.6666
# 5 0.6022 -14.0356 12.9673 -1.8301 31.7042 0.4827
# 6 5.6206 -14.7412 4.9038 -7.6666 0.4827 47.9060
#
#
#
# Elastic Compliance Matrix: (Units=1/GPa)
#
#
# Indices 1 2 3 4 5 6 
#
# 1 0.009813 -0.004948 0.000811 0.000338 -0.002648 -0.002676
# 2 -0.004948 0.015160 -0.003793 0.002859 0.008430 0.006006
# 3 0.000811 -0.003793 0.011243 0.003187 -0.006081 -0.001842
# 4 0.000338 0.002859 0.003187 0.044799 0.002425 0.007659
# 5 -0.002648 0.008430 -0.006081 0.002425 0.037897 0.003534
# 6 -0.002676 0.006006 -0.001842 0.007659 0.003534 0.024415
#
#
# Mechanical properties :
#
#
# Convention : Reuss Voigt Hill
#
# Bulk Modulus (GPa) = 49.12915 52.18272 50.65594
# Shear Modulus (GPa) = 30.12536 38.19112 34.15824
#
# Velocity S-wave (km/s) = 3.61997 4.07587 3.85466
# Velocity P-wave (km/s) = 6.23240 6.69695 6.46885
#
# Compressibility (1/GPa) = 0.02035451
#
# Stress axis : x y z
#
# Youngs Moduli (GPa) = 101.90813 65.96431 88.94146
#
# Poissons Ratio (x) = 0.32642 -0.07212
# Poissons Ratio (y) = 0.50428 0.33737
# Poissons Ratio (z) = -0.08264 0.25021
#
# Static dielectric constant tensor:
#      x y z
#    x 4.363960 0.334740 -0.169560 
#    y 0.334740 3.237040 -0.109700 
#    z -0.169560 -0.109700 4.141970 
# 
# 
# High freq. dielectric constant tensor:
#      x y z
#    x 1.929070 0.000690 -0.012390 
#    y 0.000690 1.901850 0.012700 
#    z -0.012390 0.012700 1.919070 
# 
# From -- ./inp_files/621188.got.cif
#   From: 2010.06.25/outbox.cif.g09.slc.cpg/sg2_311_cif.got.tgz:621188.got - 2010.06.27 13:26:56.
