data_PCOD8021207
_publ_section_title
;
Structure prediction by ZEFSAII (Michael W. Deem and Ramdas Pophale) SiO2 
 PCOD8021207
Probable space group: P -1
;
_chemical_formula_sum "Si O2"
_cell_formula_units_Z 16
_cell_length_a 9.441272
_cell_length_b 8.974682
_cell_length_c 13.126683
_cell_angle_alpha 90.097434
_cell_angle_beta 97.246306
_cell_angle_gamma 39.179374
_cell_volume 688.815857
_symmetry_space_group_name_H-M "P -1"
_symmetry_group_IT_number 2
_symmetry_cell_setting 'triclinic'
loop_
_space_group_symop_operation_xyz
x,y,z
-x,-y,-z
loop_
_atom_site_type_symbol
_atom_site_label
_atom_site_fract_x
_atom_site_fract_y
_atom_site_fract_z
Si Si1 0.174825 0.723284 0.436485
Si Si2 0.421158 0.380318 0.824646
Si Si3 0.920903 0.413452 0.043306
Si Si4 0.449119 0.260484 0.338660
Si Si5 0.713600 0.915788 0.748874
Si Si6 0.115676 0.820751 0.099506
Si Si7 0.186750 0.856373 0.739134
Si Si8 0.783642 0.995449 0.537511
O O1 0.264599 0.527413 0.366814
O O2 0.334393 0.737116 0.477976
O O3 0.975010 0.994382 0.372245
O O4 0.043144 0.756151 0.519197
O O5 0.480707 0.193495 0.756160
O O6 0.637168 0.310675 0.860679
O O7 0.232831 0.643244 0.758672
O O8 0.320554 0.386572 0.917958
O O9 0.110762 0.198912 0.141598
O O10 0.000000 0.500000 0.000000
O O11 0.871344 0.357804 0.938380
O O12 0.584124 0.236402 0.261975
O O13 0.606920 0.060181 0.442654
O O14 0.319941 0.232054 0.270332
O O15 0.794883 0.920042 0.650509
O O16 0.949359 0.960795 0.180162
O O17 0.000000 0.000000 0.000000
#
# Coordination Sequence:
#
# PCOD8021207 Si02
#       8
#     2   2   2   2   2   2   2   2
#     4  10  22  43  71 102 136 178 237 284 338 414
#     4  12  25  47  73  99 139 186 234 281 344 410
#     4  12  30  45  70 103 142 184 228 290 350 407
#     4  11  25  41  70 105 141 184 224 288 351 409
#     4  12  27  45  66 104 144 182 229 287 352 412
#     4  12  24  46  71 102 134 182 240 285 339 410
#     4  11  24  42  73 103 136 183 233 289 336 409
#     4  10  22  43  68  99 136 183 234 281 342 415
#
# _framework density 23.228269000000001
#
# number of rings (size 3 to 8) (size 9 to 14) (size 15 to 20)
#    0.000    0.750    2.500    4.125    5.250    5.000 
#    0.000    0.000    0.000    0.000    0.000    0.000 
#    0.000    0.000    0.000    0.000    0.000    0.000 
#
# Total GULP energy -198261.899147 kJ/mol
# GULP energy per Si atom -12391.368697 kJ/mol
# Density = 2.317540 g / cm^3
# Si number density = 23.228269 Si / 1000 Ang^3
#
#
#
# Elastic Constant Matrix: (Units=GPa)
#
#
# Indices 1 2 3 4 5 6 
#
# 1 107.5750 78.0009 31.5761 28.2896 -17.4798 8.0474
# 2 78.0009 115.3230 44.5499 40.4085 -15.1313 -0.8924
# 3 31.5761 44.5499 94.6515 16.9736 -19.6829 -8.0777
# 4 28.2896 40.4085 16.9736 46.6215 -2.7907 -6.2682
# 5 -17.4798 -15.1313 -19.6829 -2.7907 51.7428 10.7843
# 6 8.0474 -0.8924 -8.0777 -6.2682 10.7843 30.1377
#
#
#
# Elastic Compliance Matrix: (Units=1/GPa)
#
#
# Indices 1 2 3 4 5 6 
#
# 1 0.020177 -0.012133 -0.000294 -0.002416 0.004695 -0.008008
# 2 -0.012133 0.022183 -0.004526 -0.010140 0.000000 0.000574
# 3 -0.000294 -0.004526 0.013750 -0.000389 0.003292 0.002371
# 4 -0.002416 -0.010140 -0.000389 0.032747 -0.003925 0.008456
# 5 0.004695 0.000000 0.003292 -0.003925 0.023990 -0.009772
# 6 -0.008008 0.000574 0.002371 0.008456 -0.009772 0.041227
#
#
# Mechanical properties :
#
#
# Convention : Reuss Voigt Hill
#
# Bulk Modulus (GPa) = 45.03711 69.53371 57.28541
# Shear Modulus (GPa) = 25.59077 36.59524 31.09300
#
# Velocity S-wave (km/s) = 3.32280 3.97351 3.66264
# Velocity P-wave (km/s) = 5.84400 7.14505 6.52702
#
# Compressibility (1/GPa) = 0.02220391
#
# Stress axis : x y z
#
# Youngs Moduli (GPa) = 49.56219 45.07872 72.72532
#
# Poissons Ratio (x) = 0.54692 0.02141
# Poissons Ratio (y) = 0.60132 0.32917
# Poissons Ratio (z) = 0.01459 0.20404
#
# Static dielectric constant tensor:
#      x y z
#    x 4.184820 -0.187060 -0.192190 
#    y -0.187060 4.241490 -0.065700 
#    z -0.192190 -0.065700 3.897930 
# 
# 
# High freq. dielectric constant tensor:
#      x y z
#    x 1.920850 -0.006320 -0.001440 
#    y -0.006320 1.919550 0.010430 
#    z -0.001440 0.010430 1.933800 
# 
# From -- ./inp_files/494888.got.cif
#   From: 2010.06.25/outbox.cif.g09.slc.cpg/sg2_248_cif.got.tgz:494888.got - 2010.06.27 13:26:56.
