data_PCOD8021321
_publ_section_title
;
Structure prediction by ZEFSAII (Michael W. Deem and Ramdas Pophale) SiO2 
 PCOD8021321
Probable space group: P -1
;
_chemical_formula_sum "Si O2"
_cell_formula_units_Z 16
_cell_length_a 11.308868
_cell_length_b 19.236895
_cell_length_c 14.741953
_cell_angle_alpha 30.366583
_cell_angle_beta 152.063750
_cell_angle_gamma 148.710023
_cell_volume 699.514351
_symmetry_space_group_name_H-M "P -1"
_symmetry_group_IT_number 2
_symmetry_cell_setting 'triclinic'
loop_
_space_group_symop_operation_xyz
x,y,z
-x,-y,-z
loop_
_atom_site_type_symbol
_atom_site_label
_atom_site_fract_x
_atom_site_fract_y
_atom_site_fract_z
Si Si1 0.160639 0.472542 0.400795
Si Si2 0.400225 0.282103 0.672139
Si Si3 0.359638 0.892837 0.242757
Si Si4 0.072707 0.367560 0.660599
Si Si5 0.194170 0.957824 0.873627
Si Si6 0.188736 0.232465 0.326557
Si Si7 0.345698 0.561632 0.008609
Si Si8 0.299738 0.777306 0.886349
O O1 0.226872 0.377763 0.474071
O O2 0.400311 0.640317 0.366772
O O3 0.148836 0.393646 0.577179
O O4 0.860811 0.472469 0.177713
O O5 0.169923 0.118537 0.678925
O O6 0.605826 0.278431 0.895266
O O7 0.596572 0.842350 0.422975
O O8 0.185596 0.786437 0.325083
O O9 0.483803 0.059723 0.179803
O O10 0.159471 0.884306 0.032588
O O11 0.000000 0.500000 0.500000
O O12 0.338512 0.355781 0.902944
O O13 0.972389 0.842014 0.789881
O O14 0.500000 0.000000 0.000000
O O15 0.987470 0.206566 0.305432
O O16 0.340846 0.408815 0.219722
O O17 0.262792 0.658125 0.917362
#
# Coordination Sequence:
#
# PCOD8021321 Si02
#       8
#     2   2   2   2   2   2   2   2
#     4  11  25  44  70 103 139 185 229 288 346 406
#     4  10  22  43  70 105 142 175 230 294 350 401
#     4  11  27  46  69  99 142 186 228 285 343 415
#     4  12  28  47  69  98 144 193 233 272 343 424
#     4  11  23  41  68 103 138 177 229 286 348 403
#     4  12  24  42  72 107 139 177 231 289 352 408
#     4  12  26  44  71 104 139 182 233 285 341 418
#     4  11  23  45  70 108 134 177 232 293 351 400
#
# _framework density 22.873013
#
# number of rings (size 3 to 8) (size 9 to 14) (size 15 to 20)
#    0.000    0.750    6.250    0.750    5.250    2.000 
#    0.000    0.625    0.000    0.000    0.000    0.000 
#    0.000    0.000    0.000    0.000    0.000    0.000 
#
# Total GULP energy -198419.823056 kJ/mol
# GULP energy per Si atom -12401.238941 kJ/mol
# Density = 2.282095 g / cm^3
# Si number density = 22.873013 Si / 1000 Ang^3
#
#
#
# Elastic Constant Matrix: (Units=GPa)
#
#
# Indices 1 2 3 4 5 6 
#
# 1 78.3021 35.7599 21.9954 -1.8564 1.3407 8.2513
# 2 35.7599 106.2384 32.1108 -22.0332 2.3375 -0.4893
# 3 21.9954 32.1108 87.9601 -9.2462 8.6864 10.1984
# 4 -1.8564 -22.0332 -9.2462 35.1587 10.4832 4.2201
# 5 1.3407 2.3375 8.6864 10.4832 33.1384 -6.0194
# 6 8.2513 -0.4893 10.1984 4.2201 -6.0194 42.7011
#
#
#
# Elastic Compliance Matrix: (Units=1/GPa)
#
#
# Indices 1 2 3 4 5 6 
#
# 1 0.015994 -0.005398 -0.002191 -0.003118 0.000896 -0.002195
# 2 -0.005398 0.013825 -0.002632 0.008387 -0.002605 0.000634
# 3 -0.002191 -0.002632 0.014360 0.004185 -0.005583 -0.004237
# 4 -0.003118 0.008387 0.004185 0.039991 -0.015380 -0.006421
# 5 0.000896 -0.002605 -0.005583 -0.015380 0.038110 0.008023
# 6 -0.002195 0.000634 -0.004237 -0.006421 0.008023 0.026628
#
#
# Mechanical properties :
#
#
# Convention : Reuss Voigt Hill
#
# Bulk Modulus (GPa) = 42.12622 50.24808 46.18715
# Shear Modulus (GPa) = 28.20717 34.37525 31.29121
#
# Velocity S-wave (km/s) = 3.51551 3.88090 3.70272
# Velocity P-wave (km/s) = 5.91066 6.48828 6.20619
#
# Compressibility (1/GPa) = 0.02373818
#
# Stress axis : x y z
#
# Youngs Moduli (GPa) = 62.52533 72.33355 69.63859
#
# Poissons Ratio (x) = 0.39044 0.15255
# Poissons Ratio (y) = 0.33750 0.18327
# Poissons Ratio (z) = 0.13696 0.19036
#
# Static dielectric constant tensor:
#      x y z
#    x 4.035670 -0.295170 0.125820 
#    y -0.295170 5.348330 -0.125480 
#    z 0.125820 -0.125480 4.301310 
# 
# 
# High freq. dielectric constant tensor:
#      x y z
#    x 1.876720 -0.009740 0.008960 
#    y -0.009740 1.913330 -0.004730 
#    z 0.008960 -0.004730 1.919020 
# 
# From -- ./inp_files/524067.got.cif
#   From: 2010.06.25/outbox.cif.g09.slc.cpg/sg2_263_cif.got.tgz:524067.got - 2010.06.27 13:26:56.
