data_PCOD8021917
_publ_section_title
;
Structure prediction by ZEFSAII (Michael W. Deem and Ramdas Pophale) SiO2 
 PCOD8021917
Probable space group: P -1
;
_chemical_formula_sum "Si O2"
_cell_formula_units_Z 16
_cell_length_a 6.682782
_cell_length_b 19.924107
_cell_length_c 8.057870
_cell_angle_alpha 126.288766
_cell_angle_beta 87.036862
_cell_angle_gamma 119.464906
_cell_volume 707.766260
_symmetry_space_group_name_H-M "P -1"
_symmetry_group_IT_number 2
_symmetry_cell_setting 'triclinic'
loop_
_space_group_symop_operation_xyz
x,y,z
-x,-y,-z
loop_
_atom_site_type_symbol
_atom_site_label
_atom_site_fract_x
_atom_site_fract_y
_atom_site_fract_z
Si Si1 0.672725 0.650617 0.633631
Si Si2 0.645364 0.905422 0.347625
Si Si3 0.857235 0.214101 0.655127
Si Si4 0.966900 0.851673 0.728906
Si Si5 0.339795 0.280855 0.910022
Si Si6 0.856480 0.540891 0.643157
Si Si7 0.857351 0.395622 0.948301
Si Si8 0.051295 0.988724 0.213083
O O1 0.853099 0.617249 0.625747
O O2 0.418449 0.552082 0.436021
O O3 0.773467 0.732174 0.600156
O O4 0.645257 0.702738 0.870199
O O5 0.357861 0.859769 0.309524
O O6 0.687231 0.821497 0.281289
O O7 0.767608 0.942596 0.213195
O O8 0.794806 0.996936 0.608001
O O9 0.839226 0.144672 0.400760
O O10 0.116518 0.273917 0.823488
O O11 0.824378 0.300445 0.710968
O O12 0.843635 0.904220 0.727775
O O13 0.081759 0.914111 0.986896
O O14 0.596165 0.375710 0.966783
O O15 0.000000 0.500000 0.500000
O O16 0.999520 0.600738 0.888983
O O17 0.000000 0.500000 0.000000
#
# Coordination Sequence:
#
# PCOD8021917 Si02
#       8
#     2   2   2   2   2   2   2   2
#     4  11  24  42  68  93 137 178 217 276 332 403
#     4  10  22  44  70  94 131 181 218 272 333 408
#     4  11  25  42  67  97 135 178 224 270 338 401
#     4  11  24  42  66 103 135 173 220 287 334 382
#     4  11  21  45  64  95 133 179 219 265 337 402
#     4  11  24  43  65  98 128 177 228 268 334 399
#     4  11  26  41  67 100 132 173 224 282 330 395
#     4  10  22  44  70  97 137 173 223 283 335 391
#
# _framework density 22.606332999999999
#
# number of rings (size 3 to 8) (size 9 to 14) (size 15 to 20)
#    0.000    1.250    5.000    0.000    3.500    1.500 
#    0.000    1.250    0.000    0.000    0.000    0.000 
#    0.000    0.000    0.000    0.000    0.000    0.000 
#
# Total GULP energy -198292.549737 kJ/mol
# GULP energy per Si atom -12393.284359 kJ/mol
# Density = 2.255488 g / cm^3
# Si number density = 22.606333 Si / 1000 Ang^3
#
#
#
# Elastic Constant Matrix: (Units=GPa)
#
#
# Indices 1 2 3 4 5 6 
#
# 1 119.1679 44.3627 33.3173 3.4601 -0.1736 20.5476
# 2 44.3627 125.4672 7.7056 14.9872 -0.3334 8.4611
# 3 33.3173 7.7056 103.0116 -4.2127 -12.1325 11.5362
# 4 3.4601 14.9872 -4.2127 28.3796 1.2854 -5.3283
# 5 -0.1736 -0.3334 -12.1325 1.2854 36.0779 5.2558
# 6 20.5476 8.4611 11.5362 -5.3283 5.2558 28.6435
#
#
#
# Elastic Compliance Matrix: (Units=1/GPa)
#
#
# Indices 1 2 3 4 5 6 
#
# 1 0.011564 -0.003329 -0.002817 -0.001279 0.000059 -0.006426
# 2 -0.003329 0.009851 0.000404 -0.005094 0.000647 -0.001751
# 3 -0.002817 0.000404 0.011511 0.001017 0.004311 -0.003337
# 4 -0.001279 -0.005094 0.001017 0.040224 -0.002597 0.009972
# 5 0.000059 0.000647 0.004311 -0.002597 0.030437 -0.008038
# 6 -0.006426 -0.001751 -0.003337 0.009972 -0.008038 0.044713
#
#
# Mechanical properties :
#
#
# Convention : Reuss Voigt Hill
#
# Bulk Modulus (GPa) = 46.63789 57.60200 52.11994
# Shear Modulus (GPa) = 29.95240 36.10427 33.02834
#
# Velocity S-wave (km/s) = 3.64394 4.00069 3.82648
# Velocity P-wave (km/s) = 6.19513 6.84664 6.52902
#
# Compressibility (1/GPa) = 0.02144180
#
# Stress axis : x y z
#
# Youngs Moduli (GPa) = 86.47738 101.51335 86.86978
#
# Poissons Ratio (x) = 0.33798 0.24468
# Poissons Ratio (y) = 0.28792 -0.03509
# Poissons Ratio (z) = 0.24358 -0.04100
#
# Static dielectric constant tensor:
#      x y z
#    x -5.004640 4.446600 -18.273980 
#    y 4.446600 2.103060 8.549390 
#    z -18.273980 8.549390 -32.068000 
# 
# 
# High freq. dielectric constant tensor:
#      x y z
#    x 1.875850 0.004800 -0.018700 
#    y 0.004800 1.887760 0.012480 
#    z -0.018700 0.012480 1.902660 
# 
# From -- ./inp_files/141600.got.cif
#   From: 2010.06.25/outbox.cif.g09.slc.cpg/sg2_71_cif.got.tgz:141600.got - 2010.06.27 13:26:56.
