data_PCOD8021442
_publ_section_title
;
Structure prediction by ZEFSAII (Michael W. Deem and Ramdas Pophale) SiO2 
 PCOD8021442
Probable space group: P -1
;
_chemical_formula_sum "Si O2"
_cell_formula_units_Z 16
_cell_length_a 26.705910
_cell_length_b 9.101259
_cell_length_c 11.800097
_cell_angle_alpha 40.181428
_cell_angle_beta 28.603687
_cell_angle_gamma 29.248944
_cell_volume 670.878237
_symmetry_space_group_name_H-M "P -1"
_symmetry_group_IT_number 2
_symmetry_cell_setting 'triclinic'
loop_
_space_group_symop_operation_xyz
x,y,z
-x,-y,-z
loop_
_atom_site_type_symbol
_atom_site_label
_atom_site_fract_x
_atom_site_fract_y
_atom_site_fract_z
Si Si1 0.964150 0.237818 0.713279
Si Si2 0.475863 0.192319 0.542757
Si Si3 0.814421 0.545885 0.055565
Si Si4 0.648184 0.640825 0.685334
Si Si5 0.924298 0.378990 0.189315
Si Si6 0.688311 0.785571 0.852774
Si Si7 0.529982 0.641978 0.154177
Si Si8 0.263960 0.949754 0.216191
O O1 0.853803 0.521174 0.683162
O O2 0.929802 0.315417 0.869210
O O3 0.962355 0.981528 0.823308
O O4 0.115988 0.124930 0.466301
O O5 0.310866 0.446919 0.731965
O O6 0.536630 0.361308 0.310832
O O7 0.500000 0.000000 0.500000
O O8 0.549102 0.971810 0.634103
O O9 0.860057 0.459635 0.144029
O O10 0.765261 0.881183 0.944556
O O11 0.806161 0.505435 0.443308
O O12 0.645145 0.406057 0.760634
O O13 0.612321 0.634853 0.888691
O O14 0.000000 0.500000 0.000000
O O15 0.627352 0.030893 0.726872
O O16 0.645272 0.997279 0.924082
O O17 0.612494 0.644805 0.092851
#
# Coordination Sequence:
#
# PCOD8021442 Si02
#       8
#     2   2   2   2   2   2   2   2
#     4  10  23  43  70  94 133 178 225 278 325 407
#     4  12  24  42  71  99 136 178 226 277 325 402
#     4  11  22  43  66 100 129 181 227 274 335 386
#     4  11  24  44  69 102 131 181 225 269 339 395
#     4  11  26  43  63 102 137 171 223 278 337 402
#     4  10  22  44  66  99 132 172 223 274 339 384
#     4  11  26  44  69  99 141 173 220 284 333 398
#     4  10  22  43  72  97 133 177 231 273 325 409
#
# _framework density 23.849336000000001
#
# number of rings (size 3 to 8) (size 9 to 14) (size 15 to 20)
#    0.000    1.250    1.250    4.875    3.500    3.500 
#    6.750    7.500    0.000    0.000    0.000    0.000 
#    0.000    0.000    0.000    0.000    0.000    0.000 
#
# Total GULP energy -198232.173120 kJ/mol
# GULP energy per Si atom -12389.510820 kJ/mol
# Density = 2.379505 g / cm^3
# Si number density = 23.849336 Si / 1000 Ang^3
#
#
#
# Elastic Constant Matrix: (Units=GPa)
#
#
# Indices 1 2 3 4 5 6 
#
# 1 85.7806 57.5980 40.9114 -12.1646 -20.5514 10.4245
# 2 57.5980 134.1698 56.4286 -24.4122 -17.1757 4.5922
# 3 40.9114 56.4286 118.3803 -25.3103 -2.3631 18.7835
# 4 -12.1646 -24.4122 -25.3103 36.2706 15.7669 -8.7647
# 5 -20.5514 -17.1757 -2.3631 15.7669 32.5428 -15.4166
# 6 10.4245 4.5922 18.7835 -8.7647 -15.4166 32.9136
#
#
#
# Elastic Compliance Matrix: (Units=1/GPa)
#
#
# Indices 1 2 3 4 5 6 
#
# 1 0.020375 -0.005858 -0.005714 -0.006442 0.013550 0.002256
# 2 -0.005858 0.012468 -0.003853 0.003517 0.003132 0.004718
# 3 -0.005714 -0.003853 0.015888 0.010315 -0.014610 -0.010817
# 4 -0.006442 0.003517 0.010315 0.044923 -0.025209 -0.004182
# 5 0.013550 0.003132 -0.014610 -0.025209 0.065058 0.027369
# 6 0.002256 0.004718 -0.010817 -0.004182 0.027369 0.046888
#
#
# Mechanical properties :
#
#
# Convention : Reuss Voigt Hill
#
# Bulk Modulus (GPa) = 55.92302 72.02297 63.97300
# Shear Modulus (GPa) = 20.62616 32.57158 26.59887
#
# Velocity S-wave (km/s) = 2.94403 3.69958 3.34322
# Velocity P-wave (km/s) = 5.92079 6.96519 6.46412
#
# Compressibility (1/GPa) = 0.01788172
#
# Stress axis : x y z
#
# Youngs Moduli (GPa) = 49.07951 80.20550 62.93867
#
# Poissons Ratio (x) = 0.46988 0.35962
# Poissons Ratio (y) = 0.28753 0.24248
# Poissons Ratio (z) = 0.28043 0.30901
#
# Static dielectric constant tensor:
#      x y z
#    x 4.241540 0.103530 -0.114610 
#    y 0.103530 4.812660 -0.057450 
#    z -0.114610 -0.057450 4.485590 
# 
# 
# High freq. dielectric constant tensor:
#      x y z
#    x 1.934950 0.005060 -0.013490 
#    y 0.005060 1.963610 -0.000430 
#    z -0.013490 -0.000430 1.946280 
# 
# From -- ./inp_files/476364.got.cif
#   From: 2010.06.25/outbox.cif.g09.slc.cpg/sg2_239_cif.got.tgz:476364.got - 2010.06.27 13:26:56.
