data_PCOD8021107
_publ_section_title
;
Structure prediction by ZEFSAII (Michael W. Deem and Ramdas Pophale) SiO2 
 PCOD8021107
Probable space group: P -1
;
_chemical_formula_sum "Si O2"
_cell_formula_units_Z 12
_cell_length_a 7.898971
_cell_length_b 12.946223
_cell_length_c 4.886405
_cell_angle_alpha 97.806612
_cell_angle_beta 66.730163
_cell_angle_gamma 81.323688
_cell_volume 443.160191
_symmetry_space_group_name_H-M "P -1"
_symmetry_group_IT_number 2
_symmetry_cell_setting 'triclinic'
loop_
_space_group_symop_operation_xyz
x,y,z
-x,-y,-z
loop_
_atom_site_type_symbol
_atom_site_label
_atom_site_fract_x
_atom_site_fract_y
_atom_site_fract_z
Si Si1 0.501124 0.327841 0.994059
Si Si2 0.754662 0.114517 0.732807
Si Si3 0.291547 0.016297 0.763636
Si Si4 0.038962 0.231521 0.862069
Si Si5 0.195109 0.417520 0.824243
Si Si6 0.304226 0.611880 0.603617
O O1 0.556442 0.200813 0.846775
O O2 0.287847 0.380025 0.050086
O O3 0.644710 0.382432 0.745228
O O4 0.541010 0.344318 0.294791
O O5 0.821502 0.048813 0.388660
O O6 0.918503 0.176918 0.712536
O O7 0.711206 0.032069 0.953252
O O8 0.500000 0.000000 0.500000
O O9 0.186377 0.140069 0.895220
O O10 0.159016 0.309360 0.660388
O O11 0.901468 0.310410 0.189369
O O12 0.323723 0.485008 0.603130
O O13 0.000000 0.500000 0.000000
#
# Coordination Sequence:
#
# PCOD8021107 Si02
#       6
#     2   2   2   2   2   2
#     4  11  22  44  69  96 130 172 217 266 320 381
#     4  11  24  44  67  96 130 171 214 264 323 384
#     4  12  25  44  68  97 129 170 216 267 322 384
#     4  10  23  42  66  97 133 171 215 266 322 383
#     4  10  22  43  67  99 133 170 216 267 322 384
#     4  10  23  43  67  95 129 174 218 266 319 376
#
# _framework density 27.078243000000001
#
# number of rings (size 3 to 8) (size 9 to 14) (size 15 to 20)
#    0.000    1.333    0.000    5.500    0.000    2.667 
#    0.000   32.500    0.000    0.000    0.000    0.000 
#    0.000    0.000    0.000    0.000    0.000    0.000 
#
# Total GULP energy -148748.106683 kJ/mol
# GULP energy per Si atom -12395.675557 kJ/mol
# Density = 2.701661 g / cm^3
# Si number density = 27.078243 Si / 1000 Ang^3
#
#
#
# Elastic Constant Matrix: (Units=GPa)
#
#
# Indices 1 2 3 4 5 6 
#
# 1 113.6687 50.0677 -8.5143 18.5392 4.7200 -8.2444
# 2 50.0677 217.3334 19.0351 26.6735 -2.8400 -22.7302
# 3 -8.5143 19.0351 50.6672 8.2743 -2.6539 -9.9267
# 4 18.5392 26.6735 8.2743 38.0724 -9.1490 1.6132
# 5 4.7200 -2.8400 -2.6539 -9.1490 15.8094 13.8987
# 6 -8.2444 -22.7302 -9.9267 1.6132 13.8987 52.3146
#
#
#
# Elastic Compliance Matrix: (Units=1/GPa)
#
#
# Indices 1 2 3 4 5 6 
#
# 1 0.012513 -0.001642 0.004782 -0.009700 -0.014363 0.006281
# 2 -0.001642 0.005885 -0.001399 -0.004077 -0.003842 0.003179
# 3 0.004782 -0.001399 0.023497 -0.009045 -0.009475 0.007400
# 4 -0.009700 -0.004077 -0.009045 0.047113 0.043836 -0.018115
# 5 -0.014363 -0.003842 -0.009475 0.043836 0.126372 -0.040656
# 6 0.006281 0.003179 0.007400 -0.018115 -0.040656 0.034250
#
#
# Mechanical properties :
#
#
# Convention : Reuss Voigt Hill
#
# Bulk Modulus (GPa) = 22.03830 55.87181 38.95506
# Shear Modulus (GPa) = 19.13706 42.64467 30.89087
#
# Velocity S-wave (km/s) = 2.66133 3.97277 3.38124
# Velocity P-wave (km/s) = 4.19523 6.45926 5.44619
#
# Compressibility (1/GPa) = 0.04537554
#
# Stress axis : x y z
#
# Youngs Moduli (GPa) = 79.91803 169.93314 42.55946
#
# Poissons Ratio (x) = 0.27899 -0.20351
# Poissons Ratio (y) = 0.13120 0.05955
# Poissons Ratio (z) = -0.38215 0.23778
#
# Static dielectric constant tensor:
#      x y z
#    x 5.425460 0.218480 -0.124990 
#    y 0.218480 5.748850 0.289160 
#    z -0.124990 0.289160 4.494020 
# 
# 
# High freq. dielectric constant tensor:
#      x y z
#    x 2.100170 -0.007980 -0.009540 
#    y -0.007980 2.124230 0.022360 
#    z -0.009540 0.022360 2.062460 
# 
# From -- ./inp_files/39785.got.cif
#   From: 2010.06.25/outbox.cif.g09.slc.cpg/sg2_20_cif.got.tgz:39785.got - 2010.06.27 13:26:56.
