data_PCOD8021738
_publ_section_title
;
Structure prediction by ZEFSAII (Michael W. Deem and Ramdas Pophale) SiO2 
 PCOD8021738
Probable space group: P -1
;
_chemical_formula_sum "Si O2"
_cell_formula_units_Z 16
_cell_length_a 12.185791
_cell_length_b 16.453270
_cell_length_c 13.676079
_cell_angle_alpha 143.117997
_cell_angle_beta 149.839715
_cell_angle_gamma 56.466757
_cell_volume 733.488864
_symmetry_space_group_name_H-M "P -1"
_symmetry_group_IT_number 2
_symmetry_cell_setting 'triclinic'
loop_
_space_group_symop_operation_xyz
x,y,z
-x,-y,-z
loop_
_atom_site_type_symbol
_atom_site_label
_atom_site_fract_x
_atom_site_fract_y
_atom_site_fract_z
Si Si1 0.618226 0.746645 0.129513
Si Si2 0.118361 0.927523 0.593787
Si Si3 0.295767 0.026710 0.424082
Si Si4 0.238822 0.454806 0.837772
Si Si5 0.802241 0.737399 0.771204
Si Si6 0.282306 0.277234 0.534316
Si Si7 0.532067 0.202730 0.292119
Si Si8 0.270064 0.586961 0.532265
O O1 0.578756 0.868366 0.283015
O O2 0.576761 0.597454 0.014737
O O3 0.903665 0.811292 0.384453
O O4 0.440916 0.705144 0.859936
O O5 0.242882 0.834723 0.544738
O O6 0.000000 0.000000 0.500000
O O7 0.317233 0.055601 0.936922
O O8 0.188892 0.109626 0.347364
O O9 0.500000 0.000000 0.500000
O O10 0.067948 0.870549 0.136455
O O11 0.165126 0.368835 0.593695
O O12 0.997271 0.422855 0.679979
O O13 0.417976 0.636155 0.140222
O O14 0.807020 0.732470 0.653851
O O15 0.574592 0.764583 0.658822
O O16 0.756636 0.579806 0.633930
O O17 0.617593 0.347146 0.423764
#
# Coordination Sequence:
#
# PCOD8021738 Si02
#       8
#     2   2   2   2   2   2   2   2
#     4  11  22  43  67  97 131 176 226 272 329 405
#     4  11  22  43  69  96 131 178 227 268 331 400
#     4  11  25  43  65  99 138 174 226 282 339 397
#     4  10  22  44  67  97 131 177 226 282 319 406
#     4  12  25  44  65 104 139 176 224 278 341 400
#     4  10  23  43  66  94 137 172 229 278 337 392
#     4  11  25  43  67 102 139 175 220 283 330 398
#     4  12  24  42  73  96 137 181 225 267 343 396
#
# _framework density 21.813555000000001
#
# number of rings (size 3 to 8) (size 9 to 14) (size 15 to 20)
#    0.000    1.000    5.000    1.500    1.750    1.500 
#    2.250    1.250    0.000    0.000    0.000    0.000 
#    0.000    0.000    0.000    0.000    0.000    0.000 
#
# Total GULP energy -198388.603683 kJ/mol
# GULP energy per Si atom -12399.287730 kJ/mol
# Density = 2.176391 g / cm^3
# Si number density = 21.813555 Si / 1000 Ang^3
#
#
#
# Elastic Constant Matrix: (Units=GPa)
#
#
# Indices 1 2 3 4 5 6 
#
# 1 84.9578 21.4119 9.2345 0.9839 7.0945 -12.0911
# 2 21.4119 93.6832 25.0821 6.3166 -6.2915 -4.2447
# 3 9.2345 25.0821 75.3234 15.0185 15.5826 -5.4427
# 4 0.9839 6.3166 15.0185 29.6758 -0.2154 4.3292
# 5 7.0945 -6.2915 15.5826 -0.2154 32.8517 -4.4500
# 6 -12.0911 -4.2447 -5.4427 4.3292 -4.4500 40.7460
#
#
#
# Elastic Compliance Matrix: (Units=1/GPa)
#
#
# Indices 1 2 3 4 5 6 
#
# 1 0.013280 -0.003186 0.000446 -0.000503 -0.003237 0.003369
# 2 -0.003186 0.013182 -0.005126 -0.000120 0.005694 0.000378
# 3 0.000446 -0.005126 0.018863 -0.008831 -0.009814 0.001984
# 4 -0.000503 -0.000120 -0.008831 0.038975 0.003844 -0.005062
# 5 -0.003237 0.005694 -0.009814 0.003844 0.037177 0.001974
# 6 0.003369 0.000378 0.001984 -0.005062 0.001974 0.026600
#
#
# Mechanical properties :
#
#
# Convention : Reuss Voigt Hill
#
# Bulk Modulus (GPa) = 33.79029 40.60240 37.19635
# Shear Modulus (GPa) = 28.78971 33.87043 31.33007
#
# Velocity S-wave (km/s) = 3.63686 3.94474 3.79392
# Velocity P-wave (km/s) = 5.75845 6.27708 6.02335
#
# Compressibility (1/GPa) = 0.02959430
#
# Stress axis : x y z
#
# Youngs Moduli (GPa) = 75.29880 75.85919 53.01475
#
# Poissons Ratio (x) = 0.24165 -0.02363
# Poissons Ratio (y) = 0.23986 0.27174
# Poissons Ratio (z) = -0.03357 0.38884
#
# Static dielectric constant tensor:
#      x y z
#    x 4.052390 -0.068030 0.212040 
#    y -0.068030 3.857710 0.265550 
#    z 0.212040 0.265550 3.999790 
# 
# 
# High freq. dielectric constant tensor:
#      x y z
#    x 1.865590 -0.000440 0.016410 
#    y -0.000440 1.850320 0.017550 
#    z 0.016410 0.017550 1.861290 
# 
# From -- ./inp_files/400116.got.cif
#   From: 2010.06.25/outbox.cif.g09.slc.cpg/sg2_201_cif.got.tgz:400116.got - 2010.06.27 13:26:56.
