data_PCOD8021994
_publ_section_title
;
Structure prediction by ZEFSAII (Michael W. Deem and Ramdas Pophale) SiO2 
 PCOD8021994
Probable space group: P -1
;
_chemical_formula_sum "Si O2"
_cell_formula_units_Z 16
_cell_length_a 4.959534
_cell_length_b 17.330948
_cell_length_c 21.374827
_cell_angle_alpha 20.701101
_cell_angle_beta 103.112527
_cell_angle_gamma 103.540526
_cell_volume 631.234600
_symmetry_space_group_name_H-M "P -1"
_symmetry_group_IT_number 2
_symmetry_cell_setting 'triclinic'
loop_
_space_group_symop_operation_xyz
x,y,z
-x,-y,-z
loop_
_atom_site_type_symbol
_atom_site_label
_atom_site_fract_x
_atom_site_fract_y
_atom_site_fract_z
Si Si1 0.013435 0.255127 0.407089
Si Si2 0.437271 0.481274 0.754651
Si Si3 0.168393 0.819905 0.792570
Si Si4 0.177881 0.571877 0.861352
Si Si5 0.329948 0.784698 0.133100
Si Si6 0.394432 0.213458 0.071299
Si Si7 0.079903 0.024237 0.836841
Si Si8 0.646889 0.281629 0.680237
O O1 0.857622 0.424022 0.315363
O O2 0.941506 0.273946 0.315707
O O3 0.339383 0.315907 0.382134
O O4 0.962765 0.007232 0.619144
O O5 0.461458 0.379220 0.764077
O O6 0.507825 0.281071 0.957036
O O7 0.298869 0.728568 0.804254
O O8 0.404309 0.932243 0.766736
O O9 0.028922 0.617708 0.976992
O O10 0.411375 0.441975 0.937644
O O11 0.219546 0.692441 0.263250
O O12 0.500000 0.000000 0.000000
O O13 0.071266 0.845229 0.029168
O O14 0.081963 0.094383 0.140540
O O15 0.405329 0.092802 0.792437
O O16 0.906046 0.235181 0.684777
O O17 0.500000 0.500000 0.500000
#
# Coordination Sequence:
#
# PCOD8021994 Si02
#       8
#     2   2   2   2   2   2   2   2
#     4  11  25  46  69 103 144 182 239 291 362 417
#     4  11  24  44  67 101 141 183 228 300 350 426
#     4  11  24  43  72 102 139 191 238 296 358 423
#     4  10  23  45  69 102 140 187 241 296 353 426
#     4  10  22  44  71  99 131 182 233 274 349 416
#     4  11  23  43  68  98 141 180 240 289 355 415
#     4  11  24  42  72  97 133 186 231 277 352 419
#     4  11  25  45  67 102 142 178 229 293 346 413
#
# _framework density 25.347151
#
# number of rings (size 3 to 8) (size 9 to 14) (size 15 to 20)
#    0.000    1.250    1.250    4.500    3.500    4.000 
#    0.000    3.125    0.000    0.000    0.000    0.000 
#    0.000    0.000    0.000    0.000    0.000    0.000 
#
# Total GULP energy -198214.009530 kJ/mol
# GULP energy per Si atom -12388.375596 kJ/mol
# Density = 2.528946 g / cm^3
# Si number density = 25.347151 Si / 1000 Ang^3
#
#
#
# Elastic Constant Matrix: (Units=GPa)
#
#
# Indices 1 2 3 4 5 6 
#
# 1 65.1459 13.6473 4.9406 5.4535 4.1297 6.5124
# 2 13.6473 114.4389 24.7816 -4.2485 6.3690 16.6801
# 3 4.9406 24.7816 87.5161 11.3072 27.7023 12.0016
# 4 5.4535 -4.2485 11.3072 36.7982 0.9378 13.7660
# 5 4.1297 6.3690 27.7023 0.9378 27.4118 -1.9367
# 6 6.5124 16.6801 12.0016 13.7660 -1.9367 37.4496
#
#
#
# Elastic Compliance Matrix: (Units=1/GPa)
#
#
# Indices 1 2 3 4 5 6 
#
# 1 0.016211 -0.001837 0.001149 -0.002246 -0.003221 -0.001710
# 2 -0.001837 0.010425 -0.002751 0.004177 0.000140 -0.004970
# 3 0.001149 -0.002751 0.019463 -0.004231 -0.019388 -0.004659
# 4 -0.002246 0.004177 -0.004231 0.033927 0.001600 -0.012502
# 5 -0.003221 0.000140 -0.019388 0.001600 0.057113 0.009076
# 6 -0.001710 -0.004970 -0.004659 -0.012502 0.009076 0.035772
#
#
# Mechanical properties :
#
#
# Convention : Reuss Voigt Hill
#
# Bulk Modulus (GPa) = 25.49595 39.31554 32.40575
# Shear Modulus (GPa) = 25.92534 35.24733 30.58634
#
# Velocity S-wave (km/s) = 3.20161 3.73310 3.47752
# Velocity P-wave (km/s) = 4.87315 5.84174 5.37929
#
# Compressibility (1/GPa) = 0.03922191
#
# Stress axis : x y z
#
# Youngs Moduli (GPa) = 61.68664 95.92583 51.37903
#
# Poissons Ratio (x) = 0.17621 -0.05904
# Poissons Ratio (y) = 0.11331 0.14133
# Poissons Ratio (z) = -0.07089 0.26387
#
# Static dielectric constant tensor:
#      x y z
#    x 4.316980 -0.110900 -0.039740 
#    y -0.110900 2.748650 -1.011840 
#    z -0.039740 -1.011840 4.072420 
# 
# 
# High freq. dielectric constant tensor:
#      x y z
#    x 1.993830 -0.002090 0.016240 
#    y -0.002090 2.027440 -0.005570 
#    z 0.016240 -0.005570 2.000930 
# 
# From -- ./inp_files/604968.got.cif
#   From: 2010.06.25/outbox.cif.g09.slc.cpg/sg2_303_cif.got.tgz:604968.got - 2010.06.27 13:26:56.
