data_PCOD8021671
_publ_section_title
;
Structure prediction by ZEFSAII (Michael W. Deem and Ramdas Pophale) SiO2 
 PCOD8021671
Probable space group: P -1
;
_chemical_formula_sum "Si O2"
_cell_formula_units_Z 12
_cell_length_a 8.361251
_cell_length_b 11.315864
_cell_length_c 7.907857
_cell_angle_alpha 88.576856
_cell_angle_beta 91.399439
_cell_angle_gamma 142.131185
_cell_volume 459.131054
_symmetry_space_group_name_H-M "P -1"
_symmetry_group_IT_number 2
_symmetry_cell_setting 'triclinic'
loop_
_space_group_symop_operation_xyz
x,y,z
-x,-y,-z
loop_
_atom_site_type_symbol
_atom_site_label
_atom_site_fract_x
_atom_site_fract_y
_atom_site_fract_z
Si Si1 0.800608 0.272682 0.890575
Si Si2 0.968613 0.023418 0.243302
Si Si3 0.880627 0.515755 0.634751
Si Si4 0.362575 0.880632 0.744084
Si Si5 0.197088 0.298039 0.947075
Si Si6 0.602804 0.819733 0.534717
O O1 0.878371 0.448215 0.822240
O O2 0.049408 0.329382 0.874849
O O3 0.565612 0.105495 0.757547
O O4 0.664818 0.199966 0.071934
O O5 0.260314 0.167110 0.308259
O O6 0.003801 0.143312 0.098031
O O7 0.816762 0.816181 0.184965
O O8 0.807907 0.985050 0.394927
O O9 0.599517 0.387894 0.558505
O O10 0.000000 0.500000 0.500000
O O11 0.067308 0.737497 0.671655
O O12 0.470455 0.857037 0.605472
O O13 0.500000 0.500000 0.000000
#
# Coordination Sequence:
#
# PCOD8021671 Si02
#       6
#     2   2   2   2   2   2
#     4  11  24  42  67 100 124 169 225 263 322 378
#     4  10  24  47  65  91 139 169 214 266 322 381
#     4  10  24  40  67  95 133 169 207 272 323 383
#     4  10  23  43  67  94 132 169 211 277 314 380
#     4  11  26  43  71  94 125 177 220 264 312 392
#     4  10  22  44  66  94 130 179 202 264 336 373
#
# _framework density 26.136326
#
# number of rings (size 3 to 8) (size 9 to 14) (size 15 to 20)
#    0.000    1.667    1.667    0.500   11.667    2.667 
#    0.000    3.333    0.000    0.000    0.000    0.000 
#    0.000    0.000    0.000    0.000    0.000    0.000 
#
# Total GULP energy -148661.807281 kJ/mol
# GULP energy per Si atom -12388.483940 kJ/mol
# Density = 2.607684 g / cm^3
# Si number density = 26.136326 Si / 1000 Ang^3
#
#
#
# Elastic Constant Matrix: (Units=GPa)
#
#
# Indices 1 2 3 4 5 6 
#
# 1 53.1124 50.4741 10.1902 16.6127 9.3540 3.1372
# 2 50.4741 165.6146 15.9823 45.9460 17.1883 30.1769
# 3 10.1902 15.9823 83.2128 -0.0902 -13.6572 -1.8749
# 4 16.6127 45.9460 -0.0902 43.2003 17.1284 9.0994
# 5 9.3540 17.1883 -13.6572 17.1284 43.0494 9.2060
# 6 3.1372 30.1769 -1.8749 9.0994 9.2060 28.0437
#
#
#
# Elastic Compliance Matrix: (Units=1/GPa)
#
#
# Indices 1 2 3 4 5 6 
#
# 1 0.028786 -0.009310 -0.002308 -0.001128 -0.004646 0.008535
# 2 -0.009310 0.013347 -0.001303 -0.009183 0.002328 -0.011192
# 3 -0.002308 -0.001303 0.013397 0.000122 0.005039 0.000863
# 4 -0.001128 -0.009183 0.000122 0.037502 -0.011304 0.001558
# 5 -0.004646 0.002328 0.005039 -0.011304 0.031161 -0.008209
# 6 0.008535 -0.011192 0.000863 0.001558 -0.008209 0.048994
#
#
# Mechanical properties :
#
#
# Convention : Reuss Voigt Hill
#
# Bulk Modulus (GPa) = 33.68677 50.58144 42.13410
# Shear Modulus (GPa) = 23.93190 37.87822 30.90506
#
# Velocity S-wave (km/s) = 3.02926 3.81104 3.44242
# Velocity P-wave (km/s) = 5.01519 6.22578 5.65298
#
# Compressibility (1/GPa) = 0.02968524
#
# Stress axis : x y z
#
# Youngs Moduli (GPa) = 34.73962 74.92484 74.64366
#
# Poissons Ratio (x) = 0.69757 0.17230
# Poissons Ratio (y) = 0.32343 0.09729
# Poissons Ratio (z) = 0.08019 0.09766
#
# Static dielectric constant tensor:
#      x y z
#    x 4.508560 0.570950 0.061930 
#    y 0.570950 5.520740 0.479620 
#    z 0.061930 0.479620 5.073930 
# 
# 
# High freq. dielectric constant tensor:
#      x y z
#    x 2.021120 0.026300 -0.006640 
#    y 0.026300 2.066100 0.017080 
#    z -0.006640 0.017080 2.069850 
# 
# From -- ./inp_files/187723.got.cif
#   From: 2010.06.25/outbox.cif.g09.slc.cpg/sg2_94_cif.got.tgz:187723.got - 2010.06.27 13:26:56.
