data_PCOD8021514
_publ_section_title
;
Structure prediction by ZEFSAII (Michael W. Deem and Ramdas Pophale) SiO2 
 PCOD8021514
Probable space group: P -1
;
_chemical_formula_sum "Si O2"
_cell_formula_units_Z 16
_cell_length_a 17.296953
_cell_length_b 19.855549
_cell_length_c 8.768139
_cell_angle_alpha 143.181422
_cell_angle_beta 141.866605
_cell_angle_gamma 21.712776
_cell_volume 655.054332
_symmetry_space_group_name_H-M "P -1"
_symmetry_group_IT_number 2
_symmetry_cell_setting 'triclinic'
loop_
_space_group_symop_operation_xyz
x,y,z
-x,-y,-z
loop_
_atom_site_type_symbol
_atom_site_label
_atom_site_fract_x
_atom_site_fract_y
_atom_site_fract_z
Si Si1 0.075230 0.735058 0.752055
Si Si2 0.438412 0.926277 0.121898
Si Si3 0.356293 0.882572 0.205104
Si Si4 0.768723 0.144409 0.467167
Si Si5 0.912546 0.605464 0.214651
Si Si6 0.951864 0.701546 0.954107
Si Si7 0.661994 0.460615 0.915992
Si Si8 0.860677 0.935737 0.503421
O O1 0.012551 0.650386 0.493795
O O2 0.079386 0.782052 0.668871
O O3 0.289389 0.587802 0.914482
O O4 0.886484 0.942001 0.921466
O O5 0.478516 0.885698 0.294224
O O6 0.657962 0.799991 0.154191
O O7 0.256983 0.150258 0.209092
O O8 0.360116 0.860435 0.823670
O O9 0.336960 0.937307 0.451600
O O10 0.454108 0.687422 0.985404
O O11 0.623375 0.361984 0.617629
O O12 0.809941 0.085208 0.602444
O O13 0.000000 0.000000 0.500000
O O14 0.975805 0.475941 0.215399
O O15 0.000000 0.500000 0.000000
O O16 0.881941 0.815046 0.206204
O O17 0.140037 0.629281 0.028859
#
# Coordination Sequence:
#
# PCOD8021514 Si02
#       8
#     2   2   2   2   2   2   2   2
#     4  10  24  44  63  99 140 174 221 286 332 394
#     4  11  24  44  70  99 139 176 227 284 337 400
#     4  10  22  44  61 103 137 169 229 277 335 401
#     4  11  22  43  74 100 134 184 225 276 340 404
#     4  12  25  44  72 103 134 183 232 274 342 406
#     4  11  21  45  68 103 133 180 229 275 334 415
#     4  12  23  43  72  99 135 180 230 270 340 410
#     4   9  21  43  65  97 142 169 222 283 331 399
#
# _framework density 24.425456000000001
#
# number of rings (size 3 to 8) (size 9 to 14) (size 15 to 20)
#    0.750    0.500    6.250    0.000    0.000    6.000 
#    0.000    0.000    0.000    0.000    0.000    0.000 
#    0.000    0.000    0.000    0.000    0.000    0.000 
#
# Total GULP energy -198216.882906 kJ/mol
# GULP energy per Si atom -12388.555182 kJ/mol
# Density = 2.436986 g / cm^3
# Si number density = 24.425456 Si / 1000 Ang^3
#
#
#
# Elastic Constant Matrix: (Units=GPa)
#
#
# Indices 1 2 3 4 5 6 
#
# 1 111.7606 21.3738 2.5220 0.5615 -26.3245 14.6765
# 2 21.3738 104.0553 15.4676 24.2432 2.7442 25.2364
# 3 2.5220 15.4676 48.0004 5.4498 -10.3344 -7.4843
# 4 0.5615 24.2432 5.4498 28.3931 2.1051 4.6630
# 5 -26.3245 2.7442 -10.3344 2.1051 32.8672 4.0465
# 6 14.6765 25.2364 -7.4843 4.6630 4.0465 44.4355
#
#
#
# Elastic Compliance Matrix: (Units=1/GPa)
#
#
# Indices 1 2 3 4 5 6 
#
# 1 0.012481 -0.002613 0.001889 0.001367 0.011149 -0.003479
# 2 -0.002613 0.015270 -0.005494 -0.010469 -0.003524 -0.007315
# 3 0.001889 -0.005494 0.025724 -0.001998 0.009428 0.006180
# 4 0.001367 -0.010469 -0.001998 0.044530 -0.001589 0.000630
# 5 0.011149 -0.003524 0.009428 -0.001589 0.043191 -0.003859
# 6 -0.003479 -0.007315 0.006180 0.000630 -0.003859 0.029134
#
#
# Mechanical properties :
#
#
# Convention : Reuss Voigt Hill
#
# Bulk Modulus (GPa) = 24.36685 38.06033 31.21359
# Shear Modulus (GPa) = 25.45229 36.10269 30.77749
#
# Velocity S-wave (km/s) = 3.23157 3.84875 3.55358
# Velocity P-wave (km/s) = 4.89098 5.94698 5.44464
#
# Compressibility (1/GPa) = 0.04103937
#
# Stress axis : x y z
#
# Youngs Moduli (GPa) = 80.12184 65.48823 38.87350
#
# Poissons Ratio (x) = 0.17114 -0.07344
# Poissons Ratio (y) = 0.20938 0.21357
# Poissons Ratio (z) = -0.15137 0.35979
#
# Static dielectric constant tensor:
#      x y z
#    x 4.748100 0.436950 -0.238280 
#    y 0.436950 4.556270 0.313790 
#    z -0.238280 0.313790 4.451890 
# 
# 
# High freq. dielectric constant tensor:
#      x y z
#    x 1.983100 0.024120 -0.013400 
#    y 0.024120 1.966980 0.022670 
#    z -0.013400 0.022670 1.955850 
# 
# From -- ./inp_files/338222.got.cif
#   From: 2010.06.25/outbox.cif.g09.slc.cpg/sg2_170_cif.got.tgz:338222.got - 2010.06.27 13:26:56.
