data_PCOD8021401
_publ_section_title
;
Structure prediction by ZEFSAII (Michael W. Deem and Ramdas Pophale) SiO2 
 PCOD8021401
Probable space group: P -1
;
_chemical_formula_sum "Si O2"
_cell_formula_units_Z 16
_cell_length_a 11.545273
_cell_length_b 8.051957
_cell_length_c 22.048006
_cell_angle_alpha 125.590816
_cell_angle_beta 151.949337
_cell_angle_gamma 71.635531
_cell_volume 669.842051
_symmetry_space_group_name_H-M "P -1"
_symmetry_group_IT_number 2
_symmetry_cell_setting 'triclinic'
loop_
_space_group_symop_operation_xyz
x,y,z
-x,-y,-z
loop_
_atom_site_type_symbol
_atom_site_label
_atom_site_fract_x
_atom_site_fract_y
_atom_site_fract_z
Si Si1 0.833555 0.699076 0.262778
Si Si2 0.298834 0.131152 0.247650
Si Si3 0.925592 0.996552 0.152993
Si Si4 0.837902 0.598482 0.111014
Si Si5 0.507104 0.314610 0.213934
Si Si6 0.035177 0.783602 0.578173
Si Si7 0.926949 0.558362 0.613489
Si Si8 0.987715 0.718484 0.940462
O O1 0.497235 0.592886 0.089064
O O2 0.940421 0.609884 0.349774
O O3 0.981648 0.984075 0.391889
O O4 0.929415 0.625062 0.229263
O O5 0.584869 0.383915 0.425244
O O6 0.027407 0.146983 0.098316
O O7 0.218899 0.064136 0.266718
O O8 0.273373 0.903751 0.151201
O O9 0.914821 0.857255 0.178884
O O10 0.639501 0.828550 0.945842
O O11 0.940746 0.239343 0.230270
O O12 0.004201 0.511681 0.125821
O O13 0.654346 0.184500 0.290824
O O14 0.298484 0.360409 0.169011
O O15 0.775349 0.576391 0.374508
O O16 0.994741 0.694241 0.610266
#
# Coordination Sequence:
#
# PCOD8021401 Si02
#       8
#     2   2   2   2   2   2   2   2
#     4  11  27  43  70 105 139 184 231 292 341 411
#     4  10  23  41  68 101 134 188 228 280 348 410
#     4  11  24  43  70 101 140 186 228 290 345 409
#     4  11  25  44  67 107 137 181 240 282 345 417
#     4  10  24  43  71 101 139 188 226 286 350 409
#     4  11  24  46  71 103 142 179 235 285 346 414
#     4  12  24  46  70 104 142 183 232 284 350 410
#     4  10  22  43  71  96 142 185 226 283 348 412
#
# _framework density 23.886227999999999
#
# number of rings (size 3 to 8) (size 9 to 14) (size 15 to 20)
#    0.000    1.250    2.500    1.875    8.750    5.000 
#    0.000    5.625    0.000    0.000    0.000    0.000 
#    0.000    0.000    0.000    0.000    0.000    0.000 
#
# Total GULP energy -198314.513515 kJ/mol
# GULP energy per Si atom -12394.657095 kJ/mol
# Density = 2.383186 g / cm^3
# Si number density = 23.886228 Si / 1000 Ang^3
#
#
#
# Elastic Constant Matrix: (Units=GPa)
#
#
# Indices 1 2 3 4 5 6 
#
# 1 93.5887 29.4147 40.1232 8.6223 2.1310 -10.1078
# 2 29.4147 124.4302 38.1698 25.1912 -7.7918 -11.1470
# 3 40.1232 38.1698 107.3710 13.6806 -10.2390 -14.2324
# 4 8.6223 25.1912 13.6806 31.2855 -4.5566 -4.0483
# 5 2.1310 -7.7918 -10.2390 -4.5566 23.9305 4.5877
# 6 -10.1078 -11.1470 -14.2324 -4.0483 4.5877 43.2392
#
#
#
# Elastic Compliance Matrix: (Units=1/GPa)
#
#
# Indices 1 2 3 4 5 6 
#
# 1 0.013511 -0.001784 -0.004509 -0.000715 -0.004154 0.001588
# 2 -0.001784 0.010624 -0.001993 -0.006890 0.001284 0.000885
# 3 -0.004509 -0.001993 0.012614 -0.001770 0.004439 0.001947
# 4 -0.000715 -0.006890 -0.001770 0.039211 0.004399 0.000678
# 5 -0.004154 0.001284 0.004439 0.004399 0.046012 -0.003649
# 6 0.001588 0.000885 0.001947 0.000678 -0.003649 0.024818
#
#
# Mechanical properties :
#
#
# Convention : Reuss Voigt Hill
#
# Bulk Modulus (GPa) = 49.55978 60.08948 54.82463
# Shear Modulus (GPa) = 29.39659 34.20319 31.79989
#
# Velocity S-wave (km/s) = 3.51193 3.78818 3.65267
# Velocity P-wave (km/s) = 6.10231 6.65919 6.38682
#
# Compressibility (1/GPa) = 0.02017765
#
# Stress axis : x y z
#
# Youngs Moduli (GPa) = 74.01469 94.12527 79.27748
#
# Poissons Ratio (x) = 0.16790 0.35748
# Poissons Ratio (y) = 0.13202 0.15797
# Poissons Ratio (z) = 0.33375 0.18756
#
# Static dielectric constant tensor:
#      x y z
#    x 4.450770 0.018740 -0.097070 
#    y 0.018740 4.050670 0.148470 
#    z -0.097070 0.148470 4.416980 
# 
# 
# High freq. dielectric constant tensor:
#      x y z
#    x 1.962160 0.002340 -0.003340 
#    y 0.002340 1.927070 0.017410 
#    z -0.003340 0.017410 1.952390 
# 
# From -- ./inp_files/609906.got.cif
#   From: 2010.06.25/outbox.cif.g09.slc.cpg/sg2_305_cif.got.tgz:609906.got - 2010.06.27 13:26:56.
