data_PCOD8021637
_publ_section_title
;
Structure prediction by ZEFSAII (Michael W. Deem and Ramdas Pophale) SiO2 
 PCOD8021637
Probable space group: P -1
;
_chemical_formula_sum "Si O2"
_cell_formula_units_Z 16
_cell_length_a 5.191733
_cell_length_b 12.027294
_cell_length_c 12.487514
_cell_angle_alpha 72.700696
_cell_angle_beta 79.042852
_cell_angle_gamma 69.514294
_cell_volume 694.165929
_symmetry_space_group_name_H-M "P -1"
_symmetry_group_IT_number 2
_symmetry_cell_setting 'triclinic'
loop_
_space_group_symop_operation_xyz
x,y,z
-x,-y,-z
loop_
_atom_site_type_symbol
_atom_site_label
_atom_site_fract_x
_atom_site_fract_y
_atom_site_fract_z
Si Si1 0.223717 0.567586 0.442828
Si Si2 0.554184 0.423400 0.806489
Si Si3 0.111867 0.091879 0.098048
Si Si4 0.312708 0.941302 0.599544
Si Si5 0.934617 0.534583 0.873332
Si Si6 0.634877 0.158819 0.955223
Si Si7 0.951411 0.183717 0.492827
Si Si8 0.259244 0.192668 0.257855
O O1 0.500000 0.500000 0.500000
O O2 0.281639 0.562289 0.314935
O O3 0.126930 0.707345 0.448160
O O4 0.000000 0.500000 0.500000
O O5 0.229727 0.502522 0.798417
O O6 0.566678 0.284242 0.861051
O O7 0.721818 0.464140 0.875389
O O8 0.091195 0.121236 0.219367
O O9 0.202494 0.947042 0.109900
O O10 0.346629 0.145744 0.019631
O O11 0.822757 0.159539 0.043975
O O12 0.289087 0.824559 0.566736
O O13 0.421733 0.895393 0.725360
O O14 0.500000 0.000000 0.500000
O O15 0.031980 0.057626 0.593069
O O16 0.768812 0.678058 0.831483
O O17 0.000000 0.500000 0.000000
O O18 0.173983 0.207027 0.385558
#
# Coordination Sequence:
#
# PCOD8021637 Si02
#       8
#     2   2   2   2   2   2   2   2
#     4  12  28  47  71 102 143 190 237 290 347 426
#     4  12  25  46  70 101 138 187 231 282 356 410
#     4  10  23  41  68  99 134 175 223 284 347 416
#     4   9  22  41  66  97 132 175 235 289 346 407
#     4  12  27  45  72 105 139 181 236 291 346 421
#     4  10  22  44  65  97 137 175 225 283 346 419
#     4  10  23  44  67  99 138 177 233 291 344 417
#     4  11  23  40  70  96 135 179 229 284 356 407
#
# _framework density 23.049244000000002
#
# number of rings (size 3 to 8) (size 9 to 14) (size 15 to 20)
#    0.000    1.250    0.000    4.875    8.750    3.000 
#    6.750    0.000    0.000    0.000    0.000    0.000 
#    0.000    0.000    0.000    0.000    0.000    0.000 
#
# Total GULP energy -198333.104117 kJ/mol
# GULP energy per Si atom -12395.819007 kJ/mol
# Density = 2.299678 g / cm^3
# Si number density = 23.049244 Si / 1000 Ang^3
#
#
#
# Elastic Constant Matrix: (Units=GPa)
#
#
# Indices 1 2 3 4 5 6 
#
# 1 111.6080 35.8346 22.8179 -11.4225 21.5797 20.4067
# 2 35.8346 126.2095 48.8416 -12.9738 17.7219 10.3518
# 3 22.8179 48.8416 116.8608 -18.5722 21.2052 -3.6281
# 4 -11.4225 -12.9738 -18.5722 38.7843 -6.9071 -0.6735
# 5 21.5797 17.7219 21.2052 -6.9071 34.8306 2.2424
# 6 20.4067 10.3518 -3.6281 -0.6735 2.2424 31.8219
#
#
#
# Elastic Compliance Matrix: (Units=1/GPa)
#
#
# Indices 1 2 3 4 5 6 
#
# 1 0.012116 -0.001701 -0.000613 0.001605 -0.005507 -0.006864
# 2 -0.001701 0.010344 -0.003629 0.000881 -0.001661 -0.002552
# 3 -0.000613 -0.003629 0.011641 0.003456 -0.004387 0.003283
# 4 0.001605 0.000881 0.003456 0.028581 0.002151 -0.000469
# 5 -0.005507 -0.001661 -0.004387 0.002151 0.035995 0.001081
# 6 -0.006864 -0.002552 0.003283 -0.000469 0.001081 0.036945
#
#
# Mechanical properties :
#
#
# Convention : Reuss Voigt Hill
#
# Bulk Modulus (GPa) = 45.01787 63.29627 54.15707
# Shear Modulus (GPa) = 32.27630 37.56631 34.92130
#
# Velocity S-wave (km/s) = 3.74614 4.04149 3.89662
# Velocity P-wave (km/s) = 6.18749 7.02134 6.61756
#
# Compressibility (1/GPa) = 0.02221340
#
# Stress axis : x y z
#
# Youngs Moduli (GPa) = 82.53727 96.67655 85.90560
#
# Poissons Ratio (x) = 0.16448 0.05268
# Poissons Ratio (y) = 0.14043 0.31173
# Poissons Ratio (z) = 0.05061 0.35082
#
# Static dielectric constant tensor:
#      x y z
#    x 4.864630 -0.240560 0.414240 
#    y -0.240560 4.491800 -0.246990 
#    z 0.414240 -0.246990 4.299890 
# 
# 
# High freq. dielectric constant tensor:
#      x y z
#    x 1.930640 0.006480 0.008340 
#    y 0.006480 1.911610 -0.008740 
#    z 0.008340 -0.008740 1.913440 
# 
# From -- ./inp_files/364070.got.cif
#   From: 2010.06.25/outbox.cif.g09.slc.cpg/sg2_183_cif.got.tgz:364070.got - 2010.06.27 13:26:56.
