data_PCOD8021311
_publ_section_title
;
Structure prediction by ZEFSAII (Michael W. Deem and Ramdas Pophale) SiO2 
 PCOD8021311
Probable space group: P -1
;
_chemical_formula_sum "Si O2"
_cell_formula_units_Z 14
_cell_length_a 14.661882
_cell_length_b 8.132903
_cell_length_c 7.367307
_cell_angle_alpha 55.115100
_cell_angle_beta 46.061890
_cell_angle_gamma 58.199033
_cell_volume 506.178435
_symmetry_space_group_name_H-M "P -1"
_symmetry_group_IT_number 2
_symmetry_cell_setting 'triclinic'
loop_
_space_group_symop_operation_xyz
x,y,z
-x,-y,-z
loop_
_atom_site_type_symbol
_atom_site_label
_atom_site_fract_x
_atom_site_fract_y
_atom_site_fract_z
Si Si1 0.768753 0.236010 0.293870
Si Si2 0.508426 0.735865 0.320655
Si Si3 0.217010 0.701566 0.350621
Si Si4 0.294368 0.404571 0.135214
Si Si5 0.887004 0.812425 0.293455
Si Si6 0.737832 0.862236 0.094839
Si Si7 0.964281 0.573897 0.802915
O O1 0.640024 0.135760 0.536702
O O2 0.777709 0.332561 0.419084
O O3 0.754834 0.419827 0.056912
O O4 0.891898 0.046554 0.193985
O O5 0.500000 0.500000 0.500000
O O6 0.572190 0.748673 0.023111
O O7 0.593083 0.820436 0.303918
O O8 0.068382 0.697679 0.499201
O O9 0.313809 0.513080 0.232431
O O10 0.258078 0.905260 0.101925
O O11 0.178438 0.282578 0.387868
O O12 0.793277 0.809441 0.251618
O O13 0.025539 0.650275 0.171585
O O14 0.821776 0.721643 0.910858
O O15 0.000000 0.500000 0.000000
#
# Coordination Sequence:
#
# PCOD8021311 Si02
#       7
#     2   2   2   2   2   2   2
#     4  11  24  46  67 105 139 174 239 273 343 409
#     4  10  25  43  69 101 138 184 227 285 334 410
#     4  11  23  43  74 100 138 183 218 295 336 406
#     4  10  23  43  65 101 137 178 229 274 342 407
#     4  10  22  43  70 102 135 181 225 281 347 406
#     4  11  22  45  72 100 142 179 231 282 340 409
#     4   9  22  41  71 101 136 180 226 279 348 404
#
# _framework density 27.65823
#
# number of rings (size 3 to 8) (size 9 to 14) (size 15 to 20)
#    0.000    1.714    1.429    1.286   12.000    3.429 
#    2.571   10.714    0.000    0.000    0.000    0.000 
#    0.000    0.000    0.000    0.000    0.000    0.000 
#
# Total GULP energy -173481.619483 kJ/mol
# GULP energy per Si atom -12391.544249 kJ/mol
# Density = 2.759528 g / cm^3
# Si number density = 27.658230 Si / 1000 Ang^3
#
#
#
# Elastic Constant Matrix: (Units=GPa)
#
#
# Indices 1 2 3 4 5 6 
#
# 1 74.0757 -1.6440 2.0439 8.4064 -2.8246 18.0187
# 2 -1.6440 75.0555 3.3276 -1.4779 4.4493 17.9941
# 3 2.0439 3.3276 50.1663 -9.2590 15.0289 12.7984
# 4 8.4064 -1.4779 -9.2590 60.7171 13.1670 -4.4625
# 5 -2.8246 4.4493 15.0289 13.1670 57.9725 0.6751
# 6 18.0187 17.9941 12.7984 -4.4625 0.6751 35.9047
#
#
#
# Elastic Compliance Matrix: (Units=1/GPa)
#
#
# Indices 1 2 3 4 5 6 
#
# 1 0.016436 0.002657 0.000848 -0.003098 0.001201 -0.010290
# 2 0.002657 0.015742 0.001746 -0.000141 -0.001385 -0.009836
# 3 0.000848 0.001746 0.025405 0.004750 -0.007646 -0.009622
# 4 -0.003098 -0.000141 0.004750 0.019038 -0.005723 0.002406
# 5 0.001201 -0.001385 -0.007646 -0.005723 0.020676 0.001717
# 6 -0.010290 -0.009836 -0.009622 0.002406 0.001717 0.041642
#
#
# Mechanical properties :
#
#
# Convention : Reuss Voigt Hill
#
# Bulk Modulus (GPa) = 14.68774 22.97249 18.83012
# Shear Modulus (GPa) = 33.08373 43.95688 38.52030
#
# Velocity S-wave (km/s) = 3.46231 3.99091 3.73597
# Velocity P-wave (km/s) = 4.61578 5.43695 5.04310
#
# Compressibility (1/GPa) = 0.06808399
#
# Stress axis : x y z
#
# Youngs Moduli (GPa) = 60.84366 63.52503 39.36184
#
# Poissons Ratio (x) = -0.16879 -0.03337
# Poissons Ratio (y) = -0.16167 -0.06872
# Poissons Ratio (z) = -0.05158 -0.11090
#
# Static dielectric constant tensor:
#      x y z
#    x 5.584410 -0.070930 -0.155390 
#    y -0.070930 5.650600 0.668340 
#    z -0.155390 0.668340 6.209990 
# 
# 
# High freq. dielectric constant tensor:
#      x y z
#    x 2.102110 0.021220 -0.000470 
#    y 0.021220 2.125880 -0.001550 
#    z -0.000470 -0.001550 2.147960 
# 
# From -- ./inp_files/325701.got.cif
#   From: 2010.06.25/outbox.cif.g09.slc.cpg/sg2_163_cif.got.tgz:325701.got - 2010.06.27 13:26:56.
