data_PCOD8021026
_publ_section_title
;
Structure prediction by ZEFSAII (Michael W. Deem and Ramdas Pophale) SiO2 
 PCOD8021026
Probable space group: P -1
;
_chemical_formula_sum "Si O2"
_cell_formula_units_Z 14
_cell_length_a 13.604495
_cell_length_b 6.330399
_cell_length_c 13.839878
_cell_angle_alpha 66.983231
_cell_angle_beta 145.368410
_cell_angle_gamma 96.091960
_cell_volume 568.012730
_symmetry_space_group_name_H-M "P -1"
_symmetry_group_IT_number 2
_symmetry_cell_setting 'triclinic'
loop_
_space_group_symop_operation_xyz
x,y,z
-x,-y,-z
loop_
_atom_site_type_symbol
_atom_site_label
_atom_site_fract_x
_atom_site_fract_y
_atom_site_fract_z
Si Si1 0.532192 0.626820 0.876550
Si Si2 0.787202 0.849817 0.952309
Si Si3 0.893038 0.688242 0.691726
Si Si4 0.691030 0.029612 0.638637
Si Si5 0.711881 0.465302 0.453281
Si Si6 0.221238 0.854914 0.732399
Si Si7 0.086955 0.049143 0.771507
O O1 0.609887 0.777040 0.839290
O O2 0.450884 0.462664 0.773176
O O3 0.360227 0.843231 0.758587
O O4 0.699085 0.441163 0.114748
O O5 0.771569 0.012279 0.815176
O O6 0.980683 0.605083 0.142097
O O7 0.801432 0.014589 0.025460
O O8 0.821038 0.798620 0.718623
O O9 0.724060 0.703449 0.476856
O O10 0.012776 0.834892 0.720874
O O11 0.500000 0.000000 0.500000
O O12 0.673395 0.290059 0.533015
O O13 0.911723 0.320362 0.584493
O O14 0.232502 0.022521 0.804874
O O15 0.000000 0.000000 0.500000
#
# Coordination Sequence:
#
# PCOD8021026 Si02
#       7
#     2   2   2   2   2   2   2
#     4  11  23  43  71 102 134 177 228 279 344 401
#     4  11  23  42  67  99 135 177 227 273 334 406
#     4  10  23  42  65  94 138 181 220 275 328 400
#     4  11  23  39  65 100 136 178 223 272 334 399
#     4  10  22  43  66  99 138 177 223 274 332 403
#     4  11  23  44  72 100 136 174 228 285 340 407
#     4  10  22  43  67  95 137 180 217 281 340 391
#
# _framework density 24.647335999999999
#
# number of rings (size 3 to 8) (size 9 to 14) (size 15 to 20)
#    0.000    1.429    4.286    0.429    0.000    8.571 
#    0.000    4.286    0.000    0.000    0.000    0.000 
#    0.000    0.000    0.000    0.000    0.000    0.000 
#
# Total GULP energy -173446.614558 kJ/mol
# GULP energy per Si atom -12389.043897 kJ/mol
# Density = 2.459124 g / cm^3
# Si number density = 24.647336 Si / 1000 Ang^3
#
#
#
# Elastic Constant Matrix: (Units=GPa)
#
#
# Indices 1 2 3 4 5 6 
#
# 1 118.0166 21.4636 38.1849 10.9218 -3.9313 -26.9696
# 2 21.4636 83.3121 32.2070 32.7287 -11.9303 -10.4462
# 3 38.1849 32.2070 120.3086 16.2155 -11.6869 -12.1364
# 4 10.9218 32.7287 16.2155 49.6188 -5.6498 -6.5586
# 5 -3.9313 -11.9303 -11.6869 -5.6498 40.1587 7.6018
# 6 -26.9696 -10.4462 -12.1364 -6.5586 7.6018 31.8979
#
#
#
# Elastic Compliance Matrix: (Units=1/GPa)
#
#
# Indices 1 2 3 4 5 6 
#
# 1 0.011458 -0.001081 -0.002626 0.000019 -0.001612 0.008722
# 2 -0.001081 0.017867 -0.002679 -0.010203 0.002767 0.001161
# 3 -0.002626 -0.002679 0.010154 -0.000747 0.001760 0.000192
# 4 0.000019 -0.010203 -0.000747 0.027411 0.000237 0.001970
# 5 -0.001612 0.002767 0.001760 0.000237 0.027293 -0.006243
# 6 0.008722 0.001161 0.000192 0.001970 -0.006243 0.041070
#
#
# Mechanical properties :
#
#
# Convention : Reuss Voigt Hill
#
# Bulk Modulus (GPa) = 37.44476 56.14981 46.79728
# Shear Modulus (GPa) = 31.86174 39.65388 35.75781
#
# Velocity S-wave (km/s) = 3.59932 4.01540 3.81304
# Velocity P-wave (km/s) = 5.70076 6.65798 6.19788
#
# Compressibility (1/GPa) = 0.02670601
#
# Stress axis : x y z
#
# Youngs Moduli (GPa) = 87.27861 55.96805 98.48505
#
# Poissons Ratio (x) = 0.06051 0.25866
# Poissons Ratio (y) = 0.09436 0.26383
# Poissons Ratio (z) = 0.22923 0.14993
#
# Static dielectric constant tensor:
#      x y z
#    x 4.727710 -0.281400 -0.217070 
#    y -0.281400 4.258300 0.273340 
#    z -0.217070 0.273340 4.884490 
# 
# 
# High freq. dielectric constant tensor:
#      x y z
#    x 1.998280 -0.022580 -0.001810 
#    y -0.022580 1.953040 0.008720 
#    z -0.001810 0.008720 1.986070 
# 
# From -- ./inp_files/447435.got.cif
#   From: 2010.06.25/outbox.cif.g09.slc.cpg/sg2_224_cif.got.tgz:447435.got - 2010.06.27 13:26:56.
