data_PCOD8021993
_publ_section_title
;
Structure prediction by ZEFSAII (Michael W. Deem and Ramdas Pophale) SiO2 
 PCOD8021993
Probable space group: P -1
;
_chemical_formula_sum "Si O2"
_cell_formula_units_Z 12
_cell_length_a 15.505297
_cell_length_b 9.635984
_cell_length_c 8.118497
_cell_angle_alpha 53.451647
_cell_angle_beta 59.546757
_cell_angle_gamma 28.807169
_cell_volume 469.199925
_symmetry_space_group_name_H-M "P -1"
_symmetry_group_IT_number 2
_symmetry_cell_setting 'triclinic'
loop_
_space_group_symop_operation_xyz
x,y,z
-x,-y,-z
loop_
_atom_site_type_symbol
_atom_site_label
_atom_site_fract_x
_atom_site_fract_y
_atom_site_fract_z
Si Si1 0.211278 0.359185 0.716258
Si Si2 0.178802 0.697161 0.741632
Si Si3 0.675172 0.200109 0.637167
Si Si4 0.527963 0.704820 0.998497
Si Si5 0.154728 0.659857 0.234442
Si Si6 0.073094 0.446163 0.290192
O O1 0.123147 0.597938 0.779868
O O2 0.214640 0.464582 0.471807
O O3 0.090139 0.360023 0.815300
O O4 0.413993 0.025598 0.806785
O O5 0.191126 0.827553 0.492156
O O6 0.370409 0.397055 0.856803
O O7 0.027794 0.973708 0.822183
O O8 0.500000 0.500000 0.500000
O O9 0.612946 0.247797 0.852881
O O10 0.759105 0.909654 0.676348
O O11 0.682892 0.441407 0.899631
O O12 0.129957 0.566045 0.164274
O O13 0.000000 0.500000 0.500000
#
# Coordination Sequence:
#
# PCOD8021993 Si02
#       6
#     2   2   2   2   2   2
#     4  11  24  45  74 102 137 181 234 282 344 408
#     4  11  23  47  73  99 138 185 230 282 343 410
#     4  10  23  43  70 100 139 182 228 277 348 404
#     4  11  26  45  69 109 137 181 228 292 340 411
#     4  11  24  46  73 100 139 183 230 283 344 409
#     4  10  22  44  71  98 138 185 225 276 350 407
#
# _framework density 25.575451999999999
#
# number of rings (size 3 to 8) (size 9 to 14) (size 15 to 20)
#    0.000    1.333    3.333    2.000    7.000    0.667 
#    0.000    3.333    0.000    0.000    0.000    0.000 
#    0.000    0.000    0.000    0.000    0.000    0.000 
#
# Total GULP energy -148684.757754 kJ/mol
# GULP energy per Si atom -12390.396480 kJ/mol
# Density = 2.551724 g / cm^3
# Si number density = 25.575452 Si / 1000 Ang^3
#
#
#
# Elastic Constant Matrix: (Units=GPa)
#
#
# Indices 1 2 3 4 5 6 
#
# 1 104.5362 69.2234 40.4696 1.4923 7.7332 16.8016
# 2 69.2234 186.9092 55.7555 3.0859 -8.3384 -17.9969
# 3 40.4696 55.7555 76.5547 1.3148 -0.4827 -17.4866
# 4 1.4923 3.0859 1.3148 49.1691 -14.5397 -3.6809
# 5 7.7332 -8.3384 -0.4827 -14.5397 30.3691 -1.6159
# 6 16.8016 -17.9969 -17.4866 -3.6809 -1.6159 24.3101
#
#
#
# Elastic Compliance Matrix: (Units=1/GPa)
#
#
# Indices 1 2 3 4 5 6 
#
# 1 0.038125 -0.013401 -0.023122 -0.010286 -0.021654 -0.055899
# 2 -0.013401 0.011734 0.003495 0.004105 0.009812 0.021736
# 3 -0.023122 0.003495 0.032759 0.006724 0.012929 0.044010
# 4 -0.010286 0.004105 0.006724 0.027012 0.017864 0.020262
# 5 -0.021654 0.009812 0.012929 0.017864 0.051899 0.037684
# 6 -0.055899 0.021736 0.044010 0.020262 0.037684 0.133090
#
#
# Mechanical properties :
#
#
# Convention : Reuss Voigt Hill
#
# Bulk Modulus (GPa) = 60.38443 77.65524 69.01983
# Shear Modulus (GPa) = 13.65389 34.27309 23.96349
#
# Velocity S-wave (km/s) = 2.31306 3.66468 3.06432
# Velocity P-wave (km/s) = 5.54935 6.95238 6.29011
#
# Compressibility (1/GPa) = 0.01656056
#
# Stress axis : x y z
#
# Youngs Moduli (GPa) = 26.22977 85.22519 30.52557
#
# Poissons Ratio (x) = 1.14209 0.70583
# Poissons Ratio (y) = 0.35150 -0.10668
# Poissons Ratio (z) = 0.60650 -0.29783
#
# Static dielectric constant tensor:
#      x y z
#    x 4.908940 -0.062170 -0.204110 
#    y -0.062170 4.566130 0.115400 
#    z -0.204110 0.115400 4.989880 
# 
# 
# High freq. dielectric constant tensor:
#      x y z
#    x 1.995590 -0.019580 0.000190 
#    y -0.019580 2.028370 0.003560 
#    z 0.000190 0.003560 2.047660 
# 
# From -- ./inp_files/291809.got.cif
#   From: 2010.06.25/outbox.cif.g09.slc.cpg/sg2_146_cif.got.tgz:291809.got - 2010.06.27 13:26:56.
