data_PCOD8021694
_publ_section_title
;
Structure prediction by ZEFSAII (Michael W. Deem and Ramdas Pophale) SiO2 
 PCOD8021694
Probable space group: P -1
;
_chemical_formula_sum "Si O2"
_cell_formula_units_Z 16
_cell_length_a 8.628334
_cell_length_b 9.166475
_cell_length_c 12.047521
_cell_angle_alpha 72.358334
_cell_angle_beta 68.119513
_cell_angle_gamma 116.466317
_cell_volume 653.226952
_symmetry_space_group_name_H-M "P -1"
_symmetry_group_IT_number 2
_symmetry_cell_setting 'triclinic'
loop_
_space_group_symop_operation_xyz
x,y,z
-x,-y,-z
loop_
_atom_site_type_symbol
_atom_site_label
_atom_site_fract_x
_atom_site_fract_y
_atom_site_fract_z
Si Si1 0.711465 0.546017 0.377614
Si Si2 0.909198 0.340005 0.366169
Si Si3 0.416172 0.873732 0.882614
Si Si4 0.122910 0.117565 0.609862
Si Si5 0.369352 0.721905 0.166447
Si Si6 0.792367 0.771864 0.085508
Si Si7 0.725704 0.929793 0.620587
Si Si8 0.071191 0.807226 0.834659
O O1 0.500000 0.500000 0.500000
O O2 0.735855 0.377300 0.417828
O O3 0.894183 0.724751 0.368517
O O4 0.756720 0.625887 0.223222
O O5 0.814334 0.143267 0.503900
O O6 0.936747 0.319939 0.232612
O O7 0.143594 0.517295 0.313420
O O8 0.207648 0.834074 0.898412
O O9 0.600792 0.099588 0.819711
O O10 0.506793 0.820671 0.771335
O O11 0.348639 0.732738 0.037399
O O12 0.897520 0.945910 0.651128
O O13 0.311454 0.204598 0.444791
O O14 0.174775 0.025707 0.713403
O O15 0.572212 0.736028 0.138707
O O16 0.835896 0.706031 0.973305
O O17 0.000000 0.000000 0.000000
#
# Coordination Sequence:
#
# PCOD8021694 Si02
#       8
#     2   2   2   2   2   2   2   2
#     4  12  28  43  68 106 142 179 225 292 346 409
#     4  11  28  45  68 106 146 177 230 295 350 395
#     4  11  23  40  72  99 136 187 234 274 344 417
#     4  10  22  44  66  98 138 182 234 268 346 410
#     4  11  25  43  68 106 135 182 232 290 342 412
#     4  12  24  46  73  97 135 188 231 279 342 421
#     4  10  24  42  71  96 138 186 227 285 335 419
#     4  11  24  46  74 101 137 186 235 283 339 416
#
# _framework density 24.493784000000002
#
# number of rings (size 3 to 8) (size 9 to 14) (size 15 to 20)
#    0.000    1.000    2.500    2.250    8.750    4.500 
#    0.000    0.000    0.000    0.000    0.000    0.000 
#    0.000    0.000    0.000    0.000    0.000    0.000 
#
# Total GULP energy -198356.127601 kJ/mol
# GULP energy per Si atom -12397.257975 kJ/mol
# Density = 2.443804 g / cm^3
# Si number density = 24.493784 Si / 1000 Ang^3
#
#
#
# Elastic Constant Matrix: (Units=GPa)
#
#
# Indices 1 2 3 4 5 6 
#
# 1 112.0460 6.4193 19.5093 3.4658 2.4190 -11.4850
# 2 6.4193 72.1487 8.3265 15.6655 1.2333 -20.2475
# 3 19.5093 8.3265 84.6698 24.2755 0.6088 -7.5818
# 4 3.4658 15.6655 24.2755 39.9695 -6.6128 -8.9041
# 5 2.4190 1.2333 0.6088 -6.6128 43.9352 6.3727
# 6 -11.4850 -20.2475 -7.5818 -8.9041 6.3727 35.3144
#
#
#
# Elastic Compliance Matrix: (Units=1/GPa)
#
#
# Indices 1 2 3 4 5 6 
#
# 1 0.009613 0.000051 -0.002244 0.001066 -0.000787 0.003085
# 2 0.000051 0.017695 0.000760 -0.005768 -0.002737 0.009365
# 3 -0.002244 0.000760 0.015007 -0.009292 -0.001632 0.000880
# 4 0.001066 -0.005768 -0.009292 0.034277 0.004987 0.002787
# 5 -0.000787 -0.002737 -0.001632 0.004987 0.024427 -0.005326
# 6 0.003085 0.009365 0.000880 0.002787 -0.005326 0.036542
#
#
# Mechanical properties :
#
#
# Convention : Reuss Voigt Hill
#
# Bulk Modulus (GPa) = 25.34818 37.48608 31.41713
# Shear Modulus (GPa) = 32.55703 39.48444 36.02074
#
# Velocity S-wave (km/s) = 3.64977 4.01935 3.83901
# Velocity P-wave (km/s) = 5.30400 6.07271 5.70132
#
# Compressibility (1/GPa) = 0.03945056
#
# Stress axis : x y z
#
# Youngs Moduli (GPa) = 104.02739 56.51229 66.63336
#
# Poissons Ratio (x) = -0.00290 0.14951
# Poissons Ratio (y) = -0.00534 -0.05064
# Poissons Ratio (z) = 0.23342 -0.04295
#
# Static dielectric constant tensor:
#      x y z
#    x 4.361110 -0.121170 -0.036580 
#    y -0.121170 4.805420 0.412820 
#    z -0.036580 0.412820 4.465460 
# 
# 
# High freq. dielectric constant tensor:
#      x y z
#    x 1.977710 -0.007070 0.003040 
#    y -0.007070 1.973660 0.023840 
#    z 0.003040 0.023840 1.980980 
# 
# From -- ./inp_files/343763.got.cif
#   From: 2010.06.25/outbox.cif.g09.slc.cpg/sg2_172_cif.got.tgz:343763.got - 2010.06.27 13:26:56.
