data_PCOD8021023
_publ_section_title
;
Structure prediction by ZEFSAII (Michael W. Deem and Ramdas Pophale) SiO2 
 PCOD8021023
Probable space group: P -1
;
_chemical_formula_sum "Si O2"
_cell_formula_units_Z 16
_cell_length_a 13.012056
_cell_length_b 29.081535
_cell_length_c 6.598038
_cell_angle_alpha 51.217499
_cell_angle_beta 135.923418
_cell_angle_gamma 156.031937
_cell_volume 701.521989
_symmetry_space_group_name_H-M "P -1"
_symmetry_group_IT_number 2
_symmetry_cell_setting 'triclinic'
loop_
_space_group_symop_operation_xyz
x,y,z
-x,-y,-z
loop_
_atom_site_type_symbol
_atom_site_label
_atom_site_fract_x
_atom_site_fract_y
_atom_site_fract_z
Si Si1 0.311858 0.415920 0.155825
Si Si2 0.745764 0.987957 0.310135
Si Si3 0.171159 0.772516 0.298774
Si Si4 0.382239 0.258361 0.080894
Si Si5 0.762280 0.323035 0.130520
Si Si6 0.788095 0.100541 0.758256
Si Si7 0.322419 0.526646 0.163984
Si Si8 0.337685 0.153064 0.668900
O O1 0.243276 0.448495 0.109317
O O2 0.463933 0.419785 0.501859
O O3 0.500000 0.500000 0.000000
O O4 0.022607 0.286735 0.014401
O O5 0.506136 0.895462 0.392247
O O6 0.720637 0.933433 0.241036
O O7 0.060949 0.084995 0.582302
O O8 0.722809 0.045784 0.029196
O O9 0.110969 0.685830 0.526988
O O10 0.100742 0.795875 0.310696
O O11 0.538282 0.372746 0.045302
O O12 0.045151 0.155615 0.850417
O O13 0.538471 0.289501 0.014258
O O14 0.425348 0.225003 0.408035
O O15 0.031951 0.450286 0.070630
O O16 0.600118 0.236269 0.958568
O O17 0.500000 0.000000 0.500000
#
# Coordination Sequence:
#
# PCOD8021023 Si02
#       8
#     2   2   2   2   2   2   2   2
#     4  11  24  46  72 102 141 180 231 290 346 409
#     4  10  22  43  66  98 135 179 229 284 347 399
#     4  12  24  43  73 100 138 183 230 283 351 409
#     4  11  26  46  65 103 140 180 230 286 339 410
#     4  12  25  43  71 101 135 191 227 275 353 406
#     4  11  26  43  68 105 138 178 236 287 344 415
#     4  11  26  43  73 104 138 185 233 282 345 409
#     4  10  23  44  67  97 141 178 228 287 336 412
#
# _framework density 22.807552000000001
#
# number of rings (size 3 to 8) (size 9 to 14) (size 15 to 20)
#    0.000    1.000    2.500    3.000    5.250    4.000 
#    0.000    0.000    0.000    0.000    0.000    0.000 
#    0.000    0.000    0.000    0.000    0.000    0.000 
#
# Total GULP energy -198405.417268 kJ/mol
# GULP energy per Si atom -12400.338579 kJ/mol
# Density = 2.275564 g / cm^3
# Si number density = 22.807552 Si / 1000 Ang^3
#
#
#
# Elastic Constant Matrix: (Units=GPa)
#
#
# Indices 1 2 3 4 5 6 
#
# 1 102.7150 25.4563 27.2957 12.0123 6.5488 11.5474
# 2 25.4563 104.0533 24.3025 6.9745 2.1947 9.1074
# 3 27.2957 24.3025 63.5129 25.1747 2.4578 -3.1781
# 4 12.0123 6.9745 25.1747 40.8701 -2.4707 -4.6958
# 5 6.5488 2.1947 2.4578 -2.4707 23.4839 -1.7328
# 6 11.5474 9.1074 -3.1781 -4.6958 -1.7328 46.9499
#
#
#
# Elastic Compliance Matrix: (Units=1/GPa)
#
#
# Indices 1 2 3 4 5 6 
#
# 1 0.011896 -0.001537 -0.004050 -0.001289 -0.003118 -0.003146
# 2 -0.001537 0.011036 -0.003953 0.000762 -0.000254 -0.001963
# 3 -0.004050 -0.003953 0.024357 -0.013043 -0.002273 0.002023
# 4 -0.001289 0.000762 -0.013043 0.033400 0.005376 0.002825
# 5 -0.003118 -0.000254 -0.002273 0.005376 0.044489 0.002842
# 6 -0.003146 -0.001963 0.002023 0.002825 0.002842 0.022978
#
#
# Mechanical properties :
#
#
# Convention : Reuss Voigt Hill
#
# Bulk Modulus (GPa) = 35.44936 47.15446 41.30191
# Shear Modulus (GPa) = 28.30627 35.14256 31.72441
#
# Velocity S-wave (km/s) = 3.52674 3.92960 3.73360
# Velocity P-wave (km/s) = 5.67101 6.42719 6.06091
#
# Compressibility (1/GPa) = 0.02820926
#
# Stress axis : x y z
#
# Youngs Moduli (GPa) = 84.06127 90.61454 41.05572
#
# Poissons Ratio (x) = 0.13926 0.16628
# Poissons Ratio (y) = 0.12919 0.16228
# Poissons Ratio (z) = 0.34047 0.35818
#
# Static dielectric constant tensor:
#      x y z
#    x 4.140540 0.120210 0.211550 
#    y 0.120210 4.236350 0.045940 
#    z 0.211550 0.045940 4.019470 
# 
# 
# High freq. dielectric constant tensor:
#      x y z
#    x 1.901840 0.010880 0.015100 
#    y 0.010880 1.912730 0.002300 
#    z 0.015100 0.002300 1.890530 
# 
# From -- ./inp_files/85035.got.cif
#   From: 2010.06.25/outbox.cif.g09.slc.cpg/sg2_43_cif.got.tgz:85035.got - 2010.06.27 13:26:56.
