data_PCOD8021748
_publ_section_title
;
Structure prediction by ZEFSAII (Michael W. Deem and Ramdas Pophale) SiO2 
 PCOD8021748
Probable space group: P -1
;
_chemical_formula_sum "Si O2"
_cell_formula_units_Z 14
_cell_length_a 20.070016
_cell_length_b 17.539991
_cell_length_c 8.486519
_cell_angle_alpha 139.114922
_cell_angle_beta 138.862946
_cell_angle_gamma 19.780300
_cell_volume 649.906045
_symmetry_space_group_name_H-M "P -1"
_symmetry_group_IT_number 2
_symmetry_cell_setting 'triclinic'
loop_
_space_group_symop_operation_xyz
x,y,z
-x,-y,-z
loop_
_atom_site_type_symbol
_atom_site_label
_atom_site_fract_x
_atom_site_fract_y
_atom_site_fract_z
Si Si1 0.723017 0.466029 0.537934
Si Si2 0.692964 0.055792 0.398452
Si Si3 0.651513 0.455430 0.736461
Si Si4 0.792791 0.699192 0.531465
Si Si5 0.961955 0.005395 0.762908
Si Si6 0.458137 0.872965 0.088671
Si Si7 0.947405 0.441581 0.713501
O O1 0.491626 0.717996 0.466365
O O2 0.720741 0.458191 0.710214
O O3 0.848226 0.449943 0.671641
O O4 0.819138 0.248823 0.310190
O O5 0.804695 0.058901 0.540391
O O6 0.619066 0.055408 0.115938
O O7 0.848091 0.819752 0.400549
O O8 0.500000 0.500000 0.500000
O O9 0.859021 0.214883 0.815584
O O10 0.531475 0.671716 0.963632
O O11 0.637704 0.788536 0.280774
O O12 0.807665 0.610449 0.581458
O O13 0.000000 0.500000 0.500000
O O14 0.717513 0.904522 0.761636
O O15 0.000000 0.000000 0.000000
O O16 0.000000 0.500000 0.000000
#
# Coordination Sequence:
#
# PCOD8021748 Si02
#       7
#     2   2   2   2   2   2   2
#     4  10  24  43  69  95 132 181 226 265 342 402
#     4  10  22  44  67  98 132 177 228 269 339 409
#     4  11  22  46  72  97 134 183 226 275 335 412
#     4  11  26  45  66 101 135 181 226 285 335 393
#     4  11  24  43  67 102 137 170 226 282 335 403
#     4  10  23  43  69  99 137 171 235 273 333 407
#     4  11  24  42  68  97 136 171 226 279 332 400
#
# _framework density 21.541574000000001
#
# number of rings (size 3 to 8) (size 9 to 14) (size 15 to 20)
#    0.000    1.429    4.286    0.429    8.000    3.429 
#    2.571    0.000    0.000    0.000    0.000    0.000 
#    0.000    0.000    0.000    0.000    0.000    0.000 
#
# Total GULP energy -173505.888330 kJ/mol
# GULP energy per Si atom -12393.277738 kJ/mol
# Density = 2.149254 g / cm^3
# Si number density = 21.541574 Si / 1000 Ang^3
#
#
#
# Elastic Constant Matrix: (Units=GPa)
#
#
# Indices 1 2 3 4 5 6 
#
# 1 96.7305 45.8704 34.7505 6.7562 -0.7519 -0.1297
# 2 45.8704 178.4144 53.5864 41.8822 -1.2589 -13.9722
# 3 34.7505 53.5864 106.2907 14.9725 -4.5015 -4.1401
# 4 6.7562 41.8822 14.9725 50.5420 6.1462 -3.7040
# 5 -0.7519 -1.2589 -4.5015 6.1462 19.3687 4.4363
# 6 -0.1297 -13.9722 -4.1401 -3.7040 4.4363 39.7501
#
#
#
# Elastic Compliance Matrix: (Units=1/GPa)
#
#
# Indices 1 2 3 4 5 6 
#
# 1 0.012626 -0.002784 -0.003004 0.001510 -0.000630 -0.001039
# 2 -0.002784 0.008660 -0.002461 -0.006087 0.001342 0.002061
# 3 -0.003004 -0.002461 0.011962 -0.001474 0.002994 -0.000101
# 4 0.001510 -0.006087 -0.001474 0.026282 -0.009294 0.001198
# 5 -0.000630 0.001342 0.002994 -0.009294 0.056809 -0.006425
# 6 -0.001039 0.002061 -0.000101 0.001198 -0.006425 0.026697
#
#
# Mechanical properties :
#
#
# Convention : Reuss Voigt Hill
#
# Bulk Modulus (GPa) = 59.70613 72.20556 65.95584
# Shear Modulus (GPa) = 30.28172 38.41405 34.34789
#
# Velocity S-wave (km/s) = 3.75338 4.22744 3.99744
# Velocity P-wave (km/s) = 6.82354 7.57761 7.21044
#
# Compressibility (1/GPa) = 0.01674870
#
# Stress axis : x y z
#
# Youngs Moduli (GPa) = 79.20365 115.47825 83.60127
#
# Poissons Ratio (x) = 0.32149 0.25114
# Poissons Ratio (y) = 0.22050 0.20574
# Poissons Ratio (z) = 0.23793 0.28419
#
# Static dielectric constant tensor:
#      x y z
#    x 3.589750 0.054650 0.042190 
#    y 0.054650 4.966200 0.436330 
#    z 0.042190 0.436330 3.822490 
# 
# 
# High freq. dielectric constant tensor:
#      x y z
#    x 1.813020 0.003980 0.005580 
#    y 0.003980 1.882520 0.016640 
#    z 0.005580 0.016640 1.842470 
# 
# From -- ./inp_files/348725.got.cif
#   From: 2010.06.25/outbox.cif.g09.slc.cpg/sg2_175_cif.got.tgz:348725.got - 2010.06.27 13:26:56.
