data_PCOD8021009
_publ_section_title
;
Structure prediction by ZEFSAII (Michael W. Deem and Ramdas Pophale) SiO2 
 PCOD8021009
Probable space group: P -1
;
_chemical_formula_sum "Si O2"
_cell_formula_units_Z 16
_cell_length_a 13.763553
_cell_length_b 15.676817
_cell_length_c 6.898994
_cell_angle_alpha 62.136707
_cell_angle_beta 93.563600
_cell_angle_gamma 140.232366
_cell_volume 716.303562
_symmetry_space_group_name_H-M "P -1"
_symmetry_group_IT_number 2
_symmetry_cell_setting 'triclinic'
loop_
_space_group_symop_operation_xyz
x,y,z
-x,-y,-z
loop_
_atom_site_type_symbol
_atom_site_label
_atom_site_fract_x
_atom_site_fract_y
_atom_site_fract_z
Si Si1 0.588848 0.975629 0.596196
Si Si2 0.109877 0.714561 0.952333
Si Si3 0.207668 0.902823 0.143827
Si Si4 0.760054 0.870594 0.224774
Si Si5 0.690833 0.670004 0.747781
Si Si6 0.228903 0.597060 0.008332
Si Si7 0.831992 0.629121 0.515749
Si Si8 0.173955 0.230495 0.934870
O O1 0.432545 0.765707 0.772045
O O2 0.500000 0.000000 0.500000
O O3 0.651420 0.033898 0.766834
O O4 0.761209 0.105080 0.342642
O O5 0.121253 0.757753 0.130639
O O6 0.908450 0.555978 0.010715
O O7 0.172883 0.656557 0.009228
O O8 0.047582 0.809015 0.358852
O O9 0.311754 0.080314 0.870109
O O10 0.693957 0.774588 0.524694
O O11 0.702450 0.749575 0.172160
O O12 0.971132 0.049525 0.045273
O O13 0.749734 0.632745 0.658106
O O14 0.500000 0.500000 0.000000
O O15 0.826939 0.779675 0.825339
O O16 0.231363 0.531173 0.269198
O O17 0.766455 0.614519 0.310962
#
# Coordination Sequence:
#
# PCOD8021009 Si02
#       8
#     2   2   2   2   2   2   2   2
#     4  10  23  44  65  97 134 172 224 282 325 393
#     4  10  23  44  65  97 135 179 221 274 338 386
#     4  11  23  41  69  96 131 179 228 274 326 404
#     4   9  21  38  62  92 118 167 216 261 320 392
#     4  11  24  40  63  94 133 169 209 274 334 386
#     4  10  22  43  66  96 139 173 220 283 327 391
#     4  10  23  40  62  98 127 175 226 268 324 405
#     4   9  20  40  61  88 124 163 213 267 320 387
#
# _framework density 22.336898999999999
#
# number of rings (size 3 to 8) (size 9 to 14) (size 15 to 20)
#    0.000    2.000    1.250    1.125    3.500    8.500 
#    2.250    0.000    0.000    0.000    0.000    0.000 
#    0.000    0.000    0.000    0.000    0.000    0.000 
#
# Total GULP energy -198222.600030 kJ/mol
# GULP energy per Si atom -12388.912502 kJ/mol
# Density = 2.228606 g / cm^3
# Si number density = 22.336899 Si / 1000 Ang^3
#
#
#
# Elastic Constant Matrix: (Units=GPa)
#
#
# Indices 1 2 3 4 5 6 
#
# 1 75.6396 44.6179 52.5527 5.7020 15.9399 -0.6641
# 2 44.6179 89.8920 58.6692 -2.3835 -0.4731 19.1623
# 3 52.5527 58.6692 165.0035 -4.6882 22.5819 1.8810
# 4 5.7020 -2.3835 -4.6882 41.1048 -0.0653 4.4250
# 5 15.9399 -0.4731 22.5819 -0.0653 40.6363 -3.2893
# 6 -0.6641 19.1623 1.8810 4.4250 -3.2893 21.8353
#
#
#
# Elastic Compliance Matrix: (Units=1/GPa)
#
#
# Indices 1 2 3 4 5 6 
#
# 1 0.025397 -0.014167 -0.002316 -0.006071 -0.007760 0.013466
# 2 -0.014167 0.027108 -0.005673 0.005460 0.007110 -0.023767
# 3 -0.002316 -0.005673 0.009356 0.000693 -0.004085 0.003347
# 4 -0.006071 0.005460 0.000693 0.026671 0.001273 -0.010249
# 5 -0.007760 0.007110 -0.004085 0.001273 0.029855 -0.001885
# 6 0.013466 -0.023767 0.003347 -0.010249 -0.001885 0.068569
#
#
# Mechanical properties :
#
#
# Convention : Reuss Voigt Hill
#
# Bulk Modulus (GPa) = 56.98417 71.35719 64.17068
# Shear Modulus (GPa) = 21.08660 32.36162 26.72411
#
# Velocity S-wave (km/s) = 3.07583 3.81044 3.46267
# Velocity P-wave (km/s) = 6.17907 7.16760 6.69161
#
# Compressibility (1/GPa) = 0.01754873
#
# Stress axis : x y z
#
# Youngs Moduli (GPa) = 39.37407 36.88996 106.88552
#
# Poissons Ratio (x) = 0.52262 0.24750
# Poissons Ratio (y) = 0.55781 0.60641
# Poissons Ratio (z) = 0.09117 0.20929
#
# Static dielectric constant tensor:
#      x y z
#    x 4.102360 0.276380 0.577760 
#    y 0.276380 4.672010 0.753240 
#    z 0.577760 0.753240 6.400940 
# 
# 
# High freq. dielectric constant tensor:
#      x y z
#    x 1.871770 0.010690 0.017590 
#    y 0.010690 1.857020 -0.008340 
#    z 0.017590 -0.008340 1.896410 
# 
# From -- ./inp_files/97738.got.cif
#   From: 2010.06.25/outbox.cif.g09.slc.cpg/sg2_49_cif.got.tgz:97738.got - 2010.06.27 13:26:56.
