data_PCOD8021494
_publ_section_title
;
Structure prediction by ZEFSAII (Michael W. Deem and Ramdas Pophale) SiO2 
 PCOD8021494
Probable space group: P -1
;
_chemical_formula_sum "Si O2"
_cell_formula_units_Z 12
_cell_length_a 8.274367
_cell_length_b 8.779769
_cell_length_c 10.911425
_cell_angle_alpha 112.210861
_cell_angle_beta 59.135902
_cell_angle_gamma 140.405654
_cell_volume 433.452775
_symmetry_space_group_name_H-M "P -1"
_symmetry_group_IT_number 2
_symmetry_cell_setting 'triclinic'
loop_
_space_group_symop_operation_xyz
x,y,z
-x,-y,-z
loop_
_atom_site_type_symbol
_atom_site_label
_atom_site_fract_x
_atom_site_fract_y
_atom_site_fract_z
Si Si1 0.720410 0.035804 0.298906
Si Si2 0.659193 0.218430 0.847541
Si Si3 0.405924 0.685091 0.523301
Si Si4 0.770181 0.773494 0.602023
Si Si5 0.808498 0.658628 0.965793
Si Si6 0.148107 0.949950 0.137659
O O1 0.773514 0.262418 0.379000
O O2 0.973832 0.120235 0.146383
O O3 0.434687 0.844933 0.276446
O O4 0.673554 0.897253 0.397921
O O5 0.856935 0.494752 0.888035
O O6 0.841429 0.174703 0.793093
O O7 0.381804 0.053062 0.982426
O O8 0.491661 0.670072 0.619280
O O9 0.226268 0.423634 0.454850
O O10 0.801573 0.842335 0.754116
O O11 0.000000 0.000000 0.500000
O O12 0.500000 0.500000 0.000000
O O13 0.862084 0.755113 0.113738
#
# Coordination Sequence:
#
# PCOD8021494 Si02
#       6
#     2   2   2   2   2   2
#     4  10  23  46  77 107 153 192 253 298 384 440
#     4  10  22  43  75 103 144 192 248 309 373 442
#     4  10  24  46  72 112 149 202 238 307 367 460
#     4  11  25  43  74 110 153 189 250 301 378 443
#     4  11  26  44  75 108 145 196 250 318 371 434
#     4  10  23  45  69 107 146 192 248 306 377 441
#
# _framework density 27.684677000000001
#
# number of rings (size 3 to 8) (size 9 to 14) (size 15 to 20)
#    0.000    1.667    1.667    0.500    2.333   10.667 
#    0.000    5.833    0.000    1.000    0.000    0.000 
#    0.000    0.000    0.000    0.000    0.000    0.000 
#
# Total GULP energy -148802.712094 kJ/mol
# GULP energy per Si atom -12400.226008 kJ/mol
# Density = 2.762167 g / cm^3
# Si number density = 27.684677 Si / 1000 Ang^3
#
#
#
# Elastic Constant Matrix: (Units=GPa)
#
#
# Indices 1 2 3 4 5 6 
#
# 1 125.1505 51.2407 56.7379 15.0452 34.5023 7.7666
# 2 51.2407 133.1734 44.1498 41.1273 1.9376 -10.7775
# 3 56.7379 44.1498 127.6891 38.5247 15.3103 11.4032
# 4 15.0452 41.1273 38.5247 62.6137 7.0368 -7.5168
# 5 34.5023 1.9376 15.3103 7.0368 43.9580 3.4938
# 6 7.7666 -10.7775 11.4032 -7.5168 3.4938 48.1281
#
#
#
# Elastic Compliance Matrix: (Units=1/GPa)
#
#
# Indices 1 2 3 4 5 6 
#
# 1 0.014574 -0.005206 -0.004462 0.003665 -0.010151 -0.001151
# 2 -0.005206 0.011798 -0.000602 -0.006371 0.004613 0.002295
# 3 -0.004462 -0.000602 0.012221 -0.006522 0.000584 -0.003371
# 4 0.003665 -0.006371 -0.006522 0.024229 -0.004492 0.003638
# 5 -0.010151 0.004613 0.000584 -0.004492 0.031062 -0.000424
# 6 -0.001151 0.002295 -0.003371 0.003638 -0.000424 0.022875
#
#
# Mechanical properties :
#
#
# Convention : Reuss Voigt Hill
#
# Bulk Modulus (GPa) = 55.39055 76.69665 66.04360
# Shear Modulus (GPa) = 34.88794 46.53227 40.71011
#
# Velocity S-wave (km/s) = 3.55377 4.10420 3.83886
# Velocity P-wave (km/s) = 6.07372 7.08682 6.59974
#
# Compressibility (1/GPa) = 0.01805362
#
# Stress axis : x y z
#
# Youngs Moduli (GPa) = 68.61651 84.76281 81.82588
#
# Poissons Ratio (x) = 0.44125 0.36509
# Poissons Ratio (y) = 0.35720 0.04925
# Poissons Ratio (z) = 0.30615 0.05102
#
# Static dielectric constant tensor:
#      x y z
#    x 5.358300 -0.297490 0.293590 
#    y -0.297490 5.167440 0.366130 
#    z 0.293590 0.366130 5.145760 
# 
# 
# High freq. dielectric constant tensor:
#      x y z
#    x 2.128340 -0.014430 0.010360 
#    y -0.014430 2.115690 0.017450 
#    z 0.010360 0.017450 2.118820 
# 
# From -- ./inp_files/377051.got.cif
#   From: 2010.06.25/outbox.cif.g09.slc.cpg/sg2_189_cif.got.tgz:377051.got - 2010.06.27 13:26:56.
