data_PCOD8021761
_publ_section_title
;
Structure prediction by ZEFSAII (Michael W. Deem and Ramdas Pophale) SiO2 
 PCOD8021761
Probable space group: P -1
;
_chemical_formula_sum "Si O2"
_cell_formula_units_Z 14
_cell_length_a 11.145039
_cell_length_b 20.581763
_cell_length_c 20.415175
_cell_angle_alpha 159.900928
_cell_angle_beta 22.939751
_cell_angle_gamma 149.155388
_cell_volume 626.542867
_symmetry_space_group_name_H-M "P -1"
_symmetry_group_IT_number 2
_symmetry_cell_setting 'triclinic'
loop_
_space_group_symop_operation_xyz
x,y,z
-x,-y,-z
loop_
_atom_site_type_symbol
_atom_site_label
_atom_site_fract_x
_atom_site_fract_y
_atom_site_fract_z
Si Si1 0.693997 0.113763 0.366062
Si Si2 0.313677 0.078797 0.393462
Si Si3 0.116769 0.213883 0.835114
Si Si4 0.954868 0.239570 0.083423
Si Si5 0.463035 0.968549 0.078409
Si Si6 0.193070 0.491941 0.828778
Si Si7 0.810333 0.616160 0.593426
O O1 0.542130 0.100471 0.359141
O O2 0.447951 0.142823 0.575410
O O3 0.901468 0.297381 0.432111
O O4 0.883418 0.917546 0.099135
O O5 0.467469 0.946847 0.135256
O O6 0.230387 0.274546 0.583011
O O7 0.000000 0.000000 0.500000
O O8 0.885432 0.040291 0.781168
O O9 0.145967 0.271689 0.951261
O O10 0.990831 0.393478 0.026582
O O11 0.619111 0.160216 0.157739
O O12 0.923269 0.437037 0.323857
O O13 0.667116 0.783057 0.775700
O O14 0.540498 0.562676 0.729356
O O15 0.000000 0.500000 0.000000
#
# Coordination Sequence:
#
# PCOD8021761 Si02
#       7
#     2   2   2   2   2   2   2
#     4  11  25  44  68 101 137 175 222 279 334 404
#     4  12  22  44  70  99 132 171 226 276 339 390
#     4  11  23  45  69  98 136 175 230 279 324 401
#     4  11  24  45  68  98 138 183 217 272 346 392
#     4  10  22  44  68 100 130 176 230 279 325 397
#     4  11  22  44  69  99 131 176 228 278 327 394
#     4  10  24  44  64 100 139 174 224 271 337 399
#
# _framework density 22.344840000000001
#
# number of rings (size 3 to 8) (size 9 to 14) (size 15 to 20)
#    0.000    1.143    4.286    1.714    0.000    6.857 
#   10.286    0.000    0.000    0.000    0.000    0.000 
#    0.000    0.000    0.000    0.000    0.000    0.000 
#
# Total GULP energy -173539.606341 kJ/mol
# GULP energy per Si atom -12395.686167 kJ/mol
# Density = 2.229398 g / cm^3
# Si number density = 22.344840 Si / 1000 Ang^3
#
#
#
# Elastic Constant Matrix: (Units=GPa)
#
#
# Indices 1 2 3 4 5 6 
#
# 1 84.1733 52.8848 42.5109 -5.3323 16.9004 -5.1197
# 2 52.8848 112.1319 46.2960 -2.9994 7.0995 21.1888
# 3 42.5109 46.2960 119.6537 1.8519 19.4428 8.5506
# 4 -5.3323 -2.9994 1.8519 47.3440 -1.9103 0.8488
# 5 16.9004 7.0995 19.4428 -1.9103 32.2970 -9.0206
# 6 -5.1197 21.1888 8.5506 0.8488 -9.0206 40.4203
#
#
#
# Elastic Compliance Matrix: (Units=1/GPa)
#
#
# Indices 1 2 3 4 5 6 
#
# 1 0.021208 -0.009563 -0.003633 0.001605 -0.004648 0.007397
# 2 -0.009563 0.016048 -0.002209 0.000200 0.000277 -0.009098
# 3 -0.003633 -0.002209 0.011629 -0.001173 -0.005512 -0.002967
# 4 0.001605 0.000200 -0.001173 0.021404 0.001130 0.000149
# 5 -0.004648 0.000277 -0.005512 0.001130 0.039281 0.009175
# 6 0.007397 -0.009098 -0.002967 0.000149 0.009175 0.033119
#
#
# Mechanical properties :
#
#
# Convention : Reuss Voigt Hill
#
# Bulk Modulus (GPa) = 55.32897 66.59360 60.96129
# Shear Modulus (GPa) = 27.85141 35.63008 31.74075
#
# Velocity S-wave (km/s) = 3.53432 3.99752 3.77304
# Velocity P-wave (km/s) = 6.43975 7.15362 6.80605
#
# Compressibility (1/GPa) = 0.01807371
#
# Stress axis : x y z
#
# Youngs Moduli (GPa) = 47.15198 62.31482 85.99220
#
# Poissons Ratio (x) = 0.59591 0.31241
# Poissons Ratio (y) = 0.45091 0.19000
# Poissons Ratio (z) = 0.17130 0.13768
#
# Static dielectric constant tensor:
#      x y z
#    x 9.737770 3.323610 1.770730 
#    y 3.323610 6.227650 0.886870 
#    z 1.770730 0.886870 4.825770 
# 
# 
# High freq. dielectric constant tensor:
#      x y z
#    x 1.859000 -0.000050 0.007860 
#    y -0.000050 1.898450 -0.005820 
#    z 0.007860 -0.005820 1.891340 
# 
# From -- ./inp_files/418627.got.cif
#   From: 2010.06.25/outbox.cif.g09.slc.cpg/sg2_210_cif.got.tgz:418627.got - 2010.06.27 13:26:56.
