data_PCOD8021328
_publ_section_title
;
Structure prediction by ZEFSAII (Michael W. Deem and Ramdas Pophale) SiO2 
 PCOD8021328
Probable space group: P -1
;
_chemical_formula_sum "Si O2"
_cell_formula_units_Z 16
_cell_length_a 22.944328
_cell_length_b 9.769732
_cell_length_c 7.724527
_cell_angle_alpha 90.590484
_cell_angle_beta 64.003100
_cell_angle_gamma 142.720664
_cell_volume 738.350788
_symmetry_space_group_name_H-M "P -1"
_symmetry_group_IT_number 2
_symmetry_cell_setting 'triclinic'
loop_
_space_group_symop_operation_xyz
x,y,z
-x,-y,-z
loop_
_atom_site_type_symbol
_atom_site_label
_atom_site_fract_x
_atom_site_fract_y
_atom_site_fract_z
Si Si1 0.348870 0.797877 0.530132
Si Si2 0.429281 0.651151 0.520679
Si Si3 0.006605 0.406019 0.844057
Si Si4 0.765704 0.265309 0.647982
Si Si5 0.949511 0.764467 0.992062
Si Si6 0.239316 0.152350 0.014900
Si Si7 0.984673 0.127387 0.477819
Si Si8 0.562121 0.692205 0.086761
O O1 0.407014 0.750772 0.443634
O O2 0.315780 0.785159 0.377084
O O3 0.451506 0.096573 0.490721
O O4 0.213773 0.544582 0.821085
O O5 0.292378 0.354885 0.799954
O O6 0.459319 0.579607 0.350342
O O7 0.150724 0.697509 0.563087
O O8 0.000000 0.500000 0.000000
O O9 0.001769 0.244340 0.920937
O O10 0.870867 0.166888 0.903979
O O11 0.882664 0.558115 0.607354
O O12 0.662249 0.000017 0.906251
O O13 0.018490 0.852062 0.722635
O O14 0.000000 0.000000 0.000000
O O15 0.368062 0.303988 0.907654
O O16 0.162355 0.094610 0.264243
O O17 0.000000 0.000000 0.500000
O O18 0.500000 0.500000 0.000000
#
# Coordination Sequence:
#
# PCOD8021328 Si02
#       8
#     2   2   2   2   2   2   2   2
#     4  10  22  43  70  94 126 170 222 278 326 389
#     4  11  24  44  67  92 129 179 226 267 325 384
#     4  10  24  38  67  95 124 172 208 268 336 391
#     4  10  24  42  63  99 131 159 222 267 335 389
#     4  11  22  41  68  98 130 166 215 270 338 396
#     4  11  26  42  64  96 133 170 221 263 325 394
#     4  11  23  41  69 101 131 164 209 281 336 393
#     4  12  28  42  63  94 137 184 221 264 319 395
#
# _framework density 21.669917000000002
#
# number of rings (size 3 to 8) (size 9 to 14) (size 15 to 20)
#    0.000    1.250    0.000    5.625    8.750    4.500 
#    0.000    0.000    0.000    0.000    0.000    0.000 
#    0.000    0.000    0.000    0.000    0.000    0.000 
#
# Total GULP energy -198327.632710 kJ/mol
# GULP energy per Si atom -12395.477044 kJ/mol
# Density = 2.162060 g / cm^3
# Si number density = 21.669917 Si / 1000 Ang^3
#
#
#
# Elastic Constant Matrix: (Units=GPa)
#
#
# Indices 1 2 3 4 5 6 
#
# 1 56.6617 18.5210 8.9191 1.8779 -8.1847 0.1836
# 2 18.5210 79.7361 37.5194 17.1596 -14.1546 -2.7942
# 3 8.9191 37.5194 129.7928 9.1189 1.1555 -3.9083
# 4 1.8779 17.1596 9.1189 42.6714 -4.5789 -0.1182
# 5 -8.1847 -14.1546 1.1555 -4.5789 34.5572 1.2097
# 6 0.1836 -2.7942 -3.9083 -0.1182 1.2097 33.9459
#
#
#
# Elastic Compliance Matrix: (Units=1/GPa)
#
#
# Indices 1 2 3 4 5 6 
#
# 1 0.019448 -0.004111 -0.000277 0.001189 0.003109 -0.000582
# 2 -0.004111 0.017832 -0.004521 -0.005406 0.005739 0.000746
# 3 -0.000277 -0.004521 0.009099 -0.000358 -0.002296 0.000758
# 4 0.001189 -0.005406 -0.000358 0.025794 0.001513 -0.000457
# 5 0.003109 0.005739 -0.002296 0.001513 0.032335 -0.000956
# 6 -0.000582 0.000746 0.000758 -0.000457 -0.000956 0.029643
#
#
# Mechanical properties :
#
#
# Convention : Reuss Voigt Hill
#
# Bulk Modulus (GPa) = 35.01338 44.01218 39.51278
# Shear Modulus (GPa) = 30.96184 35.65030 33.30607
#
# Velocity S-wave (km/s) = 3.78404 4.06045 3.92468
# Velocity P-wave (km/s) = 5.94009 6.50671 6.22985
#
# Compressibility (1/GPa) = 0.02856051
#
# Stress axis : x y z
#
# Youngs Moduli (GPa) = 51.42014 56.07905 109.90307
#
# Poissons Ratio (x) = 0.23056 0.03040
# Poissons Ratio (y) = 0.21141 0.49687
# Poissons Ratio (z) = 0.01422 0.25353
#
# Static dielectric constant tensor:
#      x y z
#    x 3.878240 0.057590 0.041980 
#    y 0.057590 3.971890 0.045250 
#    z 0.041980 0.045250 4.237100 
# 
# 
# High freq. dielectric constant tensor:
#      x y z
#    x 1.857180 0.000470 -0.000220 
#    y 0.000470 1.859380 -0.002800 
#    z -0.000220 -0.002800 1.860900 
# 
# From -- ./inp_files/352237.got.cif
#   From: 2010.06.25/outbox.cif.g09.slc.cpg/sg2_177_cif.got.tgz:352237.got - 2010.06.27 13:26:56.
