data_PCOD8021447
_publ_section_title
;
Structure prediction by ZEFSAII (Michael W. Deem and Ramdas Pophale) SiO2 
 PCOD8021447
Probable space group: P -1
;
_chemical_formula_sum "Si O2"
_cell_formula_units_Z 16
_cell_length_a 15.915560
_cell_length_b 9.558472
_cell_length_c 9.443223
_cell_angle_alpha 76.656672
_cell_angle_beta 147.785125
_cell_angle_gamma 109.678730
_cell_volume 716.904740
_symmetry_space_group_name_H-M "P -1"
_symmetry_group_IT_number 2
_symmetry_cell_setting 'triclinic'
loop_
_space_group_symop_operation_xyz
x,y,z
-x,-y,-z
loop_
_atom_site_type_symbol
_atom_site_label
_atom_site_fract_x
_atom_site_fract_y
_atom_site_fract_z
Si Si1 0.158173 0.594525 0.111552
Si Si2 0.895345 0.566263 0.225198
Si Si3 0.452289 0.882826 0.084856
Si Si4 0.702436 0.546880 0.435519
Si Si5 0.324094 0.935979 0.189209
Si Si6 0.196743 0.151694 0.366502
Si Si7 0.648630 0.423153 0.102833
Si Si8 0.921219 0.886247 0.107511
O O1 0.311664 0.560893 0.422647
O O2 0.212838 0.776475 0.132562
O O3 0.128739 0.522854 0.933684
O O4 0.000000 0.500000 0.000000
O O5 0.716683 0.539084 0.047182
O O6 0.959723 0.743737 0.266770
O O7 0.000000 0.500000 0.500000
O O8 0.357061 0.930122 0.069604
O O9 0.615005 0.845993 0.384752
O O10 0.331021 0.737422 0.875166
O O11 0.500000 0.000000 0.000000
O O12 0.828863 0.706270 0.615805
O O13 0.754989 0.469463 0.388994
O O14 0.538570 0.583689 0.144240
O O15 0.500000 0.000000 0.500000
O O16 0.220897 0.056217 0.034279
O O17 0.122981 0.158461 0.106115
O O18 0.095376 0.008105 0.340654
#
# Coordination Sequence:
#
# PCOD8021447 Si02
#       8
#     2   2   2   2   2   2   2   2
#     4  12  26  45  75 105 147 190 247 301 363 440
#     4  12  27  46  71 103 144 190 245 300 364 429
#     4  11  25  44  71 103 149 189 238 303 374 432
#     4  10  22  43  72  99 139 186 242 295 359 430
#     4  12  27  45  73 115 147 188 249 300 368 451
#     4  10  22  44  70 107 140 192 241 300 368 437
#     4  10  24  43  67 102 138 185 243 295 358 432
#     4  11  25  43  74 104 149 187 242 302 367 435
#
# _framework density 22.318168
#
# number of rings (size 3 to 8) (size 9 to 14) (size 15 to 20)
#    0.000    1.000    3.750    1.500    7.000    2.500 
#    0.000    1.875    0.000    0.000    0.000    0.000 
#    0.000    0.000    0.000    0.000    0.000    0.000 
#
# Total GULP energy -198256.203058 kJ/mol
# GULP energy per Si atom -12391.012691 kJ/mol
# Density = 2.226737 g / cm^3
# Si number density = 22.318168 Si / 1000 Ang^3
#
#
#
# Elastic Constant Matrix: (Units=GPa)
#
#
# Indices 1 2 3 4 5 6 
#
# 1 129.7869 59.1888 51.2573 19.9495 -29.7291 1.0762
# 2 59.1888 171.3502 56.9986 6.5328 -16.9357 6.7048
# 3 51.2573 56.9986 83.5550 7.6375 -23.4523 -8.1760
# 4 19.9495 6.5328 7.6375 37.8620 1.2594 -5.5008
# 5 -29.7291 -16.9357 -23.4523 1.2594 41.0959 5.2654
# 6 1.0762 6.7048 -8.1760 -5.5008 5.2654 43.3330
#
#
#
# Elastic Compliance Matrix: (Units=1/GPa)
#
#
# Indices 1 2 3 4 5 6 
#
# 1 0.012750 -0.002006 -0.004331 -0.006056 0.006415 -0.002372
# 2 -0.002006 0.008092 -0.004663 0.000332 -0.000535 -0.001975
# 3 -0.004331 -0.004663 0.019860 -0.000561 0.005809 0.003799
# 4 -0.006056 0.000332 -0.000561 0.030531 -0.006090 0.004609
# 5 0.006415 -0.000535 0.005809 -0.006090 0.032733 -0.003731
# 6 -0.002372 -0.001975 0.003799 0.004609 -0.003731 0.025197
#
#
# Mechanical properties :
#
#
# Convention : Reuss Voigt Hill
#
# Bulk Modulus (GPa) = 53.47306 79.95351 66.71328
# Shear Modulus (GPa) = 31.76683 38.94132 35.35408
#
# Velocity S-wave (km/s) = 3.77684 4.18164 3.98439
# Velocity P-wave (km/s) = 6.55979 7.69526 7.15010
#
# Compressibility (1/GPa) = 0.01870101
#
# Stress axis : x y z
#
# Youngs Moduli (GPa) = 78.43018 123.58201 50.35290
#
# Poissons Ratio (x) = 0.24787 0.21810
# Poissons Ratio (y) = 0.15731 0.23481
# Poissons Ratio (z) = 0.33972 0.57629
#
# Static dielectric constant tensor:
#      x y z
#    x 4.433460 0.006210 -0.086610 
#    y 0.006210 4.445960 0.242120 
#    z -0.086610 0.242120 4.277140 
# 
# 
# High freq. dielectric constant tensor:
#      x y z
#    x 1.884560 -0.004600 -0.004770 
#    y -0.004600 1.889350 0.012550 
#    z -0.004770 0.012550 1.889420 
# 
# From -- ./inp_files/298440.got.cif
#   From: 2010.06.25/outbox.cif.g09.slc.cpg/sg2_150_cif.got.tgz:298440.got - 2010.06.27 13:26:56.
