data_PCOD8021888
_publ_section_title
;
Structure prediction by ZEFSAII (Michael W. Deem and Ramdas Pophale) SiO2 
 PCOD8021888
Probable space group: P -1
;
_chemical_formula_sum "Si O2"
_cell_formula_units_Z 12
_cell_length_a 15.089579
_cell_length_b 14.078525
_cell_length_c 11.649883
_cell_angle_alpha 31.673788
_cell_angle_beta 24.117928
_cell_angle_gamma 29.932192
_cell_volume 482.194362
_symmetry_space_group_name_H-M "P -1"
_symmetry_group_IT_number 2
_symmetry_cell_setting 'triclinic'
loop_
_space_group_symop_operation_xyz
x,y,z
-x,-y,-z
loop_
_atom_site_type_symbol
_atom_site_label
_atom_site_fract_x
_atom_site_fract_y
_atom_site_fract_z
Si Si1 0.268829 0.922055 0.013715
Si Si2 0.878451 0.245521 0.027548
Si Si3 0.320673 0.416321 0.247628
Si Si4 0.763141 0.449491 0.200438
Si Si5 0.938353 0.337777 0.344706
Si Si6 0.621508 0.735230 0.427133
O O1 0.104282 0.837107 0.363311
O O2 0.526267 0.755276 0.846176
O O3 0.114748 0.036688 0.965364
O O4 0.323891 0.078200 0.867805
O O5 0.829707 0.330371 0.126915
O O6 0.659500 0.195916 0.297397
O O7 0.895315 0.405546 0.749667
O O8 0.237845 0.332236 0.544635
O O9 0.500000 0.500000 0.000000
O O10 0.500000 0.500000 0.500000
O O11 0.937617 0.310019 0.236959
O O12 0.814280 0.649375 0.922636
O O13 0.722318 0.552239 0.408898
#
# Coordination Sequence:
#
# PCOD8021888 Si02
#       6
#     2   2   2   2   2   2
#     4  12  24  44  70 103 137 181 224 276 343 401
#     4  11  24  42  72 103 131 187 230 266 348 401
#     4  10  22  44  69  99 144 176 220 286 326 401
#     4  11  22  45  73  94 136 182 222 284 342 393
#     4  11  24  44  70  98 140 174 222 293 329 391
#     4  11  23  46  66 103 142 173 229 279 331 405
#
# _framework density 24.886230999999999
#
# number of rings (size 3 to 8) (size 9 to 14) (size 15 to 20)
#    0.000    1.000    6.667    0.500    0.000    6.667 
#    0.000    1.667    0.000    0.000    0.000    0.000 
#    0.000    0.000    0.000    0.000    0.000    0.000 
#
# Total GULP energy -148722.644161 kJ/mol
# GULP energy per Si atom -12393.553680 kJ/mol
# Density = 2.482959 g / cm^3
# Si number density = 24.886231 Si / 1000 Ang^3
#
#
#
# Elastic Constant Matrix: (Units=GPa)
#
#
# Indices 1 2 3 4 5 6 
#
# 1 87.2441 13.4116 7.4306 -23.1040 11.8180 -2.5018
# 2 13.4116 76.7829 20.4153 -24.8402 6.3503 -12.0792
# 3 7.4306 20.4153 164.9745 -34.1682 1.3327 11.3124
# 4 -23.1040 -24.8402 -34.1682 40.5273 4.5692 1.3427
# 5 11.8180 6.3503 1.3327 4.5692 38.2937 -0.2793
# 6 -2.5018 -12.0792 11.3124 1.3427 -0.2793 33.3496
#
#
#
# Elastic Compliance Matrix: (Units=1/GPa)
#
#
# Indices 1 2 3 4 5 6 
#
# 1 0.014983 0.001219 0.001517 0.011251 -0.006217 0.000546
# 2 0.001219 0.018097 -0.000207 0.011943 -0.004750 0.006196
# 3 0.001517 -0.000207 0.007807 0.007601 -0.001634 -0.002929
# 4 0.011251 0.011943 0.007601 0.046060 -0.011208 0.000643
# 5 -0.006217 -0.004750 -0.001634 -0.011208 0.030208 -0.000928
# 6 0.000546 0.006196 -0.002929 0.000643 -0.000928 0.033231
#
#
# Mechanical properties :
#
#
# Convention : Reuss Voigt Hill
#
# Bulk Modulus (GPa) = 21.76480 45.72407 33.74444
# Shear Modulus (GPa) = 31.12513 41.61705 36.37109
#
# Velocity S-wave (km/s) = 3.54036 4.09380 3.82710
# Velocity P-wave (km/s) = 5.04746 6.38426 5.75481
#
# Compressibility (1/GPa) = 0.04594574
#
# Stress axis : x y z
#
# Youngs Moduli (GPa) = 66.74345 55.25748 128.08590
#
# Poissons Ratio (x) = -0.06739 -0.19434
# Poissons Ratio (y) = -0.08139 0.02657
# Poissons Ratio (z) = -0.10127 0.01146
#
# Static dielectric constant tensor:
#      x y z
#    x 4.885880 0.032820 0.100040 
#    y 0.032820 5.183750 0.462600 
#    z 0.100040 0.462600 5.412920 
# 
# 
# High freq. dielectric constant tensor:
#      x y z
#    x 1.998000 -0.003340 -0.017430 
#    y -0.003340 1.960700 0.004250 
#    z -0.017430 0.004250 2.025880 
# 
# From -- ./inp_files/343340.got.cif
#   From: 2010.06.25/outbox.cif.g09.slc.cpg/sg2_172_cif.got.tgz:343340.got - 2010.06.27 13:26:56.
