data_PCOD8021050
_publ_section_title
;
Structure prediction by ZEFSAII (Michael W. Deem and Ramdas Pophale) SiO2 
 PCOD8021050
Probable space group: P -1
;
_chemical_formula_sum "Si O2"
_cell_formula_units_Z 14
_cell_length_a 11.622589
_cell_length_b 11.968258
_cell_length_c 6.705924
_cell_angle_alpha 49.617529
_cell_angle_beta 58.792411
_cell_angle_gamma 79.611559
_cell_volume 590.198460
_symmetry_space_group_name_H-M "P -1"
_symmetry_group_IT_number 2
_symmetry_cell_setting 'triclinic'
loop_
_space_group_symop_operation_xyz
x,y,z
-x,-y,-z
loop_
_atom_site_type_symbol
_atom_site_label
_atom_site_fract_x
_atom_site_fract_y
_atom_site_fract_z
Si Si1 0.640105 0.753339 0.635213
Si Si2 0.261295 0.439792 0.549200
Si Si3 0.013202 0.769269 0.781962
Si Si4 0.260893 0.724929 0.411120
Si Si5 0.547060 0.680114 0.221822
Si Si6 0.613756 0.946727 0.085455
Si Si7 0.086470 0.050842 0.667551
O O1 0.696160 0.620380 0.629128
O O2 0.564146 0.848131 0.444931
O O3 0.759351 0.875400 0.490669
O O4 0.538481 0.674083 0.995018
O O5 0.238400 0.610429 0.371357
O O6 0.392756 0.454796 0.574615
O O7 0.119168 0.333118 0.874166
O O8 0.131164 0.676647 0.735528
O O9 0.972048 0.824744 0.541532
O O10 0.085240 0.907294 0.697571
O O11 0.403437 0.708009 0.409163
O O12 0.270887 0.900894 0.136248
O O13 0.665975 0.827735 0.029394
O O14 0.500000 0.000000 0.000000
O O15 0.000000 0.000000 0.000000
#
# Coordination Sequence:
#
# PCOD8021050 Si02
#       7
#     2   2   2   2   2   2   2
#     4  11  21  40  69  91 123 171 216 262 310 379
#     4  11  23  42  63  92 131 171 210 255 322 386
#     4  11  23  40  66  94 127 163 217 266 310 373
#     4  11  23  40  63  94 131 167 206 265 328 369
#     4  10  22  43  67  90 125 172 218 259 311 380
#     4   9  21  40  64  93 124 160 213 266 311 367
#     4  11  21  39  69  94 120 167 219 262 312 373
#
# _framework density 23.720834
#
# number of rings (size 3 to 8) (size 9 to 14) (size 15 to 20)
#    0.000    1.429    2.857    2.571    4.000    2.857 
#    0.000   12.143    0.000    0.000    0.000    0.000 
#    0.000    0.000    0.000    0.000    0.000    0.000 
#
# Total GULP energy -173439.861320 kJ/mol
# GULP energy per Si atom -12388.561523 kJ/mol
# Density = 2.366684 g / cm^3
# Si number density = 23.720834 Si / 1000 Ang^3
#
#
#
# Elastic Constant Matrix: (Units=GPa)
#
#
# Indices 1 2 3 4 5 6 
#
# 1 88.7177 36.7025 40.7768 15.2895 -2.6773 1.6174
# 2 36.7025 131.6126 47.5725 0.1451 6.3420 -8.8843
# 3 40.7768 47.5725 102.2482 17.2042 15.5144 -7.4491
# 4 15.2895 0.1451 17.2042 35.1922 -0.2754 -4.3841
# 5 -2.6773 6.3420 15.5144 -0.2754 40.1209 8.8360
# 6 1.6174 -8.8843 -7.4491 -4.3841 8.8360 32.7789
#
#
#
# Elastic Compliance Matrix: (Units=1/GPa)
#
#
# Indices 1 2 3 4 5 6 
#
# 1 0.016005 -0.003146 -0.005110 -0.004992 0.004541 -0.004696
# 2 -0.003146 0.010020 -0.003637 0.003441 -0.000973 0.002767
# 3 -0.005110 -0.003637 0.015658 -0.004977 -0.006730 0.003973
# 4 -0.004992 0.003441 -0.004977 0.033561 0.000297 0.004456
# 5 0.004541 -0.000973 -0.006730 0.000297 0.030216 -0.010123
# 6 -0.004696 0.002767 0.003973 0.004456 -0.010123 0.035717
#
#
# Mechanical properties :
#
#
# Convention : Reuss Voigt Hill
#
# Bulk Modulus (GPa) = 55.87680 63.63134 59.75407
# Shear Modulus (GPa) = 29.25199 34.78686 32.01942
#
# Velocity S-wave (km/s) = 3.51547 3.83366 3.67801
# Velocity P-wave (km/s) = 6.33129 6.81757 6.57892
#
# Compressibility (1/GPa) = 0.01789651
#
# Stress axis : x y z
#
# Youngs Moduli (GPa) = 62.48010 99.80102 63.86405
#
# Poissons Ratio (x) = 0.31402 0.32636
# Poissons Ratio (y) = 0.19659 0.23226
# Poissons Ratio (z) = 0.31928 0.36295
#
# Static dielectric constant tensor:
#      x y z
#    x 4.263460 0.432740 0.300850 
#    y 0.432740 5.287650 -1.263870 
#    z 0.300850 -1.263870 2.333390 
# 
# 
# High freq. dielectric constant tensor:
#      x y z
#    x 1.931720 0.017570 -0.020620 
#    y 0.017570 1.972530 -0.013550 
#    z -0.020620 -0.013550 1.924850 
# 
# From -- ./inp_files/68318.got.cif
#   From: 2010.06.25/outbox.cif.g09.slc.cpg/sg2_35_cif.got.tgz:68318.got - 2010.06.27 13:26:56.
