data_PCOD8021548
_publ_section_title
;
Structure prediction by ZEFSAII (Michael W. Deem and Ramdas Pophale) SiO2 
 PCOD8021548
Probable space group: P -1
;
_chemical_formula_sum "Si O2"
_cell_formula_units_Z 16
_cell_length_a 11.342896
_cell_length_b 5.071812
_cell_length_c 17.992704
_cell_angle_alpha 79.073454
_cell_angle_beta 50.977142
_cell_angle_gamma 69.388183
_cell_volume 751.955179
_symmetry_space_group_name_H-M "P -1"
_symmetry_group_IT_number 2
_symmetry_cell_setting 'triclinic'
loop_
_space_group_symop_operation_xyz
x,y,z
-x,-y,-z
loop_
_atom_site_type_symbol
_atom_site_label
_atom_site_fract_x
_atom_site_fract_y
_atom_site_fract_z
Si Si1 0.502032 0.424578 0.189894
Si Si2 0.540379 0.196674 0.034798
Si Si3 0.199148 0.671293 0.390769
Si Si4 0.837930 0.869465 0.498021
Si Si5 0.607921 0.197453 0.448328
Si Si6 0.264804 0.850580 0.761515
Si Si7 0.909501 0.599965 0.131017
Si Si8 0.231145 0.289995 0.972371
O O1 0.460228 0.245170 0.147198
O O2 0.334985 0.624662 0.276890
O O3 0.593264 0.219415 0.230674
O O4 0.611571 0.610269 0.106011
O O5 0.723071 0.018284 0.990268
O O6 0.500000 0.500000 0.000000
O O7 0.500000 0.000000 0.000000
O O8 0.227268 0.395818 0.446934
O O9 0.027402 0.750116 0.414318
O O10 0.206317 0.935271 0.422468
O O11 0.757853 0.055693 0.449343
O O12 0.500000 0.500000 0.500000
O O13 0.666822 0.236484 0.341570
O O14 0.500000 0.000000 0.500000
O O15 0.141191 0.681535 0.835022
O O16 0.170063 0.184899 0.782997
O O17 0.850183 0.760785 0.068885
O O18 0.101564 0.511683 0.063773
#
# Coordination Sequence:
#
# PCOD8021548 Si02
#       8
#     2   2   2   2   2   2   2   2
#     4  11  23  41  68  94 123 164 229 254 313 385
#     4  12  25  42  61  90 127 162 213 263 322 369
#     4  10  23  41  71  92 126 175 211 263 304 387
#     4  10  22  44  63  98 133 166 210 254 332 373
#     4  12  24  41  68 100 135 165 206 269 328 373
#     4  11  23  39  64  99 126 169 214 260 320 382
#     4  10  23  40  65  91 127 168 211 261 314 379
#     4  10  23  42  66  91 127 165 213 265 318 374
#
# _framework density 21.277864000000001
#
# number of rings (size 3 to 8) (size 9 to 14) (size 15 to 20)
#    0.000    1.250    2.500    3.000    3.500    2.500 
#    4.500    0.000    0.000    0.000    0.000    0.000 
#    0.000    0.000    0.000    0.000    0.000    0.000 
#
# Total GULP energy -198282.285315 kJ/mol
# GULP energy per Si atom -12392.642832 kJ/mol
# Density = 2.122944 g / cm^3
# Si number density = 21.277864 Si / 1000 Ang^3
#
#
#
# Elastic Constant Matrix: (Units=GPa)
#
#
# Indices 1 2 3 4 5 6 
#
# 1 84.0693 51.2153 65.6938 4.8110 2.6802 -12.4837
# 2 51.2153 140.0613 50.0420 20.3322 -0.2066 -14.7397
# 3 65.6938 50.0420 146.5952 33.2541 1.1418 -13.2187
# 4 4.8110 20.3322 33.2541 39.6758 -1.8105 7.3556
# 5 2.6802 -0.2066 1.1418 -1.8105 37.1592 -0.9293
# 6 -12.4837 -14.7397 -13.2187 7.3556 -0.9293 42.2924
#
#
#
# Elastic Compliance Matrix: (Units=1/GPa)
#
#
# Indices 1 2 3 4 5 6 
#
# 1 0.023200 -0.006098 -0.010348 0.008958 -0.000955 -0.000090
# 2 -0.006098 0.010230 0.000811 -0.005730 0.000268 0.003021
# 3 -0.010348 0.000811 0.014179 -0.011738 -0.000164 0.003698
# 4 0.008958 -0.005730 -0.011738 0.038758 0.001328 -0.009734
# 5 -0.000955 0.000268 -0.000164 0.001328 0.027054 0.000124
# 6 -0.000090 0.003021 0.003698 -0.009734 0.000124 0.027523
#
#
# Mechanical properties :
#
#
# Convention : Reuss Voigt Hill
#
# Bulk Modulus (GPa) = 61.19996 78.29199 69.74597
# Shear Modulus (GPa) = 28.14347 37.41046 32.77697
#
# Velocity S-wave (km/s) = 3.64079 4.19762 3.92908
# Velocity P-wave (km/s) = 6.81898 7.76970 7.30982
#
# Compressibility (1/GPa) = 0.01633988
#
# Stress axis : x y z
#
# Youngs Moduli (GPa) = 43.10316 97.75199 70.52452
#
# Poissons Ratio (x) = 0.59605 0.72978
# Poissons Ratio (y) = 0.26282 -0.05717
# Poissons Ratio (z) = 0.44603 -0.07924
#
# Static dielectric constant tensor:
#      x y z
#    x 3.954180 -0.190000 0.072580 
#    y -0.190000 3.963620 0.240800 
#    z 0.072580 0.240800 3.811820 
# 
# 
# High freq. dielectric constant tensor:
#      x y z
#    x 1.828660 -0.003630 0.005460 
#    y -0.003630 1.853680 0.019680 
#    z 0.005460 0.019680 1.826120 
# 
# From -- ./inp_files/80313.got.cif
#   From: 2010.06.25/outbox.cif.g09.slc.cpg/sg2_41_cif.got.tgz:80313.got - 2010.06.27 13:26:56.
