data_PCOD8021436
_publ_section_title
;
Structure prediction by ZEFSAII (Michael W. Deem and Ramdas Pophale) SiO2 
 PCOD8021436
Probable space group: P -1
;
_chemical_formula_sum "Si O2"
_cell_formula_units_Z 10
_cell_length_a 17.036603
_cell_length_b 15.517006
_cell_length_c 5.498344
_cell_angle_alpha 66.099044
_cell_angle_beta 70.255610
_cell_angle_gamma 17.051160
_cell_volume 382.955653
_symmetry_space_group_name_H-M "P -1"
_symmetry_group_IT_number 2
_symmetry_cell_setting 'triclinic'
loop_
_space_group_symop_operation_xyz
x,y,z
-x,-y,-z
loop_
_atom_site_type_symbol
_atom_site_label
_atom_site_fract_x
_atom_site_fract_y
_atom_site_fract_z
Si Si1 0.999430 0.874909 0.894754
Si Si2 0.351339 0.589389 0.236048
Si Si3 0.649383 0.739771 0.125885
Si Si4 0.450185 0.760001 0.220524
Si Si5 0.793779 0.638234 0.589569
O O1 0.238798 0.594175 0.778744
O O2 0.816370 0.163689 0.681025
O O3 0.789568 0.010771 0.978615
O O4 0.135523 0.750416 0.153718
O O5 0.583086 0.274518 0.475598
O O6 0.500000 0.500000 0.000000
O O7 0.427171 0.895076 0.157949
O O8 0.814234 0.549567 0.427043
O O9 0.839991 0.532203 0.918679
O O10 0.500000 0.000000 0.000000
O O11 0.000000 0.500000 0.500000
O O12 0.500000 0.000000 0.500000
#
# Coordination Sequence:
#
# PCOD8021436 Si02
#       5
#     2   2   2   2   2
#     4  11  26  44  69 104 141 186 236 299 366 433
#     4  11  25  45  74 103 145 185 240 297 373 433
#     4  10  25  48  72 107 146 195 241 305 359 431
#     4  12  27  43  71 104 146 186 246 292 367 436
#     4  10  22  43  72  96 135 184 240 290 359 413
#
# _framework density 26.112684000000002
#
# number of rings (size 3 to 8) (size 9 to 14) (size 15 to 20)
#    0.000    1.200    2.000    1.800    8.400    6.400 
#    0.000    2.000    0.000    0.000    0.000    0.000 
#    0.000    0.000    0.000    0.000    0.000    0.000 
#
# Total GULP energy -123887.109833 kJ/mol
# GULP energy per Si atom -12388.710983 kJ/mol
# Density = 2.605325 g / cm^3
# Si number density = 26.112684 Si / 1000 Ang^3
#
#
#
# Elastic Constant Matrix: (Units=GPa)
#
#
# Indices 1 2 3 4 5 6 
#
# 1 240.5585 48.2336 65.6189 2.3976 9.9440 -46.9415
# 2 48.2336 103.8240 20.2426 10.8831 -4.1712 -27.8505
# 3 65.6189 20.2426 138.6002 33.2737 23.1203 -11.7718
# 4 2.3976 10.8831 33.2737 22.8107 -0.1249 -6.4959
# 5 9.9440 -4.1712 23.1203 -0.1249 43.9077 -4.5666
# 6 -46.9415 -27.8505 -11.7718 -6.4959 -4.5666 54.6428
#
#
#
# Elastic Compliance Matrix: (Units=1/GPa)
#
#
# Indices 1 2 3 4 5 6 
#
# 1 0.006585 -0.001647 -0.004688 0.008338 0.001355 0.004912
# 2 -0.001647 0.012100 0.000177 -0.004594 0.001874 0.004400
# 3 -0.004688 0.000177 0.016292 -0.024543 -0.007988 -0.004012
# 4 0.008338 -0.004594 -0.024543 0.084017 0.011932 0.010519
# 5 0.001355 0.001874 -0.007988 0.011932 0.027313 0.004100
# 6 0.004912 0.004400 -0.004012 0.010519 0.004100 0.025492
#
#
# Mechanical properties :
#
#
# Convention : Reuss Voigt Hill
#
# Bulk Modulus (GPa) = 44.12871 83.46366 63.79619
# Shear Modulus (GPa) = 26.08659 47.53140 36.80900
#
# Velocity S-wave (km/s) = 3.16413 4.27106 3.75857
# Velocity P-wave (km/s) = 5.50318 7.50699 6.58179
#
# Compressibility (1/GPa) = 0.02266098
#
# Stress axis : x y z
#
# Youngs Moduli (GPa) = 151.84998 82.64611 61.37840
#
# Poissons Ratio (x) = 0.13614 0.28773
# Poissons Ratio (y) = 0.25014 -0.01085
# Poissons Ratio (z) = 0.71184 -0.01461
#
# Static dielectric constant tensor:
#      x y z
#    x -1.259230 -0.169310 -13.989430 
#    y -0.169310 4.643300 -0.314580 
#    z -13.989430 -0.314580 -27.135200 
# 
# 
# High freq. dielectric constant tensor:
#      x y z
#    x 2.064700 -0.012160 0.010720 
#    y -0.012160 2.034220 0.004010 
#    z 0.010720 0.004010 2.031320 
# 
# From -- ./inp_files/2554.got.cif
#   From: 2010.06.25/outbox.cif.g09.slc.cpg/sg2_2_cif.got.tgz:2554.got - 2010.06.27 13:26:56.
