data_PCOD8021319
_publ_section_title
;
Structure prediction by ZEFSAII (Michael W. Deem and Ramdas Pophale) SiO2 
 PCOD8021319
Probable space group: P -1
;
_chemical_formula_sum "Si O2"
_cell_formula_units_Z 14
_cell_length_a 9.472823
_cell_length_b 12.947759
_cell_length_c 15.186786
_cell_angle_alpha 151.669798
_cell_angle_beta 47.167372
_cell_angle_gamma 121.137976
_cell_volume 630.282459
_symmetry_space_group_name_H-M "P -1"
_symmetry_group_IT_number 2
_symmetry_cell_setting 'triclinic'
loop_
_space_group_symop_operation_xyz
x,y,z
-x,-y,-z
loop_
_atom_site_type_symbol
_atom_site_label
_atom_site_fract_x
_atom_site_fract_y
_atom_site_fract_z
Si Si1 0.763154 0.821080 0.439823
Si Si2 0.548836 0.615195 0.155481
Si Si3 0.713699 0.538275 0.410568
Si Si4 0.976507 0.053983 0.950475
Si Si5 0.818899 0.214142 0.835394
Si Si6 0.276634 0.059045 0.170901
Si Si7 0.642691 0.041628 0.384270
O O1 0.716359 0.627154 0.376536
O O2 0.580486 0.899342 0.511880
O O3 0.962573 0.739960 0.236030
O O4 0.784890 0.028026 0.643855
O O5 0.349383 0.773261 0.403493
O O6 0.690366 0.784849 0.204724
O O7 0.500000 0.500000 0.000000
O O8 0.655467 0.438396 0.050349
O O9 0.500000 0.500000 0.500000
O O10 0.774820 0.710042 0.581411
O O11 0.885828 0.315835 0.173819
O O12 0.847265 0.913614 0.846258
O O13 0.200450 0.954813 0.753185
O O14 0.000000 0.000000 0.000000
O O15 0.781492 0.138165 0.893869
O O16 0.500000 0.000000 0.000000
#
# Coordination Sequence:
#
# PCOD8021319 Si02
#       7
#     2   2   2   2   2   2   2
#     4  10  22  43  70 105 136 182 239 287 349 430
#     4  11  24  43  68 103 146 184 226 292 358 416
#     4  11  23  46  76 102 141 189 239 296 353 425
#     4  12  28  46  71 104 144 186 239 300 361 424
#     4  10  23  42  72  98 140 185 236 291 351 419
#     4  11  26  46  74 103 137 188 247 293 355 430
#     4  11  26  41  68 106 145 182 235 288 363 428
#
# _framework density 22.212261999999999
#
# number of rings (size 3 to 8) (size 9 to 14) (size 15 to 20)
#    0.000    1.143    2.857    1.714    8.000    4.571 
#    0.000    0.000    0.000    0.000    0.000    0.000 
#    0.000    0.000    0.000    0.000    0.000    0.000 
#
# Total GULP energy -173517.650903 kJ/mol
# GULP energy per Si atom -12394.117922 kJ/mol
# Density = 2.216171 g / cm^3
# Si number density = 22.212262 Si / 1000 Ang^3
#
#
#
# Elastic Constant Matrix: (Units=GPa)
#
#
# Indices 1 2 3 4 5 6 
#
# 1 118.3234 55.4209 42.8084 -5.1078 5.3914 -5.9827
# 2 55.4209 168.0337 51.3105 -24.8630 -7.0645 1.0156
# 3 42.8084 51.3105 125.0033 -8.9737 3.7946 6.5621
# 4 -5.1078 -24.8630 -8.9737 47.0652 -0.3681 -5.1281
# 5 5.3914 -7.0645 3.7946 -0.3681 32.2283 -7.3580
# 6 -5.9827 1.0156 6.5621 -5.1281 -7.3580 30.6037
#
#
#
# Elastic Compliance Matrix: (Units=1/GPa)
#
#
# Indices 1 2 3 4 5 6 
#
# 1 0.010975 -0.002992 -0.002648 -0.000656 -0.001662 0.002303
# 2 -0.002992 0.008292 -0.002245 0.003752 0.002838 0.000932
# 3 -0.002648 -0.002245 0.010053 0.000097 -0.001927 -0.003046
# 4 -0.000656 0.003752 0.000097 0.023651 0.002151 0.004207
# 5 -0.001662 0.002838 -0.001927 0.002151 0.034135 0.008562
# 6 0.002303 0.000932 -0.003046 0.004207 0.008562 0.036511
#
#
# Mechanical properties :
#
#
# Convention : Reuss Voigt Hill
#
# Bulk Modulus (GPa) = 73.79618 78.93778 76.36698
# Shear Modulus (GPa) = 34.74528 39.43415 37.08972
#
# Velocity S-wave (km/s) = 3.95934 4.21804 4.09073
# Velocity P-wave (km/s) = 7.36187 7.70309 7.53441
#
# Compressibility (1/GPa) = 0.01355084
#
# Stress axis : x y z
#
# Youngs Moduli (GPa) = 91.11949 120.59349 99.46939
#
# Poissons Ratio (x) = 0.36082 0.26337
# Poissons Ratio (y) = 0.27263 0.22330
# Poissons Ratio (z) = 0.24126 0.27072
#
# Static dielectric constant tensor:
#      x y z
#    x 4.667640 -0.489840 -0.114390 
#    y -0.489840 4.645310 0.194440 
#    z -0.114390 0.194440 4.454130 
# 
# 
# High freq. dielectric constant tensor:
#      x y z
#    x 1.874580 -0.009000 0.011690 
#    y -0.009000 1.880210 -0.004770 
#    z 0.011690 -0.004770 1.896010 
# 
# From -- ./inp_files/501069.got.cif
#   From: 2010.06.25/outbox.cif.g09.slc.cpg/sg2_251_cif.got.tgz:501069.got - 2010.06.27 13:26:56.
