data_PCOD8021560
_publ_section_title
;
Structure prediction by ZEFSAII (Michael W. Deem and Ramdas Pophale) SiO2 
 PCOD8021560
Probable space group: P -1
;
_chemical_formula_sum "Si O2"
_cell_formula_units_Z 16
_cell_length_a 9.338359
_cell_length_b 9.282498
_cell_length_c 23.355177
_cell_angle_alpha 29.439199
_cell_angle_beta 125.134640
_cell_angle_gamma 127.009025
_cell_volume 787.770235
_symmetry_space_group_name_H-M "P -1"
_symmetry_group_IT_number 2
_symmetry_cell_setting 'triclinic'
loop_
_space_group_symop_operation_xyz
x,y,z
-x,-y,-z
loop_
_atom_site_type_symbol
_atom_site_label
_atom_site_fract_x
_atom_site_fract_y
_atom_site_fract_z
Si Si1 0.049349 0.856557 0.687808
Si Si2 0.184772 0.742241 0.470607
Si Si3 0.694911 0.224465 0.133852
Si Si4 0.637922 0.768833 0.865942
Si Si5 0.321988 0.239920 0.535519
Si Si6 0.558795 0.841216 0.693945
Si Si7 0.541746 0.562559 0.296830
Si Si8 0.206058 0.566019 0.297285
O O1 0.112807 0.761135 0.796848
O O2 0.984763 0.558128 0.736611
O O3 0.213462 0.123495 0.608885
O O4 0.868241 0.975596 0.609015
O O5 0.317193 0.616793 0.585289
O O6 0.000000 0.500000 0.500000
O O7 0.285637 0.866905 0.391742
O O8 0.555473 0.249021 0.143660
O O9 0.634643 0.918543 0.188849
O O10 0.722142 0.502576 0.000272
O O11 0.615285 0.728511 0.806692
O O12 0.776959 0.085291 0.804374
O O13 0.500000 0.500000 0.500000
O O14 0.191746 0.369058 0.419781
O O15 0.375389 0.951460 0.619838
O O16 0.527115 0.566446 0.736662
O O17 0.377403 0.522258 0.316655
#
# Coordination Sequence:
#
# PCOD8021560 Si02
#       8
#     2   2   2   2   2   2   2   2
#     4  12  23  39  63  96 125 162 205 259 306 372
#     4  12  23  38  64  95 131 163 195 251 327 376
#     4  10  22  44  64  89 120 167 216 255 304 362
#     4  10  23  42  67  86 120 171 215 252 303 366
#     4  12  21  39  64  94 128 160 205 256 307 375
#     4  12  22  40  65  94 125 163 206 251 315 374
#     4  11  22  40  64  90 130 165 197 253 320 372
#     4  11  22  39  63  93 128 165 199 255 312 371
#
# _framework density 20.310490000000001
#
# number of rings (size 3 to 8) (size 9 to 14) (size 15 to 20)
#    0.000    0.750    6.250    3.000    0.000    1.000 
#    0.000    0.625    0.000    0.000    0.000    0.000 
#    0.000    0.000    0.000    0.000    0.000    0.000 
#
# Total GULP energy -198428.375009 kJ/mol
# GULP energy per Si atom -12401.773438 kJ/mol
# Density = 2.026426 g / cm^3
# Si number density = 20.310490 Si / 1000 Ang^3
#
#
#
# Elastic Constant Matrix: (Units=GPa)
#
#
# Indices 1 2 3 4 5 6 
#
# 1 59.9090 14.2669 40.2002 4.9524 -0.8320 -4.2020
# 2 14.2669 142.5882 73.9585 8.5854 -2.0119 2.9799
# 3 40.2002 73.9585 171.1281 0.8652 -4.0020 -3.2566
# 4 4.9524 8.5854 0.8652 20.9235 -7.0922 -1.4322
# 5 -0.8320 -2.0119 -4.0020 -7.0922 24.5221 0.3523
# 6 -4.2020 2.9799 -3.2566 -1.4322 0.3523 32.0149
#
#
#
# Elastic Compliance Matrix: (Units=1/GPa)
#
#
# Indices 1 2 3 4 5 6 
#
# 1 0.020514 0.000903 -0.005186 -0.005454 -0.001680 0.001855
# 2 0.000903 0.009443 -0.004324 -0.004395 -0.001151 -0.001384
# 3 -0.005186 -0.004324 0.008972 0.003321 0.001883 0.000762
# 4 -0.005454 -0.004395 0.003321 0.056432 0.016283 0.002376
# 5 -0.001680 -0.001151 0.001883 0.016283 0.045640 0.000304
# 6 0.001855 -0.001384 0.000762 0.002376 0.000304 0.031788
#
#
# Mechanical properties :
#
#
# Convention : Reuss Voigt Hill
#
# Bulk Modulus (GPa) = 46.04923 70.05295 58.05109
# Shear Modulus (GPa) = 25.34936 31.83873 28.59405
#
# Velocity S-wave (km/s) = 3.53667 3.96359 3.75620
# Velocity P-wave (km/s) = 6.27688 7.45068 6.88883
#
# Compressibility (1/GPa) = 0.02171589
#
# Stress axis : x y z
#
# Youngs Moduli (GPa) = 48.74622 105.89723 111.45204
#
# Poissons Ratio (x) = -0.09564 0.57797
# Poissons Ratio (y) = -0.04402 0.48196
# Poissons Ratio (z) = 0.25279 0.45794
#
# Static dielectric constant tensor:
#      x y z
#    x 3.765660 -0.075420 0.076270 
#    y -0.075420 3.798740 -0.111570 
#    z 0.076270 -0.111570 3.712470 
# 
# 
# High freq. dielectric constant tensor:
#      x y z
#    x 1.781960 -0.002220 -0.000630 
#    y -0.002220 1.804300 -0.004950 
#    z -0.000630 -0.004950 1.784080 
# 
# From -- ./inp_files/179944.got.cif
#   From: 2010.06.25/outbox.cif.g09.slc.cpg/sg2_90_cif.got.tgz:179944.got - 2010.06.27 13:26:56.
