data_PCOD8021047
_publ_section_title
;
Structure prediction by ZEFSAII (Michael W. Deem and Ramdas Pophale) SiO2 
 PCOD8021047
Probable space group: P -1
;
_chemical_formula_sum "Si O2"
_cell_formula_units_Z 14
_cell_length_a 17.298753
_cell_length_b 8.835706
_cell_length_c 9.798364
_cell_angle_alpha 133.199116
_cell_angle_beta 132.106126
_cell_angle_gamma 80.311655
_cell_volume 683.025062
_symmetry_space_group_name_H-M "P -1"
_symmetry_group_IT_number 2
_symmetry_cell_setting 'triclinic'
loop_
_space_group_symop_operation_xyz
x,y,z
-x,-y,-z
loop_
_atom_site_type_symbol
_atom_site_label
_atom_site_fract_x
_atom_site_fract_y
_atom_site_fract_z
Si Si1 0.307077 0.777124 0.822941
Si Si2 0.893313 0.882814 0.410792
Si Si3 0.879083 0.509465 0.352744
Si Si4 0.717456 0.358631 0.821143
Si Si5 0.491336 0.605743 0.913669
Si Si6 0.738970 0.085362 0.428913
Si Si7 0.536265 0.703483 0.553474
O O1 0.185984 0.554077 0.615782
O O2 0.418397 0.736497 0.935789
O O3 0.278432 0.775780 0.629868
O O4 0.346440 0.038233 0.098018
O O5 0.926032 0.785840 0.526792
O O6 0.860965 0.080236 0.541526
O O7 0.779746 0.651045 0.053379
O O8 0.000000 0.000000 0.500000
O O9 0.000000 0.500000 0.500000
O O10 0.771748 0.316448 0.000213
O O11 0.757906 0.242140 0.681417
O O12 0.571154 0.244091 0.577295
O O13 0.425372 0.382698 0.589550
O O14 0.500000 0.500000 0.000000
O O15 0.625862 0.804645 0.137743
O O16 0.500000 0.500000 0.500000
#
# Coordination Sequence:
#
# PCOD8021047 Si02
#       7
#     2   2   2   2   2   2   2
#     4  12  24  40  67  95 137 168 213 270 321 388
#     4  10  22  43  67  88 126 169 217 264 317 381
#     4  10  24  47  65  91 130 172 215 271 321 375
#     4  10  23  40  67  93 127 167 217 258 327 375
#     4  12  24  37  63  96 134 171 213 261 322 391
#     4  12  22  41  65  95 129 168 212 269 322 382
#     4  12  22  40  65 100 134 170 210 262 333 386
#
# _framework density 20.497050999999999
#
# number of rings (size 3 to 8) (size 9 to 14) (size 15 to 20)
#    0.857    0.000    4.286    3.857    2.000    1.714 
#    0.000    0.714    0.000    0.000    0.000    0.000 
#    0.000    0.000    0.000    0.000    0.000    0.000 
#
# Total GULP energy -173563.931980 kJ/mol
# GULP energy per Si atom -12397.423713 kJ/mol
# Density = 2.045040 g / cm^3
# Si number density = 20.497051 Si / 1000 Ang^3
#
#
#
# Elastic Constant Matrix: (Units=GPa)
#
#
# Indices 1 2 3 4 5 6 
#
# 1 111.0513 41.7044 12.2500 4.3077 -3.7424 2.5121
# 2 41.7044 135.4825 4.0549 -12.3704 4.3720 6.6895
# 3 12.2500 4.0549 32.9012 -3.4866 -12.6373 -5.2809
# 4 4.3077 -12.3704 -3.4866 30.9170 -4.1921 3.0687
# 5 -3.7424 4.3720 -12.6373 -4.1921 43.6358 3.3123
# 6 2.5121 6.6895 -5.2809 3.0687 3.3123 44.8955
#
#
#
# Elastic Compliance Matrix: (Units=1/GPa)
#
#
# Indices 1 2 3 4 5 6 
#
# 1 0.010914 -0.003523 -0.004120 -0.003391 -0.000205 -0.000323
# 2 -0.003523 0.008924 0.000186 0.004129 -0.000644 -0.001345
# 3 -0.004120 0.000186 0.037195 0.005961 0.010716 0.003380
# 4 -0.003391 0.004129 0.005961 0.036027 0.004675 -0.002532
# 5 -0.000205 -0.000644 0.010716 0.004675 0.026586 -0.000913
# 6 -0.000323 -0.001345 0.003380 -0.002532 -0.000913 0.023130
#
#
# Mechanical properties :
#
#
# Convention : Reuss Voigt Hill
#
# Bulk Modulus (GPa) = 23.74127 43.93927 33.84027
# Shear Modulus (GPa) = 29.11551 38.65137 33.88344
#
# Velocity S-wave (km/s) = 3.77301 4.34718 4.07023
# Velocity P-wave (km/s) = 5.53070 6.83233 6.21568
#
# Compressibility (1/GPa) = 0.04212075
#
# Stress axis : x y z
#
# Youngs Moduli (GPa) = 91.62220 112.05457 26.88525
#
# Poissons Ratio (x) = 0.39481 0.11075
# Poissons Ratio (y) = 0.32282 -0.00501
# Poissons Ratio (z) = 0.37744 -0.02089
#
# Static dielectric constant tensor:
#      x y z
#    x 3.662940 0.033690 -0.066320 
#    y 0.033690 3.749970 -0.052840 
#    z -0.066320 -0.052840 3.551710 
# 
# 
# High freq. dielectric constant tensor:
#      x y z
#    x 1.808950 -0.000280 -0.008010 
#    y -0.000280 1.813680 -0.004510 
#    z -0.008010 -0.004510 1.777280 
# 
# From -- ./inp_files/236643.got.cif
#   From: 2010.06.25/outbox.cif.g09.slc.cpg/sg2_119_cif.got.tgz:236643.got - 2010.06.27 13:26:56.
