data_PCOD8021663
_publ_section_title
;
Structure prediction by ZEFSAII (Michael W. Deem and Ramdas Pophale) SiO2 
 PCOD8021663
Probable space group: P -1
;
_chemical_formula_sum "Si O2"
_cell_formula_units_Z 10
_cell_length_a 7.429126
_cell_length_b 9.400539
_cell_length_c 9.913287
_cell_angle_alpha 133.636920
_cell_angle_beta 75.947560
_cell_angle_gamma 96.747991
_cell_volume 484.820807
_symmetry_space_group_name_H-M "P -1"
_symmetry_group_IT_number 2
_symmetry_cell_setting 'triclinic'
loop_
_space_group_symop_operation_xyz
x,y,z
-x,-y,-z
loop_
_atom_site_type_symbol
_atom_site_label
_atom_site_fract_x
_atom_site_fract_y
_atom_site_fract_z
Si Si1 0.460865 0.341481 0.015099
Si Si2 0.817199 0.289951 0.397111
Si Si3 0.670762 0.518701 0.333834
Si Si4 0.507000 0.054345 0.379257
Si Si5 0.067578 0.408429 0.220299
O O1 0.531498 0.408769 0.191095
O O2 0.238521 0.314825 0.040972
O O3 0.500000 0.500000 0.000000
O O4 0.557423 0.128428 0.817066
O O5 0.665731 0.431662 0.430872
O O6 0.719574 0.092729 0.323726
O O7 0.864991 0.394297 0.594969
O O8 0.004750 0.255353 0.248983
O O9 0.628915 0.753223 0.497161
O O10 0.882980 0.472597 0.207614
O O11 0.500000 0.000000 0.500000
#
# Coordination Sequence:
#
# PCOD8021663 Si02
#       5
#     2   2   2   2   2
#     4  12  24  42  64  94 132 164 213 263 311 372
#     4   9  20  42  68  92 128 165 211 257 314 373
#     4  10  22  44  66  91 128 171 205 260 318 367
#     4  12  23  41  67  93 129 170 207 260 321 370
#     4   9  21  42  68  90 131 163 208 266 306 373
#
# _framework density 20.626177999999999
#
# number of rings (size 3 to 8) (size 9 to 14) (size 15 to 20)
#    1.200    0.400    4.000    0.600    0.000    2.400 
#    3.600    2.000    0.000    0.000    0.000    0.000 
#    0.000    0.000    0.000    0.000    0.000    0.000 
#
# Total GULP energy -123895.799617 kJ/mol
# GULP energy per Si atom -12389.579962 kJ/mol
# Density = 2.057923 g / cm^3
# Si number density = 20.626178 Si / 1000 Ang^3
#
#
#
# Elastic Constant Matrix: (Units=GPa)
#
#
# Indices 1 2 3 4 5 6 
#
# 1 94.3350 25.8544 20.0085 7.1439 -10.5317 14.8077
# 2 25.8544 115.7300 39.1281 3.8040 -1.8761 15.4415
# 3 20.0085 39.1281 84.4869 22.1859 -5.9633 6.0760
# 4 7.1439 3.8040 22.1859 32.6380 6.6401 -5.3833
# 5 -10.5317 -1.8761 -5.9633 6.6401 28.7951 -0.7174
# 6 14.8077 15.4415 6.0760 -5.3833 -0.7174 24.3151
#
#
#
# Elastic Compliance Matrix: (Units=1/GPa)
#
#
# Indices 1 2 3 4 5 6 
#
# 1 0.013363 -0.001624 -0.000060 -0.005200 0.005767 -0.008073
# 2 -0.001624 0.011251 -0.005180 0.002147 -0.001539 -0.004432
# 3 -0.000060 -0.005180 0.018764 -0.014212 0.006696 -0.004312
# 4 -0.005200 0.002147 -0.014212 0.046780 -0.015112 0.015266
# 5 0.005767 -0.001539 0.006696 -0.015112 0.041451 -0.006331
# 6 -0.008073 -0.004432 -0.004312 0.015266 -0.006331 0.053128
#
#
# Mechanical properties :
#
#
# Convention : Reuss Voigt Hill
#
# Bulk Modulus (GPa) = 33.72482 51.61490 42.66986
# Shear Modulus (GPa) = 23.99849 31.12037 27.55943
#
# Velocity S-wave (km/s) = 3.41471 3.88852 3.65929
# Velocity P-wave (km/s) = 5.65093 6.72600 6.21176
#
# Compressibility (1/GPa) = 0.02965175
#
# Stress axis : x y z
#
# Youngs Moduli (GPa) = 74.83314 88.88466 53.29417
#
# Poissons Ratio (x) = 0.14431 0.00317
# Poissons Ratio (y) = 0.12150 0.27605
# Poissons Ratio (z) = 0.00445 0.46039
#
# Static dielectric constant tensor:
#      x y z
#    x 3.962640 0.237000 -0.124230 
#    y 0.237000 3.623900 -0.044840 
#    z -0.124230 -0.044840 3.611080 
# 
# 
# High freq. dielectric constant tensor:
#      x y z
#    x 1.808690 0.020460 -0.001640 
#    y 0.020460 1.793980 -0.007950 
#    z -0.001640 -0.007950 1.796060 
# 
# From -- ./inp_files/146360.got.cif
#   From: 2010.06.25/outbox.cif.g09.slc.cpg/sg2_74_cif.got.tgz:146360.got - 2010.06.27 13:26:56.
