data_PCOD8021844
_publ_section_title
;
Structure prediction by ZEFSAII (Michael W. Deem and Ramdas Pophale) SiO2 
 PCOD8021844
Probable space group: P -1
;
_chemical_formula_sum "Si O2"
_cell_formula_units_Z 14
_cell_length_a 16.022423
_cell_length_b 11.931052
_cell_length_c 22.715491
_cell_angle_alpha 33.665124
_cell_angle_beta 162.649574
_cell_angle_gamma 137.000827
_cell_volume 663.572942
_symmetry_space_group_name_H-M "P -1"
_symmetry_group_IT_number 2
_symmetry_cell_setting 'triclinic'
loop_
_space_group_symop_operation_xyz
x,y,z
-x,-y,-z
loop_
_atom_site_type_symbol
_atom_site_label
_atom_site_fract_x
_atom_site_fract_y
_atom_site_fract_z
Si Si1 0.634430 0.779612 0.468005
Si Si2 0.958736 0.289322 0.903547
Si Si3 0.383650 0.017022 0.518893
Si Si4 0.765019 0.488683 0.261978
Si Si5 0.746141 0.136617 0.315251
Si Si6 0.214133 0.343315 0.165879
Si Si7 0.702060 0.383007 0.395712
O O1 0.841991 0.537632 0.690682
O O2 0.290135 0.808017 0.237784
O O3 0.779506 0.815358 0.612075
O O4 0.622513 0.961785 0.333994
O O5 0.291203 0.147808 0.163616
O O6 0.990918 0.282927 0.998815
O O7 0.181770 0.878539 0.424359
O O8 0.436298 0.135829 0.443708
O O9 0.854159 0.256537 0.388729
O O10 0.627875 0.492755 0.233121
O O11 0.063380 0.543566 0.443656
O O12 0.521180 0.680373 0.978382
O O13 0.000000 0.000000 0.500000
O O14 0.405441 0.449142 0.208783
O O15 0.000000 0.500000 0.000000
#
# Coordination Sequence:
#
# PCOD8021844 Si02
#       7
#     2   2   2   2   2   2   2
#     4  11  23  41  62  91 130 164 210 264 315 389
#     4  10  23  39  62  93 125 165 208 257 325 380
#     4  11  22  41  66  91 126 169 205 264 330 376
#     4  10  24  47  65  95 126 175 223 264 316 383
#     4  11  26  42  67  94 128 171 219 267 321 375
#     4  11  23  39  66  99 130 164 217 269 328 385
#     4  10  22  44  69  89 132 170 215 271 318 384
#
# _framework density 21.097906999999999
#
# number of rings (size 3 to 8) (size 9 to 14) (size 15 to 20)
#    0.000    1.429    2.857    2.143    8.000    1.143 
#    0.000    1.429    0.000    0.000    0.000    0.000 
#    0.000    0.000    0.000    0.000    0.000    0.000 
#
# Total GULP energy -173477.677716 kJ/mol
# GULP energy per Si atom -12391.262694 kJ/mol
# Density = 2.104989 g / cm^3
# Si number density = 21.097907 Si / 1000 Ang^3
#
#
#
# Elastic Constant Matrix: (Units=GPa)
#
#
# Indices 1 2 3 4 5 6 
#
# 1 114.3313 53.0735 18.0174 -3.0287 -5.0564 1.3890
# 2 53.0735 152.0426 46.0529 -2.4963 -1.0977 4.3223
# 3 18.0174 46.0529 76.3306 -6.3401 -12.0895 4.7554
# 4 -3.0287 -2.4963 -6.3401 27.8378 -2.8939 -5.4848
# 5 -5.0564 -1.0977 -12.0895 -2.8939 24.0962 -5.3947
# 6 1.3890 4.3223 4.7554 -5.4848 -5.3947 36.7398
#
#
#
# Elastic Compliance Matrix: (Units=1/GPa)
#
#
# Indices 1 2 3 4 5 6 
#
# 1 0.010580 -0.003734 0.000207 0.001224 0.002424 0.000551
# 2 -0.003734 0.009515 -0.005460 -0.001351 -0.003472 -0.000983
# 3 0.000207 -0.005460 0.018239 0.004763 0.009606 0.000395
# 4 0.001224 -0.001351 0.004763 0.039242 0.008786 0.006644
# 5 0.002424 -0.003472 0.009606 0.008786 0.049437 0.007644
# 6 0.000551 -0.000983 0.000395 0.006644 0.007644 0.029376
#
#
# Mechanical properties :
#
#
# Convention : Reuss Voigt Hill
#
# Bulk Modulus (GPa) = 49.11793 64.11022 56.61408
# Shear Modulus (GPa) = 27.60134 32.77213 30.18673
#
# Velocity S-wave (km/s) = 3.62090 3.94551 3.78669
# Velocity P-wave (km/s) = 6.38848 7.15605 6.78313
#
# Compressibility (1/GPa) = 0.02035916
#
# Stress axis : x y z
#
# Youngs Moduli (GPa) = 94.51626 105.09622 54.82765
#
# Poissons Ratio (x) = 0.39242 -0.01133
# Poissons Ratio (y) = 0.35291 0.29938
# Poissons Ratio (z) = -0.01953 0.57386
#
# Static dielectric constant tensor:
#      x y z
#    x 4.015620 -0.167680 -0.307680 
#    y -0.167680 4.124950 -0.163340 
#    z -0.307680 -0.163340 3.993360 
# 
# 
# High freq. dielectric constant tensor:
#      x y z
#    x 1.831520 -0.011270 -0.011780 
#    y -0.011270 1.835310 -0.011450 
#    z -0.011780 -0.011450 1.819550 
# 
# From -- ./inp_files/389858.got.cif
#   From: 2010.06.25/outbox.cif.g09.slc.cpg/sg2_195_cif.got.tgz:389858.got - 2010.06.27 13:26:56.
