data_PCOD8021224
_publ_section_title
;
Structure prediction by ZEFSAII (Michael W. Deem and Ramdas Pophale) SiO2 
 PCOD8021224
Probable space group: P -1
;
_chemical_formula_sum "Si O2"
_cell_formula_units_Z 16
_cell_length_a 8.847037
_cell_length_b 13.959992
_cell_length_c 14.089428
_cell_angle_alpha 147.608844
_cell_angle_beta 112.060896
_cell_angle_gamma 52.647169
_cell_volume 701.758880
_symmetry_space_group_name_H-M "P -1"
_symmetry_group_IT_number 2
_symmetry_cell_setting 'triclinic'
loop_
_space_group_symop_operation_xyz
x,y,z
-x,-y,-z
loop_
_atom_site_type_symbol
_atom_site_label
_atom_site_fract_x
_atom_site_fract_y
_atom_site_fract_z
Si Si1 0.767632 0.467099 0.789979
Si Si2 0.130683 0.153751 0.403465
Si Si3 0.946791 0.897724 0.155849
Si Si4 0.240921 0.146776 0.622270
Si Si5 0.768739 0.705835 0.621518
Si Si6 0.326980 0.479346 0.977425
Si Si7 0.835988 0.663917 0.807829
Si Si8 0.386904 0.812094 0.541097
O O1 0.711548 0.663189 0.867374
O O2 0.693814 0.333738 0.613277
O O3 0.006735 0.301987 0.726360
O O4 0.651064 0.576341 0.951917
O O5 0.271801 0.041634 0.435921
O O6 0.255438 0.104203 0.293770
O O7 0.004715 0.411569 0.611939
O O8 0.988926 0.075158 0.286383
O O9 0.739558 0.011317 0.258500
O O10 0.935316 0.788151 0.965620
O O11 0.118830 0.714337 0.111312
O O12 0.330362 0.289725 0.763957
O O13 0.366646 0.937123 0.544468
O O14 0.706523 0.783235 0.781424
O O15 0.618083 0.654442 0.498949
O O16 0.000000 0.500000 0.500000
O O17 0.500000 0.500000 0.000000
#
# Coordination Sequence:
#
# PCOD8021224 Si02
#       8
#     2   2   2   2   2   2   2   2
#     4  11  21  43  67 102 135 178 227 274 337 413
#     4  10  22  43  69 102 136 177 223 286 344 401
#     4  12  22  43  71 100 138 176 234 276 334 418
#     4  11  21  42  66 102 141 175 221 277 339 413
#     4  10  26  47  67  99 139 181 233 287 341 394
#     4  12  26  38  66 108 146 177 213 280 356 412
#     4  10  22  45  72  90 139 182 228 285 329 390
#     4  12  24  39  75 102 129 186 233 275 340 413
#
# _framework density 22.799855000000001
#
# number of rings (size 3 to 8) (size 9 to 14) (size 15 to 20)
#    0.000    1.000    6.250    2.250    3.500    2.000 
#    0.000    0.000    0.000    0.000    0.000    0.000 
#    0.000    0.000    0.000    0.000    0.000    0.000 
#
# Total GULP energy -198341.395886 kJ/mol
# GULP energy per Si atom -12396.337243 kJ/mol
# Density = 2.274796 g / cm^3
# Si number density = 22.799855 Si / 1000 Ang^3
#
#
#
# Elastic Constant Matrix: (Units=GPa)
#
#
# Indices 1 2 3 4 5 6 
#
# 1 139.2911 69.7768 51.2595 -21.4076 22.6069 5.7553
# 2 69.7768 134.1123 52.7136 -40.0187 2.8624 13.5539
# 3 51.2595 52.7136 100.6510 -18.6649 40.5751 3.5054
# 4 -21.4076 -40.0187 -18.6649 28.8708 -5.0255 -14.0004
# 5 22.6069 2.8624 40.5751 -5.0255 37.9735 -9.0382
# 6 5.7553 13.5539 3.5054 -14.0004 -9.0382 43.9346
#
#
#
# Elastic Compliance Matrix: (Units=1/GPa)
#
#
# Indices 1 2 3 4 5 6 
#
# 1 0.011079 -0.006088 -0.000109 -0.002274 -0.006719 -0.001671
# 2 -0.006088 0.021244 -0.011492 0.024115 0.019106 0.006776
# 3 -0.000109 -0.011492 0.027473 -0.007226 -0.031127 -0.007338
# 4 -0.002274 0.024115 -0.007226 0.076588 0.022753 0.022521
# 5 -0.006719 0.019106 -0.031127 0.022753 0.069702 0.019059
# 6 -0.001671 0.006776 -0.007338 0.022521 0.019059 0.032573
#
#
# Mechanical properties :
#
#
# Convention : Reuss Voigt Hill
#
# Bulk Modulus (GPa) = 40.95084 80.17267 60.56176
# Shear Modulus (GPa) = 17.71949 35.50942 26.61445
#
# Velocity S-wave (km/s) = 2.79081 3.95072 3.42030
# Velocity P-wave (km/s) = 5.32774 7.48672 6.49753
#
# Compressibility (1/GPa) = 0.02441952
#
# Stress axis : x y z
#
# Youngs Moduli (GPa) = 90.26144 47.07211 36.39896
#
# Poissons Ratio (x) = 0.28656 0.00396
# Poissons Ratio (y) = 0.54948 0.41830
# Poissons Ratio (z) = 0.00981 0.54096
#
# Static dielectric constant tensor:
#      x y z
#    x 4.431620 0.486420 -0.013380 
#    y 0.486420 4.910320 -0.416570 
#    z -0.013380 -0.416570 4.075010 
# 
# 
# High freq. dielectric constant tensor:
#      x y z
#    x 1.906140 0.013690 0.009710 
#    y 0.013690 1.897100 -0.018040 
#    z 0.009710 -0.018040 1.890680 
# 
# From -- ./inp_files/504719.got.cif
#   From: 2010.06.25/outbox.cif.g09.slc.cpg/sg2_253_cif.got.tgz:504719.got - 2010.06.27 13:26:56.
