data_PCOD8021191
_publ_section_title
;
Structure prediction by ZEFSAII (Michael W. Deem and Ramdas Pophale) SiO2 
 PCOD8021191
Probable space group: P -1
;
_chemical_formula_sum "Si O2"
_cell_formula_units_Z 16
_cell_length_a 11.622621
_cell_length_b 9.062817
_cell_length_c 11.841028
_cell_angle_alpha 49.026991
_cell_angle_beta 130.793688
_cell_angle_gamma 122.558819
_cell_volume 699.663223
_symmetry_space_group_name_H-M "P -1"
_symmetry_group_IT_number 2
_symmetry_cell_setting 'triclinic'
loop_
_space_group_symop_operation_xyz
x,y,z
-x,-y,-z
loop_
_atom_site_type_symbol
_atom_site_label
_atom_site_fract_x
_atom_site_fract_y
_atom_site_fract_z
Si Si1 0.526517 0.378240 0.330428
Si Si2 0.711379 0.850530 0.552005
Si Si3 0.071337 0.439055 0.751930
Si Si4 0.619289 0.697203 0.949395
Si Si5 0.978284 0.605857 0.818174
Si Si6 0.596604 0.834754 0.105096
Si Si7 0.170924 0.744912 0.478856
Si Si8 0.166218 0.980908 0.669593
O O1 0.451586 0.282871 0.447240
O O2 0.437331 0.238870 0.241274
O O3 0.510594 0.609743 0.195193
O O4 0.705998 0.366325 0.447234
O O5 0.700524 0.965873 0.368196
O O6 0.830983 0.705501 0.685656
O O7 0.771569 0.018703 0.599055
O O8 0.954949 0.454512 0.773407
O O9 0.133828 0.655569 0.625941
O O10 0.983582 0.291363 0.675920
O O11 0.209860 0.344228 0.936112
O O12 0.500000 0.500000 0.000000
O O13 0.617532 0.852854 0.973103
O O14 0.139558 0.758499 0.814884
O O15 0.000000 0.500000 0.000000
O O16 0.766619 0.875460 0.254270
O O17 0.500000 0.000000 0.000000
O O18 0.000000 0.000000 0.500000
#
# Coordination Sequence:
#
# PCOD8021191 Si02
#       8
#     2   2   2   2   2   2   2   2
#     4  11  25  47  69 101 146 189 236 287 361 415
#     4  11  25  44  71 102 146 187 238 292 349 423
#     4  11  23  42  74 101 137 181 243 287 354 413
#     4  10  22  43  68  97 140 184 226 285 355 420
#     4  11  25  44  71 100 144 186 231 291 361 415
#     4  11  26  42  71 106 139 185 236 289 355 423
#     4  11  24  42  73 102 138 186 240 291 349 421
#     4  10  25  43  72  99 141 179 238 282 360 408
#
# _framework density 22.868144000000001
#
# number of rings (size 3 to 8) (size 9 to 14) (size 15 to 20)
#    0.000    1.250    3.750    1.125   14.000    0.500 
#    2.250    1.250    0.000    0.000    0.000    0.000 
#    0.000    0.000    0.000    0.000    0.000    0.000 
#
# Total GULP energy -198300.561681 kJ/mol
# GULP energy per Si atom -12393.785105 kJ/mol
# Density = 2.281610 g / cm^3
# Si number density = 22.868144 Si / 1000 Ang^3
#
#
#
# Elastic Constant Matrix: (Units=GPa)
#
#
# Indices 1 2 3 4 5 6 
#
# 1 127.0381 32.6427 45.6510 -9.5510 -14.0243 -7.9500
# 2 32.6427 88.3045 24.4615 10.0141 -3.0051 -11.6824
# 3 45.6510 24.4615 69.5109 13.3724 -7.9505 4.2417
# 4 -9.5510 10.0141 13.3724 36.6013 1.8640 2.5595
# 5 -14.0243 -3.0051 -7.9505 1.8640 49.4557 -8.5266
# 6 -7.9500 -11.6824 4.2417 2.5595 -8.5266 38.0705
#
#
#
# Elastic Compliance Matrix: (Units=1/GPa)
#
#
# Indices 1 2 3 4 5 6 
#
# 1 0.012546 -0.002589 -0.008550 0.006793 0.002257 0.002827
# 2 -0.002589 0.014087 -0.002715 -0.003882 0.000604 0.004481
# 3 -0.008550 -0.002715 0.023172 -0.009686 0.000745 -0.004382
# 4 0.006793 -0.003882 -0.009686 0.033854 -0.001362 -0.001275
# 5 0.002257 0.000604 0.000745 -0.001362 0.022034 0.005600
# 6 0.002827 0.004481 -0.004382 -0.001275 0.005600 0.030061
#
#
# Mechanical properties :
#
#
# Convention : Reuss Voigt Hill
#
# Bulk Modulus (GPa) = 45.25041 54.48491 49.86766
# Shear Modulus (GPa) = 29.26949 36.96537 33.11743
#
# Velocity S-wave (km/s) = 3.58148 4.02488 3.80964
# Velocity P-wave (km/s) = 6.07727 6.74366 6.41912
#
# Compressibility (1/GPa) = 0.02209925
#
# Stress axis : x y z
#
# Youngs Moduli (GPa) = 79.70637 70.98699 43.15461
#
# Poissons Ratio (x) = 0.18378 0.36896
# Poissons Ratio (y) = 0.20636 0.11714
# Poissons Ratio (z) = 0.68146 0.19270
#
# Static dielectric constant tensor:
#      x y z
#    x 4.349120 -0.170050 -0.387430 
#    y -0.170050 4.502910 0.350280 
#    z -0.387430 0.350280 4.150010 
# 
# 
# High freq. dielectric constant tensor:
#      x y z
#    x 1.906200 -0.009670 -0.005030 
#    y -0.009670 1.898230 0.010220 
#    z -0.005030 0.010220 1.890440 
# 
# From -- ./inp_files/419020.got.cif
#   From: 2010.06.25/outbox.cif.g09.slc.cpg/sg2_210_cif.got.tgz:419020.got - 2010.06.27 13:26:56.
