data_PCOD8021661
_publ_section_title
;
Structure prediction by ZEFSAII (Michael W. Deem and Ramdas Pophale) SiO2 
 PCOD8021661
Probable space group: P -1
;
_chemical_formula_sum "Si O2"
_cell_formula_units_Z 14
_cell_length_a 8.814506
_cell_length_b 12.786585
_cell_length_c 18.665467
_cell_angle_alpha 37.416318
_cell_angle_beta 38.803716
_cell_angle_gamma 65.387442
_cell_volume 678.373675
_symmetry_space_group_name_H-M "P -1"
_symmetry_group_IT_number 2
_symmetry_cell_setting 'triclinic'
loop_
_space_group_symop_operation_xyz
x,y,z
-x,-y,-z
loop_
_atom_site_type_symbol
_atom_site_label
_atom_site_fract_x
_atom_site_fract_y
_atom_site_fract_z
Si Si1 0.854702 0.281927 0.704778
Si Si2 0.408480 0.226175 0.404635
Si Si3 0.706293 0.055922 0.129302
Si Si4 0.718404 0.101382 0.257041
Si Si5 0.366391 0.311470 0.921370
Si Si6 0.184830 0.300370 0.715622
Si Si7 0.210323 0.992417 0.251762
O O1 0.526841 0.216045 0.873565
O O2 0.862394 0.124858 0.733883
O O3 0.000000 0.500000 0.500000
O O4 0.021502 0.308130 0.702445
O O5 0.645734 0.240499 0.255988
O O6 0.467270 0.447353 0.278468
O O7 0.099659 0.098335 0.547954
O O8 0.406737 0.116617 0.539299
O O9 0.601381 0.088431 0.227044
O O10 0.786829 0.890438 0.201010
O O11 0.425177 0.960033 0.235763
O O12 0.978070 0.258548 0.883501
O O13 0.054310 0.216820 0.055484
O O14 0.337995 0.231523 0.057699
O O15 0.500000 0.500000 0.500000
#
# Coordination Sequence:
#
# PCOD8021661 Si02
#       7
#     2   2   2   2   2   2   2
#     4  12  23  39  66  94 124 166 206 248 315 374
#     4  10  22  44  66  90 121 163 219 254 304 368
#     4  11  25  40  60  92 130 164 202 253 317 361
#     4  10  24  42  65  92 122 165 210 261 307 361
#     4  11  22  39  66  89 123 161 212 253 305 371
#     4  11  25  41  60  92 132 163 200 254 312 374
#     4  11  23  40  63  93 126 164 205 255 307 375
#
# _framework density 20.637594
#
# number of rings (size 3 to 8) (size 9 to 14) (size 15 to 20)
#    0.000    1.143    2.857    3.429    6.000    0.571 
#    0.000    0.714    0.000    0.000    0.000    0.000 
#    0.000    0.000    0.000    0.000    0.000    0.000 
#
# Total GULP energy -173513.578254 kJ/mol
# GULP energy per Si atom -12393.827018 kJ/mol
# Density = 2.059062 g / cm^3
# Si number density = 20.637594 Si / 1000 Ang^3
#
#
#
# Elastic Constant Matrix: (Units=GPa)
#
#
# Indices 1 2 3 4 5 6 
#
# 1 113.5158 45.7137 52.2687 13.4665 7.0540 3.3379
# 2 45.7137 57.0927 14.7279 10.5419 -0.2663 0.0638
# 3 52.2687 14.7279 105.7230 5.6210 -0.1388 5.0459
# 4 13.4665 10.5419 5.6210 32.0457 -11.3472 4.6043
# 5 7.0540 -0.2663 -0.1388 -11.3472 35.7663 4.8625
# 6 3.3379 0.0638 5.0459 4.6043 4.8625 32.3054
#
#
#
# Elastic Compliance Matrix: (Units=1/GPa)
#
#
# Indices 1 2 3 4 5 6 
#
# 1 0.017281 -0.011340 -0.006778 -0.004180 -0.004931 0.000634
# 2 -0.011340 0.026866 0.002032 -0.004290 0.000910 0.001276
# 3 -0.006778 0.002032 0.012562 0.000896 0.001913 -0.001681
# 4 -0.004180 -0.004290 0.000896 0.040525 0.014698 -0.007688
# 5 -0.004931 0.000910 0.001913 0.014698 0.034573 -0.007090
# 6 0.000634 0.001276 -0.001681 -0.007688 -0.007090 0.033312
#
#
# Mechanical properties :
#
#
# Convention : Reuss Voigt Hill
#
# Bulk Modulus (GPa) = 40.75562 55.75023 48.25293
# Shear Modulus (GPa) = 24.33453 30.93155 27.63304
#
# Velocity S-wave (km/s) = 3.43758 3.87563 3.66316
# Velocity P-wave (km/s) = 5.96214 6.86294 6.42833
#
# Compressibility (1/GPa) = 0.02453649
#
# Stress axis : x y z
#
# Youngs Moduli (GPa) = 57.86797 37.22186 79.60619
#
# Poissons Ratio (x) = 0.42209 0.53959
# Poissons Ratio (y) = 0.65622 -0.16178
# Poissons Ratio (z) = 0.39224 -0.07564
#
# Static dielectric constant tensor:
#      x y z
#    x 3.701090 -0.207350 0.173340 
#    y -0.207350 3.676260 0.212580 
#    z 0.173340 0.212580 4.022640 
# 
# 
# High freq. dielectric constant tensor:
#      x y z
#    x 1.806390 -0.025240 0.006050 
#    y -0.025240 1.787370 0.013030 
#    z 0.006050 0.013030 1.829580 
# 
# From -- ./inp_files/257770.got.cif
#   From: 2010.06.25/outbox.cif.g09.slc.cpg/sg2_129_cif.got.tgz:257770.got - 2010.06.27 13:26:56.
