data_PCOD8021522
_publ_section_title
;
Structure prediction by ZEFSAII (Michael W. Deem and Ramdas Pophale) SiO2 
 PCOD8021522
Probable space group: P -1
;
_chemical_formula_sum "Si O2"
_cell_formula_units_Z 12
_cell_length_a 22.600840
_cell_length_b 14.053590
_cell_length_c 13.905435
_cell_angle_alpha 30.369930
_cell_angle_beta 18.232538
_cell_angle_gamma 23.268487
_cell_volume 544.187749
_symmetry_space_group_name_H-M "P -1"
_symmetry_group_IT_number 2
_symmetry_cell_setting 'triclinic'
loop_
_space_group_symop_operation_xyz
x,y,z
-x,-y,-z
loop_
_atom_site_type_symbol
_atom_site_label
_atom_site_fract_x
_atom_site_fract_y
_atom_site_fract_z
Si Si1 0.106648 0.145235 0.114090
Si Si2 0.934581 0.860675 0.589231
Si Si3 0.631846 0.570976 0.386698
Si Si4 0.576919 0.698349 0.016385
Si Si5 0.403228 0.068889 0.395515
Si Si6 0.079648 0.504240 0.168629
O O1 0.084720 0.148974 0.258915
O O2 0.893272 0.417469 0.171159
O O3 0.085537 0.957686 0.254515
O O4 0.381132 0.045482 0.758161
O O5 0.040451 0.609017 0.594461
O O6 0.666534 0.045578 0.795474
O O7 0.473043 0.493134 0.731788
O O8 0.461973 0.853453 0.426422
O O9 0.704925 0.535395 0.192351
O O10 0.626612 0.726648 0.804453
O O11 0.806236 0.612796 0.801620
O O12 0.145002 0.208617 0.726345
#
# Coordination Sequence:
#
# PCOD8021522 Si02
#       6
#     2   2   2   2   2   2
#     4   9  19  41  60  88 122 160 199 245 311 346
#     4   9  19  37  68  84 118 167 198 245 300 362
#     4  11  23  42  64  87 124 164 197 254 297 360
#     4  10  22  44  62  87 127 162 198 249 304 354
#     4  11  24  41  64  90 124 161 198 254 302 353
#     4  12  23  39  64  96 118 160 208 244 302 362
#
# _framework density 22.051214000000002
#
# number of rings (size 3 to 8) (size 9 to 14) (size 15 to 20)
#    0.000    1.667    3.333    3.000    0.000    2.000 
#    6.000    0.000    0.000    0.000    0.000    0.000 
#    0.000    0.000    0.000    0.000    0.000    0.000 
#
# Total GULP energy -148718.546185 kJ/mol
# GULP energy per Si atom -12393.212182 kJ/mol
# Density = 2.200102 g / cm^3
# Si number density = 22.051214 Si / 1000 Ang^3
#
#
#
# Elastic Constant Matrix: (Units=GPa)
#
#
# Indices 1 2 3 4 5 6 
#
# 1 68.5501 34.3141 19.7964 9.8053 -21.1668 -1.2124
# 2 34.3141 106.5695 38.7854 13.3580 7.0177 9.8120
# 3 19.7964 38.7854 56.2731 5.1669 -0.4387 22.0721
# 4 9.8053 13.3580 5.1669 39.3035 -6.5309 -0.4242
# 5 -21.1668 7.0177 -0.4387 -6.5309 20.3331 8.4179
# 6 -1.2124 9.8120 22.0721 -0.4242 8.4179 28.4991
#
#
#
# Elastic Compliance Matrix: (Units=1/GPa)
#
#
# Indices 1 2 3 4 5 6 
#
# 1 0.034966 -0.014138 0.000322 0.003508 0.045417 -0.007257
# 2 -0.014138 0.020285 -0.012830 -0.006289 -0.028426 0.010655
# 3 0.000322 -0.012830 0.038682 0.002041 0.019152 -0.031154
# 4 0.003508 -0.006289 0.002041 0.029190 0.016815 -0.003799
# 5 0.045417 -0.028426 0.019152 0.016815 0.129052 -0.040982
# 6 -0.007257 0.010655 -0.031154 -0.003799 -0.040982 0.067288
#
#
# Mechanical properties :
#
#
# Convention : Reuss Voigt Hill
#
# Bulk Modulus (GPa) = 24.60655 46.35384 35.48020
# Shear Modulus (GPa) = 12.94331 26.86027 19.90179
#
# Velocity S-wave (km/s) = 2.42537 3.49390 3.00747
# Velocity P-wave (km/s) = 4.36191 6.11089 5.30892
#
# Compressibility (1/GPa) = 0.04063958
#
# Stress axis : x y z
#
# Youngs Moduli (GPa) = 28.59959 49.29852 25.85214
#
# Poissons Ratio (x) = 0.69699 -0.00834
# Poissons Ratio (y) = 0.40434 0.33169
# Poissons Ratio (z) = -0.00922 0.63252
#
# Static dielectric constant tensor:
#      x y z
#    x 3.827080 -0.214410 -0.215110 
#    y -0.214410 4.105240 -0.047850 
#    z -0.215110 -0.047850 3.953680 
# 
# 
# High freq. dielectric constant tensor:
#      x y z
#    x 1.855930 -0.013270 -0.014910 
#    y -0.013270 1.870470 -0.002950 
#    z -0.014910 -0.002950 1.849350 
# 
# From -- ./inp_files/249605.got.cif
#   From: 2010.06.25/outbox.cif.g09.slc.cpg/sg2_125_cif.got.tgz:249605.got - 2010.06.27 13:26:56.
