data_PCOD8021631
_publ_section_title
;
Structure prediction by ZEFSAII (Michael W. Deem and Ramdas Pophale) SiO2 
 PCOD8021631
Probable space group: P -1
;
_chemical_formula_sum "Si O2"
_cell_formula_units_Z 14
_cell_length_a 12.039487
_cell_length_b 10.538622
_cell_length_c 12.562433
_cell_angle_alpha 148.547005
_cell_angle_beta 51.096168
_cell_angle_gamma 126.059150
_cell_volume 641.721271
_symmetry_space_group_name_H-M "P -1"
_symmetry_group_IT_number 2
_symmetry_cell_setting 'triclinic'
loop_
_space_group_symop_operation_xyz
x,y,z
-x,-y,-z
loop_
_atom_site_type_symbol
_atom_site_label
_atom_site_fract_x
_atom_site_fract_y
_atom_site_fract_z
Si Si1 0.421422 0.230987 0.235219
Si Si2 0.178103 0.154332 0.752467
Si Si3 0.340563 0.372418 0.003472
Si Si4 0.319956 0.369428 0.615244
Si Si5 0.076572 0.643230 0.861382
Si Si6 0.203401 0.185340 0.149888
Si Si7 0.088466 0.595782 0.397422
O O1 0.363031 0.212041 0.377196
O O2 0.534250 0.472217 0.317114
O O3 0.281807 0.234409 0.249495
O O4 0.500000 0.000000 0.000000
O O5 0.304832 0.210984 0.803546
O O6 0.250346 0.182612 0.613069
O O7 0.093761 0.881445 0.628053
O O8 0.063861 0.350678 0.974523
O O9 0.500000 0.500000 0.000000
O O10 0.320581 0.196805 0.993086
O O11 0.232831 0.576657 0.227444
O O12 0.205732 0.550572 0.781510
O O13 0.044220 0.483248 0.659322
O O14 0.116104 0.921166 0.000047
O O15 0.095152 0.399166 0.353392
#
# Coordination Sequence:
#
# PCOD8021631 Si02
#       7
#     2   2   2   2   2   2   2
#     4  11  24  47  69  96 129 178 220 277 328 384
#     4  11  24  43  67 100 135 176 216 272 333 394
#     4   9  21  42  64  95 132 171 216 274 328 380
#     4  11  26  43  67 101 130 173 228 265 331 400
#     4  11  23  44  66 100 136 175 219 273 330 386
#     4  10  22  44  65  96 132 172 222 276 320 392
#     4   9  24  40  64 100 127 175 219 267 330 390
#
# _framework density 21.816324999999999
#
# number of rings (size 3 to 8) (size 9 to 14) (size 15 to 20)
#    0.857    0.857    1.429    1.714    2.000    6.286 
#    0.000    0.000    0.000    0.000    0.000    0.000 
#    0.000    0.000    0.000    0.000    0.000    0.000 
#
# Total GULP energy -173567.820475 kJ/mol
# GULP energy per Si atom -12397.701463 kJ/mol
# Density = 2.176667 g / cm^3
# Si number density = 21.816325 Si / 1000 Ang^3
#
#
#
# Elastic Constant Matrix: (Units=GPa)
#
#
# Indices 1 2 3 4 5 6 
#
# 1 83.3427 13.2734 43.5190 14.6935 16.9852 10.1069
# 2 13.2734 84.8405 35.5598 8.5535 10.1935 -6.3690
# 3 43.5190 35.5598 115.6614 12.0901 9.7293 -5.9251
# 4 14.6935 8.5535 12.0901 28.5750 1.7840 6.4135
# 5 16.9852 10.1935 9.7293 1.7840 35.4769 4.0078
# 6 10.1069 -6.3690 -5.9251 6.4135 4.0078 35.5106
#
#
#
# Elastic Compliance Matrix: (Units=1/GPa)
#
#
# Indices 1 2 3 4 5 6 
#
# 1 0.017802 0.000739 -0.006039 -0.005474 -0.006325 -0.004239
# 2 0.000739 0.014265 -0.003873 -0.003401 -0.003526 0.002714
# 3 -0.006039 -0.003873 0.012443 -0.001779 0.000298 0.003388
# 4 -0.005474 -0.003401 -0.001779 0.040992 0.002823 -0.007071
# 5 -0.006325 -0.003526 0.000298 0.002823 0.032338 -0.002942
# 6 -0.004239 0.002714 0.003388 -0.007071 -0.002942 0.032028
#
#
# Mechanical properties :
#
#
# Convention : Reuss Voigt Hill
#
# Bulk Modulus (GPa) = 38.21696 52.06100 45.13898
# Shear Modulus (GPa) = 28.25918 32.67868 30.46893
#
# Velocity S-wave (km/s) = 3.60296 3.87447 3.74118
# Velocity P-wave (km/s) = 5.90458 6.62801 6.27673
#
# Compressibility (1/GPa) = 0.02616639
#
# Stress axis : x y z
#
# Youngs Moduli (GPa) = 56.17240 70.10367 80.36542
#
# Poissons Ratio (x) = -0.05184 0.48529
# Poissons Ratio (y) = -0.04154 0.31123
# Poissons Ratio (z) = 0.33920 0.27149
#
# Static dielectric constant tensor:
#      x y z
#    x 3.970940 0.107650 0.045310 
#    y 0.107650 3.876400 -0.254500 
#    z 0.045310 -0.254500 4.046400 
# 
# 
# High freq. dielectric constant tensor:
#      x y z
#    x 1.860380 0.014420 0.003540 
#    y 0.014420 1.856940 -0.013950 
#    z 0.003540 -0.013950 1.868200 
# 
# From -- ./inp_files/429181.got.cif
#   From: 2010.06.25/outbox.cif.g09.slc.cpg/sg2_215_cif.got.tgz:429181.got - 2010.06.27 13:26:56.
