data_PCOD8021589
_publ_section_title
;
Structure prediction by ZEFSAII (Michael W. Deem and Ramdas Pophale) SiO2 
 PCOD8021589
Probable space group: P -1
;
_chemical_formula_sum "Si O2"
_cell_formula_units_Z 16
_cell_length_a 6.393429
_cell_length_b 10.873288
_cell_length_c 14.828514
_cell_angle_alpha 126.874248
_cell_angle_beta 86.046879
_cell_angle_gamma 68.726032
_cell_volume 709.344903
_symmetry_space_group_name_H-M "P -1"
_symmetry_group_IT_number 2
_symmetry_cell_setting 'triclinic'
loop_
_space_group_symop_operation_xyz
x,y,z
-x,-y,-z
loop_
_atom_site_type_symbol
_atom_site_label
_atom_site_fract_x
_atom_site_fract_y
_atom_site_fract_z
Si Si1 0.229910 0.014898 0.484837
Si Si2 0.590558 0.308232 0.019205
Si Si3 0.622517 0.921242 0.313399
Si Si4 0.040093 0.609945 0.423913
Si Si5 0.583440 0.960730 0.817444
Si Si6 0.892285 0.387223 0.910928
Si Si7 0.540133 0.303637 0.219319
Si Si8 0.886014 0.340587 0.360988
O O1 0.372273 0.959280 0.551611
O O2 0.136861 0.220336 0.554950
O O3 0.410173 0.883026 0.341265
O O4 0.000000 0.000000 0.500000
O O5 0.345999 0.494971 0.089780
O O6 0.665304 0.295947 0.116475
O O7 0.817704 0.290324 0.947335
O O8 0.523520 0.157281 0.931801
O O9 0.891743 0.754211 0.220715
O O10 0.525842 0.035337 0.276151
O O11 0.266342 0.468240 0.295750
O O12 0.137835 0.667980 0.534064
O O13 0.879621 0.523507 0.420052
O O14 0.456891 0.883274 0.852566
O O15 0.869783 0.832315 0.755127
O O16 0.000000 0.500000 0.000000
O O17 0.670560 0.334685 0.313393
#
# Coordination Sequence:
#
# PCOD8021589 Si02
#       8
#     2   2   2   2   2   2   2   2
#     4  11  26  42  73 101 136 172 223 285 336 407
#     4  11  26  45  67 105 134 179 233 280 333 396
#     4  11  25  44  66 103 132 178 224 274 341 404
#     4  10  22  44  64  99 133 169 224 276 333 408
#     4  11  24  43  69  97 138 176 227 280 334 409
#     4  11  25  45  73  94 138 185 221 278 338 402
#     4  11  25  42  71  98 134 179 227 278 337 398
#     4  10  23  42  67  93 134 179 216 277 340 395
#
# _framework density 22.556021000000001
#
# number of rings (size 3 to 8) (size 9 to 14) (size 15 to 20)
#    0.000    1.250    2.500    1.500    5.250    6.500 
#    0.000    0.000    0.000    0.000    0.000    0.000 
#    0.000    0.000    0.000    0.000    0.000    0.000 
#
# Total GULP energy -198338.430697 kJ/mol
# GULP energy per Si atom -12396.151919 kJ/mol
# Density = 2.250468 g / cm^3
# Si number density = 22.556021 Si / 1000 Ang^3
#
#
#
# Elastic Constant Matrix: (Units=GPa)
#
#
# Indices 1 2 3 4 5 6 
#
# 1 113.9532 45.4432 40.2874 1.1201 -15.7628 8.8627
# 2 45.4432 89.4778 39.1112 -6.7998 -4.2837 8.5503
# 3 40.2874 39.1112 87.2598 -14.4030 -17.0048 14.2034
# 4 1.1201 -6.7998 -14.4030 36.3013 -5.3981 -1.0660
# 5 -15.7628 -4.2837 -17.0048 -5.3981 46.8749 -1.5179
# 6 8.8627 8.5503 14.2034 -1.0660 -1.5179 32.9487
#
#
#
# Elastic Compliance Matrix: (Units=1/GPa)
#
#
# Indices 1 2 3 4 5 6 
#
# 1 0.012233 -0.004751 -0.003383 -0.002304 0.002168 -0.000574
# 2 -0.004751 0.015821 -0.005015 0.000816 -0.001901 -0.000727
# 3 -0.003383 -0.005015 0.018426 0.007176 0.005745 -0.005235
# 4 -0.002304 0.000816 0.007176 0.031391 0.005472 -0.001418
# 5 0.002168 -0.001901 0.005745 0.005472 0.024563 -0.001258
# 6 -0.000574 -0.000727 -0.005235 -0.001418 -0.001258 0.032846
#
#
# Mechanical properties :
#
#
# Convention : Reuss Voigt Hill
#
# Bulk Modulus (GPa) = 49.54714 60.04160 54.79437
# Shear Modulus (GPa) = 29.70783 34.28158 31.99471
#
# Velocity S-wave (km/s) = 3.63308 3.90274 3.77032
# Velocity P-wave (km/s) = 6.29388 6.85458 6.58021
#
# Compressibility (1/GPa) = 0.02018280
#
# Stress axis : x y z
#
# Youngs Moduli (GPa) = 81.74386 63.20541 54.27068
#
# Poissons Ratio (x) = 0.30027 0.18360
# Poissons Ratio (y) = 0.38834 0.27219
# Poissons Ratio (z) = 0.27654 0.31700
#
# Static dielectric constant tensor:
#      x y z
#    x 4.201500 0.153330 -0.289210 
#    y 0.153330 3.565840 -0.069880 
#    z -0.289210 -0.069880 4.150940 
# 
# 
# High freq. dielectric constant tensor:
#      x y z
#    x 1.894110 -0.006710 -0.012430 
#    y -0.006710 1.893550 -0.008610 
#    z -0.012430 -0.008610 1.885880 
# 
# From -- ./inp_files/109706.got.cif
#   From: 2010.06.25/outbox.cif.g09.slc.cpg/sg2_55_cif.got.tgz:109706.got - 2010.06.27 13:26:56.
