data_PCOD8021117
_publ_section_title
;
Structure prediction by ZEFSAII (Michael W. Deem and Ramdas Pophale) SiO2 
 PCOD8021117
Probable space group: P -1
;
_chemical_formula_sum "Si O2"
_cell_formula_units_Z 16
_cell_length_a 8.507495
_cell_length_b 20.629632
_cell_length_c 16.869166
_cell_angle_alpha 20.705364
_cell_angle_beta 41.436685
_cell_angle_gamma 42.515201
_cell_volume 684.575427
_symmetry_space_group_name_H-M "P -1"
_symmetry_group_IT_number 2
_symmetry_cell_setting 'triclinic'
loop_
_space_group_symop_operation_xyz
x,y,z
-x,-y,-z
loop_
_atom_site_type_symbol
_atom_site_label
_atom_site_fract_x
_atom_site_fract_y
_atom_site_fract_z
Si Si1 0.099809 0.261565 0.507723
Si Si2 0.653571 0.406272 0.734019
Si Si3 0.702221 0.823249 0.635764
Si Si4 0.720392 0.500281 0.108665
Si Si5 0.949806 0.581915 0.305896
Si Si6 0.760192 0.974749 0.965215
Si Si7 0.139668 0.904057 0.482613
Si Si8 0.367057 0.004515 0.832799
O O1 0.246618 0.269563 0.362681
O O2 0.267403 0.156403 0.632267
O O3 0.006581 0.474184 0.324960
O O4 0.872565 0.158459 0.695531
O O5 0.382506 0.463462 0.804326
O O6 0.706845 0.518841 0.506582
O O7 0.820294 0.473009 0.662642
O O8 0.712205 0.188833 0.942056
O O9 0.945729 0.881153 0.514100
O O10 0.500000 0.000000 0.500000
O O11 0.596859 0.668006 0.906788
O O12 0.697918 0.291705 0.328839
O O13 0.000000 0.500000 0.000000
O O14 0.910701 0.803040 0.057085
O O15 0.754985 0.932110 0.109869
O O16 0.500000 0.000000 0.000000
O O17 0.341162 0.023517 0.239230
O O18 0.000000 0.000000 0.500000
#
# Coordination Sequence:
#
# PCOD8021117 Si02
#       8
#     2   2   2   2   2   2   2   2
#     4  12  24  46  70 104 140 186 235 294 363 424
#     4  11  21  42  75 102 132 183 241 295 349 429
#     4  11  25  46  71 104 148 187 239 300 353 434
#     4  10  22  43  68 100 137 186 237 292 349 427
#     4  11  24  42  71 104 136 183 241 293 358 423
#     4  12  26  45  65 102 144 184 237 296 359 426
#     4  11  23  44  70 104 140 190 240 292 362 423
#     4  12  22  44  71 100 139 185 233 295 361 427
#
# _framework density 23.372149
#
# number of rings (size 3 to 8) (size 9 to 14) (size 15 to 20)
#    0.000    0.750    2.500    7.125    0.000    1.500 
#    9.000    3.125    0.000    0.000    0.000    0.000 
#    0.000    0.000    0.000    0.000    0.000    0.000 
#
# Total GULP energy -198389.177430 kJ/mol
# GULP energy per Si atom -12399.323589 kJ/mol
# Density = 2.331895 g / cm^3
# Si number density = 23.372149 Si / 1000 Ang^3
#
#
#
# Elastic Constant Matrix: (Units=GPa)
#
#
# Indices 1 2 3 4 5 6 
#
# 1 77.7602 35.8523 28.0961 -10.6034 -5.7769 7.4283
# 2 35.8523 158.1375 33.0895 -20.1107 -10.9310 25.3004
# 3 28.0961 33.0895 78.2260 -18.1363 -15.9567 11.1099
# 4 -10.6034 -20.1107 -18.1363 49.7616 0.3881 -6.7820
# 5 -5.7769 -10.9310 -15.9567 0.3881 34.2884 0.6375
# 6 7.4283 25.3004 11.1099 -6.7820 0.6375 44.0748
#
#
#
# Elastic Compliance Matrix: (Units=1/GPa)
#
#
# Indices 1 2 3 4 5 6 
#
# 1 0.015727 -0.002571 -0.004460 0.000697 -0.000254 0.000060
# 2 -0.002571 0.008085 -0.001242 0.001757 0.001614 -0.003648
# 3 -0.004460 -0.001242 0.017782 0.004645 0.007120 -0.002406
# 4 0.000697 0.001757 0.004645 0.022787 0.002560 0.001172
# 5 -0.000254 0.001614 0.007120 0.002560 0.032972 -0.002762
# 6 0.000060 -0.003648 -0.002406 0.001172 -0.002762 0.025599
#
#
# Mechanical properties :
#
#
# Convention : Reuss Voigt Hill
#
# Bulk Modulus (GPa) = 39.92299 56.46660 48.19480
# Shear Modulus (GPa) = 33.81867 40.09735 36.95801
#
# Velocity S-wave (km/s) = 3.80803 4.14648 3.98085
# Velocity P-wave (km/s) = 6.03765 6.86561 6.46490
#
# Compressibility (1/GPa) = 0.02504822
#
# Stress axis : x y z
#
# Youngs Moduli (GPa) = 63.58372 123.68590 56.23793
#
# Poissons Ratio (x) = 0.31800 0.25083
# Poissons Ratio (y) = 0.16347 0.06983
# Poissons Ratio (z) = 0.28359 0.15359
#
# Static dielectric constant tensor:
#      x y z
#    x 4.106510 -0.036620 -0.073060 
#    y -0.036620 4.215160 0.338540 
#    z -0.073060 0.338540 4.522320 
# 
# 
# High freq. dielectric constant tensor:
#      x y z
#    x 1.905260 -0.001120 -0.019770 
#    y -0.001120 1.943350 -0.002490 
#    z -0.019770 -0.002490 1.928770 
# 
# From -- ./inp_files/338113.got.cif
#   From: 2010.06.25/outbox.cif.g09.slc.cpg/sg2_170_cif.got.tgz:338113.got - 2010.06.27 13:26:56.
