data_PCOD8021754
_publ_section_title
;
Structure prediction by ZEFSAII (Michael W. Deem and Ramdas Pophale) SiO2 
 PCOD8021754
Probable space group: P -1
;
_chemical_formula_sum "Si O2"
_cell_formula_units_Z 16
_cell_length_a 14.892845
_cell_length_b 5.186585
_cell_length_c 24.734315
_cell_angle_alpha 79.272021
_cell_angle_beta 150.522031
_cell_angle_gamma 118.339684
_cell_volume 704.606416
_symmetry_space_group_name_H-M "P -1"
_symmetry_group_IT_number 2
_symmetry_cell_setting 'triclinic'
loop_
_space_group_symop_operation_xyz
x,y,z
-x,-y,-z
loop_
_atom_site_type_symbol
_atom_site_label
_atom_site_fract_x
_atom_site_fract_y
_atom_site_fract_z
Si Si1 0.918748 0.264913 0.582297
Si Si2 0.511762 0.226535 0.543131
Si Si3 0.310859 0.515160 0.965160
Si Si4 0.609764 0.299242 0.120816
Si Si5 0.850650 0.766159 0.481001
Si Si6 0.663530 0.807281 0.793374
Si Si7 0.902220 0.386172 0.816650
Si Si8 0.081814 0.806840 0.992703
O O1 0.874619 0.476921 0.513358
O O2 0.175662 0.548014 0.731926
O O3 0.713980 0.039754 0.527553
O O4 0.927812 0.004152 0.563783
O O5 0.500000 0.500000 0.500000
O O6 0.763519 0.441825 0.699085
O O7 0.500000 0.000000 0.500000
O O8 0.426852 0.343680 0.048256
O O9 0.481206 0.904745 0.059623
O O10 0.277166 0.490696 0.884005
O O11 0.051133 0.301068 0.865791
O O12 0.574942 0.571416 0.330378
O O13 0.000000 0.000000 0.500000
O O14 0.893144 0.861631 0.893426
O O15 0.693234 0.089481 0.759114
O O16 0.671757 0.870270 0.860688
O O17 0.100495 0.729686 0.943209
O O18 0.000000 0.500000 0.000000
#
# Coordination Sequence:
#
# PCOD8021754 Si02
#       8
#     2   2   2   2   2   2   2   2
#     4  12  25  50  70 101 146 186 235 295 347 423
#     4  12  27  43  73 110 142 189 234 289 358 428
#     4  10  23  41  69  98 135 182 227 287 347 411
#     4  10  23  45  65  96 140 181 230 282 343 419
#     4  12  27  47  73 100 138 192 235 291 355 421
#     4  10  22  44  67  98 142 175 233 298 356 419
#     4  11  23  41  70 102 140 178 235 291 358 418
#     4   9  21  41  66  99 131 180 220 295 359 405
#
# _framework density 22.707713999999999
#
# number of rings (size 3 to 8) (size 9 to 14) (size 15 to 20)
#    0.000    1.250    1.250    3.375    5.250    4.000 
#   11.250    0.000    0.000    0.000    0.000    0.000 
#    0.000    0.000    0.000    0.000    0.000    0.000 
#
# Total GULP energy -198348.416716 kJ/mol
# GULP energy per Si atom -12396.776045 kJ/mol
# Density = 2.265603 g / cm^3
# Si number density = 22.707714 Si / 1000 Ang^3
#
#
#
# Elastic Constant Matrix: (Units=GPa)
#
#
# Indices 1 2 3 4 5 6 
#
# 1 123.0609 35.5521 43.1464 -4.0120 -6.7485 -1.8073
# 2 35.5521 113.0808 31.7643 -7.0855 -2.7641 -0.4834
# 3 43.1464 31.7643 123.1860 -9.2692 -14.6109 5.4494
# 4 -4.0120 -7.0855 -9.2692 30.0274 0.2555 1.9736
# 5 -6.7485 -2.7641 -14.6109 0.2555 33.5814 6.9373
# 6 -1.8073 -0.4834 5.4494 1.9736 6.9373 41.4547
#
#
#
# Elastic Compliance Matrix: (Units=1/GPa)
#
#
# Indices 1 2 3 4 5 6 
#
# 1 0.009810 -0.002282 -0.002843 -0.000156 0.000400 0.000715
# 2 -0.002282 0.010143 -0.001766 0.001530 -0.000456 0.000254
# 3 -0.002843 -0.001766 0.010367 0.002521 0.004258 -0.002340
# 4 -0.000156 0.001530 0.002521 0.034554 0.001383 -0.002197
# 5 0.000400 -0.000456 0.004258 0.001383 0.032928 -0.006124
# 6 0.000715 0.000254 -0.002340 -0.002197 -0.006124 0.025594
#
#
# Mechanical properties :
#
#
# Convention : Reuss Voigt Hill
#
# Bulk Modulus (GPa) = 60.47402 64.47258 62.47330
# Shear Modulus (GPa) = 35.04049 37.60369 36.32209
#
# Velocity S-wave (km/s) = 3.93250 4.07380 4.00377
# Velocity P-wave (km/s) = 6.87814 7.11209 6.99609
#
# Compressibility (1/GPa) = 0.01653603
#
# Stress axis : x y z
#
# Youngs Moduli (GPa) = 101.94022 98.59256 96.45617
#
# Poissons Ratio (x) = 0.22503 0.27426
# Poissons Ratio (y) = 0.23267 0.17036
# Poissons Ratio (z) = 0.28985 0.17414
#
# Static dielectric constant tensor:
#      x y z
#    x 4.351670 -0.217940 -0.331980 
#    y -0.217940 4.124060 -0.024950 
#    z -0.331980 -0.024950 4.283490 
# 
# 
# High freq. dielectric constant tensor:
#      x y z
#    x 1.901810 -0.006160 -0.013110 
#    y -0.006160 1.901950 -0.005230 
#    z -0.013110 -0.005230 1.901330 
# 
# From -- ./inp_files/611248.got.cif
#   From: 2010.06.25/outbox.cif.g09.slc.cpg/sg2_306_cif.got.tgz:611248.got - 2010.06.27 13:26:56.
