data_PCOD8021536
_publ_section_title
;
Structure prediction by ZEFSAII (Michael W. Deem and Ramdas Pophale) SiO2 
 PCOD8021536
Probable space group: P -1
;
_chemical_formula_sum "Si O2"
_cell_formula_units_Z 16
_cell_length_a 6.559016
_cell_length_b 11.796850
_cell_length_c 27.392062
_cell_angle_alpha 29.089973
_cell_angle_beta 51.326347
_cell_angle_gamma 62.939982
_cell_volume 780.960878
_symmetry_space_group_name_H-M "P -1"
_symmetry_group_IT_number 2
_symmetry_cell_setting 'triclinic'
loop_
_space_group_symop_operation_xyz
x,y,z
-x,-y,-z
loop_
_atom_site_type_symbol
_atom_site_label
_atom_site_fract_x
_atom_site_fract_y
_atom_site_fract_z
Si Si1 0.471735 0.359784 0.006657
Si Si2 0.955479 0.281638 0.843924
Si Si3 0.583887 0.072512 0.621465
Si Si4 0.972589 0.750884 0.045269
Si Si5 0.009416 0.934506 0.250684
Si Si6 0.500119 0.456983 0.169882
Si Si7 0.233426 0.733797 0.380162
Si Si8 0.761164 0.552119 0.358029
O O1 0.179072 0.180031 0.108775
O O2 0.500000 0.500000 0.000000
O O3 0.496650 0.547631 0.887777
O O4 0.709734 0.219206 0.021883
O O5 0.680735 0.369274 0.849179
O O6 0.098398 0.326672 0.858564
O O7 0.147678 0.432422 0.717392
O O8 0.894440 0.997682 0.949592
O O9 0.779546 0.144477 0.611343
O O10 0.677203 0.273101 0.490508
O O11 0.276974 0.045988 0.693692
O O12 0.616637 0.817861 0.691817
O O13 0.798251 0.545578 0.114234
O O14 0.200181 0.914307 0.275104
O O15 0.986220 0.711001 0.300834
O O16 0.513499 0.668852 0.356389
O O17 0.000000 0.500000 0.500000
#
# Coordination Sequence:
#
# PCOD8021536 Si02
#       8
#     2   2   2   2   2   2   2   2
#     4  11  23  38  62  96 122 151 196 245 306 360
#     4  10  23  41  63  85 116 156 214 245 287 346
#     4  11  23  38  58  90 127 155 195 242 300 363
#     4  10  22  44  63  87 119 155 204 252 293 350
#     4  11  21  37  62  90 121 155 194 246 303 355
#     4  11  24  41  60  85 125 163 191 250 300 343
#     4  11  19  38  61  89 120 155 190 244 299 350
#     4  11  22  38  61  92 116 157 205 241 289 363
#
# _framework density 20.487580999999999
#
# number of rings (size 3 to 8) (size 9 to 14) (size 15 to 20)
#    0.000    1.250    2.500    4.125    0.000    8.500 
#    0.000    0.625    0.000    0.000    0.000    0.000 
#    0.000    0.000    0.000    0.000    0.000    0.000 
#
# Total GULP energy -198418.531406 kJ/mol
# GULP energy per Si atom -12401.158213 kJ/mol
# Density = 2.044095 g / cm^3
# Si number density = 20.487581 Si / 1000 Ang^3
#
#
#
# Elastic Constant Matrix: (Units=GPa)
#
#
# Indices 1 2 3 4 5 6 
#
# 1 95.7848 33.1035 40.3570 -4.4828 -1.4654 8.9508
# 2 33.1035 86.3643 57.0557 -2.7051 3.9788 11.6565
# 3 40.3570 57.0557 129.3328 -2.3558 -0.9232 0.2400
# 4 -4.4828 -2.7051 -2.3558 34.8599 5.1136 6.4794
# 5 -1.4654 3.9788 -0.9232 5.1136 35.8525 -5.3063
# 6 8.9508 11.6565 0.2400 6.4794 -5.3063 21.8745
#
#
#
# Elastic Compliance Matrix: (Units=1/GPa)
#
#
# Indices 1 2 3 4 5 6 
#
# 1 0.013050 -0.002263 -0.003026 0.002248 -0.000331 -0.004847
# 2 -0.002263 0.019523 -0.007854 0.003530 -0.004677 -0.011571
# 3 -0.003026 -0.007854 0.012115 -0.001685 0.002237 0.006333
# 4 0.002248 0.003530 -0.001685 0.032828 -0.007132 -0.014236
# 5 -0.000331 -0.004677 0.002237 -0.007132 0.031294 0.012307
# 6 -0.004847 -0.011571 0.006333 -0.014236 0.012307 0.060998
#
#
# Mechanical properties :
#
#
# Convention : Reuss Voigt Hill
#
# Bulk Modulus (GPa) = 54.34467 63.61270 58.97869
# Shear Modulus (GPa) = 24.72458 30.58176 27.65317
#
# Velocity S-wave (km/s) = 3.47768 3.86774 3.67788
# Velocity P-wave (km/s) = 6.53521 7.14581 6.84732
#
# Compressibility (1/GPa) = 0.01840107
#
# Stress axis : x y z
#
# Youngs Moduli (GPa) = 76.62651 51.22220 82.54454
#
# Poissons Ratio (x) = 0.11592 0.24981
# Poissons Ratio (y) = 0.17341 0.64831
# Poissons Ratio (z) = 0.23190 0.40230
#
# Static dielectric constant tensor:
#      x y z
#    x 4.024330 0.108260 0.249060 
#    y 0.108260 3.618810 0.005020 
#    z 0.249060 0.005020 3.816980 
# 
# 
# High freq. dielectric constant tensor:
#      x y z
#    x 1.812150 0.003610 0.005900 
#    y 0.003610 1.787550 -0.003740 
#    z 0.005900 -0.003740 1.803280 
# 
# From -- ./inp_files/69191.got.cif
#   From: 2010.06.25/outbox.cif.g09.slc.cpg/sg2_35_cif.got.tgz:69191.got - 2010.06.27 13:26:56.
