data_PCOD8021057
_publ_section_title
;
Structure prediction by ZEFSAII (Michael W. Deem and Ramdas Pophale) SiO2 
 PCOD8021057
Probable space group: P -1
;
_chemical_formula_sum "Si O2"
_cell_formula_units_Z 16
_cell_length_a 8.762162
_cell_length_b 26.802585
_cell_length_c 5.402089
_cell_angle_alpha 88.432168
_cell_angle_beta 85.931233
_cell_angle_gamma 146.866538
_cell_volume 682.880252
_symmetry_space_group_name_H-M "P -1"
_symmetry_group_IT_number 2
_symmetry_cell_setting 'triclinic'
loop_
_space_group_symop_operation_xyz
x,y,z
-x,-y,-z
loop_
_atom_site_type_symbol
_atom_site_label
_atom_site_fract_x
_atom_site_fract_y
_atom_site_fract_z
Si Si1 0.374827 0.228569 0.008703
Si Si2 0.753723 0.472375 0.524566
Si Si3 0.570751 0.099076 0.546756
Si Si4 0.107579 0.666837 0.390921
Si Si5 0.451093 0.360095 0.074117
Si Si6 0.533770 0.186840 0.297219
Si Si7 0.751661 0.071731 0.150007
Si Si8 0.911432 0.242123 0.887990
O O1 0.590532 0.267488 0.772327
O O2 0.511447 0.317414 0.081012
O O3 0.324367 0.174001 0.242843
O O4 0.053906 0.150323 0.962655
O O5 0.609465 0.429945 0.815768
O O6 0.000000 0.500000 0.500000
O O7 0.878261 0.560973 0.452028
O O8 0.539369 0.404202 0.328942
O O9 0.431830 0.116278 0.512397
O O10 0.736654 0.120231 0.291369
O O11 0.818183 0.172707 0.717401
O O12 0.304465 0.990806 0.654896
O O13 0.185731 0.707773 0.648748
O O14 0.958970 0.672472 0.266921
O O15 0.121326 0.279523 0.070173
O O16 0.615961 0.177881 0.049041
O O17 0.500000 0.000000 0.000000
#
# Coordination Sequence:
#
# PCOD8021057 Si02
#       8
#     2   2   2   2   2   2   2   2
#     4  11  24  41  67  98 130 185 225 278 354 413
#     4  12  26  45  68 104 142 183 238 297 343 412
#     4  10  22  43  68  98 135 177 214 295 336 414
#     4  10  24  43  67  94 139 179 227 284 350 411
#     4  12  27  42  75 100 140 186 239 291 351 409
#     4  10  22  43  67  92 139 179 225 282 343 416
#     4  11  24  42  70 100 137 169 231 283 342 417
#     4  10  24  44  67  99 136 179 229 281 350 409
#
# _framework density 23.430168999999999
#
# number of rings (size 3 to 8) (size 9 to 14) (size 15 to 20)
#    0.000    1.250    1.250    3.375    8.750    3.500 
#    0.000    8.750    0.000    0.000    0.000    0.000 
#    0.000    0.000    0.000    0.000    0.000    0.000 
#
# Total GULP energy -198230.648435 kJ/mol
# GULP energy per Si atom -12389.415527 kJ/mol
# Density = 2.337684 g / cm^3
# Si number density = 23.430169 Si / 1000 Ang^3
#
#
#
# Elastic Constant Matrix: (Units=GPa)
#
#
# Indices 1 2 3 4 5 6 
#
# 1 98.8892 45.2289 19.1910 5.3481 14.5145 -20.5202
# 2 45.2289 114.8280 27.4420 4.3435 2.7718 -20.1698
# 3 19.1910 27.4420 81.5114 19.2209 1.6286 1.0880
# 4 5.3481 4.3435 19.2209 44.6253 -2.6593 1.3375
# 5 14.5145 2.7718 1.6286 -2.6593 33.1733 -0.1758
# 6 -20.5202 -20.1698 1.0880 1.3375 -0.1758 43.0236
#
#
#
# Elastic Compliance Matrix: (Units=1/GPa)
#
#
# Indices 1 2 3 4 5 6 
#
# 1 0.014287 -0.004191 -0.001643 -0.001094 -0.005882 0.004901
# 2 -0.004191 0.011690 -0.003181 0.000693 0.001087 0.003545
# 3 -0.001643 -0.003181 0.015172 -0.005969 -0.000252 -0.002474
# 4 -0.001094 0.000693 -0.005969 0.025231 0.002732 -0.000819
# 5 -0.005882 0.001087 -0.000252 0.002732 0.032847 -0.002240
# 6 0.004901 0.003545 -0.002474 -0.000819 -0.002240 0.027322
#
#
# Mechanical properties :
#
#
# Convention : Reuss Voigt Hill
#
# Bulk Modulus (GPa) = 43.25439 53.21694 48.23566
# Shear Modulus (GPa) = 32.83327 37.72222 35.27775
#
# Velocity S-wave (km/s) = 3.74749 4.01681 3.88449
# Velocity P-wave (km/s) = 6.10131 6.65397 6.38362
#
# Compressibility (1/GPa) = 0.02311904
#
# Stress axis : x y z
#
# Youngs Moduli (GPa) = 69.99151 85.54454 65.91229
#
# Poissons Ratio (x) = 0.35849 0.10828
# Poissons Ratio (y) = 0.29331 0.20969
# Poissons Ratio (z) = 0.11499 0.27215
#
# Static dielectric constant tensor:
#      x y z
#    x 4.494540 -0.462230 0.234520 
#    y -0.462230 4.387520 -0.159180 
#    z 0.234520 -0.159180 4.360660 
# 
# 
# High freq. dielectric constant tensor:
#      x y z
#    x 1.937840 -0.028750 0.014070 
#    y -0.028750 1.921140 -0.001550 
#    z 0.014070 -0.001550 1.928280 
# 
# From -- ./inp_files/51147.got.cif
#   From: 2010.06.25/outbox.cif.g09.slc.cpg/sg2_26_cif.got.tgz:51147.got - 2010.06.27 13:26:56.
