data_PCOD8021686
_publ_section_title
;
Structure prediction by ZEFSAII (Michael W. Deem and Ramdas Pophale) SiO2 
 PCOD8021686
Probable space group: P -1
;
_chemical_formula_sum "Si O2"
_cell_formula_units_Z 16
_cell_length_a 11.523929
_cell_length_b 14.688728
_cell_length_c 9.536349
_cell_angle_alpha 78.263291
_cell_angle_beta 69.435490
_cell_angle_gamma 28.852966
_cell_volume 709.656004
_symmetry_space_group_name_H-M "P -1"
_symmetry_group_IT_number 2
_symmetry_cell_setting 'triclinic'
loop_
_space_group_symop_operation_xyz
x,y,z
-x,-y,-z
loop_
_atom_site_type_symbol
_atom_site_label
_atom_site_fract_x
_atom_site_fract_y
_atom_site_fract_z
Si Si1 0.604345 0.781599 0.012529
Si Si2 0.400267 0.160202 0.560038
Si Si3 0.469434 0.832695 0.759522
Si Si4 0.904150 0.249789 0.885302
Si Si5 0.682474 0.292381 0.462677
Si Si6 0.720735 0.075090 0.651512
Si Si7 0.553756 0.358377 0.180831
Si Si8 0.951151 0.654381 0.099763
O O1 0.511703 0.870168 0.867116
O O2 0.824746 0.559705 0.977916
O O3 0.370251 0.889292 0.164174
O O4 0.717274 0.797700 0.040758
O O5 0.339909 0.265638 0.418072
O O6 0.617244 0.065743 0.591997
O O7 0.144412 0.311361 0.713559
O O8 0.500000 0.000000 0.500000
O O9 0.524254 0.691537 0.829181
O O10 0.173207 0.040978 0.766794
O O11 0.699415 0.409654 0.799298
O O12 0.948215 0.306711 0.954874
O O13 0.791775 0.239594 0.026838
O O14 0.500000 0.500000 0.500000
O O15 0.614125 0.248374 0.602391
O O16 0.646575 0.283556 0.322069
O O17 0.972422 0.132738 0.420033
#
# Coordination Sequence:
#
# PCOD8021686 Si02
#       8
#     2   2   2   2   2   2   2   2
#     4  10  23  44  69  98 135 179 224 279 339 396
#     4  11  23  44  69 100 140 181 225 286 339 400
#     4  12  23  43  71  99 132 179 222 279 345 400
#     4  11  24  41  69  95 139 169 226 283 329 402
#     4  11  25  41  70 102 132 184 228 273 349 406
#     4  10  24  47  68  98 147 172 226 289 332 410
#     4  11  25  43  63 104 130 177 225 281 336 401
#     4  10  22  44  66  97 134 181 223 276 336 397
#
# _framework density 22.546133999999999
#
# number of rings (size 3 to 8) (size 9 to 14) (size 15 to 20)
#    0.000    1.250    3.750    1.125    3.500    1.000 
#    2.250    0.000    0.000    0.000    0.000    0.000 
#    0.000    0.000    0.000    0.000    0.000    0.000 
#
# Total GULP energy -198417.452415 kJ/mol
# GULP energy per Si atom -12401.090776 kJ/mol
# Density = 2.249482 g / cm^3
# Si number density = 22.546134 Si / 1000 Ang^3
#
#
#
# Elastic Constant Matrix: (Units=GPa)
#
#
# Indices 1 2 3 4 5 6 
#
# 1 109.5591 7.5830 35.6381 -5.9348 -5.1519 6.2492
# 2 7.5830 67.4884 5.3304 -0.4583 -2.3909 1.2719
# 3 35.6381 5.3304 117.1948 -13.5699 1.3605 -6.2496
# 4 -5.9348 -0.4583 -13.5699 33.4056 -2.2614 7.3333
# 5 -5.1519 -2.3909 1.3605 -2.2614 30.8586 -0.8025
# 6 6.2492 1.2719 -6.2496 7.3333 -0.8025 30.7571
#
#
#
# Elastic Compliance Matrix: (Units=1/GPa)
#
#
# Indices 1 2 3 4 5 6 
#
# 1 0.010558 -0.000801 -0.003201 0.001358 0.001862 -0.003038
# 2 -0.000801 0.014992 -0.000472 0.000061 0.001039 -0.000540
# 3 -0.003201 -0.000472 0.009988 0.003001 -0.000740 0.001965
# 4 0.001358 0.000061 0.003001 0.033206 0.002337 -0.007525
# 5 0.001862 0.001039 -0.000740 0.002337 0.032994 -0.000268
# 6 -0.003038 -0.000540 0.001965 -0.007525 -0.000268 0.035339
#
#
# Mechanical properties :
#
#
# Convention : Reuss Voigt Hill
#
# Bulk Modulus (GPa) = 37.60673 43.48281 40.54477
# Shear Modulus (GPa) = 32.28105 35.38365 33.83235
#
# Velocity S-wave (km/s) = 3.78799 3.96585 3.87794
# Velocity P-wave (km/s) = 5.98731 6.34812 6.17035
#
# Compressibility (1/GPa) = 0.02659099
#
# Stress axis : x y z
#
# Youngs Moduli (GPa) = 94.71078 66.70197 100.11577
#
# Poissons Ratio (x) = 0.05343 0.32044
# Poissons Ratio (y) = 0.07587 0.04727
# Poissons Ratio (z) = 0.30314 0.03149
#
# Static dielectric constant tensor:
#      x y z
#    x 4.354160 -0.114150 0.006800 
#    y -0.114150 3.930930 -0.151700 
#    z 0.006800 -0.151700 4.332430 
# 
# 
# High freq. dielectric constant tensor:
#      x y z
#    x 1.904190 -0.003780 0.000680 
#    y -0.003780 1.883480 -0.002790 
#    z 0.000680 -0.002790 1.889630 
# 
# From -- ./inp_files/272867.got.cif
#   From: 2010.06.25/outbox.cif.g09.slc.cpg/sg2_137_cif.got.tgz:272867.got - 2010.06.27 13:26:56.
