data_PCOD8021248
_publ_section_title
;
Structure prediction by ZEFSAII (Michael W. Deem and Ramdas Pophale) SiO2 
 PCOD8021248
Probable space group: P -1
;
_chemical_formula_sum "Si O2"
_cell_formula_units_Z 16
_cell_length_a 8.756528
_cell_length_b 9.470862
_cell_length_c 15.138308
_cell_angle_alpha 109.681820
_cell_angle_beta 40.181784
_cell_angle_gamma 98.653336
_cell_volume 750.818626
_symmetry_space_group_name_H-M "P -1"
_symmetry_group_IT_number 2
_symmetry_cell_setting 'triclinic'
loop_
_space_group_symop_operation_xyz
x,y,z
-x,-y,-z
loop_
_atom_site_type_symbol
_atom_site_label
_atom_site_fract_x
_atom_site_fract_y
_atom_site_fract_z
Si Si1 0.172736 0.353902 0.423660
Si Si2 0.824674 0.155654 0.611459
Si Si3 0.455686 0.148178 0.613577
Si Si4 0.440384 0.485854 0.622552
Si Si5 0.543753 0.151101 0.105063
Si Si6 0.508714 0.818822 0.072161
Si Si7 0.978325 0.280544 0.922894
Si Si8 0.097206 0.424760 0.070926
O O1 0.397593 0.410111 0.378910
O O2 0.284388 0.239177 0.271380
O O3 0.000000 0.500000 0.500000
O O4 0.999139 0.277624 0.546811
O O5 0.628166 0.139322 0.620263
O O6 0.704798 0.195620 0.768556
O O7 0.000000 0.000000 0.500000
O O8 0.488205 0.306849 0.587110
O O9 0.177232 0.151700 0.763373
O O10 0.500000 0.000000 0.500000
O O11 0.500000 0.500000 0.500000
O O12 0.169763 0.567928 0.774581
O O13 0.592248 0.980139 0.085556
O O14 0.574123 0.169983 0.990330
O O15 0.771860 0.217072 0.054458
O O16 0.720148 0.673689 0.962302
O O17 0.856349 0.402504 0.927666
O O18 0.133251 0.354258 0.942184
#
# Coordination Sequence:
#
# PCOD8021248 Si02
#       8
#     2   2   2   2   2   2   2   2
#     4  12  26  46  72  99 144 186 228 286 342 410
#     4  12  26  46  70 102 142 185 230 278 349 413
#     4  11  26  45  71 101 138 181 227 285 346 409
#     4  11  26  45  69 104 137 179 230 284 344 410
#     4  11  26  45  67 102 138 178 230 285 339 406
#     4  11  26  45  69 101 138 180 228 284 343 407
#     4  10  22  43  69  95 129 172 225 278 336 401
#     4  10  22  43  69  94 130 172 226 275 338 405
#
# _framework density 21.310075000000001
#
# number of rings (size 3 to 8) (size 9 to 14) (size 15 to 20)
#    0.000    1.000    5.000    0.000    7.000    3.000 
#    0.000    0.000    0.000    0.000    0.000    0.000 
#    0.000    0.000    0.000    0.000    0.000    0.000 
#
# Total GULP energy -198253.251333 kJ/mol
# GULP energy per Si atom -12390.828208 kJ/mol
# Density = 2.126157 g / cm^3
# Si number density = 21.310075 Si / 1000 Ang^3
#
#
#
# Elastic Constant Matrix: (Units=GPa)
#
#
# Indices 1 2 3 4 5 6 
#
# 1 33.4839 20.5244 33.6173 -2.1261 -7.7686 -12.1052
# 2 20.5244 121.6165 63.1338 -8.7995 -18.9714 -5.1567
# 3 33.6173 63.1338 159.3960 -5.8082 -6.0046 -6.3197
# 4 -2.1261 -8.7995 -5.8082 45.7900 -2.1102 -6.9545
# 5 -7.7686 -18.9714 -6.0046 -2.1102 38.7516 0.6934
# 6 -12.1052 -5.1567 -6.3197 -6.9545 0.6934 38.6922
#
#
#
# Elastic Compliance Matrix: (Units=1/GPa)
#
#
# Indices 1 2 3 4 5 6 
#
# 1 0.045529 -0.001623 -0.008061 0.003099 0.007017 0.013143
# 2 -0.001623 0.011438 -0.003913 0.001943 0.004763 0.000642
# 3 -0.008061 -0.003913 0.009376 -0.000263 -0.002066 -0.001522
# 4 0.003099 0.001943 -0.000263 0.023255 0.002703 0.005317
# 5 0.007017 0.004763 -0.002066 0.002703 0.029327 0.002453
# 6 0.013143 0.000642 -0.001522 0.005317 0.002453 0.030705
#
#
# Mechanical properties :
#
#
# Convention : Reuss Voigt Hill
#
# Bulk Modulus (GPa) = 25.54258 61.00528 43.27393
# Shear Modulus (GPa) = 26.33326 37.79481 32.06403
#
# Velocity S-wave (km/s) = 3.51909 4.21594 3.88318
# Velocity P-wave (km/s) = 5.34080 7.23799 6.36053
#
# Compressibility (1/GPa) = 0.03915031
#
# Stress axis : x y z
#
# Youngs Moduli (GPa) = 21.96381 87.42571 106.65810
#
# Poissons Ratio (x) = 0.14187 0.85980
# Poissons Ratio (y) = 0.03564 0.41731
# Poissons Ratio (z) = 0.17706 0.34206
#
# Static dielectric constant tensor:
#      x y z
#    x 3.874030 -0.073690 -0.636970 
#    y -0.073690 4.006780 0.149900 
#    z -0.636970 0.149900 4.999930 
# 
# 
# High freq. dielectric constant tensor:
#      x y z
#    x 1.824330 -0.001020 -0.006290 
#    y -0.001020 1.851280 -0.000010 
#    z -0.006290 -0.000010 1.856140 
# 
# From -- ./inp_files/308516.got.cif
#   From: 2010.06.25/outbox.cif.g09.slc.cpg/sg2_155_cif.got.tgz:308516.got - 2010.06.27 13:26:56.
