data_PCOD8021275
_publ_section_title
;
Structure prediction by ZEFSAII (Michael W. Deem and Ramdas Pophale) SiO2 
 PCOD8021275
Probable space group: P -1
;
_chemical_formula_sum "Si O2"
_cell_formula_units_Z 14
_cell_length_a 6.571375
_cell_length_b 15.601573
_cell_length_c 15.299468
_cell_angle_alpha 28.207334
_cell_angle_beta 70.767380
_cell_angle_gamma 83.288104
_cell_volume 645.017022
_symmetry_space_group_name_H-M "P -1"
_symmetry_group_IT_number 2
_symmetry_cell_setting 'triclinic'
loop_
_space_group_symop_operation_xyz
x,y,z
-x,-y,-z
loop_
_atom_site_type_symbol
_atom_site_label
_atom_site_fract_x
_atom_site_fract_y
_atom_site_fract_z
Si Si1 0.725239 0.616881 0.140130
Si Si2 0.539093 0.173033 0.534699
Si Si3 0.908942 0.084737 0.069303
Si Si4 0.776540 0.864160 0.748032
Si Si5 0.377203 0.568425 0.380729
Si Si6 0.684526 0.905846 0.539450
Si Si7 0.913392 0.210332 0.761119
O O1 0.705747 0.392239 0.344271
O O2 0.543381 0.648461 0.203090
O O3 0.668605 0.687575 0.990578
O O4 0.985343 0.753742 0.014398
O O5 0.404672 0.208742 0.435753
O O6 0.347440 0.066988 0.730962
O O7 0.698810 0.047559 0.610620
O O8 0.896119 0.187124 0.888893
O O9 0.088580 0.976494 0.124410
O O10 0.691973 0.777902 0.739487
O O11 0.054813 0.932846 0.655379
O O12 0.500000 0.500000 0.500000
O O13 0.311017 0.742341 0.275691
O O14 0.148010 0.391571 0.538207
O O15 0.500000 0.000000 0.500000
#
# Coordination Sequence:
#
# PCOD8021275 Si02
#       7
#     2   2   2   2   2   2   2
#     4  12  24  40  67  99 127 172 220 261 329 384
#     4  11  23  43  65  97 136 165 216 270 316 389
#     4  11  22  43  63  95 130 175 222 269 324 378
#     4  10  22  43  69  97 130 171 209 264 328 382
#     4  11  22  41  61  94 126 171 226 265 320 391
#     4   9  20  44  71  94 132 167 209 265 319 394
#     4  10  23  41  64  85 133 177 214 276 323 367
#
# _framework density 21.704854999999998
#
# number of rings (size 3 to 8) (size 9 to 14) (size 15 to 20)
#    0.000    1.429    4.286    0.857    0.000    2.286 
#    5.143    6.429    0.000    0.000    0.000    0.000 
#    0.000    0.000    0.000    0.000    0.000    0.000 
#
# Total GULP energy -173532.568536 kJ/mol
# GULP energy per Si atom -12395.183467 kJ/mol
# Density = 2.165545 g / cm^3
# Si number density = 21.704855 Si / 1000 Ang^3
#
#
#
# Elastic Constant Matrix: (Units=GPa)
#
#
# Indices 1 2 3 4 5 6 
#
# 1 101.1547 23.6791 31.8926 2.5212 6.3870 -18.9580
# 2 23.6791 52.3045 29.3060 8.0583 -4.5405 -3.1550
# 3 31.8926 29.3060 114.0845 10.5662 2.6538 -0.9585
# 4 2.5212 8.0583 10.5662 45.9696 -0.9012 0.3236
# 5 6.3870 -4.5405 2.6538 -0.9012 19.8411 -2.1005
# 6 -18.9580 -3.1550 -0.9585 0.3236 -2.1005 34.5998
#
#
#
# Elastic Compliance Matrix: (Units=1/GPa)
#
#
# Indices 1 2 3 4 5 6 
#
# 1 0.013211 -0.004712 -0.002376 0.000518 -0.004304 0.006477
# 2 -0.004712 0.025223 -0.005081 -0.002842 0.007848 0.000080
# 3 -0.002376 -0.005081 0.010911 -0.001517 -0.002093 -0.001576
# 4 0.000518 -0.002842 -0.001517 0.022581 0.000390 -0.000205
# 5 -0.004304 0.007848 -0.002093 0.000390 0.054046 0.001577
# 6 0.006477 0.000080 -0.001576 -0.000205 0.001577 0.032512
#
#
# Mechanical properties :
#
#
# Convention : Reuss Voigt Hill
#
# Bulk Modulus (GPa) = 39.98946 48.58880 44.28913
# Shear Modulus (GPa) = 26.15657 32.25983 29.20820
#
# Velocity S-wave (km/s) = 3.47522 3.85943 3.67236
# Velocity P-wave (km/s) = 5.87938 6.50346 6.19928
#
# Compressibility (1/GPa) = 0.02500659
#
# Stress axis : x y z
#
# Youngs Moduli (GPa) = 75.69594 39.64697 91.65324
#
# Poissons Ratio (x) = 0.18682 0.21777
# Poissons Ratio (y) = 0.35669 0.46565
# Poissons Ratio (z) = 0.17986 0.20143
#
# Static dielectric constant tensor:
#      x y z
#    x 4.035180 0.181070 0.102110 
#    y 0.181070 3.645370 0.045920 
#    z 0.102110 0.045920 3.917210 
# 
# 
# High freq. dielectric constant tensor:
#      x y z
#    x 1.855170 -0.003730 0.001820 
#    y -0.003730 1.850290 0.022160 
#    z 0.001820 0.022160 1.850980 
# 
# From -- ./inp_files/107624.got.cif
#   From: 2010.06.25/outbox.cif.g09.slc.cpg/sg2_54_cif.got.tgz:107624.got - 2010.06.27 13:26:56.
