data_PCOD8021163
_publ_section_title
;
Structure prediction by ZEFSAII (Michael W. Deem and Ramdas Pophale) SiO2 
 PCOD8021163
Probable space group: P -1
;
_chemical_formula_sum "Si O2"
_cell_formula_units_Z 14
_cell_length_a 5.887125
_cell_length_b 17.436004
_cell_length_c 8.886430
_cell_angle_alpha 57.960664
_cell_angle_beta 113.802520
_cell_angle_gamma 77.914920
_cell_volume 592.704467
_symmetry_space_group_name_H-M "P -1"
_symmetry_group_IT_number 2
_symmetry_cell_setting 'triclinic'
loop_
_space_group_symop_operation_xyz
x,y,z
-x,-y,-z
loop_
_atom_site_type_symbol
_atom_site_label
_atom_site_fract_x
_atom_site_fract_y
_atom_site_fract_z
Si Si1 0.434947 0.756278 0.251237
Si Si2 0.048950 0.258985 0.424332
Si Si3 0.975174 0.413782 0.992452
Si Si4 0.808195 0.877676 0.876134
Si Si5 0.824278 0.942535 0.482175
Si Si6 0.355106 0.593916 0.584967
Si Si7 0.819547 0.668321 0.175149
O O1 0.659487 0.786415 0.345864
O O2 0.462563 0.661319 0.456337
O O3 0.522092 0.713251 0.145886
O O4 0.101941 0.865281 0.042197
O O5 0.011494 0.159096 0.482540
O O6 0.088371 0.306620 0.230885
O O7 0.759478 0.350534 0.339998
O O8 0.628177 0.470053 0.800496
O O9 0.000000 0.500000 0.000000
O O10 0.173629 0.388021 0.920987
O O11 0.785820 0.897309 0.673136
O O12 0.498876 0.972979 0.765717
O O13 0.858268 0.763471 0.038260
O O14 0.000000 0.000000 0.500000
O O15 0.102620 0.586801 0.439458
#
# Coordination Sequence:
#
# PCOD8021163 Si02
#       7
#     2   2   2   2   2   2   2
#     4  10  22  44  67  99 138 181 223 275 341 401
#     4  11  24  45  67 101 142 172 226 290 330 403
#     4  12  23  42  68 102 133 181 227 279 339 392
#     4  10  22  43  68  99 134 173 230 275 340 410
#     4  11  24  42  71 103 132 178 225 279 346 399
#     4  10  23  42  65  98 139 181 225 271 338 405
#     4  10  22  43  68  94 139 178 225 278 331 411
#
# _framework density 23.620539000000001
#
# number of rings (size 3 to 8) (size 9 to 14) (size 15 to 20)
#    0.000    1.429    2.857    1.714    0.000    5.714 
#    5.143   10.000    0.000    0.000    0.000    0.000 
#    0.000    0.000    0.000    0.000    0.000    0.000 
#
# Total GULP energy -173576.961160 kJ/mol
# GULP energy per Si atom -12398.354369 kJ/mol
# Density = 2.356678 g / cm^3
# Si number density = 23.620539 Si / 1000 Ang^3
#
#
#
# Elastic Constant Matrix: (Units=GPa)
#
#
# Indices 1 2 3 4 5 6 
#
# 1 88.5342 32.1761 25.9979 5.5839 8.1197 -13.0847
# 2 32.1761 129.1368 28.9849 8.9118 -5.5994 -6.7987
# 3 25.9979 28.9849 115.9933 -1.3965 22.8429 -11.0821
# 4 5.5839 8.9118 -1.3965 25.0578 -11.8527 -3.8944
# 5 8.1197 -5.5994 22.8429 -11.8527 27.3443 2.6393
# 6 -13.0847 -6.7987 -11.0821 -3.8944 2.6393 35.9075
#
#
#
# Elastic Compliance Matrix: (Units=1/GPa)
#
#
# Indices 1 2 3 4 5 6 
#
# 1 0.014179 -0.003112 -0.000735 -0.004553 -0.006626 0.004344
# 2 -0.003112 0.009334 -0.002659 -0.000565 0.004870 -0.000607
# 3 -0.000735 -0.002659 0.012178 -0.003513 -0.012362 0.003515
# 4 -0.004553 -0.000565 -0.003513 0.054102 0.027526 0.000994
# 5 -0.006626 0.004870 -0.012362 0.027526 0.062461 -0.006913
# 6 0.004344 -0.000607 0.003515 0.000994 -0.006913 0.031018
#
#
# Mechanical properties :
#
#
# Convention : Reuss Voigt Hill
#
# Bulk Modulus (GPa) = 44.09359 56.44246 50.26803
# Shear Modulus (GPa) = 24.52840 34.09561 29.31201
#
# Velocity S-wave (km/s) = 3.22597 3.80343 3.52654
# Velocity P-wave (km/s) = 5.70823 6.57537 6.15708
#
# Compressibility (1/GPa) = 0.02267903
#
# Stress axis : x y z
#
# Youngs Moduli (GPa) = 70.52723 107.13311 82.11349
#
# Poissons Ratio (x) = 0.33343 0.06036
# Poissons Ratio (y) = 0.21950 0.21832
# Poissons Ratio (z) = 0.05184 0.28484
#
# Static dielectric constant tensor:
#      x y z
#    x 4.265440 -0.259430 0.212560 
#    y -0.259430 4.152140 0.075390 
#    z 0.212560 0.075390 5.003380 
# 
# 
# High freq. dielectric constant tensor:
#      x y z
#    x 1.932040 -0.011170 0.002430 
#    y -0.011170 1.915980 0.004940 
#    z 0.002430 0.004940 1.950080 
# 
# From -- ./inp_files/31825.got.cif
#   From: 2010.06.25/outbox.cif.g09.slc.cpg/sg2_16_cif.got.tgz:31825.got - 2010.06.27 13:26:56.
