data_PCOD8021804
_publ_section_title
;
Structure prediction by ZEFSAII (Michael W. Deem and Ramdas Pophale) SiO2 
 PCOD8021804
Probable space group: P -1
;
_chemical_formula_sum "Si O2"
_cell_formula_units_Z 16
_cell_length_a 19.594234
_cell_length_b 8.433818
_cell_length_c 10.837886
_cell_angle_alpha 97.396244
_cell_angle_beta 42.424816
_cell_angle_gamma 128.497917
_cell_volume 737.052777
_symmetry_space_group_name_H-M "P -1"
_symmetry_group_IT_number 2
_symmetry_cell_setting 'triclinic'
loop_
_space_group_symop_operation_xyz
x,y,z
-x,-y,-z
loop_
_atom_site_type_symbol
_atom_site_label
_atom_site_fract_x
_atom_site_fract_y
_atom_site_fract_z
Si Si1 0.657564 0.350624 0.487465
Si Si2 0.337811 0.809233 0.279442
Si Si3 0.075266 0.330908 0.405927
Si Si4 0.934921 0.932991 0.217067
Si Si5 0.402605 0.252542 0.690840
Si Si6 0.069477 0.718902 0.638162
Si Si7 0.848064 0.317527 0.094743
Si Si8 0.837594 0.864691 0.852049
O O1 0.609305 0.192365 0.658302
O O2 0.760758 0.629994 0.424373
O O3 0.504441 0.232072 0.607261
O O4 0.744193 0.344604 0.271676
O O5 0.188812 0.532562 0.384204
O O6 0.256328 0.882635 0.413873
O O7 0.500000 0.000000 0.000000
O O8 0.185360 0.348492 0.177078
O O9 0.995971 0.362654 0.423363
O O10 0.917402 0.050044 0.647427
O O11 0.915635 0.090167 0.300758
O O12 0.054966 0.986693 0.152586
O O13 0.000000 0.000000 0.000000
O O14 0.500000 0.500000 0.500000
O O15 0.256190 0.977227 0.786035
O O16 0.336484 0.272710 0.896957
O O17 0.929539 0.437415 0.863190
O O18 0.000000 0.500000 0.000000
#
# Coordination Sequence:
#
# PCOD8021804 Si02
#       8
#     2   2   2   2   2   2   2   2
#     4  12  26  44  69 104 143 177 227 291 355 409
#     4  12  27  44  65 100 143 184 224 289 347 410
#     4  10  23  44  70  96 131 184 239 278 331 408
#     4  11  21  42  74 104 130 176 237 287 343 411
#     4  12  29  44  69 105 145 179 224 292 359 408
#     4  11  25  42  77 100 131 184 239 284 338 416
#     4  12  25  48  74 101 136 181 238 285 345 421
#     4  10  22  44  68  97 133 180 236 281 333 416
#
# _framework density 21.708081
#
# number of rings (size 3 to 8) (size 9 to 14) (size 15 to 20)
#    0.000    0.750    3.750    3.000    7.000    2.000 
#    0.000    1.250    0.000    0.000    0.000    0.000 
#    0.000    0.000    0.000    0.000    0.000    0.000 
#
# Total GULP energy -198355.697047 kJ/mol
# GULP energy per Si atom -12397.231065 kJ/mol
# Density = 2.165867 g / cm^3
# Si number density = 21.708081 Si / 1000 Ang^3
#
#
#
# Elastic Constant Matrix: (Units=GPa)
#
#
# Indices 1 2 3 4 5 6 
#
# 1 154.4127 19.6427 56.3143 8.2979 4.1951 -3.2214
# 2 19.6427 93.9625 29.2803 7.8160 -4.5683 -12.3348
# 3 56.3143 29.2803 140.7917 24.6208 -4.6226 -22.8733
# 4 8.2979 7.8160 24.6208 36.5022 -3.8720 4.4786
# 5 4.1951 -4.5683 -4.6226 -3.8720 36.1119 3.2755
# 6 -3.2214 -12.3348 -22.8733 4.4786 3.2755 27.0209
#
#
#
# Elastic Compliance Matrix: (Units=1/GPa)
#
#
# Indices 1 2 3 4 5 6 
#
# 1 0.007823 -0.001006 -0.003554 0.001027 -0.001148 -0.002566
# 2 -0.001006 0.011996 -0.000876 -0.002260 0.000837 0.004888
# 3 -0.003554 -0.000876 0.011888 -0.008330 -0.000033 0.010625
# 4 0.001027 -0.002260 -0.008330 0.035399 0.003618 -0.014267
# 5 -0.001148 0.000837 -0.000033 0.003618 0.028664 -0.003857
# 6 -0.002566 0.004888 0.010625 -0.014267 -0.003857 0.050760
#
#
# Mechanical properties :
#
#
# Convention : Reuss Voigt Hill
#
# Bulk Modulus (GPa) = 47.99426 66.62686 57.31056
# Shear Modulus (GPa) = 30.42355 38.85565 34.63960
#
# Velocity S-wave (km/s) = 3.74770 4.23533 3.99896
# Velocity P-wave (km/s) = 6.39406 7.39433 6.91231
#
# Compressibility (1/GPa) = 0.02083582
#
# Stress axis : x y z
#
# Youngs Moduli (GPa) = 127.83295 83.36066 84.11811
#
# Poissons Ratio (x) = 0.08386 0.29896
# Poissons Ratio (y) = 0.12860 0.07365
# Poissons Ratio (z) = 0.45432 0.07298
#
# Static dielectric constant tensor:
#      x y z
#    x 4.212820 -0.166450 0.130590 
#    y -0.166450 4.163310 0.010560 
#    z 0.130590 0.010560 4.121500 
# 
# 
# High freq. dielectric constant tensor:
#      x y z
#    x 1.864610 -0.004670 0.003670 
#    y -0.004670 1.860390 0.018990 
#    z 0.003670 0.018990 1.852870 
# 
# From -- ./inp_files/308631.got.cif
#   From: 2010.06.25/outbox.cif.g09.slc.cpg/sg2_155_cif.got.tgz:308631.got - 2010.06.27 13:26:56.
