data_PCOD8021467
_publ_section_title
;
Structure prediction by ZEFSAII (Michael W. Deem and Ramdas Pophale) SiO2 
 PCOD8021467
Probable space group: P -1
;
_chemical_formula_sum "Si O2"
_cell_formula_units_Z 16
_cell_length_a 14.542593
_cell_length_b 14.284711
_cell_length_c 8.876027
_cell_angle_alpha 87.832844
_cell_angle_beta 70.058636
_cell_angle_gamma 30.661805
_cell_volume 747.864891
_symmetry_space_group_name_H-M "P -1"
_symmetry_group_IT_number 2
_symmetry_cell_setting 'triclinic'
loop_
_space_group_symop_operation_xyz
x,y,z
-x,-y,-z
loop_
_atom_site_type_symbol
_atom_site_label
_atom_site_fract_x
_atom_site_fract_y
_atom_site_fract_z
Si Si1 0.153949 0.152907 0.384580
Si Si2 0.320267 0.280242 0.893081
Si Si3 0.616608 0.274502 0.081793
Si Si4 0.812215 0.091494 0.658819
Si Si5 0.576088 0.480652 0.304491
Si Si6 0.028237 0.166223 0.981732
Si Si7 0.177445 0.559507 0.190162
Si Si8 0.931125 0.683230 0.887665
O O1 0.063288 0.295017 0.291184
O O2 0.019670 0.304238 0.596641
O O3 0.417914 0.940439 0.281066
O O4 0.100058 0.090638 0.384872
O O5 0.176258 0.431986 0.816084
O O6 0.263064 0.398520 0.055004
O O7 0.264141 0.223736 0.979173
O O8 0.565738 0.417692 0.175253
O O9 0.383700 0.421144 0.179781
O O10 0.773662 0.081380 0.122769
O O11 0.751812 0.171347 0.857873
O O12 0.591321 0.290354 0.662927
O O13 0.000000 0.000000 0.500000
O O14 0.500000 0.500000 0.500000
O O15 0.827066 0.305181 0.196680
O O16 0.923962 0.270574 0.868083
O O17 0.135595 0.168616 0.985954
#
# Coordination Sequence:
#
# PCOD8021467 Si02
#       8
#     2   2   2   2   2   2   2   2
#     4  12  24  42  71  98 135 178 224 271 337 402
#     4  10  22  47  69  99 137 171 221 280 338 394
#     4  12  24  45  65  94 137 176 221 285 326 395
#     4  12  24  42  66  96 137 179 225 272 336 394
#     4  12  27  41  65  96 132 178 232 274 334 404
#     4  11  23  44  64  94 132 174 223 271 341 388
#     4  11  25  42  67 101 134 173 219 277 331 406
#     4  10  22  43  73  96 133 177 218 282 335 394
#
# _framework density 21.394237
#
# number of rings (size 3 to 8) (size 9 to 14) (size 15 to 20)
#    0.000    0.750    3.750    3.375    5.250    1.500 
#    0.000    5.625    0.000    0.000    0.000    0.000 
#    0.000    0.000    0.000    0.000    0.000    0.000 
#
# Total GULP energy -198505.185531 kJ/mol
# GULP energy per Si atom -12406.574096 kJ/mol
# Density = 2.134554 g / cm^3
# Si number density = 21.394237 Si / 1000 Ang^3
#
#
#
# Elastic Constant Matrix: (Units=GPa)
#
#
# Indices 1 2 3 4 5 6 
#
# 1 97.8266 23.4863 31.8865 6.9152 -27.0095 0.0482
# 2 23.4863 124.7781 40.6864 -1.5154 -17.8860 -1.7066
# 3 31.8865 40.6864 130.2692 4.6756 -20.7341 -6.4000
# 4 6.9152 -1.5154 4.6756 30.8528 -1.0486 -7.5457
# 5 -27.0095 -17.8860 -20.7341 -1.0486 31.0249 -0.4449
# 6 0.0482 -1.7066 -6.4000 -7.5457 -0.4449 30.4284
#
#
#
# Elastic Compliance Matrix: (Units=1/GPa)
#
#
# Indices 1 2 3 4 5 6 
#
# 1 0.014022 -0.000672 -0.001457 -0.002812 0.010739 -0.000907
# 2 -0.000672 0.009376 -0.002252 0.001162 0.003361 0.000391
# 3 -0.001457 -0.002252 0.009442 -0.000659 0.003747 0.001753
# 4 -0.002812 0.001162 -0.000659 0.035289 -0.000901 0.008669
# 5 0.010739 0.003361 0.003747 -0.000901 0.046012 0.001409
# 6 -0.000907 0.000391 0.001753 0.008669 0.001409 0.035426
#
#
# Mechanical properties :
#
#
# Convention : Reuss Voigt Hill
#
# Bulk Modulus (GPa) = 41.52717 60.55471 51.04094
# Shear Modulus (GPa) = 30.05615 35.58220 32.81917
#
# Velocity S-wave (km/s) = 3.75223 4.08262 3.92090
# Velocity P-wave (km/s) = 6.18263 7.11262 6.66387
#
# Compressibility (1/GPa) = 0.02408062
#
# Stress axis : x y z
#
# Youngs Moduli (GPa) = 71.31442 106.65524 105.90506
#
# Poissons Ratio (x) = 0.07162 0.15430
# Poissons Ratio (y) = 0.04789 0.23845
# Poissons Ratio (z) = 0.10391 0.24014
#
# Static dielectric constant tensor:
#      x y z
#    x 3.893650 0.038820 -0.131250 
#    y 0.038820 4.174520 -0.010780 
#    z -0.131250 -0.010780 3.784570 
# 
# 
# High freq. dielectric constant tensor:
#      x y z
#    x 1.840420 -0.001990 -0.011490 
#    y -0.001990 1.860290 -0.002520 
#    z -0.011490 -0.002520 1.829960 
# 
# From -- ./inp_files/297409.got.cif
#   From: 2010.06.25/outbox.cif.g09.slc.cpg/sg2_149_cif.got.tgz:297409.got - 2010.06.27 13:26:56.
