data_PCOD8021619
_publ_section_title
;
Structure prediction by ZEFSAII (Michael W. Deem and Ramdas Pophale) SiO2 
 PCOD8021619
Probable space group: P -1
;
_chemical_formula_sum "Si O2"
_cell_formula_units_Z 14
_cell_length_a 5.532942
_cell_length_b 16.280870
_cell_length_c 8.487076
_cell_angle_alpha 124.355465
_cell_angle_beta 87.905449
_cell_angle_gamma 116.024336
_cell_volume 543.725115
_symmetry_space_group_name_H-M "P -1"
_symmetry_group_IT_number 2
_symmetry_cell_setting 'triclinic'
loop_
_space_group_symop_operation_xyz
x,y,z
-x,-y,-z
loop_
_atom_site_type_symbol
_atom_site_label
_atom_site_fract_x
_atom_site_fract_y
_atom_site_fract_z
Si Si1 0.430888 0.888986 0.073607
Si Si2 0.026072 0.728328 0.141449
Si Si3 0.507452 0.625740 0.482150
Si Si4 0.527221 0.601524 0.800682
Si Si5 0.010969 0.390423 0.686883
Si Si6 0.255514 0.057106 0.169856
Si Si7 0.044249 0.926887 0.547878
O O1 0.265464 0.768210 0.043221
O O2 0.247646 0.950514 0.145120
O O3 0.473004 0.865227 0.862981
O O4 0.713818 0.978870 0.247889
O O5 0.018839 0.628633 0.143158
O O6 0.115523 0.836887 0.372095
O O7 0.727109 0.689941 0.025754
O O8 0.542007 0.668447 0.710405
O O9 0.354502 0.485388 0.333322
O O10 0.819813 0.673907 0.449785
O O11 0.298632 0.658958 0.433574
O O12 0.207675 0.527607 0.794463
O O13 0.224405 0.135930 0.391642
O O14 0.000000 0.000000 0.000000
O O15 0.000000 0.000000 0.500000
#
# Coordination Sequence:
#
# PCOD8021619 Si02
#       7
#     2   2   2   2   2   2   2
#     4  10  22  44  65  93 132 182 233 285 346 420
#     4  12  24  42  68 110 137 183 238 295 366 420
#     4   9  21  46  72  94 150 187 234 294 359 420
#     4   9  22  44  69 101 142 187 235 293 353 438
#     4  10  22  45  69 106 140 187 232 303 356 427
#     4   9  20  44  67  87 126 179 230 291 342 411
#     4  11  23  43  66  95 140 181 230 293 353 410
#
# _framework density 25.748305999999999
#
# number of rings (size 3 to 8) (size 9 to 14) (size 15 to 20)
#    0.857    1.143    1.429    1.286    0.000    1.714 
#   10.286    0.000    0.000    0.000    0.000    0.000 
#    0.000    0.000    0.000    0.000    0.000    0.000 
#
# Total GULP energy -173443.667514 kJ/mol
# GULP energy per Si atom -12388.833394 kJ/mol
# Density = 2.568970 g / cm^3
# Si number density = 25.748306 Si / 1000 Ang^3
#
#
#
# Elastic Constant Matrix: (Units=GPa)
#
#
# Indices 1 2 3 4 5 6 
#
# 1 130.6640 31.2844 26.6517 -26.6843 24.8058 4.7873
# 2 31.2844 99.6747 32.1271 -41.9208 3.8865 20.4609
# 3 26.6517 32.1271 77.0790 -31.9334 16.8213 2.9599
# 4 -26.6843 -41.9208 -31.9334 48.6304 -1.5462 -1.3310
# 5 24.8058 3.8865 16.8213 -1.5462 40.5836 -16.3701
# 6 4.7873 20.4609 2.9599 -1.3310 -16.3701 30.7287
#
#
#
# Elastic Compliance Matrix: (Units=1/GPa)
#
#
# Indices 1 2 3 4 5 6 
#
# 1 0.010771 0.001233 0.001256 0.007270 -0.010031 -0.007649
# 2 0.001233 0.021934 0.001804 0.019879 -0.010872 -0.019902
# 3 0.001256 0.001804 0.021571 0.015718 -0.013259 -0.009857
# 4 0.007270 0.019879 0.015718 0.050663 -0.020957 -0.024853
# 5 -0.010031 -0.010872 -0.013259 -0.020957 0.051215 0.036455
# 6 -0.007649 -0.019902 -0.009857 -0.024853 0.036455 0.066280
#
#
# Mechanical properties :
#
#
# Convention : Reuss Voigt Hill
#
# Bulk Modulus (GPa) = 15.90752 54.17159 35.03956
# Shear Modulus (GPa) = 21.29459 38.47883 29.88671
#
# Velocity S-wave (km/s) = 2.87893 3.86997 3.41064
# Velocity P-wave (km/s) = 4.15241 6.40730 5.39889
#
# Compressibility (1/GPa) = 0.06286334
#
# Stress axis : x y z
#
# Youngs Moduli (GPa) = 92.84305 45.59165 46.35770
#
# Poissons Ratio (x) = -0.05623 -0.05824
# Poissons Ratio (y) = -0.11451 -0.08362
# Poissons Ratio (z) = -0.11665 -0.08224
#
# Static dielectric constant tensor:
#      x y z
#    x 4.757210 0.450820 -0.440290 
#    y 0.450820 5.105590 -0.731710 
#    z -0.440290 -0.731710 4.635410 
# 
# 
# High freq. dielectric constant tensor:
#      x y z
#    x 2.024160 0.000790 0.000410 
#    y 0.000790 2.034480 -0.028480 
#    z 0.000410 -0.028480 2.018710 
# 
# From -- ./inp_files/136919.got.cif
#   From: 2010.06.25/outbox.cif.g09.slc.cpg/sg2_69_cif.got.tgz:136919.got - 2010.06.27 13:26:56.
