data_PCOD8021513
_publ_section_title
;
Structure prediction by ZEFSAII (Michael W. Deem and Ramdas Pophale) SiO2 
 PCOD8021513
Probable space group: P -1
;
_chemical_formula_sum "Si O2"
_cell_formula_units_Z 14
_cell_length_a 9.455514
_cell_length_b 9.481663
_cell_length_c 15.496868
_cell_angle_alpha 127.200365
_cell_angle_beta 98.117791
_cell_angle_gamma 46.367149
_cell_volume 703.225564
_symmetry_space_group_name_H-M "P -1"
_symmetry_group_IT_number 2
_symmetry_cell_setting 'triclinic'
loop_
_space_group_symop_operation_xyz
x,y,z
-x,-y,-z
loop_
_atom_site_type_symbol
_atom_site_label
_atom_site_fract_x
_atom_site_fract_y
_atom_site_fract_z
Si Si1 0.015490 0.040456 0.380315
Si Si2 0.324243 0.219172 0.772251
Si Si3 0.225832 0.977431 0.777015
Si Si4 0.923956 0.603871 0.773345
Si Si5 0.717705 0.444543 0.650960
Si Si6 0.837976 0.778744 0.641890
Si Si7 0.001694 0.815191 0.983736
O O1 0.894696 0.996249 0.304825
O O2 0.840167 0.325205 0.524705
O O3 0.144773 0.038633 0.323009
O O4 0.199366 0.792174 0.369508
O O5 0.178425 0.299659 0.705011
O O6 0.251109 0.491062 0.891017
O O7 0.262732 0.148943 0.821249
O O8 0.583950 0.954752 0.676172
O O9 0.458917 0.657806 0.692927
O O10 0.084804 0.081108 0.889068
O O11 0.758935 0.594146 0.755646
O O12 0.919873 0.706730 0.720160
O O13 0.847820 0.819012 0.919410
O O14 0.000000 0.500000 0.500000
O O15 0.000000 0.000000 0.000000
#
# Coordination Sequence:
#
# PCOD8021513 Si02
#       7
#     2   2   2   2   2   2   2
#     4  11  24  40  64  99 129 162 218 267 316 381
#     4  10  24  42  66  93 132 169 210 267 319 378
#     4  12  22  44  68  90 128 178 209 261 321 379
#     4  10  22  44  60  96 132 161 216 267 312 387
#     4  11  23  41  66  97 127 164 222 261 318 385
#     4  12  23  42  66  97 129 170 211 258 331 385
#     4  10  24  43  63  94 132 166 219 266 316 375
#
# _framework density 19.908266000000001
#
# number of rings (size 3 to 8) (size 9 to 14) (size 15 to 20)
#    0.857    0.286    4.286    1.714    2.000    1.143 
#    2.571    1.429    0.000    0.000    0.000    0.000 
#    0.000    0.000    0.000    0.000    0.000    0.000 
#
# Total GULP energy -173554.006561 kJ/mol
# GULP energy per Si atom -12396.714754 kJ/mol
# Density = 1.986295 g / cm^3
# Si number density = 19.908266 Si / 1000 Ang^3
#
#
#
# Elastic Constant Matrix: (Units=GPa)
#
#
# Indices 1 2 3 4 5 6 
#
# 1 79.7088 34.1771 23.9634 5.4490 -9.0008 14.4471
# 2 34.1771 123.3587 35.2455 -0.3265 -20.3270 2.1810
# 3 23.9634 35.2455 57.4010 0.3633 -0.5447 0.5907
# 4 5.4490 -0.3265 0.3633 29.8528 -1.5565 6.5480
# 5 -9.0008 -20.3270 -0.5447 -1.5565 33.5505 0.8296
# 6 14.4471 2.1810 0.5907 6.5480 0.8296 33.2800
#
#
#
# Elastic Compliance Matrix: (Units=1/GPa)
#
#
# Indices 1 2 3 4 5 6 
#
# 1 0.016945 -0.002531 -0.005412 -0.001384 0.003031 -0.006897
# 2 -0.002531 0.011550 -0.005983 0.000965 0.006264 0.000102
# 3 -0.005412 -0.005983 0.023284 -0.000153 -0.004767 0.002477
# 4 -0.001384 0.000965 -0.000153 0.035283 0.002007 -0.006452
# 5 0.003031 0.006264 -0.004767 0.002007 0.034501 -0.002897
# 6 -0.006897 0.000102 0.002477 -0.006452 -0.002897 0.034333
#
#
# Mechanical properties :
#
#
# Convention : Reuss Voigt Hill
#
# Bulk Modulus (GPa) = 41.79146 49.69339 45.74243
# Shear Modulus (GPa) = 26.07928 30.47550 28.27739
#
# Velocity S-wave (km/s) = 3.62328 3.91678 3.77289
# Velocity P-wave (km/s) = 6.20820 6.74317 6.48121
#
# Compressibility (1/GPa) = 0.02392833
#
# Stress axis : x y z
#
# Youngs Moduli (GPa) = 59.01577 86.58033 42.94709
#
# Poissons Ratio (x) = 0.21911 0.23241
# Poissons Ratio (y) = 0.14935 0.25696
# Poissons Ratio (z) = 0.31937 0.51802
#
# Static dielectric constant tensor:
#      x y z
#    x 3.506870 0.114970 0.060430 
#    y 0.114970 3.847500 -0.039040 
#    z 0.060430 -0.039040 3.505300 
# 
# 
# High freq. dielectric constant tensor:
#      x y z
#    x 1.768810 0.012540 0.006160 
#    y 0.012540 1.798250 -0.004520 
#    z 0.006160 -0.004520 1.761330 
# 
# From -- ./inp_files/461383.got.cif
#   From: 2010.06.25/outbox.cif.g09.slc.cpg/sg2_231_cif.got.tgz:461383.got - 2010.06.27 13:26:56.
