data_PCOD8021702
_publ_section_title
;
Structure prediction by ZEFSAII (Michael W. Deem and Ramdas Pophale) SiO2 
 PCOD8021702
Probable space group: P -1
;
_chemical_formula_sum "Si O2"
_cell_formula_units_Z 16
_cell_length_a 8.833550
_cell_length_b 14.408981
_cell_length_c 7.401568
_cell_angle_alpha 120.767429
_cell_angle_beta 65.855635
_cell_angle_gamma 81.935368
_cell_volume 661.216384
_symmetry_space_group_name_H-M "P -1"
_symmetry_group_IT_number 2
_symmetry_cell_setting 'triclinic'
loop_
_space_group_symop_operation_xyz
x,y,z
-x,-y,-z
loop_
_atom_site_type_symbol
_atom_site_label
_atom_site_fract_x
_atom_site_fract_y
_atom_site_fract_z
Si Si1 0.288667 0.349749 0.753400
Si Si2 0.704961 0.151865 0.369553
Si Si3 0.814053 0.120133 0.692829
Si Si4 0.693507 0.001944 0.917805
Si Si5 0.187384 0.381795 0.235341
Si Si6 0.683446 0.512055 0.443042
Si Si7 0.018531 0.252894 0.630914
Si Si8 0.066954 0.710859 0.668255
O O1 0.501218 0.255687 0.523072
O O2 0.242449 0.466411 0.765689
O O3 0.144737 0.295618 0.726808
O O4 0.259563 0.393891 0.016179
O O5 0.718808 0.128406 0.553023
O O6 0.868021 0.184119 0.248993
O O7 0.733534 0.030798 0.131126
O O8 0.679285 0.112737 0.905772
O O9 0.868476 0.231614 0.807093
O O10 0.000000 0.000000 0.500000
O O11 0.857075 0.874237 0.656650
O O12 0.500000 0.000000 0.000000
O O13 0.341982 0.376543 0.299777
O O14 0.000000 0.500000 0.500000
O O15 0.147968 0.262743 0.153706
O O16 0.500000 0.500000 0.500000
O O17 0.824446 0.387416 0.333970
O O18 0.906285 0.339542 0.604027
#
# Coordination Sequence:
#
# PCOD8021702 Si02
#       8
#     2   2   2   2   2   2   2   2
#     4  12  24  43  72 101 138 183 229 281 346 414
#     4  11  24  43  68 102 134 187 230 277 344 402
#     4   9  23  43  62  95 135 179 228 278 334 398
#     4  11  23  43  69  99 143 176 229 287 339 401
#     4  10  25  45  66 100 132 176 229 284 341 406
#     4  11  23  46  69 100 139 176 226 285 349 403
#     4  10  22  44  67 101 137 182 231 279 339 407
#     4  10  22  44  67  99 137 177 230 281 340 408
#
# _framework density 24.197827
#
# number of rings (size 3 to 8) (size 9 to 14) (size 15 to 20)
#    0.000    1.500    3.750    0.000    1.750    9.500 
#    2.250    0.000    0.000    0.000    0.000    0.000 
#    0.000    0.000    0.000    0.000    0.000    0.000 
#
# Total GULP energy -198216.185621 kJ/mol
# GULP energy per Si atom -12388.511601 kJ/mol
# Density = 2.414275 g / cm^3
# Si number density = 24.197827 Si / 1000 Ang^3
#
#
#
# Elastic Constant Matrix: (Units=GPa)
#
#
# Indices 1 2 3 4 5 6 
#
# 1 172.8452 40.3600 38.2164 -15.8492 22.5708 41.9006
# 2 40.3600 80.2824 19.1671 -37.0812 -3.1540 15.8780
# 3 38.2164 19.1671 90.3697 -25.7322 5.3783 18.8264
# 4 -15.8492 -37.0812 -25.7322 44.1013 -0.1762 -3.5421
# 5 22.5708 -3.1540 5.3783 -0.1762 33.1937 -2.6284
# 6 41.9006 15.8780 18.8264 -3.5421 -2.6284 47.6381
#
#
#
# Elastic Compliance Matrix: (Units=1/GPa)
#
#
# Indices 1 2 3 4 5 6 
#
# 1 0.009585 -0.004038 -0.001782 -0.001573 -0.007167 -0.006893
# 2 -0.004038 0.024043 0.002894 0.020160 0.004362 -0.003866
# 3 -0.001782 0.002894 0.015188 0.010272 -0.001292 -0.004707
# 4 -0.001573 0.020160 0.010272 0.044575 0.001080 -0.006022
# 5 -0.007167 0.004362 -0.001292 0.001080 0.036218 0.007439
# 6 -0.006893 -0.003866 -0.004707 -0.006022 0.007439 0.030166
#
#
# Mechanical properties :
#
#
# Convention : Reuss Voigt Hill
#
# Bulk Modulus (GPa) = 23.27528 59.88716 41.58122
# Shear Modulus (GPa) = 27.78608 41.37020 34.57814
#
# Velocity S-wave (km/s) = 3.39232 4.13930 3.78428
# Velocity P-wave (km/s) = 4.99834 6.90273 6.02624
#
# Compressibility (1/GPa) = 0.04296403
#
# Stress axis : x y z
#
# Youngs Moduli (GPa) = 104.32977 41.59297 65.84271
#
# Poissons Ratio (x) = 0.16794 0.11735
# Poissons Ratio (y) = 0.42126 -0.19058
# Poissons Ratio (z) = 0.18595 -0.12039
#
# Static dielectric constant tensor:
#      x y z
#    x 4.653500 0.295070 0.143750 
#    y 0.295070 4.862300 -0.480530 
#    z 0.143750 -0.480530 4.286670 
# 
# 
# High freq. dielectric constant tensor:
#      x y z
#    x 1.983650 0.016670 0.019940 
#    y 0.016670 1.966110 -0.029620 
#    z 0.019940 -0.029620 1.938280 
# 
# From -- ./inp_files/39705.got.cif
#   From: 2010.06.25/outbox.cif.g09.slc.cpg/sg2_20_cif.got.tgz:39705.got - 2010.06.27 13:26:56.
