data_PCOD8021512
_publ_section_title
;
Structure prediction by ZEFSAII (Michael W. Deem and Ramdas Pophale) SiO2 
 PCOD8021512
Probable space group: P -1
;
_chemical_formula_sum "Si O2"
_cell_formula_units_Z 12
_cell_length_a 18.608473
_cell_length_b 15.249816
_cell_length_c 9.718490
_cell_angle_alpha 120.440981
_cell_angle_beta 48.483250
_cell_angle_gamma 160.188601
_cell_volume 621.117699
_symmetry_space_group_name_H-M "P -1"
_symmetry_group_IT_number 2
_symmetry_cell_setting 'triclinic'
loop_
_space_group_symop_operation_xyz
x,y,z
-x,-y,-z
loop_
_atom_site_type_symbol
_atom_site_label
_atom_site_fract_x
_atom_site_fract_y
_atom_site_fract_z
Si Si1 0.978182 0.608099 0.260547
Si Si2 0.943910 0.544844 0.943386
Si Si3 0.683630 0.640938 0.257364
Si Si4 0.500774 0.790110 0.255431
Si Si5 0.458975 0.724902 0.942635
Si Si6 0.690347 0.756775 0.057935
O O1 0.087080 0.605585 0.164412
O O2 0.744616 0.412687 0.503119
O O3 0.227402 0.934553 0.214696
O O4 0.856551 0.485026 0.162645
O O5 0.744948 0.403813 0.980148
O O6 0.259076 0.888195 0.790665
O O7 0.500000 0.500000 0.500000
O O8 0.576455 0.424961 0.178477
O O9 0.656215 0.691641 0.207163
O O10 0.997337 0.946653 0.153919
O O11 0.611448 0.795562 0.181014
O O12 0.386851 0.661190 0.144165
O O13 0.500000 0.500000 0.000000
#
# Coordination Sequence:
#
# PCOD8021512 Si02
#       6
#     2   2   2   2   2   2
#     4  10  24  39  66  90 120 165 200 248 307 355
#     4  10  22  44  60  91 127 155 207 251 293 362
#     4  11  26  41  64  91 121 162 202 249 304 357
#     4  11  23  40  64  91 124 161 199 250 304 355
#     4  11  23  40  61  93 124 155 206 251 295 365
#     4  11  24  43  61  90 125 155 205 252 296 367
#
# _framework density 19.320008000000001
#
# number of rings (size 3 to 8) (size 9 to 14) (size 15 to 20)
#    0.000    1.333    3.333    1.000    4.667    2.667 
#    0.000    0.000    0.000    0.000    0.000    0.000 
#    0.000    0.000    0.000    0.000    0.000    0.000 
#
# Total GULP energy -148875.783091 kJ/mol
# GULP energy per Si atom -12406.315258 kJ/mol
# Density = 1.927604 g / cm^3
# Si number density = 19.320008 Si / 1000 Ang^3
#
#
#
# Elastic Constant Matrix: (Units=GPa)
#
#
# Indices 1 2 3 4 5 6 
#
# 1 179.1955 67.3717 98.7256 -14.9260 -1.2133 14.8747
# 2 67.3717 130.8045 91.4915 -13.2359 2.5994 2.5975
# 3 98.7256 91.4915 223.9717 -32.7540 12.1824 18.5010
# 4 -14.9260 -13.2359 -32.7540 28.5334 -1.3779 -3.6278
# 5 -1.2133 2.5994 12.1824 -1.3779 14.4386 -4.6497
# 6 14.8747 2.5975 18.5010 -3.6278 -4.6497 37.7145
#
#
#
# Elastic Compliance Matrix: (Units=1/GPa)
#
#
# Indices 1 2 3 4 5 6 
#
# 1 0.008042 -0.002327 -0.002627 0.000078 0.002881 -0.001360
# 2 -0.002327 0.011545 -0.003988 -0.000060 0.001826 0.002298
# 3 -0.002627 -0.003988 0.008830 0.006126 -0.007447 -0.003349
# 4 0.000078 -0.000060 0.006126 0.042169 -0.000830 0.000922
# 5 0.002881 0.001826 -0.007447 -0.000830 0.079268 0.012084
# 6 -0.001360 0.002298 -0.003349 0.000922 0.012084 0.030115
#
#
# Mechanical properties :
#
#
# Convention : Reuss Voigt Hill
#
# Bulk Modulus (GPa) = 94.95040 116.57215 105.76128
# Shear Modulus (GPa) = 24.83080 34.56284 29.69682
#
# Velocity S-wave (km/s) = 3.58891 4.23421 3.92484
# Velocity P-wave (km/s) = 8.15025 9.18549 8.68331
#
# Compressibility (1/GPa) = 0.01053181
#
# Stress axis : x y z
#
# Youngs Moduli (GPa) = 124.35426 86.61688 113.25261
#
# Poissons Ratio (x) = 0.20152 0.29755
# Poissons Ratio (y) = 0.28932 0.45170
# Poissons Ratio (z) = 0.32671 0.34547
#
# Static dielectric constant tensor:
#      x y z
#    x 3.853090 -0.115150 0.096240 
#    y -0.115150 3.780630 -0.007180 
#    z 0.096240 -0.007180 3.437030 
# 
# 
# High freq. dielectric constant tensor:
#      x y z
#    x 1.772310 -0.008050 0.003770 
#    y -0.008050 1.768880 -0.001590 
#    z 0.003770 -0.001590 1.749230 
# 
# From -- ./inp_files/3050.got.cif
#   From: 2010.06.25/outbox.cif.g09.slc.cpg/sg2_2_cif.got.tgz:3050.got - 2010.06.27 13:26:56.
