data_PCOD8021212
_publ_section_title
;
Structure prediction by ZEFSAII (Michael W. Deem and Ramdas Pophale) SiO2 
 PCOD8021212
Probable space group: P -1
;
_chemical_formula_sum "Si O2"
_cell_formula_units_Z 14
_cell_length_a 7.763000
_cell_length_b 17.890899
_cell_length_c 9.323090
_cell_angle_alpha 59.147008
_cell_angle_beta 97.441143
_cell_angle_gamma 48.578563
_cell_volume 571.265373
_symmetry_space_group_name_H-M "P -1"
_symmetry_group_IT_number 2
_symmetry_cell_setting 'triclinic'
loop_
_space_group_symop_operation_xyz
x,y,z
-x,-y,-z
loop_
_atom_site_type_symbol
_atom_site_label
_atom_site_fract_x
_atom_site_fract_y
_atom_site_fract_z
Si Si1 0.289396 0.932156 0.784448
Si Si2 0.802496 0.288573 0.899995
Si Si3 0.773904 0.007559 0.587385
Si Si4 0.710989 0.639855 0.722619
Si Si5 0.808352 0.579922 0.256946
Si Si6 0.569880 0.426073 0.236719
Si Si7 0.119572 0.145041 0.768543
O O1 0.283942 0.997976 0.579075
O O2 0.134914 0.041511 0.803288
O O3 0.666155 0.737318 0.049952
O O4 0.099197 0.927875 0.717933
O O5 0.486163 0.364300 0.828830
O O6 0.708949 0.421843 0.828203
O O7 0.873391 0.258008 0.767670
O O8 0.147436 0.110299 0.190640
O O9 0.458303 0.195740 0.424608
O O10 0.455315 0.668186 0.681586
O O11 0.883925 0.579378 0.650808
O O12 0.000000 0.500000 0.000000
O O13 0.000000 0.500000 0.500000
O O14 0.944401 0.281041 0.491140
O O15 0.500000 0.500000 0.000000
O O16 0.500000 0.000000 0.000000
#
# Coordination Sequence:
#
# PCOD8021212 Si02
#       7
#     2   2   2   2   2   2   2
#     4  10  22  43  68  99 142 185 236 293 355 419
#     4  11  27  46  73 105 145 191 235 301 369 431
#     4  10  22  45  74 102 140 184 247 297 357 425
#     4  12  24  44  75 108 140 188 243 303 357 431
#     4  11  25  40  70 102 143 182 239 289 361 427
#     4  12  27  50  74 105 151 195 245 301 363 435
#     4  12  28  46  73 106 153 191 240 301 372 435
#
# _framework density 24.506997999999999
#
# number of rings (size 3 to 8) (size 9 to 14) (size 15 to 20)
#    0.000    0.857    2.857    3.000    8.000    2.286 
#    0.000    2.143    0.000    0.000    0.000    0.000 
#    0.000    0.000    0.000    0.000    0.000    0.000 
#
# Total GULP energy -173434.516553 kJ/mol
# GULP energy per Si atom -12388.179754 kJ/mol
# Density = 2.445122 g / cm^3
# Si number density = 24.506998 Si / 1000 Ang^3
#
#
#
# Elastic Constant Matrix: (Units=GPa)
#
#
# Indices 1 2 3 4 5 6 
#
# 1 45.1240 7.6487 15.0219 7.9174 10.5628 -10.0684
# 2 7.6487 162.0941 38.5714 11.9124 1.9031 -6.2572
# 3 15.0219 38.5714 197.8006 7.5695 19.0120 -5.5479
# 4 7.9174 11.9124 7.5695 51.1908 -2.8461 -4.9300
# 5 10.5628 1.9031 19.0120 -2.8461 26.3513 -1.4836
# 6 -10.0684 -6.2572 -5.5479 -4.9300 -1.4836 37.6222
#
#
#
# Elastic Compliance Matrix: (Units=1/GPa)
#
#
# Indices 1 2 3 4 5 6 
#
# 1 0.026941 -0.000472 -0.000632 -0.003953 -0.010392 0.006110
# 2 -0.000472 0.006592 -0.001235 -0.001187 0.000513 0.000652
# 3 -0.000632 -0.001235 0.005747 -0.000657 -0.003862 0.000235
# 4 -0.003953 -0.001187 -0.000657 0.020920 0.004492 0.001566
# 5 -0.010392 0.000513 -0.003862 0.004492 0.045298 -0.000890
# 6 0.006110 0.000652 0.000235 0.001566 -0.000890 0.028529
#
#
# Mechanical properties :
#
#
# Convention : Reuss Voigt Hill
#
# Bulk Modulus (GPa) = 28.90132 58.61142 43.75637
# Shear Modulus (GPa) = 33.27989 45.95130 39.61560
#
# Velocity S-wave (km/s) = 3.68907 4.33486 4.02494
# Velocity P-wave (km/s) = 5.47397 7.00163 6.28439
#
# Compressibility (1/GPa) = 0.03460049
#
# Stress axis : x y z
#
# Youngs Moduli (GPa) = 37.11777 151.70260 173.99314
#
# Poissons Ratio (x) = 0.07167 0.11004
# Poissons Ratio (y) = 0.01753 0.21490
# Poissons Ratio (z) = 0.02348 0.18737
#
# Static dielectric constant tensor:
#      x y z
#    x 3.950740 0.033420 0.031630 
#    y 0.033420 4.350280 -0.001210 
#    z 0.031630 -0.001210 5.177600 
# 
# 
# High freq. dielectric constant tensor:
#      x y z
#    x 1.932120 0.003660 0.014180 
#    y 0.003660 1.993560 -0.004290 
#    z 0.014180 -0.004290 2.008820 
# 
# From -- ./inp_files/217094.got.cif
#   From: 2010.06.25/outbox.cif.g09.slc.cpg/sg2_109_cif.got.tgz:217094.got - 2010.06.27 13:26:56.
