data_PCOD8021003
_publ_section_title
;
Structure prediction by ZEFSAII (Michael W. Deem and Ramdas Pophale) SiO2 
 PCOD8021003
Probable space group: P -1
;
_chemical_formula_sum "Si O2"
_cell_formula_units_Z 14
_cell_length_a 8.912957
_cell_length_b 23.347412
_cell_length_c 17.587928
_cell_angle_alpha 158.813417
_cell_angle_beta 152.870143
_cell_angle_gamma 29.838962
_cell_volume 587.262090
_symmetry_space_group_name_H-M "P -1"
_symmetry_group_IT_number 2
_symmetry_cell_setting 'triclinic'
loop_
_space_group_symop_operation_xyz
x,y,z
-x,-y,-z
loop_
_atom_site_type_symbol
_atom_site_label
_atom_site_fract_x
_atom_site_fract_y
_atom_site_fract_z
Si Si1 0.340403 0.347882 0.324886
Si Si2 0.332991 0.490216 0.993439
Si Si3 0.409824 0.348789 0.186093
Si Si4 0.639757 0.197197 0.528795
Si Si5 0.298827 0.908923 0.738229
Si Si6 0.564308 0.916254 0.243756
Si Si7 0.753418 0.186251 0.878482
O O1 0.350166 0.286552 0.166300
O O2 0.312109 0.541308 0.551885
O O3 0.681392 0.260158 0.416267
O O4 0.013847 0.300628 0.157298
O O5 0.468323 0.610623 0.262552
O O6 0.500000 0.500000 0.000000
O O7 0.433843 0.304219 0.839493
O O8 0.932541 0.544924 0.872970
O O9 0.562105 0.190129 0.009924
O O10 0.520583 0.143767 0.326772
O O11 0.042419 0.149213 0.646152
O O12 0.492609 0.102227 0.412089
O O13 0.927379 0.030259 0.710495
O O14 0.500000 0.000000 0.000000
O O15 0.353095 0.899302 0.201765
#
# Coordination Sequence:
#
# PCOD8021003 Si02
#       7
#     2   2   2   2   2   2   2
#     4  10  22  43  66  95 135 189 214 270 343 397
#     4  11  24  43  72 104 133 168 231 287 324 393
#     4  10  22  43  68  94 141 179 218 273 346 395
#     4  10  24  44  67  96 139 181 214 274 353 391
#     4  10  23  44  67  94 140 180 217 269 338 402
#     4  10  23  41  67  98 134 173 229 277 330 397
#     4  11  24  42  68 104 130 169 234 281 319 398
#
# _framework density 23.839441999999998
#
# number of rings (size 3 to 8) (size 9 to 14) (size 15 to 20)
#    0.000    1.714    1.429    1.714    8.000    3.429 
#    2.571    3.571    0.000    0.000    0.000    0.000 
#    0.000    0.000    0.000    0.000    0.000    0.000 
#
# Total GULP energy -173495.610050 kJ/mol
# GULP energy per Si atom -12392.543575 kJ/mol
# Density = 2.378518 g / cm^3
# Si number density = 23.839442 Si / 1000 Ang^3
#
#
#
# Elastic Constant Matrix: (Units=GPa)
#
#
# Indices 1 2 3 4 5 6 
#
# 1 142.5423 27.4214 51.8784 7.4636 5.4554 18.8298
# 2 27.4214 93.0986 -2.5961 19.0163 1.4259 21.6947
# 3 51.8784 -2.5961 72.4222 6.0193 -4.0310 5.5773
# 4 7.4636 19.0163 6.0193 27.8163 1.2285 1.6858
# 5 5.4554 1.4259 -4.0310 1.2285 45.6915 0.3903
# 6 18.8298 21.6947 5.5773 1.6858 0.3903 31.3872
#
#
#
# Elastic Compliance Matrix: (Units=1/GPa)
#
#
# Indices 1 2 3 4 5 6 
#
# 1 0.010849 -0.002848 -0.007817 0.001004 -0.001896 -0.003181
# 2 -0.002848 0.016098 0.004272 -0.010608 0.000582 -0.009614
# 3 -0.007817 0.004272 0.020273 -0.005233 0.002743 -0.001618
# 4 0.001004 -0.010608 -0.005233 0.043808 -0.001474 0.005325
# 5 -0.001896 0.000582 0.002743 -0.001474 0.022375 0.000049
# 6 -0.003181 -0.009614 -0.001618 0.005325 0.000049 0.040415
#
#
# Mechanical properties :
#
#
# Convention : Reuss Voigt Hill
#
# Bulk Modulus (GPa) = 29.04283 51.27453 40.15868
# Shear Modulus (GPa) = 28.07688 36.40295 32.23992
#
# Velocity S-wave (km/s) = 3.43556 3.91193 3.68146
# Velocity P-wave (km/s) = 5.28645 6.47760 5.91210
#
# Compressibility (1/GPa) = 0.03443190
#
# Stress axis : x y z
#
# Youngs Moduli (GPa) = 92.17664 62.12057 49.32624
#
# Poissons Ratio (x) = 0.17694 0.38561
# Poissons Ratio (y) = 0.26254 -0.21071
# Poissons Ratio (z) = 0.72059 -0.26537
#
# Static dielectric constant tensor:
#      x y z
#    x 4.163530 0.221380 -0.076530 
#    y 0.221380 4.717280 0.290110 
#    z -0.076530 0.290110 4.514770 
# 
# 
# High freq. dielectric constant tensor:
#      x y z
#    x 1.935710 0.017160 -0.000560 
#    y 0.017160 1.936040 0.012670 
#    z -0.000560 0.012670 1.953810 
# 
# From -- ./inp_files/382136.got.cif
#   From: 2010.06.25/outbox.cif.g09.slc.cpg/sg2_192_cif.got.tgz:382136.got - 2010.06.27 13:26:56.
