data_PCOD8021551
_publ_section_title
;
Structure prediction by ZEFSAII (Michael W. Deem and Ramdas Pophale) SiO2 
 PCOD8021551
Probable space group: P -1
;
_chemical_formula_sum "Si O2"
_cell_formula_units_Z 14
_cell_length_a 5.224067
_cell_length_b 15.065449
_cell_length_c 9.355964
_cell_angle_alpha 62.808493
_cell_angle_beta 67.367295
_cell_angle_gamma 90.346024
_cell_volume 589.502704
_symmetry_space_group_name_H-M "P -1"
_symmetry_group_IT_number 2
_symmetry_cell_setting 'triclinic'
loop_
_space_group_symop_operation_xyz
x,y,z
-x,-y,-z
loop_
_atom_site_type_symbol
_atom_site_label
_atom_site_fract_x
_atom_site_fract_y
_atom_site_fract_z
Si Si1 0.962553 0.891794 0.715703
Si Si2 0.644176 0.053354 0.640634
Si Si3 0.175537 0.774049 0.320283
Si Si4 0.898086 0.092632 0.028615
Si Si5 0.751469 0.440765 0.498555
Si Si6 0.301688 0.273960 0.308184
Si Si7 0.904323 0.400134 0.183923
O O1 0.724017 0.828123 0.705925
O O2 0.279011 0.897545 0.571101
O O3 0.916308 0.848956 0.921284
O O4 0.920872 0.008496 0.653999
O O5 0.608392 0.142019 0.694041
O O6 0.379026 0.959690 0.781824
O O7 0.323576 0.677229 0.342173
O O8 0.872451 0.744410 0.490455
O O9 0.140926 0.821353 0.137993
O O10 0.000000 0.000000 0.000000
O O11 0.500000 0.500000 0.500000
O O12 0.857226 0.441975 0.316332
O O13 0.000000 0.500000 0.500000
O O14 0.627466 0.324145 0.234297
O O15 0.162301 0.343385 0.179751
O O16 0.000000 0.500000 0.000000
#
# Coordination Sequence:
#
# PCOD8021551 Si02
#       7
#     2   2   2   2   2   2   2
#     4  10  23  42  67  98 144 192 237 286 350 429
#     4  10  22  44  63  99 147 188 241 287 351 428
#     4  10  23  44  68 103 140 192 233 294 365 421
#     4  12  24  39  66 105 144 193 238 295 350 425
#     4  11  25  48  73 102 138 183 235 296 364 425
#     4  10  24  44  71 102 138 191 231 288 362 424
#     4  11  24  48  73 101 137 178 240 302 357 419
#
# _framework density 23.748829000000001
#
# number of rings (size 3 to 8) (size 9 to 14) (size 15 to 20)
#    0.000    1.429    1.429    3.000    2.000    5.714 
#    2.571    0.000    0.000    0.000    0.000    0.000 
#    0.000    0.000    0.000    0.000    0.000    0.000 
#
# Total GULP energy -173443.503286 kJ/mol
# GULP energy per Si atom -12388.821663 kJ/mol
# Density = 2.369478 g / cm^3
# Si number density = 23.748829 Si / 1000 Ang^3
#
#
#
# Elastic Constant Matrix: (Units=GPa)
#
#
# Indices 1 2 3 4 5 6 
#
# 1 100.2372 60.0124 46.1745 4.3510 26.4069 4.9399
# 2 60.0124 157.2674 55.0670 1.0044 23.9360 -1.4742
# 3 46.1745 55.0670 138.4537 -6.2805 40.0925 10.5154
# 4 4.3510 1.0044 -6.2805 38.7343 0.5263 7.3337
# 5 26.4069 23.9360 40.0925 0.5263 36.5615 -6.2932
# 6 4.9399 -1.4742 10.5154 7.3337 -6.2932 43.2974
#
#
#
# Elastic Compliance Matrix: (Units=1/GPa)
#
#
# Indices 1 2 3 4 5 6 
#
# 1 0.015164 -0.004304 -0.001080 -0.001197 -0.007360 -0.002481
# 2 -0.004304 0.008779 -0.002173 -0.000357 -0.000014 0.001376
# 3 -0.001080 -0.002173 0.012700 0.003445 -0.012715 -0.005467
# 4 -0.001197 -0.000357 0.003445 0.027712 -0.004112 -0.006004
# 5 -0.007360 -0.000014 -0.012715 -0.004112 0.048693 0.011701
# 6 -0.002481 0.001376 -0.005467 -0.006004 0.011701 0.027471
#
#
# Mechanical properties :
#
#
# Convention : Reuss Voigt Hill
#
# Bulk Modulus (GPa) = 46.44663 79.82957 63.13810
# Shear Modulus (GPa) = 30.71086 39.36559 35.03822
#
# Velocity S-wave (km/s) = 3.59994 4.07576 3.84522
# Velocity P-wave (km/s) = 6.07284 7.47236 6.80865
#
# Compressibility (1/GPa) = 0.02153009
#
# Stress axis : x y z
#
# Youngs Moduli (GPa) = 65.94707 113.90747 78.73750
#
# Poissons Ratio (x) = 0.49022 0.08503
# Poissons Ratio (y) = 0.28381 0.17109
# Poissons Ratio (z) = 0.07122 0.24752
#
# Static dielectric constant tensor:
#      x y z
#    x 4.282560 -0.331340 0.185610 
#    y -0.331340 4.856040 -0.048800 
#    z 0.185610 -0.048800 4.464380 
# 
# 
# High freq. dielectric constant tensor:
#      x y z
#    x 1.933320 -0.001220 0.016400 
#    y -0.001220 1.953190 0.006840 
#    z 0.016400 0.006840 1.942220 
# 
# From -- ./inp_files/132986.got.cif
#   From: 2010.06.25/outbox.cif.g09.slc.cpg/sg2_67_cif.got.tgz:132986.got - 2010.06.27 13:26:56.
