data_PCOD8021667
_publ_section_title
;
Structure prediction by ZEFSAII (Michael W. Deem and Ramdas Pophale) SiO2 
 PCOD8021667
Probable space group: P -1
;
_chemical_formula_sum "Si O2"
_cell_formula_units_Z 14
_cell_length_a 14.540954
_cell_length_b 18.065654
_cell_length_c 17.449523
_cell_angle_alpha 155.855278
_cell_angle_beta 154.855416
_cell_angle_gamma 23.611217
_cell_volume 680.889630
_symmetry_space_group_name_H-M "P -1"
_symmetry_group_IT_number 2
_symmetry_cell_setting 'triclinic'
loop_
_space_group_symop_operation_xyz
x,y,z
-x,-y,-z
loop_
_atom_site_type_symbol
_atom_site_label
_atom_site_fract_x
_atom_site_fract_y
_atom_site_fract_z
Si Si1 0.091727 0.018197 0.004876
Si Si2 0.406695 0.746325 0.754044
Si Si3 0.736827 0.420016 0.046190
Si Si4 0.339917 0.725350 0.506169
Si Si5 0.885647 0.023957 0.705460
Si Si6 0.786267 0.838282 0.216623
Si Si7 0.330170 0.210898 0.755410
O O1 0.388408 0.876313 0.087627
O O2 0.988336 0.265460 0.140403
O O3 0.000000 0.000000 0.000000
O O4 0.977559 0.929358 0.771436
O O5 0.402551 0.761059 0.673332
O O6 0.458750 0.512811 0.595920
O O7 0.134088 0.930565 0.751648
O O8 0.628011 0.778800 0.984282
O O9 0.731235 0.280409 0.838489
O O10 0.500000 0.500000 0.000000
O O11 0.765344 0.601645 0.200689
O O12 0.065429 0.751251 0.311971
O O13 0.353633 0.904667 0.636239
O O14 0.684852 0.970516 0.471763
O O15 0.827909 0.727321 0.226576
#
# Coordination Sequence:
#
# PCOD8021667 Si02
#       7
#     2   2   2   2   2   2   2
#     4  10  22  44  66  93 129 164 211 268 326 387
#     4  11  21  43  63  93 131 172 216 269 321 379
#     4  10  23  43  67  95 127 166 215 271 326 388
#     4  10  24  40  63  96 132 167 222 267 321 381
#     4  10  24  41  64  99 128 168 221 269 313 402
#     4  11  22  41  64  93 130 174 216 265 324 382
#     4  12  22  44  67  95 134 170 215 272 321 392
#
# _framework density 20.561335
#
# number of rings (size 3 to 8) (size 9 to 14) (size 15 to 20)
#    0.857    0.571    4.286    0.857    0.000    5.714 
#    5.143    1.429    0.000    0.000    0.000    0.000 
#    0.000    0.000    0.000    0.000    0.000    0.000 
#
# Total GULP energy -173465.427542 kJ/mol
# GULP energy per Si atom -12390.387682 kJ/mol
# Density = 2.051454 g / cm^3
# Si number density = 20.561335 Si / 1000 Ang^3
#
#
#
# Elastic Constant Matrix: (Units=GPa)
#
#
# Indices 1 2 3 4 5 6 
#
# 1 85.3725 12.8154 25.6729 13.9561 0.1298 5.6480
# 2 12.8154 65.9022 10.4623 16.7652 0.4007 8.4844
# 3 25.6729 10.4623 92.7073 -0.5017 -10.1883 0.7002
# 4 13.9561 16.7652 -0.5017 31.9963 8.4050 -10.8064
# 5 0.1298 0.4007 -10.1883 8.4050 27.3111 12.6719
# 6 5.6480 8.4844 0.7002 -10.8064 12.6719 32.6040
#
#
#
# Elastic Compliance Matrix: (Units=1/GPa)
#
#
# Indices 1 2 3 4 5 6 
#
# 1 0.015398 0.002416 -0.003680 -0.013706 0.007731 -0.010765
# 2 0.002416 0.024137 -0.001495 -0.025545 0.017031 -0.021754
# 3 -0.003680 -0.001495 0.012499 0.001125 0.004674 -0.000686
# 4 -0.013706 -0.025545 0.001125 0.082954 -0.050753 0.056218
# 5 0.007731 0.017031 0.004674 -0.050753 0.078350 -0.053145
# 6 -0.010765 -0.021754 -0.000686 0.056218 -0.053145 0.077500
#
#
# Mechanical properties :
#
#
# Convention : Reuss Voigt Hill
#
# Bulk Modulus (GPa) = 21.49806 37.98704 29.74255
# Shear Modulus (GPa) = 16.03269 31.38437 23.70853
#
# Velocity S-wave (km/s) = 2.79543 3.91113 3.39936
# Velocity P-wave (km/s) = 4.57138 6.23787 5.46848
#
# Compressibility (1/GPa) = 0.04651582
#
# Stress axis : x y z
#
# Youngs Moduli (GPa) = 64.94159 41.42982 80.00391
#
# Poissons Ratio (x) = -0.10007 0.29442
# Poissons Ratio (y) = -0.15687 0.11961
# Poissons Ratio (z) = 0.23899 0.06194
#
# Static dielectric constant tensor:
#      x y z
#    x 3.579950 0.097180 -0.143000 
#    y 0.097180 3.936270 0.032610 
#    z -0.143000 0.032610 3.800700 
# 
# 
# High freq. dielectric constant tensor:
#      x y z
#    x 1.796740 0.005240 -0.008760 
#    y 0.005240 1.811320 -0.002410 
#    z -0.008760 -0.002410 1.797770 
# 
# From -- ./inp_files/574197.got.cif
#   From: 2010.06.25/outbox.cif.g09.slc.cpg/sg2_288_cif.got.tgz:574197.got - 2010.06.27 13:26:56.
