data_PCOD8021499
_publ_section_title
;
Structure prediction by ZEFSAII (Michael W. Deem and Ramdas Pophale) SiO2 
 PCOD8021499
Probable space group: P -1
;
_chemical_formula_sum "Si O2"
_cell_formula_units_Z 16
_cell_length_a 25.811576
_cell_length_b 5.002990
_cell_length_c 5.630666
_cell_angle_alpha 93.874732
_cell_angle_beta 108.403241
_cell_angle_gamma 67.732677
_cell_volume 637.356599
_symmetry_space_group_name_H-M "P -1"
_symmetry_group_IT_number 2
_symmetry_cell_setting 'triclinic'
loop_
_space_group_symop_operation_xyz
x,y,z
-x,-y,-z
loop_
_atom_site_type_symbol
_atom_site_label
_atom_site_fract_x
_atom_site_fract_y
_atom_site_fract_z
Si Si1 0.264166 0.897567 0.685080
Si Si2 0.067259 0.464585 0.085839
Si Si3 0.236075 0.348677 0.053903
Si Si4 0.820139 0.044690 0.809083
Si Si5 0.379471 0.747171 0.567361
Si Si6 0.041990 0.673993 0.560403
Si Si7 0.567828 0.846558 0.146922
Si Si8 0.655601 0.576581 0.883209
O O1 0.211041 0.830376 0.479215
O O2 0.313215 0.906709 0.571233
O O3 0.236923 0.210478 0.788595
O O4 0.292900 0.636654 0.891317
O O5 0.109523 0.125295 0.117640
O O6 0.081043 0.593172 0.365595
O O7 0.078523 0.611025 0.862415
O O8 0.000000 0.500000 0.000000
O O9 0.209529 0.186618 0.188699
O O10 0.304995 0.299459 0.221964
O O11 0.194405 0.691090 0.011540
O O12 0.417946 0.482518 0.777814
O O13 0.377772 0.606317 0.302250
O O14 0.413007 0.971837 0.613153
O O15 0.000000 0.500000 0.500000
O O16 0.000000 0.000000 0.500000
O O17 0.607060 0.840161 0.969917
O O18 0.500000 0.000000 0.000000
#
# Coordination Sequence:
#
# PCOD8021499 Si02
#       8
#     2   2   2   2   2   2   2   2
#     4  11  24  44  70 102 141 182 240 295 366 430
#     4  10  25  50  73 109 149 196 243 303 375 453
#     4  12  25  44  67 104 140 180 241 292 365 419
#     4  12  29  43  72 107 144 183 240 303 362 439
#     4  11  24  41  72  96 139 186 233 291 360 419
#     4  10  22  43  75  98 137 188 241 286 351 436
#     4  11  26  44  67 105 141 184 237 288 352 430
#     4  11  25  43  74  98 141 187 234 295 365 424
#
# _framework density 25.103683
#
# number of rings (size 3 to 8) (size 9 to 14) (size 15 to 20)
#    0.000    1.000    3.750    0.750    7.000    5.000 
#    0.000    1.250    0.000    0.000    0.000    0.000 
#    0.000    0.000    0.000    0.000    0.000    0.000 
#
# Total GULP energy -198302.464562 kJ/mol
# GULP energy per Si atom -12393.904035 kJ/mol
# Density = 2.504655 g / cm^3
# Si number density = 25.103683 Si / 1000 Ang^3
#
#
#
# Elastic Constant Matrix: (Units=GPa)
#
#
# Indices 1 2 3 4 5 6 
#
# 1 80.1009 43.5986 25.9248 1.0122 11.2409 -16.7128
# 2 43.5986 145.9795 32.9737 17.3600 2.7126 -34.5042
# 3 25.9248 32.9737 126.9109 4.6687 -13.9974 -24.6232
# 4 1.0122 17.3600 4.6687 32.1335 -7.7885 11.5543
# 5 11.2409 2.7126 -13.9974 -7.7885 40.7803 0.1120
# 6 -16.7128 -34.5042 -24.6232 11.5543 0.1120 49.1856
#
#
#
# Elastic Compliance Matrix: (Units=1/GPa)
#
#
# Indices 1 2 3 4 5 6 
#
# 1 0.016500 -0.003895 -0.002638 0.000167 -0.005167 0.001526
# 2 -0.003895 0.011277 -0.000282 -0.009432 -0.001599 0.008665
# 3 -0.002638 -0.000282 0.009790 -0.001795 0.003752 0.004220
# 4 0.000167 -0.009432 -0.001795 0.045055 0.008620 -0.018062
# 5 -0.005167 -0.001599 0.003752 0.008620 0.028995 -0.003090
# 6 0.001526 0.008665 0.004220 -0.018062 -0.003090 0.033291
#
#
# Mechanical properties :
#
#
# Convention : Reuss Voigt Hill
#
# Bulk Modulus (GPa) = 41.77972 61.99839 51.88906
# Shear Modulus (GPa) = 30.02689 41.11949 35.57319
#
# Velocity S-wave (km/s) = 3.46224 4.05160 3.76846
# Velocity P-wave (km/s) = 5.71505 6.82919 6.29681
#
# Compressibility (1/GPa) = 0.02393506
#
# Stress axis : x y z
#
# Youngs Moduli (GPa) = 60.60772 88.67723 102.14042
#
# Poissons Ratio (x) = 0.34540 0.26949
# Poissons Ratio (y) = 0.23607 0.02884
# Poissons Ratio (z) = 0.15991 0.02504
#
# Static dielectric constant tensor:
#      x y z
#    x 4.604610 -0.125130 -0.525730 
#    y -0.125130 4.657080 0.221860 
#    z -0.525730 0.221860 5.539440 
# 
# 
# High freq. dielectric constant tensor:
#      x y z
#    x 1.980540 -0.005600 -0.006040 
#    y -0.005600 2.012550 0.005860 
#    z -0.006040 0.005860 2.002210 
# 
# From -- ./inp_files/125898.got.cif
#   From: 2010.06.25/outbox.cif.g09.slc.cpg/sg2_63_cif.got.tgz:125898.got - 2010.06.27 13:26:56.
