data_PCOD8021776
_publ_section_title
;
Structure prediction by ZEFSAII (Michael W. Deem and Ramdas Pophale) SiO2 
 PCOD8021776
Probable space group: P -1
;
_chemical_formula_sum "Si O2"
_cell_formula_units_Z 16
_cell_length_a 9.277949
_cell_length_b 7.091460
_cell_length_c 14.281059
_cell_angle_alpha 62.377695
_cell_angle_beta 122.499782
_cell_angle_gamma 88.415551
_cell_volume 652.207058
_symmetry_space_group_name_H-M "P -1"
_symmetry_group_IT_number 2
_symmetry_cell_setting 'triclinic'
loop_
_space_group_symop_operation_xyz
x,y,z
-x,-y,-z
loop_
_atom_site_type_symbol
_atom_site_label
_atom_site_fract_x
_atom_site_fract_y
_atom_site_fract_z
Si Si1 0.977888 0.267524 0.010525
Si Si2 0.871187 0.520495 0.536339
Si Si3 0.568905 0.347154 0.814546
Si Si4 0.998098 0.515705 0.206282
Si Si5 0.424249 0.022350 0.721098
Si Si6 0.427132 0.649428 0.531081
Si Si7 0.654199 0.393970 0.152479
Si Si8 0.724283 0.881390 0.716291
O O1 0.773834 0.262089 0.950442
O O2 0.041298 0.254431 0.925341
O O3 0.000000 0.500000 0.000000
O O4 0.120344 0.073878 0.172505
O O5 0.978077 0.429880 0.690720
O O6 0.726410 0.780200 0.437505
O O7 0.770682 0.351795 0.510569
O O8 0.000000 0.500000 0.500000
O O9 0.523870 0.135841 0.803467
O O10 0.565169 0.536059 0.690878
O O11 0.408336 0.462338 0.807046
O O12 0.186566 0.330630 0.273313
O O13 0.838461 0.412823 0.170488
O O14 0.319411 0.872978 0.766900
O O15 0.577140 0.847989 0.745586
O O16 0.500000 0.500000 0.500000
O O17 0.394181 0.910176 0.439339
O O18 0.500000 0.500000 0.000000
#
# Coordination Sequence:
#
# PCOD8021776 Si02
#       8
#     2   2   2   2   2   2   2   2
#     4  10  22  44  68 104 140 170 230 287 339 409
#     4  11  25  45  65 100 140 176 234 285 338 414
#     4  11  24  47  73  99 142 185 226 286 349 404
#     4  11  24  41  72 101 132 188 220 287 354 397
#     4  11  26  45  70 102 139 181 231 286 344 410
#     4  11  22  44  68 102 137 174 227 286 341 408
#     4  12  26  48  68  98 145 183 233 282 339 421
#     4  11  23  43  68 105 134 172 229 285 342 410
#
# _framework density 24.532088000000002
#
# number of rings (size 3 to 8) (size 9 to 14) (size 15 to 20)
#    0.000    1.000    2.500    6.000    3.500    2.000 
#    2.250    0.000    0.000    0.000    0.000    0.000 
#    0.000    0.000    0.000    0.000    0.000    0.000 
#
# Total GULP energy -198290.726432 kJ/mol
# GULP energy per Si atom -12393.170402 kJ/mol
# Density = 2.447625 g / cm^3
# Si number density = 24.532088 Si / 1000 Ang^3
#
#
#
# Elastic Constant Matrix: (Units=GPa)
#
#
# Indices 1 2 3 4 5 6 
#
# 1 113.1048 20.9067 -4.3943 9.2737 6.3434 -7.6786
# 2 20.9067 62.7194 1.5593 13.6886 2.3769 -6.1939
# 3 -4.3943 1.5593 66.8555 11.0591 -3.5425 -9.0840
# 4 9.2737 13.6886 11.0591 35.8101 0.2727 -5.2060
# 5 6.3434 2.3769 -3.5425 0.2727 39.4541 11.3441
# 6 -7.6786 -6.1939 -9.0840 -5.2060 11.3441 44.9902
#
#
#
# Elastic Compliance Matrix: (Units=1/GPa)
#
#
# Indices 1 2 3 4 5 6 
#
# 1 0.009732 -0.002685 0.001108 -0.001562 -0.001807 0.001790
# 2 -0.002685 0.018405 0.000611 -0.006267 -0.001081 0.001746
# 3 0.001108 0.000611 0.016278 -0.005137 0.000463 0.002849
# 4 -0.001562 -0.006267 -0.005137 0.032569 -0.000559 0.001743
# 5 -0.001807 -0.001081 0.000463 -0.000559 0.027892 -0.007461
# 6 0.001790 0.001746 0.002849 0.001743 -0.007461 0.025431
#
#
# Mechanical properties :
#
#
# Convention : Reuss Voigt Hill
#
# Bulk Modulus (GPa) = 23.53962 30.98033 27.25998
# Shear Modulus (GPa) = 34.15293 39.02475 36.58884
#
# Velocity S-wave (km/s) = 3.73523 3.99276 3.86614
# Velocity P-wave (km/s) = 5.31215 5.82341 5.57364
#
# Compressibility (1/GPa) = 0.04248157
#
# Stress axis : x y z
#
# Youngs Moduli (GPa) = 102.75669 54.33286 61.43433
#
# Poissons Ratio (x) = 0.14590 -0.06808
# Poissons Ratio (y) = 0.27594 -0.03753
# Poissons Ratio (z) = -0.11387 -0.03319
#
# Static dielectric constant tensor:
#      x y z
#    x -1.175700 -2.231730 4.687690 
#    y -2.231730 3.251810 1.846600 
#    z 4.687690 1.846600 1.370710 
# 
# 
# High freq. dielectric constant tensor:
#      x y z
#    x 1.986460 0.005920 0.000310 
#    y 0.005920 1.960660 0.015510 
#    z 0.000310 0.015510 1.989840 
# 
# From -- ./inp_files/492332.got.cif
#   From: 2010.06.25/outbox.cif.g09.slc.cpg/sg2_247_cif.got.tgz:492332.got - 2010.06.27 13:26:56.
