data_PCOD8021257
_publ_section_title
;
Structure prediction by ZEFSAII (Michael W. Deem and Ramdas Pophale) SiO2 
 PCOD8021257
Probable space group: P -1
;
_chemical_formula_sum "Si O2"
_cell_formula_units_Z 16
_cell_length_a 8.808744
_cell_length_b 8.474734
_cell_length_c 20.052963
_cell_angle_alpha 126.394753
_cell_angle_beta 57.618396
_cell_angle_gamma 80.594892
_cell_volume 718.806737
_symmetry_space_group_name_H-M "P -1"
_symmetry_group_IT_number 2
_symmetry_cell_setting 'triclinic'
loop_
_space_group_symop_operation_xyz
x,y,z
-x,-y,-z
loop_
_atom_site_type_symbol
_atom_site_label
_atom_site_fract_x
_atom_site_fract_y
_atom_site_fract_z
Si Si1 0.876859 0.231516 0.373586
Si Si2 0.867250 0.787946 0.069442
Si Si3 0.398307 0.492364 0.852319
Si Si4 0.138262 0.173888 0.666043
Si Si5 0.498509 0.765172 0.368392
Si Si6 0.380952 0.659488 0.669790
Si Si7 0.552767 0.147781 0.861405
Si Si8 0.419240 0.278245 0.071698
O O1 0.676406 0.474772 0.534920
O O2 0.758993 0.353825 0.358894
O O3 0.914887 0.969733 0.309956
O O4 0.148278 0.132615 0.290352
O O5 0.627223 0.907673 0.110613
O O6 0.759999 0.026421 0.207412
O O7 0.000000 0.500000 0.000000
O O8 0.100848 0.706779 0.954043
O O9 0.564039 0.249622 0.696680
O O10 0.458868 0.360430 0.877931
O O11 0.467583 0.667088 0.884276
O O12 0.330024 0.172407 0.657486
O O13 0.882480 0.487944 0.792965
O O14 0.241567 0.017375 0.531327
O O15 0.636298 0.471207 0.295686
O O16 0.516475 0.271715 0.973921
O O17 0.500000 0.000000 0.000000
#
# Coordination Sequence:
#
# PCOD8021257 Si02
#       8
#     2   2   2   2   2   2   2   2
#     4  10  22  43  69  95 129 181 223 272 328 392
#     4  10  24  40  65  96 129 174 216 272 328 391
#     4  11  24  44  69  97 131 178 218 274 335 400
#     4  10  23  45  68  97 132 180 223 266 336 400
#     4  10  24  44  69  99 133 175 223 276 330 390
#     4  10  23  42  67  97 133 174 225 275 324 395
#     4  11  24  44  66  99 128 179 221 269 336 392
#     4  12  27  42  66 101 134 173 219 278 335 394
#
# _framework density 22.259112999999999
#
# number of rings (size 3 to 8) (size 9 to 14) (size 15 to 20)
#    0.000    1.500    1.250    1.875   12.250    1.500 
#    0.000    0.000    0.000    0.000    0.000    0.000 
#    0.000    0.000    0.000    0.000    0.000    0.000 
#
# Total GULP energy -198362.202264 kJ/mol
# GULP energy per Si atom -12397.637641 kJ/mol
# Density = 2.220845 g / cm^3
# Si number density = 22.259113 Si / 1000 Ang^3
#
#
#
# Elastic Constant Matrix: (Units=GPa)
#
#
# Indices 1 2 3 4 5 6 
#
# 1 71.9652 15.5992 30.0873 -17.3433 0.1212 -9.6225
# 2 15.5992 83.2986 39.2714 0.1946 12.4667 -6.4541
# 3 30.0873 39.2714 130.4801 3.9812 3.2238 -8.4918
# 4 -17.3433 0.1946 3.9812 34.2474 -0.7267 3.5724
# 5 0.1212 12.4667 3.2238 -0.7267 54.6482 0.3325
# 6 -9.6225 -6.4541 -8.4918 3.5724 0.3325 16.9050
#
#
#
# Elastic Compliance Matrix: (Units=1/GPa)
#
#
# Indices 1 2 3 4 5 6 
#
# 1 0.018897 -0.001347 -0.003841 0.009377 0.000578 0.006320
# 2 -0.001347 0.014786 -0.003833 -0.000718 -0.003173 0.003167
# 3 -0.003841 -0.003833 0.009930 -0.003284 0.000241 0.002027
# 4 0.009377 -0.000718 -0.003284 0.034763 0.000823 -0.003949
# 5 0.000578 -0.003173 0.000241 0.000823 0.019026 -0.001309
# 6 0.006320 0.003167 0.002027 -0.003949 -0.001309 0.065839
#
#
# Mechanical properties :
#
#
# Convention : Reuss Voigt Hill
#
# Bulk Modulus (GPa) = 39.10715 50.62886 44.86800
# Shear Modulus (GPa) = 26.34238 34.54585 30.44412
#
# Velocity S-wave (km/s) = 3.44385 3.94380 3.70227
# Velocity P-wave (km/s) = 5.78106 6.59793 6.20296
#
# Compressibility (1/GPa) = 0.02557077
#
# Stress axis : x y z
#
# Youngs Moduli (GPa) = 52.91736 67.62976 100.70792
#
# Poissons Ratio (x) = 0.09107 0.38685
# Poissons Ratio (y) = 0.07126 0.38605
# Poissons Ratio (z) = 0.20327 0.25925
#
# Static dielectric constant tensor:
#      x y z
#    x 4.419600 0.136700 -0.211170 
#    y 0.136700 3.784790 -0.107490 
#    z -0.211170 -0.107490 4.181150 
# 
# 
# High freq. dielectric constant tensor:
#      x y z
#    x 1.873530 0.006810 -0.003580 
#    y 0.006810 1.863500 -0.005390 
#    z -0.003580 -0.005390 1.886920 
# 
# From -- ./inp_files/244435.got.cif
#   From: 2010.06.25/outbox.cif.g09.slc.cpg/sg2_123_cif.got.tgz:244435.got - 2010.06.27 13:26:56.
