data_PCOD8021403
_publ_section_title
;
Structure prediction by ZEFSAII (Michael W. Deem and Ramdas Pophale) SiO2 
 PCOD8021403
Probable space group: P -1
;
_chemical_formula_sum "Si O2"
_cell_formula_units_Z 12
_cell_length_a 11.369238
_cell_length_b 9.269696
_cell_length_c 9.232396
_cell_angle_alpha 120.300182
_cell_angle_beta 118.839593
_cell_angle_gamma 39.085499
_cell_volume 522.242221
_symmetry_space_group_name_H-M "P -1"
_symmetry_group_IT_number 2
_symmetry_cell_setting 'triclinic'
loop_
_space_group_symop_operation_xyz
x,y,z
-x,-y,-z
loop_
_atom_site_type_symbol
_atom_site_label
_atom_site_fract_x
_atom_site_fract_y
_atom_site_fract_z
Si Si1 0.475988 0.409135 0.299586
Si Si2 0.766892 0.395807 0.135365
Si Si3 0.886417 0.948003 0.342531
Si Si4 0.073821 0.247660 0.434657
Si Si5 0.635109 0.216270 0.803658
Si Si6 0.122184 0.556603 0.072236
O O1 0.500000 0.500000 0.500000
O O2 0.402114 0.598016 0.230922
O O3 0.323839 0.388720 0.195903
O O4 0.679008 0.155727 0.260675
O O5 0.567173 0.662192 0.190738
O O6 0.900811 0.281811 0.298343
O O7 0.753363 0.209263 0.995563
O O8 0.855917 0.432319 0.080092
O O9 0.877570 0.818286 0.400678
O O10 0.999188 0.809335 0.195605
O O11 0.000000 0.000000 0.500000
O O12 0.000000 0.500000 0.500000
O O13 0.255958 0.034981 0.334420
O O14 0.000000 0.500000 0.000000
#
# Coordination Sequence:
#
# PCOD8021403 Si02
#       6
#     2   2   2   2   2   2
#     4  11  21  42  72 103 128 179 238 284 332 403
#     4  10  23  43  67  97 134 181 227 279 343 405
#     4  12  23  42  74 102 133 182 238 286 336 416
#     4  12  25  41  66 103 141 175 217 287 356 405
#     4  10  22  43  71  97 130 178 236 281 332 415
#     4  11  25  44  66 101 142 181 227 283 351 412
#
# _framework density 22.977843
#
# number of rings (size 3 to 8) (size 9 to 14) (size 15 to 20)
#    0.000    1.000    3.333    3.500    0.000    5.333 
#    0.000    3.333    0.000    0.000    0.000    0.000 
#    0.000    0.000    0.000    0.000    0.000    0.000 
#
# Total GULP energy -148671.937374 kJ/mol
# GULP energy per Si atom -12389.328115 kJ/mol
# Density = 2.292554 g / cm^3
# Si number density = 22.977843 Si / 1000 Ang^3
#
#
#
# Elastic Constant Matrix: (Units=GPa)
#
#
# Indices 1 2 3 4 5 6 
#
# 1 121.4965 41.1725 32.5416 12.8815 3.5572 -31.1251
# 2 41.1725 132.2032 35.3080 16.4299 1.6854 -29.6706
# 3 32.5416 35.3080 81.7348 0.2308 7.3787 -16.8070
# 4 12.8815 16.4299 0.2308 40.2654 -15.2331 3.3589
# 5 3.5572 1.6854 7.3787 -15.2331 42.7211 -0.7240
# 6 -31.1251 -29.6706 -16.8070 3.3589 -0.7240 41.4222
#
#
#
# Elastic Compliance Matrix: (Units=1/GPa)
#
#
# Indices 1 2 3 4 5 6 
#
# 1 0.011674 -0.000579 -0.002618 -0.004926 -0.002124 0.007658
# 2 -0.000579 0.010632 -0.002879 -0.005297 -0.001654 0.006413
# 3 -0.002618 -0.002879 0.015092 0.001055 -0.001865 0.001976
# 4 -0.004926 -0.005297 0.001055 0.034068 0.012422 -0.009613
# 5 -0.002124 -0.001654 -0.001865 0.012422 0.028332 -0.004050
# 6 0.007658 0.006413 0.001976 -0.009613 -0.004050 0.036000
#
#
# Mechanical properties :
#
#
# Convention : Reuss Voigt Hill
#
# Bulk Modulus (GPa) = 39.60836 61.49762 50.55299
# Shear Modulus (GPa) = 31.97618 39.97590 35.97604
#
# Velocity S-wave (km/s) = 3.73447 4.17557 3.96116
# Velocity P-wave (km/s) = 5.98917 7.07595 6.55512
#
# Compressibility (1/GPa) = 0.02524719
#
# Stress axis : x y z
#
# Youngs Moduli (GPa) = 85.65971 94.05434 66.25808
#
# Poissons Ratio (x) = 0.05443 0.17344
# Poissons Ratio (y) = 0.04957 0.19079
# Poissons Ratio (z) = 0.22422 0.27082
#
# Static dielectric constant tensor:
#      x y z
#    x 4.444090 -0.367660 -0.317170 
#    y -0.367660 4.203880 -0.015500 
#    z -0.317170 -0.015500 4.461740 
# 
# 
# High freq. dielectric constant tensor:
#      x y z
#    x 1.904480 -0.026660 -0.007230 
#    y -0.026660 1.898980 -0.008020 
#    z -0.007230 -0.008020 1.926360 
# 
# From -- ./inp_files/242395.got.cif
#   From: 2010.06.25/outbox.cif.g09.slc.cpg/sg2_122_cif.got.tgz:242395.got - 2010.06.27 13:26:56.
