data_PCOD8021477
_publ_section_title
;
Structure prediction by ZEFSAII (Michael W. Deem and Ramdas Pophale) SiO2 
 PCOD8021477
Probable space group: P -1
;
_chemical_formula_sum "Si O2"
_cell_formula_units_Z 14
_cell_length_a 14.669816
_cell_length_b 9.209887
_cell_length_c 9.300612
_cell_angle_alpha 58.378518
_cell_angle_beta 37.732889
_cell_angle_gamma 76.464032
_cell_volume 614.247409
_symmetry_space_group_name_H-M "P -1"
_symmetry_group_IT_number 2
_symmetry_cell_setting 'triclinic'
loop_
_space_group_symop_operation_xyz
x,y,z
-x,-y,-z
loop_
_atom_site_type_symbol
_atom_site_label
_atom_site_fract_x
_atom_site_fract_y
_atom_site_fract_z
Si Si1 0.186499 0.228469 0.220980
Si Si2 0.758907 0.170792 0.301387
Si Si3 0.987750 0.870998 0.793433
Si Si4 0.175913 0.579446 0.181603
Si Si5 0.177836 0.139967 0.733151
Si Si6 0.354126 0.539837 0.229020
Si Si7 0.484559 0.808455 0.185632
O O1 0.238202 0.425477 0.122026
O O2 0.064017 0.220585 0.248778
O O3 0.097275 0.082251 0.529261
O O4 0.342066 0.192002 0.990033
O O5 0.906173 0.226601 0.201965
O O6 0.614791 0.216494 0.529658
O O7 0.705686 0.955841 0.433556
O O8 0.809952 0.274493 0.034148
O O9 0.824821 0.850574 0.093890
O O10 0.289915 0.658672 0.136156
O O11 0.000000 0.500000 0.500000
O O12 0.216022 0.343143 0.522584
O O13 0.000000 0.000000 0.000000
O O14 0.396484 0.646112 0.270710
O O15 0.500000 0.500000 0.000000
O O16 0.500000 0.000000 0.000000
#
# Coordination Sequence:
#
# PCOD8021477 Si02
#       7
#     2   2   2   2   2   2   2
#     4  11  24  44  70 103 147 188 241 301 368 425
#     4  11  24  43  73 105 143 187 245 304 358 433
#     4  10  22  43  73  99 137 198 237 298 362 429
#     4  12  26  44  71 108 146 188 250 301 359 438
#     4  10  22  46  72 101 143 191 244 295 363 426
#     4  12  26  47  76 104 148 200 241 299 376 431
#     4  12  26  47  74 106 150 188 245 305 366 436
#
# _framework density 22.792117999999999
#
# number of rings (size 3 to 8) (size 9 to 14) (size 15 to 20)
#    0.000    0.857    2.857    5.143    4.000    3.429 
#    0.000    2.143    0.000    0.000    0.000    0.000 
#    0.000    0.000    0.000    0.000    0.000    0.000 
#
# Total GULP energy -173539.873473 kJ/mol
# GULP energy per Si atom -12395.705248 kJ/mol
# Density = 2.274024 g / cm^3
# Si number density = 22.792118 Si / 1000 Ang^3
#
#
#
# Elastic Constant Matrix: (Units=GPa)
#
#
# Indices 1 2 3 4 5 6 
#
# 1 113.1481 11.4721 45.3076 -8.8753 16.2070 -16.7975
# 2 11.4721 98.7574 34.4221 7.1609 3.1025 -3.4242
# 3 45.3076 34.4221 105.2738 8.5022 17.4582 -1.0836
# 4 -8.8753 7.1609 8.5022 48.1827 -1.9486 -6.2386
# 5 16.2070 3.1025 17.4582 -1.9486 35.7985 1.2464
# 6 -16.7975 -3.4242 -1.0836 -6.2386 1.2464 29.2640
#
#
#
# Elastic Compliance Matrix: (Units=1/GPa)
#
#
# Indices 1 2 3 4 5 6 
#
# 1 0.013035 0.000480 -0.005470 0.004246 -0.003336 0.008383
# 2 0.000480 0.011548 -0.004020 -0.000724 0.000658 0.001296
# 3 -0.005470 -0.004020 0.014098 -0.003539 -0.004115 -0.003668
# 4 0.004246 -0.000724 -0.003539 0.023228 0.000883 0.007135
# 5 -0.003336 0.000658 -0.004115 0.000883 0.031552 -0.003146
# 6 0.008383 0.001296 -0.003668 0.007135 -0.003146 0.040654
#
#
# Mechanical properties :
#
#
# Convention : Reuss Voigt Hill
#
# Bulk Modulus (GPa) = 48.39972 55.50920 51.95446
# Shear Modulus (GPa) = 31.44196 37.71420 34.57808
#
# Velocity S-wave (km/s) = 3.71820 4.07222 3.89923
# Velocity P-wave (km/s) = 6.30197 6.82041 6.56631
#
# Compressibility (1/GPa) = 0.02066127
#
# Stress axis : x y z
#
# Youngs Moduli (GPa) = 76.71572 86.59573 70.93037
#
# Poissons Ratio (x) = -0.04158 0.38802
# Poissons Ratio (y) = -0.03683 0.28512
# Poissons Ratio (z) = 0.41967 0.34810
#
# Static dielectric constant tensor:
#      x y z
#    x 4.557400 0.182720 0.351610 
#    y 0.182720 4.571060 0.392370 
#    z 0.351610 0.392370 4.422300 
# 
# 
# High freq. dielectric constant tensor:
#      x y z
#    x 1.898090 0.005800 0.014800 
#    y 0.005800 1.900940 0.014320 
#    z 0.014800 0.014320 1.904910 
# 
# From -- ./inp_files/207132.got.cif
#   From: 2010.06.25/outbox.cif.g09.slc.cpg/sg2_104_cif.got.tgz:207132.got - 2010.06.27 13:26:56.
