data_PCOD8021095
_publ_section_title
;
Structure prediction by ZEFSAII (Michael W. Deem and Ramdas Pophale) SiO2 
 PCOD8021095
Probable space group: P -1
;
_chemical_formula_sum "Si O2"
_cell_formula_units_Z 14
_cell_length_a 6.020467
_cell_length_b 6.425594
_cell_length_c 21.454148
_cell_angle_alpha 130.023052
_cell_angle_beta 110.182723
_cell_angle_gamma 78.220930
_cell_volume 596.360573
_symmetry_space_group_name_H-M "P -1"
_symmetry_group_IT_number 2
_symmetry_cell_setting 'triclinic'
loop_
_space_group_symop_operation_xyz
x,y,z
-x,-y,-z
loop_
_atom_site_type_symbol
_atom_site_label
_atom_site_fract_x
_atom_site_fract_y
_atom_site_fract_z
Si Si1 0.638164 0.230858 0.520354
Si Si2 0.028655 0.632733 0.676688
Si Si3 0.800710 0.175520 0.792735
Si Si4 0.248201 0.514394 0.905759
Si Si5 0.349807 0.866899 0.094097
Si Si6 0.762802 0.344925 0.427847
Si Si7 0.569126 0.422886 0.195547
O O1 0.703807 0.126048 0.435912
O O2 0.462039 0.473846 0.553143
O O3 0.885237 0.348700 0.596327
O O4 0.500000 0.000000 0.500000
O O5 0.193942 0.748314 0.657147
O O6 0.196938 0.570323 0.738652
O O7 0.840391 0.867070 0.716281
O O8 0.801887 0.195485 0.871373
O O9 0.557550 0.282630 0.758801
O O10 0.007557 0.380650 0.830454
O O11 0.395806 0.272893 0.904602
O O12 0.372209 0.651379 0.884352
O O13 0.206378 0.749439 0.997938
O O14 0.385795 0.190249 0.155650
O O15 0.000000 0.500000 0.500000
#
# Coordination Sequence:
#
# PCOD8021095 Si02
#       7
#     2   2   2   2   2   2   2
#     4  10  23  49  75 100 128 177 223 263 340 410
#     4  11  25  47  68  99 146 170 217 291 330 400
#     4  11  25  43  66 101 136 179 231 276 342 392
#     4  10  22  43  67  97 135 186 229 283 332 396
#     4  10  22  43  68  94 140 180 234 282 329 399
#     4   9  22  47  69  99 134 169 214 271 335 403
#     4  11  25  43  66 102 135 179 233 273 343 395
#
# _framework density 23.475729999999999
#
# number of rings (size 3 to 8) (size 9 to 14) (size 15 to 20)
#    0.000    1.714    1.429    0.857    4.000    2.857 
#   20.571    0.000    0.000    0.000    0.000    0.000 
#    0.000    0.000    0.000    0.000    0.000    0.000 
#
# Total GULP energy -173492.837463 kJ/mol
# GULP energy per Si atom -12392.345533 kJ/mol
# Density = 2.342230 g / cm^3
# Si number density = 23.475730 Si / 1000 Ang^3
#
#
#
# Elastic Constant Matrix: (Units=GPa)
#
#
# Indices 1 2 3 4 5 6 
#
# 1 80.1967 39.9993 29.9491 -3.6437 -14.6163 11.6515
# 2 39.9993 119.3756 52.0580 -12.0174 -5.8136 9.9746
# 3 29.9491 52.0580 100.6351 -9.2326 -10.0322 -1.6966
# 4 -3.6437 -12.0174 -9.2326 28.5214 6.9547 0.0766
# 5 -14.6163 -5.8136 -10.0322 6.9547 42.3132 1.9444
# 6 11.6515 9.9746 -1.6966 0.0766 1.9444 45.4365
#
#
#
# Elastic Compliance Matrix: (Units=1/GPa)
#
#
# Indices 1 2 3 4 5 6 
#
# 1 0.016899 -0.004136 -0.002596 -0.001657 0.005098 -0.003738
# 2 -0.004136 0.012381 -0.005031 0.003406 -0.001398 -0.001791
# 3 -0.002596 -0.005031 0.013627 0.001644 0.001270 0.002222
# 4 -0.001657 0.003406 0.001644 0.038281 -0.006004 -0.000069
# 5 0.005098 -0.001398 0.001270 -0.006004 0.026586 -0.002080
# 6 -0.003738 -0.001791 0.002222 -0.000069 -0.002080 0.023533
#
#
# Mechanical properties :
#
#
# Convention : Reuss Voigt Hill
#
# Bulk Modulus (GPa) = 51.59983 60.46891 56.03437
# Shear Modulus (GPa) = 30.99947 35.13426 33.06687
#
# Velocity S-wave (km/s) = 3.63780 3.87281 3.75714
# Velocity P-wave (km/s) = 6.29861 6.76847 6.53777
#
# Compressibility (1/GPa) = 0.01937991
#
# Stress axis : x y z
#
# Youngs Moduli (GPa) = 59.17575 80.76759 73.38420
#
# Poissons Ratio (x) = 0.33409 0.19052
# Poissons Ratio (y) = 0.24477 0.36919
# Poissons Ratio (z) = 0.15364 0.40633
#
# Static dielectric constant tensor:
#      x y z
#    x 4.411930 -0.014430 -0.216230 
#    y -0.014430 4.261020 -0.410070 
#    z -0.216230 -0.410070 4.278580 
# 
# 
# High freq. dielectric constant tensor:
#      x y z
#    x 1.942060 0.007410 -0.003730 
#    y 0.007410 1.924590 -0.016900 
#    z -0.003730 -0.016900 1.921990 
# 
# From -- ./inp_files/7568.got.cif
#   From: 2010.06.25/outbox.cif.g09.slc.cpg/sg2_4_cif.got.tgz:7568.got - 2010.06.27 13:26:56.
