data_PCOD8021713
_publ_section_title
;
Structure prediction by ZEFSAII (Michael W. Deem and Ramdas Pophale) SiO2 
 PCOD8021713
Probable space group: P -1
;
_chemical_formula_sum "Si O2"
_cell_formula_units_Z 16
_cell_length_a 7.946517
_cell_length_b 15.024948
_cell_length_c 7.022993
_cell_angle_alpha 71.719920
_cell_angle_beta 101.085708
_cell_angle_gamma 73.448148
_cell_volume 725.753306
_symmetry_space_group_name_H-M "P -1"
_symmetry_group_IT_number 2
_symmetry_cell_setting 'triclinic'
loop_
_space_group_symop_operation_xyz
x,y,z
-x,-y,-z
loop_
_atom_site_type_symbol
_atom_site_label
_atom_site_fract_x
_atom_site_fract_y
_atom_site_fract_z
Si Si1 0.199059 0.918024 0.304075
Si Si2 0.411405 0.716771 0.262697
Si Si3 0.796706 0.942317 0.118146
Si Si4 0.092894 0.380798 0.096347
Si Si5 0.559457 0.594307 0.720423
Si Si6 0.289246 0.235122 0.930879
Si Si7 0.727955 0.366111 0.046231
Si Si8 0.571232 0.062948 0.330501
O O1 0.300933 0.811044 0.302806
O O2 0.265332 0.916124 0.537172
O O3 0.983142 0.941821 0.252491
O O4 0.240672 0.002566 0.131915
O O5 0.475738 0.616470 0.475558
O O6 0.594129 0.726032 0.212717
O O7 0.276812 0.710817 0.068400
O O8 0.634425 0.003494 0.186251
O O9 0.805855 0.828849 0.167065
O O10 0.287829 0.352712 0.267043
O O11 0.134505 0.334386 0.923235
O O12 0.940377 0.339872 0.180044
O O13 0.000000 0.500000 0.000000
O O14 0.394099 0.645941 0.798579
O O15 0.647078 0.476377 0.860047
O O16 0.411724 0.168840 0.174211
O O17 0.500000 0.000000 0.500000
#
# Coordination Sequence:
#
# PCOD8021713 Si02
#       8
#     2   2   2   2   2   2   2   2
#     4  11  24  41  66  93 134 169 220 271 327 394
#     4  12  23  41  67  98 131 175 221 272 333 397
#     4  11  24  44  62  97 132 172 218 275 324 393
#     4  10  22  44  69  98 133 173 220 276 333 393
#     4  10  22  44  67  95 129 176 221 272 336 391
#     4  12  23  43  66  95 137 172 223 275 329 395
#     4  10  22  44  67  92 135 170 220 281 325 391
#     4  12  23  43  66  91 126 178 217 265 331 388
#
# _framework density 22.046061000000002
#
# number of rings (size 3 to 8) (size 9 to 14) (size 15 to 20)
#    0.000    1.000    3.750    3.375    0.000    0.000 
#    6.750    1.250    0.000    0.000    0.000    0.000 
#    0.000    0.000    0.000    0.000    0.000    0.000 
#
# Total GULP energy -198389.760569 kJ/mol
# GULP energy per Si atom -12399.360036 kJ/mol
# Density = 2.199588 g / cm^3
# Si number density = 22.046061 Si / 1000 Ang^3
#
#
#
# Elastic Constant Matrix: (Units=GPa)
#
#
# Indices 1 2 3 4 5 6 
#
# 1 118.6407 21.1989 36.3156 -0.2208 -7.7724 7.5956
# 2 21.1989 107.7789 19.7434 20.5987 -8.2977 -2.4959
# 3 36.3156 19.7434 96.0339 2.9316 -4.1889 9.2635
# 4 -0.2208 20.5987 2.9316 31.9702 6.1443 3.7070
# 5 -7.7724 -8.2977 -4.1889 6.1443 19.7583 7.1375
# 6 7.5956 -2.4959 9.2635 3.7070 7.1375 33.5037
#
#
#
# Elastic Compliance Matrix: (Units=1/GPa)
#
#
# Indices 1 2 3 4 5 6 
#
# 1 0.010001 -0.001357 -0.003168 0.000875 0.003244 -0.002280
# 2 -0.001357 0.012096 -0.001527 -0.009074 0.006600 0.001229
# 3 -0.003168 -0.001527 0.012323 -0.000169 0.001932 -0.003195
# 4 0.000875 -0.009074 -0.000169 0.040324 -0.015310 -0.002028
# 5 0.003244 0.006600 0.001932 -0.015310 0.064460 -0.012816
# 6 -0.002280 0.001229 -0.003195 -0.002028 -0.012816 0.034294
#
#
# Mechanical properties :
#
#
# Convention : Reuss Voigt Hill
#
# Bulk Modulus (GPa) = 44.81367 52.99659 48.90513
# Shear Modulus (GPa) = 25.90124 33.39281 29.64702
#
# Velocity S-wave (km/s) = 3.43136 3.89612 3.67110
# Velocity P-wave (km/s) = 6.00586 6.65814 6.34039
#
# Compressibility (1/GPa) = 0.02231462
#
# Stress axis : x y z
#
# Youngs Moduli (GPa) = 99.98753 82.67448 81.15115
#
# Poissons Ratio (x) = 0.11219 0.25711
# Poissons Ratio (y) = 0.13568 0.12394
# Poissons Ratio (z) = 0.31679 0.12626
#
# Static dielectric constant tensor:
#      x y z
#    x 4.422810 0.122870 0.127330 
#    y 0.122870 3.913860 0.206420 
#    z 0.127330 0.206420 3.832360 
# 
# 
# High freq. dielectric constant tensor:
#      x y z
#    x 1.884100 0.006690 0.002070 
#    y 0.006690 1.873830 0.013150 
#    z 0.002070 0.013150 1.849800 
# 
# From -- ./inp_files/38113.got.cif
#   From: 2010.06.25/outbox.cif.g09.slc.cpg/sg2_20_cif.got.tgz:38113.got - 2010.06.27 13:26:56.
