data_PCOD8021411
_publ_section_title
;
Structure prediction by ZEFSAII (Michael W. Deem and Ramdas Pophale) SiO2 
 PCOD8021411
Probable space group: P -1
;
_chemical_formula_sum "Si O2"
_cell_formula_units_Z 16
_cell_length_a 5.403743
_cell_length_b 14.890862
_cell_length_c 11.704207
_cell_angle_alpha 127.711498
_cell_angle_beta 90.864669
_cell_angle_gamma 69.575055
_cell_volume 672.753311
_symmetry_space_group_name_H-M "P -1"
_symmetry_group_IT_number 2
_symmetry_cell_setting 'triclinic'
loop_
_space_group_symop_operation_xyz
x,y,z
-x,-y,-z
loop_
_atom_site_type_symbol
_atom_site_label
_atom_site_fract_x
_atom_site_fract_y
_atom_site_fract_z
Si Si1 0.150681 0.544870 0.440278
Si Si2 0.041729 0.217383 0.976089
Si Si3 0.282912 0.764549 0.639711
Si Si4 0.503173 0.726122 0.844055
Si Si5 0.695775 0.665139 0.361778
Si Si6 0.604046 0.103793 0.593765
Si Si7 0.215335 0.535767 0.962336
Si Si8 0.018294 0.997903 0.690664
O O1 0.244708 0.640404 0.580568
O O2 0.379443 0.424202 0.286487
O O3 0.000000 0.500000 0.500000
O O4 0.978290 0.631793 0.402403
O O5 0.784155 0.226570 0.056148
O O6 0.935111 0.316917 0.949981
O O7 0.277901 0.233514 0.063027
O O8 0.165161 0.079422 0.810716
O O9 0.438137 0.791328 0.769022
O O10 0.464646 0.728716 0.501669
O O11 0.018745 0.894821 0.704662
O O12 0.645772 0.759570 0.327142
O O13 0.703600 0.536055 0.213928
O O14 0.716196 0.095592 0.718789
O O15 0.500000 0.000000 0.500000
O O16 0.835008 0.079449 0.481232
O O17 0.500000 0.500000 0.000000
O O18 0.000000 0.500000 0.000000
#
# Coordination Sequence:
#
# PCOD8021411 Si02
#       8
#     2   2   2   2   2   2   2   2
#     4  12  23  43  72 106 140 183 236 305 354 422
#     4  12  27  48  71 103 151 193 232 292 362 436
#     4  11  25  44  72 104 138 184 242 297 355 424
#     4  12  26  45  73 106 147 186 238 291 364 429
#     4  11  24  41  70 101 135 183 235 293 358 411
#     4  10  22  43  71  98 134 182 245 299 344 414
#     4  12  27  44  67 101 141 185 236 286 355 425
#     4  10  25  45  69 102 138 190 239 294 357 422
#
# _framework density 23.782864
#
# number of rings (size 3 to 8) (size 9 to 14) (size 15 to 20)
#    0.000    0.750    2.500    4.125    5.250    1.000 
#    0.000    0.000    0.000    0.000    0.000    0.000 
#    0.000    0.000    0.000    0.000    0.000    0.000 
#
# Total GULP energy -198269.846944 kJ/mol
# GULP energy per Si atom -12391.865434 kJ/mol
# Density = 2.372873 g / cm^3
# Si number density = 23.782864 Si / 1000 Ang^3
#
#
#
# Elastic Constant Matrix: (Units=GPa)
#
#
# Indices 1 2 3 4 5 6 
#
# 1 111.9366 32.3727 23.4269 -18.2733 25.0328 -13.4020
# 2 32.3727 150.1108 35.0448 3.8324 19.3323 -22.2334
# 3 23.4269 35.0448 87.3864 -6.1471 22.1167 -8.9380
# 4 -18.2733 3.8324 -6.1471 30.6975 0.8892 7.2897
# 5 25.0328 19.3323 22.1167 0.8892 41.5254 -3.2234
# 6 -13.4020 -22.2334 -8.9380 7.2897 -3.2234 41.0543
#
#
#
# Elastic Compliance Matrix: (Units=1/GPa)
#
#
# Indices 1 2 3 4 5 6 
#
# 1 0.012309 -0.001760 -0.000308 0.007395 -0.006505 0.001174
# 2 -0.001760 0.008448 -0.002456 -0.003509 -0.001179 0.003996
# 3 -0.000308 -0.002456 0.014401 0.003033 -0.006354 0.000667
# 4 0.007395 -0.003509 0.003033 0.039693 -0.005781 -0.006328
# 5 -0.006505 -0.001179 -0.006354 -0.005781 0.032013 -0.000605
# 6 0.001174 0.003996 0.000667 -0.006328 -0.000605 0.028127
#
#
# Mechanical properties :
#
#
# Convention : Reuss Voigt Hill
#
# Bulk Modulus (GPa) = 38.29786 59.01363 48.65575
# Shear Modulus (GPa) = 32.73501 39.89474 36.31488
#
# Velocity S-wave (km/s) = 3.71403 4.10012 3.91184
# Velocity P-wave (km/s) = 5.87623 6.87619 6.39578
#
# Compressibility (1/GPa) = 0.02611112
#
# Stress axis : x y z
#
# Youngs Moduli (GPa) = 81.23819 118.37201 69.44175
#
# Poissons Ratio (x) = 0.20833 0.02136
# Poissons Ratio (y) = 0.14298 0.17054
# Poissons Ratio (z) = 0.02499 0.29070
#
# Static dielectric constant tensor:
#      x y z
#    x 4.149040 -0.248820 0.201430 
#    y -0.248820 5.020680 -0.062600 
#    z 0.201430 -0.062600 4.499260 
# 
# 
# High freq. dielectric constant tensor:
#      x y z
#    x 1.928070 -0.016240 0.011180 
#    y -0.016240 1.963560 -0.001770 
#    z 0.011180 -0.001770 1.945790 
# 
# From -- ./inp_files/368063.got.cif
#   From: 2010.06.25/outbox.cif.g09.slc.cpg/sg2_185_cif.got.tgz:368063.got - 2010.06.27 13:26:56.
