data_PCOD8021197
_publ_section_title
;
Structure prediction by ZEFSAII (Michael W. Deem and Ramdas Pophale) SiO2 
 PCOD8021197
Probable space group: P -1
;
_chemical_formula_sum "Si O2"
_cell_formula_units_Z 14
_cell_length_a 30.666670
_cell_length_b 5.145392
_cell_length_c 12.012672
_cell_angle_alpha 117.021322
_cell_angle_beta 158.820141
_cell_angle_gamma 64.160585
_cell_volume 609.641077
_symmetry_space_group_name_H-M "P -1"
_symmetry_group_IT_number 2
_symmetry_cell_setting 'triclinic'
loop_
_space_group_symop_operation_xyz
x,y,z
-x,-y,-z
loop_
_atom_site_type_symbol
_atom_site_label
_atom_site_fract_x
_atom_site_fract_y
_atom_site_fract_z
Si Si1 0.057491 0.306072 0.695268
Si Si2 0.889972 0.721014 0.763207
Si Si3 0.386615 0.697947 0.304957
Si Si4 0.239701 0.178805 0.940321
Si Si5 0.487326 0.101943 0.809779
Si Si6 0.629615 0.646843 0.209140
Si Si7 0.038429 0.216731 0.295064
O O1 0.197949 0.249499 0.982855
O O2 0.000000 0.500000 0.500000
O O3 0.030028 0.472380 0.778114
O O4 0.000000 0.000000 0.500000
O O5 0.770696 0.593150 0.508710
O O6 0.875579 0.765183 0.604783
O O7 0.000000 0.500000 0.000000
O O8 0.924328 0.017547 0.963861
O O9 0.500000 0.500000 0.500000
O O10 0.417811 0.906090 0.520666
O O11 0.286114 0.475439 0.057097
O O12 0.336914 0.905226 0.125274
O O13 0.125593 0.089328 0.576069
O O14 0.389138 0.255403 0.688403
O O15 0.560062 0.347970 0.964732
O O16 0.582753 0.901914 0.065832
#
# Coordination Sequence:
#
# PCOD8021197 Si02
#       7
#     2   2   2   2   2   2   2
#     4  10  22  43  68  98 134 181 231 273 337 428
#     4  11  27  42  72 107 143 188 229 294 358 427
#     4  12  27  44  69 108 135 182 236 292 352 418
#     4  11  25  45  72  98 142 189 222 290 356 409
#     4  10  24  48  72 101 132 183 243 286 342 402
#     4  10  24  47  75  97 138 184 231 296 340 403
#     4  10  26  45  66 109 141 185 234 280 362 432
#
# _framework density 22.96433
#
# number of rings (size 3 to 8) (size 9 to 14) (size 15 to 20)
#    0.000    1.429    0.000    3.000   14.000    1.143 
#    0.000    0.000    0.000    0.000    0.000    0.000 
#    0.000    0.000    0.000    0.000    0.000    0.000 
#
# Total GULP energy -173581.277645 kJ/mol
# GULP energy per Si atom -12398.662689 kJ/mol
# Density = 2.291206 g / cm^3
# Si number density = 22.964330 Si / 1000 Ang^3
#
#
#
# Elastic Constant Matrix: (Units=GPa)
#
#
# Indices 1 2 3 4 5 6 
#
# 1 98.3357 44.3880 56.0378 9.8646 12.3639 -7.6917
# 2 44.3880 139.1116 30.7462 4.5855 -0.4347 1.0241
# 3 56.0378 30.7462 79.5519 -6.1486 10.4889 -10.2403
# 4 9.8646 4.5855 -6.1486 44.8145 0.1859 3.8071
# 5 12.3639 -0.4347 10.4889 0.1859 43.5568 5.4765
# 6 -7.6917 1.0241 -10.2403 3.8071 5.4765 36.3579
#
#
#
# Elastic Compliance Matrix: (Units=1/GPa)
#
#
# Indices 1 2 3 4 5 6 
#
# 1 0.019997 -0.003422 -0.012607 -0.005925 -0.002880 0.001830
# 2 -0.003422 0.008598 -0.001336 -0.000184 0.001576 -0.001560
# 3 -0.012607 -0.001336 0.023220 0.005795 -0.002514 0.003683
# 4 -0.005925 -0.000184 0.005795 0.024623 0.000464 -0.002264
# 5 -0.002880 0.001576 -0.002514 0.000464 0.025047 -0.005183
# 6 0.001830 -0.001560 0.003683 -0.002264 -0.005183 0.029991
#
#
# Mechanical properties :
#
#
# Convention : Reuss Voigt Hill
#
# Bulk Modulus (GPa) = 58.52104 64.37147 61.44626
# Shear Modulus (GPa) = 29.08669 37.33434 33.21051
#
# Velocity S-wave (km/s) = 3.56280 4.03644 3.80699
# Velocity P-wave (km/s) = 6.51640 7.05802 6.79261
#
# Compressibility (1/GPa) = 0.01708787
#
# Stress axis : x y z
#
# Youngs Moduli (GPa) = 50.00626 116.30725 43.06542
#
# Poissons Ratio (x) = 0.39797 0.54292
# Poissons Ratio (y) = 0.17111 0.05752
# Poissons Ratio (z) = 0.63042 0.15533
#
# Static dielectric constant tensor:
#      x y z
#    x 4.998080 0.133980 0.093510 
#    y 0.133980 5.447910 0.115360 
#    z 0.093510 0.115360 3.963760 
# 
# 
# High freq. dielectric constant tensor:
#      x y z
#    x 1.914240 -0.000740 0.007350 
#    y -0.000740 1.926710 0.000610 
#    z 0.007350 0.000610 1.896160 
# 
# From -- ./inp_files/363121.got.cif
#   From: 2010.06.25/outbox.cif.g09.slc.cpg/sg2_182_cif.got.tgz:363121.got - 2010.06.27 13:26:56.
