data_PCOD8021202
_publ_section_title
;
Structure prediction by ZEFSAII (Michael W. Deem and Ramdas Pophale) SiO2 
 PCOD8021202
Probable space group: P -1
;
_chemical_formula_sum "Si O2"
_cell_formula_units_Z 16
_cell_length_a 12.455952
_cell_length_b 24.024807
_cell_length_c 12.534201
_cell_angle_alpha 31.674228
_cell_angle_beta 146.217242
_cell_angle_gamma 161.546725
_cell_volume 616.963815
_symmetry_space_group_name_H-M "P -1"
_symmetry_group_IT_number 2
_symmetry_cell_setting 'triclinic'
loop_
_space_group_symop_operation_xyz
x,y,z
-x,-y,-z
loop_
_atom_site_type_symbol
_atom_site_label
_atom_site_fract_x
_atom_site_fract_y
_atom_site_fract_z
Si Si1 0.390233 0.707670 0.447249
Si Si2 0.341734 0.119713 0.388663
Si Si3 0.767476 0.291057 0.255096
Si Si4 0.209602 0.322520 0.478763
Si Si5 0.460584 0.735464 0.105434
Si Si6 0.178857 0.283227 0.292868
Si Si7 0.101213 0.347777 0.913185
Si Si8 0.760057 0.004694 0.087094
O O1 0.446108 0.745534 0.555568
O O2 0.490994 0.632740 0.618112
O O3 0.629057 0.895090 0.269474
O O4 0.992071 0.569153 0.320916
O O5 0.580087 0.187377 0.380356
O O6 0.104421 0.916333 0.559403
O O7 0.127750 0.123423 0.166707
O O8 0.861853 0.217752 0.405296
O O9 0.093309 0.514238 0.185029
O O10 0.518423 0.229501 0.060097
O O11 0.500000 0.500000 0.500000
O O12 0.227381 0.202205 0.703025
O O13 0.301162 0.404884 0.298871
O O14 0.502868 0.860413 0.011416
O O15 0.985933 0.266056 0.072275
O O16 0.500000 0.500000 0.000000
O O17 0.858098 0.172672 0.914890
#
# Coordination Sequence:
#
# PCOD8021202 Si02
#       8
#     2   2   2   2   2   2   2   2
#     4  11  23  46  76  99 142 189 224 290 371 416
#     4  11  22  45  72 104 143 184 233 293 349 432
#     4  10  25  43  68 109 140 189 243 287 354 411
#     4  10  22  43  68  98 137 188 239 286 346 418
#     4  10  22  47  70  97 145 193 229 299 349 417
#     4  11  23  47  71  99 149 184 230 297 355 424
#     4  12  28  45  70 113 138 182 243 293 356 434
#     4  11  22  47  72 103 143 189 232 288 362 422
#
# _framework density 25.933447000000001
#
# number of rings (size 3 to 8) (size 9 to 14) (size 15 to 20)
#    0.000    1.250    5.000    1.125    1.750    4.500 
#    6.750    0.000    0.000    0.000    0.000    0.000 
#    0.000    0.000    0.000    0.000    0.000    0.000 
#
# Total GULP energy -198266.051504 kJ/mol
# GULP energy per Si atom -12391.628219 kJ/mol
# Density = 2.587442 g / cm^3
# Si number density = 25.933447 Si / 1000 Ang^3
#
#
#
# Elastic Constant Matrix: (Units=GPa)
#
#
# Indices 1 2 3 4 5 6 
#
# 1 200.2438 54.8370 61.7971 22.9824 -25.1854 -2.7874
# 2 54.8370 89.7017 32.1229 13.1543 -6.6051 -12.5860
# 3 61.7971 32.1229 106.6873 18.1042 -6.3340 -16.8661
# 4 22.9824 13.1543 18.1042 23.7247 -3.3805 -0.6149
# 5 -25.1854 -6.6051 -6.3340 -3.3805 41.6287 3.9671
# 6 -2.7874 -12.5860 -16.8661 -0.6149 3.9671 53.6145
#
#
#
# Elastic Compliance Matrix: (Units=1/GPa)
#
#
# Indices 1 2 3 4 5 6 
#
# 1 0.007497 -0.003061 -0.002978 -0.002832 0.003515 -0.001558
# 2 -0.003061 0.014492 -0.001517 -0.003893 -0.000361 0.002748
# 3 -0.002978 -0.001517 0.013150 -0.006344 -0.000901 0.003620
# 4 -0.002832 -0.003893 -0.006344 0.051993 0.001169 -0.002547
# 5 0.003515 -0.000361 -0.000901 0.001169 0.026250 -0.002115
# 6 -0.001558 0.002748 0.003620 -0.002547 -0.002115 0.020482
#
#
# Mechanical properties :
#
#
# Convention : Reuss Voigt Hill
#
# Bulk Modulus (GPa) = 49.93113 77.12742 63.52927
# Shear Modulus (GPa) = 32.12304 40.31864 36.22084
#
# Velocity S-wave (km/s) = 3.52330 3.94724 3.74128
# Velocity P-wave (km/s) = 5.98722 7.11192 6.57367
#
# Compressibility (1/GPa) = 0.02002759
#
# Stress axis : x y z
#
# Youngs Moduli (GPa) = 133.39420 69.00179 76.04596
#
# Poissons Ratio (x) = 0.21121 0.22644
# Poissons Ratio (y) = 0.40832 0.11536
# Poissons Ratio (z) = 0.39721 0.10467
#
# Static dielectric constant tensor:
#      x y z
#    x 7.766010 -0.235400 0.783980 
#    y -0.235400 4.694560 0.300670 
#    z 0.783980 0.300670 6.035590 
# 
# 
# High freq. dielectric constant tensor:
#      x y z
#    x 2.052780 -0.005410 -0.000770 
#    y -0.005410 2.039490 0.013680 
#    z -0.000770 0.013680 2.041180 
# 
# From -- ./inp_files/439246.got.cif
#   From: 2010.06.25/outbox.cif.g09.slc.cpg/sg2_220_cif.got.tgz:439246.got - 2010.06.27 13:26:56.
