data_PCOD8021034
_publ_section_title
;
Structure prediction by ZEFSAII (Michael W. Deem and Ramdas Pophale) SiO2 
 PCOD8021034
Probable space group: P -1
;
_chemical_formula_sum "Si O2"
_cell_formula_units_Z 14
_cell_length_a 24.997494
_cell_length_b 18.958100
_cell_length_c 9.148666
_cell_angle_alpha 27.095016
_cell_angle_beta 36.659967
_cell_angle_gamma 19.532544
_cell_volume 640.636380
_symmetry_space_group_name_H-M "P -1"
_symmetry_group_IT_number 2
_symmetry_cell_setting 'triclinic'
loop_
_space_group_symop_operation_xyz
x,y,z
-x,-y,-z
loop_
_atom_site_type_symbol
_atom_site_label
_atom_site_fract_x
_atom_site_fract_y
_atom_site_fract_z
Si Si1 0.319821 0.875148 0.568953
Si Si2 0.164525 0.657294 0.251615
Si Si3 0.191189 0.764919 0.531098
Si Si4 0.416674 0.290786 0.124363
Si Si5 0.653085 0.468078 0.681192
Si Si6 0.722704 0.054474 0.814912
Si Si7 0.019811 0.541174 0.723035
O O1 0.468657 0.775698 0.465473
O O2 0.291636 0.910771 0.392224
O O3 0.356412 0.648796 0.957683
O O4 0.165011 0.159994 0.478513
O O5 0.296086 0.522267 0.091502
O O6 0.257431 0.516809 0.464517
O O7 0.120605 0.551508 0.494188
O O8 0.000000 0.000000 0.000000
O O9 0.244522 0.735857 0.306329
O O10 0.231130 0.849452 0.394137
O O11 0.301986 0.461788 0.912708
O O12 0.000000 0.000000 0.500000
O O13 0.500000 0.000000 0.500000
O O14 0.557127 0.220161 0.938384
O O15 0.878943 0.716857 0.131035
O O16 0.000000 0.500000 0.000000
#
# Coordination Sequence:
#
# PCOD8021034 Si02
#       7
#     2   2   2   2   2   2   2
#     4  10  22  43  67 101 136 184 236 283 352 427
#     4  12  24  44  75 101 143 190 239 288 356 436
#     4  12  28  45  74 106 144 185 243 301 362 423
#     4  12  26  49  74 107 145 191 240 294 363 431
#     4  11  24  40  70 105 135 180 240 289 349 422
#     4  11  24  49  71 100 142 195 234 293 361 431
#     4  10  23  42  70  98 135 189 238 283 350 423
#
# _framework density 21.853269000000001
#
# number of rings (size 3 to 8) (size 9 to 14) (size 15 to 20)
#    0.000    0.857    4.286    2.143   10.000    0.000 
#    2.571    5.000    0.000    0.000    0.000    0.000 
#    0.000    0.000    0.000    0.000    0.000    0.000 
#
# Total GULP energy -173481.836162 kJ/mol
# GULP energy per Si atom -12391.559726 kJ/mol
# Density = 2.180353 g / cm^3
# Si number density = 21.853269 Si / 1000 Ang^3
#
#
#
# Elastic Constant Matrix: (Units=GPa)
#
#
# Indices 1 2 3 4 5 6 
#
# 1 115.0689 72.3888 41.1922 -10.6623 12.4600 -15.4073
# 2 72.3888 185.8693 41.7854 -9.7428 3.1258 -16.2349
# 3 41.1922 41.7854 86.0510 -1.9471 -5.4302 -5.9684
# 4 -10.6623 -9.7428 -1.9471 29.0452 4.2076 5.9681
# 5 12.4600 3.1258 -5.4302 4.2076 20.4161 -1.3095
# 6 -15.4073 -16.2349 -5.9684 5.9681 -1.3095 45.0064
#
#
#
# Elastic Compliance Matrix: (Units=1/GPa)
#
#
# Indices 1 2 3 4 5 6 
#
# 1 0.015223 -0.003999 -0.005795 0.005059 -0.011134 0.002006
# 2 -0.003999 0.007389 -0.001535 0.000571 0.000850 0.001042
# 3 -0.005795 -0.001535 0.015625 -0.002863 0.008528 0.000162
# 4 0.005059 0.000571 -0.002863 0.038865 -0.012200 -0.003951
# 5 -0.011134 0.000850 0.008528 -0.012200 0.060493 0.001004
# 6 0.002006 0.001042 0.000162 -0.003951 0.001004 0.023856
#
#
# Mechanical properties :
#
#
# Convention : Reuss Voigt Hill
#
# Bulk Modulus (GPa) = 64.18219 77.52467 70.85343
# Shear Modulus (GPa) = 26.41288 34.33506 30.37397
#
# Velocity S-wave (km/s) = 3.48033 3.96809 3.73219
# Velocity P-wave (km/s) = 6.75157 7.51974 7.14598
#
# Compressibility (1/GPa) = 0.01558065
#
# Stress axis : x y z
#
# Youngs Moduli (GPa) = 65.68910 135.33348 64.00002
#
# Poissons Ratio (x) = 0.54113 0.37086
# Poissons Ratio (y) = 0.26266 0.09825
# Poissons Ratio (z) = 0.38065 0.20776
#
# Static dielectric constant tensor:
#      x y z
#    x 4.027390 -0.310340 0.259120 
#    y -0.310340 4.704740 -0.443720 
#    z 0.259120 -0.443720 4.361910 
# 
# 
# High freq. dielectric constant tensor:
#      x y z
#    x 1.844130 -0.011300 0.007570 
#    y -0.011300 1.891830 -0.001170 
#    z 0.007570 -0.001170 1.852790 
# 
# From -- ./inp_files/185294.got.cif
#   From: 2010.06.25/outbox.cif.g09.slc.cpg/sg2_93_cif.got.tgz:185294.got - 2010.06.27 13:26:56.
