data_PCOD8021152
_publ_section_title
;
Structure prediction by ZEFSAII (Michael W. Deem and Ramdas Pophale) SiO2 
 PCOD8021152
Probable space group: P -1
;
_chemical_formula_sum "Si O2"
_cell_formula_units_Z 14
_cell_length_a 9.017668
_cell_length_b 9.317455
_cell_length_c 8.533852
_cell_angle_alpha 84.765423
_cell_angle_beta 91.733043
_cell_angle_gamma 58.340641
_cell_volume 605.190645
_symmetry_space_group_name_H-M "P -1"
_symmetry_group_IT_number 2
_symmetry_cell_setting 'triclinic'
loop_
_space_group_symop_operation_xyz
x,y,z
-x,-y,-z
loop_
_atom_site_type_symbol
_atom_site_label
_atom_site_fract_x
_atom_site_fract_y
_atom_site_fract_z
Si Si1 0.140780 0.416195 0.647995
Si Si2 0.935140 0.822657 0.148607
Si Si3 0.119334 0.948167 0.357725
Si Si4 0.557909 0.386380 0.166042
Si Si5 0.578608 0.116347 0.012385
Si Si6 0.938165 0.288489 0.165042
Si Si7 0.483082 0.680086 0.326281
O O1 0.150596 0.249292 0.730223
O O2 0.078962 0.546746 0.776011
O O3 0.330112 0.367837 0.591149
O O4 0.000000 0.500000 0.500000
O O5 0.071972 0.849482 0.242405
O O6 0.037503 0.696196 0.020590
O O7 0.785904 0.000181 0.053212
O O8 0.323731 0.810637 0.421885
O O9 0.000000 0.000000 0.500000
O O10 0.100284 0.116291 0.263557
O O11 0.767634 0.281341 0.195827
O O12 0.479871 0.507152 0.307096
O O13 0.500000 0.500000 0.000000
O O14 0.502737 0.246226 0.148998
O O15 0.536641 0.228575 0.847283
O O16 0.500000 0.000000 0.000000
#
# Coordination Sequence:
#
# PCOD8021152 Si02
#       7
#     2   2   2   2   2   2   2
#     4  11  25  46  67 101 145 179 219 283 351 412
#     4  12  22  41  71 101 134 174 232 284 335 399
#     4  12  25  44  68 101 136 181 229 282 345 407
#     4   9  19  36  62  96 133 169 216 282 332 392
#     4  11  19  36  67 107 132 165 231 289 331 393
#     4  11  22  42  69  96 133 177 231 278 333 403
#     4  10  22  43  68  93 138 181 226 275 340 411
#
# _framework density 23.133206000000001
#
# number of rings (size 3 to 8) (size 9 to 14) (size 15 to 20)
#    0.000    1.143    4.286    3.429    0.000    0.000 
#    2.571   12.143    0.000    0.000    0.000    0.000 
#    0.000    0.000    0.000    0.000    0.000    0.000 
#
# Total GULP energy -173539.654103 kJ/mol
# GULP energy per Si atom -12395.689579 kJ/mol
# Density = 2.308055 g / cm^3
# Si number density = 23.133206 Si / 1000 Ang^3
#
#
#
# Elastic Constant Matrix: (Units=GPa)
#
#
# Indices 1 2 3 4 5 6 
#
# 1 98.9695 48.2893 24.6216 6.1961 13.5521 -15.8986
# 2 48.2893 99.3146 3.6792 4.4777 5.8306 -11.0022
# 3 24.6216 3.6792 60.8488 8.9624 7.0332 -17.7637
# 4 6.1961 4.4777 8.9624 29.7144 -6.1554 -6.3996
# 5 13.5521 5.8306 7.0332 -6.1554 35.2225 -1.8608
# 6 -15.8986 -11.0022 -17.7637 -6.3996 -1.8608 50.2108
#
#
#
# Elastic Compliance Matrix: (Units=1/GPa)
#
#
# Indices 1 2 3 4 5 6 
#
# 1 0.015534 -0.006927 -0.004809 -0.001279 -0.004020 0.001387
# 2 -0.006927 0.013575 0.002625 -0.001101 -0.000216 0.001562
# 3 -0.004809 0.002625 0.021049 -0.005216 -0.003397 0.005709
# 4 -0.001279 -0.001101 -0.005216 0.037994 0.008496 0.002666
# 5 -0.004020 -0.000216 -0.003397 0.008496 0.032123 -0.000249
# 6 0.001387 0.001562 0.005709 0.002666 -0.000249 0.023048
#
#
# Mechanical properties :
#
#
# Convention : Reuss Voigt Hill
#
# Bulk Modulus (GPa) = 31.31222 45.81257 38.56240
# Shear Modulus (GPa) = 29.03772 35.19906 32.11839
#
# Velocity S-wave (km/s) = 3.54678 3.90498 3.73018
# Velocity P-wave (km/s) = 5.50798 6.33866 5.93786
#
# Compressibility (1/GPa) = 0.03193641
#
# Stress axis : x y z
#
# Youngs Moduli (GPa) = 64.37537 73.66269 47.50896
#
# Poissons Ratio (x) = 0.51030 0.22845
# Poissons Ratio (y) = 0.44596 -0.12473
# Poissons Ratio (z) = 0.30956 -0.19339
#
# Static dielectric constant tensor:
#      x y z
#    x 4.342340 -0.012760 0.247870 
#    y -0.012760 4.832210 -0.019970 
#    z 0.247870 -0.019970 5.024200 
# 
# 
# High freq. dielectric constant tensor:
#      x y z
#    x 1.897100 -0.004450 0.021080 
#    y -0.004450 1.938750 -0.002380 
#    z 0.021080 -0.002380 1.897630 
# 
# From -- ./inp_files/158066.got.cif
#   From: 2010.06.25/outbox.cif.g09.slc.cpg/sg2_80_cif.got.tgz:158066.got - 2010.06.27 13:26:56.
