data_PCOD8021179
_publ_section_title
;
Structure prediction by ZEFSAII (Michael W. Deem and Ramdas Pophale) SiO2 
 PCOD8021179
Probable space group: P -1
;
_chemical_formula_sum "Si O2"
_cell_formula_units_Z 16
_cell_length_a 15.492772
_cell_length_b 12.162431
_cell_length_c 8.892976
_cell_angle_alpha 49.222048
_cell_angle_beta 43.656260
_cell_angle_gamma 36.291806
_cell_volume 674.582562
_symmetry_space_group_name_H-M "P -1"
_symmetry_group_IT_number 2
_symmetry_cell_setting 'triclinic'
loop_
_space_group_symop_operation_xyz
x,y,z
-x,-y,-z
loop_
_atom_site_type_symbol
_atom_site_label
_atom_site_fract_x
_atom_site_fract_y
_atom_site_fract_z
Si Si1 0.520107 0.153328 0.371993
Si Si2 0.865479 0.694998 0.581426
Si Si3 0.439508 0.326112 0.632109
Si Si4 0.377255 0.692023 0.313564
Si Si5 0.193620 0.026312 0.049353
Si Si6 0.678725 0.572313 0.858025
Si Si7 0.998158 0.835461 0.107567
Si Si8 0.156409 0.319745 0.041505
O O1 0.527714 0.178984 0.515964
O O2 0.367938 0.363169 0.314885
O O3 0.500000 0.000000 0.500000
O O4 0.678926 0.090271 0.141699
O O5 0.702086 0.719123 0.762768
O O6 0.853401 0.855350 0.360541
O O7 0.903041 0.698251 0.706345
O O8 0.000000 0.500000 0.500000
O O9 0.350329 0.542436 0.508853
O O10 0.586808 0.246696 0.632882
O O11 0.297853 0.332773 0.875778
O O12 0.534927 0.595325 0.099117
O O13 0.215640 0.873977 0.271905
O O14 0.022728 0.160465 0.052726
O O15 0.226424 0.144240 0.000866
O O16 0.835406 0.356689 0.872553
O O17 0.000000 0.000000 0.000000
O O18 0.000000 0.500000 0.000000
#
# Coordination Sequence:
#
# PCOD8021179 Si02
#       8
#     2   2   2   2   2   2   2   2
#     4  11  23  41  74 104 138 183 248 295 355 431
#     4  10  22  43  68  96 136 186 234 285 353 422
#     4  11  25  45  74 103 146 189 240 298 371 420
#     4  10  25  47  71 105 144 192 240 300 366 428
#     4  11  26  45  67 108 139 186 246 294 362 434
#     4  10  22  43  70  99 141 187 235 295 353 430
#     4  11  26  44  69 104 143 187 242 296 362 426
#     4  12  25  44  73 105 147 191 238 298 362 430
#
# _framework density 23.718371999999999
#
# number of rings (size 3 to 8) (size 9 to 14) (size 15 to 20)
#    0.000    1.250    2.500    2.250    7.000    3.500 
#    2.250    1.250    0.000    0.000    0.000    0.000 
#    0.000    0.000    0.000    0.000    0.000    0.000 
#
# Total GULP energy -198310.013747 kJ/mol
# GULP energy per Si atom -12394.375859 kJ/mol
# Density = 2.366439 g / cm^3
# Si number density = 23.718372 Si / 1000 Ang^3
#
#
#
# Elastic Constant Matrix: (Units=GPa)
#
#
# Indices 1 2 3 4 5 6 
#
# 1 101.2925 39.5010 48.6059 -10.7470 24.1907 21.7864
# 2 39.5010 94.2146 42.5821 -16.8048 15.7826 3.1110
# 3 48.6059 42.5821 112.2537 -23.4044 19.9396 16.3475
# 4 -10.7470 -16.8048 -23.4044 42.3591 3.2074 6.8344
# 5 24.1907 15.7826 19.9396 3.2074 50.1715 -8.3548
# 6 21.7864 3.1110 16.3475 6.8344 -8.3548 40.4815
#
#
#
# Elastic Compliance Matrix: (Units=1/GPa)
#
#
# Indices 1 2 3 4 5 6 
#
# 1 0.016916 -0.003726 -0.002173 0.003880 -0.008078 -0.010262
# 2 -0.003726 0.014307 -0.003182 0.002848 -0.001384 0.001424
# 3 -0.002173 -0.003182 0.014665 0.007823 -0.005438 -0.006951
# 4 0.003880 0.002848 0.007823 0.032932 -0.010167 -0.013124
# 5 -0.008078 -0.001384 -0.005438 -0.010167 0.029479 0.014450
# 6 -0.010262 0.001424 -0.006951 -0.013124 0.014450 0.038121
#
#
# Mechanical properties :
#
#
# Convention : Reuss Voigt Hill
#
# Bulk Modulus (GPa) = 36.06518 63.23766 49.65142
# Shear Modulus (GPa) = 28.76465 38.40720 33.58593
#
# Velocity S-wave (km/s) = 3.48625 4.02842 3.76710
# Velocity P-wave (km/s) = 5.60748 6.95394 6.31669
#
# Compressibility (1/GPa) = 0.02772758
#
# Stress axis : x y z
#
# Youngs Moduli (GPa) = 59.11472 69.89524 68.18803
#
# Poissons Ratio (x) = 0.26044 0.14816
# Poissons Ratio (y) = 0.22027 0.21694
# Poissons Ratio (z) = 0.12845 0.22237
#
# Static dielectric constant tensor:
#      x y z
#    x 4.624480 -0.129760 0.188200 
#    y -0.129760 4.270090 -0.241810 
#    z 0.188200 -0.241810 4.961190 
# 
# 
# High freq. dielectric constant tensor:
#      x y z
#    x 1.946560 -0.003350 0.015160 
#    y -0.003350 1.928380 -0.018260 
#    z 0.015160 -0.018260 1.947320 
# 
# From -- ./inp_files/306437.got.cif
#   From: 2010.06.25/outbox.cif.g09.slc.cpg/sg2_154_cif.got.tgz:306437.got - 2010.06.27 13:26:56.
