data_PCOD8021312
_publ_section_title
;
Structure prediction by ZEFSAII (Michael W. Deem and Ramdas Pophale) SiO2 
 PCOD8021312
Probable space group: P -1
;
_chemical_formula_sum "Si O2"
_cell_formula_units_Z 16
_cell_length_a 15.083261
_cell_length_b 13.836997
_cell_length_c 5.959278
_cell_angle_alpha 90.028170
_cell_angle_beta 108.126438
_cell_angle_gamma 37.699680
_cell_volume 655.075206
_symmetry_space_group_name_H-M "P -1"
_symmetry_group_IT_number 2
_symmetry_cell_setting 'triclinic'
loop_
_space_group_symop_operation_xyz
x,y,z
-x,-y,-z
loop_
_atom_site_type_symbol
_atom_site_label
_atom_site_fract_x
_atom_site_fract_y
_atom_site_fract_z
Si Si1 0.605255 0.048160 0.142973
Si Si2 0.328236 0.429864 0.029183
Si Si3 0.411080 0.642552 0.612183
Si Si4 0.414203 0.128529 0.630713
Si Si5 0.049729 0.500287 0.288885
Si Si6 0.025637 0.717375 0.106631
Si Si7 0.834557 0.293746 0.403538
Si Si8 0.840096 0.977949 0.594338
O O1 0.433579 0.240164 0.117580
O O2 0.645601 0.904784 0.248859
O O3 0.756999 0.990970 0.318286
O O4 0.554855 0.081562 0.841202
O O5 0.442717 0.425233 0.154073
O O6 0.184770 0.538937 0.097993
O O7 0.239116 0.536860 0.724359
O O8 0.500000 0.500000 0.500000
O O9 0.308905 0.664397 0.707636
O O10 0.277226 0.834910 0.405890
O O11 0.251364 0.330038 0.438582
O O12 0.500000 0.000000 0.500000
O O13 0.969179 0.677972 0.225088
O O14 0.000000 0.500000 0.500000
O O15 0.000000 0.500000 0.000000
O O16 0.083028 0.763188 0.287119
O O17 0.869803 0.879007 0.823601
O O18 0.980016 0.134843 0.343913
#
# Coordination Sequence:
#
# PCOD8021312 Si02
#       8
#     2   2   2   2   2   2   2   2
#     4  10  23  43  68  98 141 182 241 298 360 426
#     4  10  22  43  70 102 138 188 241 296 361 441
#     4  11  22  46  67 104 140 185 233 294 366 436
#     4  11  25  44  72 102 141 188 245 303 361 434
#     4  12  30  47  76 109 152 195 248 309 375 443
#     4  11  24  44  71 102 138 191 244 300 364 438
#     4  11  23  42  70  99 140 184 240 300 361 433
#     4  10  25  44  69 101 141 186 240 296 362 435
#
# _framework density 24.424676000000002
#
# number of rings (size 3 to 8) (size 9 to 14) (size 15 to 20)
#    0.000    1.250    1.250    3.000   10.500    1.500 
#    6.750    0.000    0.000    0.000    0.000    0.000 
#    0.000    0.000    0.000    0.000    0.000    0.000 
#
# Total GULP energy -198209.844018 kJ/mol
# GULP energy per Si atom -12388.115251 kJ/mol
# Density = 2.436908 g / cm^3
# Si number density = 24.424676 Si / 1000 Ang^3
#
#
#
# Elastic Constant Matrix: (Units=GPa)
#
#
# Indices 1 2 3 4 5 6 
#
# 1 102.6335 23.3331 32.4199 -7.1032 -8.8473 2.8675
# 2 23.3331 110.7490 30.3998 -13.4247 -10.4475 14.1621
# 3 32.4199 30.3998 126.2523 -0.6627 -5.6427 5.5561
# 4 -7.1032 -13.4247 -0.6627 41.9518 6.8878 0.0758
# 5 -8.8473 -10.4475 -5.6427 6.8878 32.8931 1.6977
# 6 2.8675 14.1621 5.5561 0.0758 1.6977 36.8833
#
#
#
# Elastic Compliance Matrix: (Units=1/GPa)
#
#
# Indices 1 2 3 4 5 6 
#
# 1 0.011056 -0.001344 -0.002421 0.001091 0.001907 -0.000069
# 2 -0.001344 0.010929 -0.001994 0.002856 0.002371 -0.003907
# 3 -0.002421 -0.001994 0.009059 -0.000986 0.000498 -0.000432
# 4 0.001091 0.002856 -0.000986 0.025626 -0.004289 -0.000888
# 5 0.001907 0.002371 0.000498 -0.004289 0.032787 -0.002634
# 6 -0.000069 -0.003907 -0.000432 -0.000888 -0.002634 0.028806
#
#
# Mechanical properties :
#
#
# Convention : Reuss Voigt Hill
#
# Bulk Modulus (GPa) = 51.21415 56.88225 54.04820
# Shear Modulus (GPa) = 36.68692 39.24443 37.96567
#
# Velocity S-wave (km/s) = 3.87982 4.01278 3.94686
# Velocity P-wave (km/s) = 6.40971 6.69397 6.55339
#
# Compressibility (1/GPa) = 0.01952585
#
# Stress axis : x y z
#
# Youngs Moduli (GPa) = 90.45250 91.49751 110.39271
#
# Poissons Ratio (x) = 0.12294 0.26731
# Poissons Ratio (y) = 0.12154 0.22009
# Poissons Ratio (z) = 0.21902 0.18241
#
# Static dielectric constant tensor:
#      x y z
#    x 7.645760 0.625650 1.270110 
#    y 0.625650 4.485220 0.330120 
#    z 1.270110 0.330120 5.080640 
# 
# 
# High freq. dielectric constant tensor:
#      x y z
#    x 1.960200 0.001520 0.004310 
#    y 0.001520 1.980990 -0.014710 
#    z 0.004310 -0.014710 1.979640 
# 
# From -- ./inp_files/98195.got.cif
#   From: 2010.06.25/outbox.cif.g09.slc.cpg/sg2_50_cif.got.tgz:98195.got - 2010.06.27 13:26:56.
