data_PCOD8021890
_publ_section_title
;
Structure prediction by ZEFSAII (Michael W. Deem and Ramdas Pophale) SiO2 
 PCOD8021890
Probable space group: P -1
;
_chemical_formula_sum "Si O2"
_cell_formula_units_Z 16
_cell_length_a 13.573523
_cell_length_b 11.211557
_cell_length_c 7.585416
_cell_angle_alpha 106.195571
_cell_angle_beta 90.029566
_cell_angle_gamma 39.580612
_cell_volume 661.518657
_symmetry_space_group_name_H-M "P -1"
_symmetry_group_IT_number 2
_symmetry_cell_setting 'triclinic'
loop_
_space_group_symop_operation_xyz
x,y,z
-x,-y,-z
loop_
_atom_site_type_symbol
_atom_site_label
_atom_site_fract_x
_atom_site_fract_y
_atom_site_fract_z
Si Si1 0.183381 0.806333 0.989390
Si Si2 0.379734 0.982838 0.131037
Si Si3 0.188299 0.843823 0.393015
Si Si4 0.965246 0.679173 0.581438
Si Si5 0.321986 0.169791 0.846895
Si Si6 0.891048 0.387535 0.086128
Si Si7 0.502267 0.402245 0.125761
Si Si8 0.852323 0.875320 0.315722
O O1 0.186080 0.881021 0.202092
O O2 0.223708 0.618547 0.942779
O O3 0.324437 0.728166 0.833120
O O4 0.000000 0.000000 0.000000
O O5 0.496315 0.957294 0.234547
O O6 0.227896 0.097082 0.297474
O O7 0.487034 0.754747 0.979569
O O8 0.305687 0.134381 0.029701
O O9 0.333861 0.592784 0.318144
O O10 0.243091 0.903019 0.539553
O O11 0.000000 0.000000 0.500000
O O12 0.994006 0.706910 0.397118
O O13 0.000000 0.500000 0.500000
O O14 0.076304 0.630595 0.712076
O O15 0.187175 0.412312 0.917098
O O16 0.283646 0.097010 0.681127
O O17 0.062919 0.192873 0.902785
O O18 0.500000 0.500000 0.000000
#
# Coordination Sequence:
#
# PCOD8021890 Si02
#       8
#     2   2   2   2   2   2   2   2
#     4  11  23  43  73 101 140 192 240 294 365 428
#     4  11  24  44  71 101 144 184 245 294 363 440
#     4  11  23  43  68 103 137 184 238 298 353 427
#     4  12  24  44  69 105 139 185 242 292 353 441
#     4  11  24  43  69 102 136 193 226 295 368 422
#     4  12  23  46  74 102 145 188 238 295 366 432
#     4  10  22  44  70 100 141 193 238 296 364 430
#     4  12  24  42  72 102 146 179 239 299 359 430
#
# _framework density 24.186772000000001
#
# number of rings (size 3 to 8) (size 9 to 14) (size 15 to 20)
#    0.000    0.750    3.750    5.625    0.000    0.500 
#    2.250    2.500    0.000    0.000    0.000    0.000 
#    0.000    0.000    0.000    0.000    0.000    0.000 
#
# Total GULP energy -198272.815508 kJ/mol
# GULP energy per Si atom -12392.050969 kJ/mol
# Density = 2.413172 g / cm^3
# Si number density = 24.186772 Si / 1000 Ang^3
#
#
#
# Elastic Constant Matrix: (Units=GPa)
#
#
# Indices 1 2 3 4 5 6 
#
# 1 136.6079 25.3308 45.0598 19.1884 22.9371 -14.2717
# 2 25.3308 94.1977 33.2136 13.1696 8.3195 -14.2398
# 3 45.0598 33.2136 101.9843 16.2847 25.6198 -10.5871
# 4 19.1884 13.1696 16.2847 50.7450 -1.4615 -1.3832
# 5 22.9371 8.3195 25.6198 -1.4615 45.6174 9.3080
# 6 -14.2717 -14.2398 -10.5871 -1.3832 9.3080 38.9598
#
#
#
# Elastic Compliance Matrix: (Units=1/GPa)
#
#
# Indices 1 2 3 4 5 6 
#
# 1 0.009651 -0.000483 -0.002158 -0.002857 -0.004404 0.003723
# 2 -0.000483 0.012771 -0.002848 -0.002149 -0.001365 0.003967
# 3 -0.002158 -0.002848 0.014434 -0.003187 -0.007367 0.003738
# 4 -0.002857 -0.002149 -0.003187 0.022426 0.004967 -0.003089
# 5 -0.004404 -0.001365 -0.007367 0.004967 0.030996 -0.011343
# 6 0.003723 0.003967 0.003738 -0.003089 -0.011343 0.032097
#
#
# Mechanical properties :
#
#
# Convention : Reuss Voigt Hill
#
# Bulk Modulus (GPa) = 38.64271 59.99983 49.32127
# Shear Modulus (GPa) = 35.21657 42.34349 38.78003
#
# Velocity S-wave (km/s) = 3.81993 4.18866 4.00854
# Velocity P-wave (km/s) = 5.95544 6.94650 6.46998
#
# Compressibility (1/GPa) = 0.02587810
#
# Stress axis : x y z
#
# Youngs Moduli (GPa) = 103.61298 78.30471 69.28143
#
# Poissons Ratio (x) = 0.03784 0.14950
# Poissons Ratio (y) = 0.05008 0.19730
# Poissons Ratio (z) = 0.22358 0.22299
#
# Static dielectric constant tensor:
#      x y z
#    x 5.277700 -0.511430 0.046780 
#    y -0.511430 4.848250 0.318500 
#    z 0.046780 0.318500 4.485110 
# 
# 
# High freq. dielectric constant tensor:
#      x y z
#    x 1.967990 -0.000840 0.022300 
#    y -0.000840 1.967990 0.007650 
#    z 0.022300 0.007650 1.944320 
# 
# From -- ./inp_files/308330.got.cif
#   From: 2010.06.25/outbox.cif.g09.slc.cpg/sg2_155_cif.got.tgz:308330.got - 2010.06.27 13:26:56.
