data_PCOD8021971
_publ_section_title
;
Structure prediction by ZEFSAII (Michael W. Deem and Ramdas Pophale) SiO2 
 PCOD8021971
Probable space group: P -1
;
_chemical_formula_sum "Si O2"
_cell_formula_units_Z 16
_cell_length_a 9.047602
_cell_length_b 10.801106
_cell_length_c 9.059427
_cell_angle_alpha 89.154176
_cell_angle_beta 78.415423
_cell_angle_gamma 124.956240
_cell_volume 701.468860
_symmetry_space_group_name_H-M "P -1"
_symmetry_group_IT_number 2
_symmetry_cell_setting 'triclinic'
loop_
_space_group_symop_operation_xyz
x,y,z
-x,-y,-z
loop_
_atom_site_type_symbol
_atom_site_label
_atom_site_fract_x
_atom_site_fract_y
_atom_site_fract_z
Si Si1 0.467973 0.290513 0.704522
Si Si2 0.845830 0.325011 0.054918
Si Si3 0.850163 0.143257 0.829282
Si Si4 0.095564 0.057321 0.641092
Si Si5 0.955731 0.239411 0.292709
Si Si6 0.838588 0.326510 0.577485
Si Si7 0.619932 0.581805 0.828765
Si Si8 0.441121 0.194437 0.046194
O O1 0.313286 0.200979 0.607455
O O2 0.641152 0.298896 0.601331
O O3 0.516915 0.461010 0.715552
O O4 0.403051 0.207265 0.880720
O O5 0.828649 0.277053 0.229405
O O6 0.659793 0.289035 0.023410
O O7 0.910012 0.224252 0.974526
O O8 0.000000 0.500000 0.000000
O O9 0.843760 0.269173 0.738813
O O10 0.001264 0.119240 0.750543
O O11 0.650249 0.979338 0.884370
O O12 0.076246 0.919569 0.734682
O O13 0.000000 0.000000 0.500000
O O14 0.877572 0.223596 0.472748
O O15 0.172730 0.376742 0.216047
O O16 0.000000 0.500000 0.500000
O O17 0.633638 0.738187 0.820898
O O18 0.500000 0.500000 0.000000
#
# Coordination Sequence:
#
# PCOD8021971 Si02
#       8
#     2   2   2   2   2   2   2   2
#     4  11  25  46  77 104 147 200 244 301 375 436
#     4  12  26  43  73 113 148 190 248 305 368 439
#     4  12  26  46  76 100 155 192 246 310 365 442
#     4  12  28  48  69 109 145 195 250 304 366 439
#     4  12  25  46  72 104 153 190 240 304 366 432
#     4  12  25  48  73 104 148 194 244 303 372 444
#     4  10  22  44  71 106 146 187 241 301 360 438
#     4  11  24  45  74 112 146 189 251 304 369 437
#
# _framework density 22.809280999999999
#
# number of rings (size 3 to 8) (size 9 to 14) (size 15 to 20)
#    0.000    0.500    5.000    3.375    7.000    2.500 
#    0.000    1.250    0.000    0.000    0.000    0.000 
#    0.000    0.000    0.000    0.000    0.000    0.000 
#
# Total GULP energy -198238.646474 kJ/mol
# GULP energy per Si atom -12389.915405 kJ/mol
# Density = 2.275737 g / cm^3
# Si number density = 22.809281 Si / 1000 Ang^3
#
#
#
# Elastic Constant Matrix: (Units=GPa)
#
#
# Indices 1 2 3 4 5 6 
#
# 1 108.5143 54.6782 37.8369 15.8348 -19.6678 6.1938
# 2 54.6782 163.6993 31.9223 1.6107 0.8773 2.8155
# 3 37.8369 31.9223 57.7808 -0.0335 -11.7287 6.5519
# 4 15.8348 1.6107 -0.0335 34.1526 -4.8586 3.5182
# 5 -19.6678 0.8773 -11.7287 -4.8586 48.4556 -0.7234
# 6 6.1938 2.8155 6.5519 3.5182 -0.7234 42.1837
#
#
#
# Elastic Compliance Matrix: (Units=1/GPa)
#
#
# Indices 1 2 3 4 5 6 
#
# 1 0.015156 -0.003631 -0.007106 -0.006283 0.003863 -0.000289
# 2 -0.003631 0.007781 -0.002374 0.000990 -0.002086 0.000264
# 3 -0.007106 -0.002374 0.024293 0.004212 0.003418 -0.002864
# 4 -0.006283 0.000990 0.004212 0.032648 0.001687 -0.002492
# 5 0.003863 -0.002086 0.003418 0.001687 0.023229 -0.000701
# 6 -0.000289 0.000264 -0.002864 -0.002492 -0.000701 0.024371
#
#
# Mechanical properties :
#
#
# Convention : Reuss Voigt Hill
#
# Bulk Modulus (GPa) = 47.59882 64.31879 55.95881
# Shear Modulus (GPa) = 31.11345 38.66220 34.88782
#
# Velocity S-wave (km/s) = 3.69734 4.12153 3.91518
# Velocity P-wave (km/s) = 6.25624 7.13506 6.71005
#
# Compressibility (1/GPa) = 0.02100892
#
# Stress axis : x y z
#
# Youngs Moduli (GPa) = 65.98085 128.51248 41.16480
#
# Poissons Ratio (x) = 0.46658 0.29250
# Poissons Ratio (y) = 0.23955 0.09774
# Poissons Ratio (z) = 0.46883 0.30513
#
# Static dielectric constant tensor:
#      x y z
#    x 4.899910 -0.367940 0.008830 
#    y -0.367940 4.578420 0.127870 
#    z 0.008830 0.127870 4.228110 
# 
# 
# High freq. dielectric constant tensor:
#      x y z
#    x 1.901260 -0.013190 -0.019000 
#    y -0.013190 1.918920 0.004930 
#    z -0.019000 0.004930 1.894640 
# 
# From -- ./inp_files/187494.got.cif
#   From: 2010.06.25/outbox.cif.g09.slc.cpg/sg2_94_cif.got.tgz:187494.got - 2010.06.27 13:26:56.
