data_PCOD8021185
_publ_section_title
;
Structure prediction by ZEFSAII (Michael W. Deem and Ramdas Pophale) SiO2 
 PCOD8021185
Probable space group: P -1
;
_chemical_formula_sum "Si O2"
_cell_formula_units_Z 16
_cell_length_a 10.385399
_cell_length_b 14.243465
_cell_length_c 14.138262
_cell_angle_alpha 31.506203
_cell_angle_beta 136.938431
_cell_angle_gamma 118.262634
_cell_volume 677.679213
_symmetry_space_group_name_H-M "P -1"
_symmetry_group_IT_number 2
_symmetry_cell_setting 'triclinic'
loop_
_space_group_symop_operation_xyz
x,y,z
-x,-y,-z
loop_
_atom_site_type_symbol
_atom_site_label
_atom_site_fract_x
_atom_site_fract_y
_atom_site_fract_z
Si Si1 0.007752 0.883683 0.250996
Si Si2 0.138110 0.067459 0.388543
Si Si3 0.754671 0.023056 0.179687
Si Si4 0.421361 0.718919 0.732957
Si Si5 0.491328 0.524013 0.363883
Si Si6 0.212401 0.299727 0.398160
Si Si7 0.042477 0.722037 0.217219
Si Si8 0.866669 0.650710 0.004951
O O1 0.236700 0.765871 0.518970
O O2 0.966259 0.748914 0.262780
O O3 0.827924 0.941260 0.183673
O O4 0.002988 0.071320 0.032865
O O5 0.174934 0.210822 0.357773
O O6 0.948129 0.010476 0.360499
O O7 0.345108 0.868252 0.653313
O O8 0.065433 0.187780 0.145946
O O9 0.667393 0.878225 0.309236
O O10 0.584623 0.246364 0.899376
O O11 0.500000 0.500000 0.000000
O O12 0.621393 0.734062 0.780986
O O13 0.500000 0.500000 0.500000
O O14 0.340552 0.425954 0.330356
O O15 0.713749 0.414327 0.531008
O O16 0.990875 0.437586 0.206923
O O17 0.922344 0.625971 0.168500
#
# Coordination Sequence:
#
# PCOD8021185 Si02
#       8
#     2   2   2   2   2   2   2   2
#     4  10  22  43  68  97 132 182 221 283 348 397
#     4  11  23  43  67 104 138 179 233 282 346 419
#     4  11  23  46  67  99 141 173 231 291 339 411
#     4  11  25  44  67 100 144 179 229 291 342 411
#     4  12  23  46  65  97 139 181 234 281 345 408
#     4  12  26  41  72 101 138 187 225 286 352 406
#     4  11  23  41  70  97 136 178 231 286 334 414
#     4  12  22  44  69  99 136 184 230 280 348 408
#
# _framework density 23.609991000000001
#
# number of rings (size 3 to 8) (size 9 to 14) (size 15 to 20)
#    0.000    0.750    6.250    2.625    1.750    2.500 
#    0.000    2.500    0.000    0.000    0.000    0.000 
#    0.000    0.000    0.000    0.000    0.000    0.000 
#
# Total GULP energy -198380.287989 kJ/mol
# GULP energy per Si atom -12398.767999 kJ/mol
# Density = 2.355625 g / cm^3
# Si number density = 23.609991 Si / 1000 Ang^3
#
#
#
# Elastic Constant Matrix: (Units=GPa)
#
#
# Indices 1 2 3 4 5 6 
#
# 1 40.1398 36.3445 34.4967 2.6374 4.5925 -11.5068
# 2 36.3445 123.8510 36.9393 1.0147 19.2475 -41.5009
# 3 34.4967 36.9393 158.4164 -18.7807 18.9496 -8.7172
# 4 2.6374 1.0147 -18.7807 34.2940 -4.6834 -2.7871
# 5 4.5925 19.2475 18.9496 -4.6834 21.6070 -3.0126
# 6 -11.5068 -41.5009 -8.7172 -2.7871 -3.0126 43.2216
#
#
#
# Elastic Compliance Matrix: (Units=1/GPa)
#
#
# Indices 1 2 3 4 5 6 
#
# 1 0.041109 -0.011068 -0.007985 -0.006413 0.006560 -0.001249
# 2 -0.011068 0.017352 0.000487 0.000062 -0.011706 0.013001
# 3 -0.007985 0.000487 0.009208 0.004867 -0.005741 0.000113
# 4 -0.006413 0.000062 0.004867 0.033069 0.004454 0.001777
# 5 0.006560 -0.011706 -0.005741 0.004454 0.060458 -0.006150
# 6 -0.001249 0.013001 0.000113 0.001777 -0.006150 0.034996
#
#
# Mechanical properties :
#
#
# Convention : Reuss Voigt Hill
#
# Bulk Modulus (GPa) = 32.74650 59.77427 46.26038
# Shear Modulus (GPa) = 20.53372 34.13297 27.33334
#
# Velocity S-wave (km/s) = 2.95227 3.80636 3.40619
# Velocity P-wave (km/s) = 5.05184 6.68507 5.92500
#
# Compressibility (1/GPa) = 0.03053762
#
# Stress axis : x y z
#
# Youngs Moduli (GPa) = 24.32547 57.63037 108.60502
#
# Poissons Ratio (x) = 0.63784 0.86720
# Poissons Ratio (y) = 0.26923 -0.05290
# Poissons Ratio (z) = 0.19424 -0.02807
#
# Static dielectric constant tensor:
#      x y z
#    x 6.104120 1.036130 1.145810 
#    y 1.036130 5.501590 0.642340 
#    z 1.145810 0.642340 5.072740 
# 
# 
# High freq. dielectric constant tensor:
#      x y z
#    x 1.917690 -0.012990 0.003310 
#    y -0.012990 1.941580 -0.012180 
#    z 0.003310 -0.012180 1.948230 
# 
# From -- ./inp_files/522198.got.cif
#   From: 2010.06.25/outbox.cif.g09.slc.cpg/sg2_262_cif.got.tgz:522198.got - 2010.06.27 13:26:56.
