data_PCOD8021616
_publ_section_title
;
Structure prediction by ZEFSAII (Michael W. Deem and Ramdas Pophale) SiO2 
 PCOD8021616
Probable space group: P -1
;
_chemical_formula_sum "Si O2"
_cell_formula_units_Z 16
_cell_length_a 26.475075
_cell_length_b 9.191583
_cell_length_c 8.704655
_cell_angle_alpha 132.712212
_cell_angle_beta 30.780500
_cell_angle_gamma 137.420082
_cell_volume 727.049373
_symmetry_space_group_name_H-M "P -1"
_symmetry_group_IT_number 2
_symmetry_cell_setting 'triclinic'
loop_
_space_group_symop_operation_xyz
x,y,z
-x,-y,-z
loop_
_atom_site_type_symbol
_atom_site_label
_atom_site_fract_x
_atom_site_fract_y
_atom_site_fract_z
Si Si1 0.567450 0.755527 0.502388
Si Si2 0.571043 0.162233 0.301458
Si Si3 0.210247 0.029397 0.080316
Si Si4 0.670509 0.655069 0.430576
Si Si5 0.114108 0.208771 0.217670
Si Si6 0.755604 0.004848 0.687747
Si Si7 0.042881 0.590140 0.119699
Si Si8 0.034023 0.867665 0.937454
O O1 0.500000 0.500000 0.500000
O O2 0.489276 0.871904 0.733564
O O3 0.621161 0.800982 0.564187
O O4 0.662958 0.840532 0.188080
O O5 0.590474 0.404185 0.478201
O O6 0.500000 0.000000 0.500000
O O7 0.682926 0.140173 0.978973
O O8 0.161208 0.788542 0.957803
O O9 0.146599 0.163746 0.271301
O O10 0.192320 0.007728 0.293753
O O11 0.689161 0.758872 0.625359
O O12 0.780362 0.664722 0.071115
O O13 0.042411 0.345524 0.517458
O O14 0.042659 0.974099 0.159717
O O15 0.849212 0.126580 0.408066
O O16 0.051522 0.382092 0.028656
O O17 0.000000 0.500000 0.000000
O O18 0.000000 0.000000 0.000000
#
# Coordination Sequence:
#
# PCOD8021616 Si02
#       8
#     2   2   2   2   2   2   2   2
#     4   9  20  43  68  92 133 177 215 275 332 387
#     4  11  21  41  65  97 134 166 220 282 324 384
#     4  11  22  41  67  99 135 175 223 280 327 399
#     4   9  22  42  67  91 131 178 216 266 340 390
#     4  10  22  44  65  92 137 171 219 276 326 399
#     4  11  24  40  68  97 134 171 226 265 335 398
#     4  12  25  41  71  99 132 178 228 269 338 404
#     4  11  25  44  66  99 132 174 220 275 337 398
#
# _framework density 22.006758999999999
#
# number of rings (size 3 to 8) (size 9 to 14) (size 15 to 20)
#    0.000    1.500    2.500    1.875    1.750    5.000 
#    0.000    0.000    0.000    0.000    0.000    0.000 
#    0.000    0.000    0.000    0.000    0.000    0.000 
#
# Total GULP energy -198300.859371 kJ/mol
# GULP energy per Si atom -12393.803711 kJ/mol
# Density = 2.195667 g / cm^3
# Si number density = 22.006759 Si / 1000 Ang^3
#
#
#
# Elastic Constant Matrix: (Units=GPa)
#
#
# Indices 1 2 3 4 5 6 
#
# 1 117.8696 29.8411 39.4715 9.8439 2.0522 -4.1506
# 2 29.8411 135.4384 25.4464 3.1527 1.0086 0.5832
# 3 39.4715 25.4464 65.8575 10.6501 -0.1640 -2.0377
# 4 9.8439 3.1527 10.6501 26.1476 2.3250 -4.8675
# 5 2.0522 1.0086 -0.1640 2.3250 36.9229 7.5502
# 6 -4.1506 0.5832 -2.0377 -4.8675 7.5502 37.2711
#
#
#
# Elastic Compliance Matrix: (Units=1/GPa)
#
#
# Indices 1 2 3 4 5 6 
#
# 1 0.010906 -0.001281 -0.005795 -0.001366 -0.000691 0.000879
# 2 -0.001281 0.008118 -0.002453 0.000454 -0.000125 -0.000319
# 3 -0.005795 -0.002453 0.020576 -0.006076 0.000959 -0.000470
# 4 -0.001366 0.000454 -0.006076 0.042610 -0.003843 0.005852
# 5 -0.000691 -0.000125 0.000959 -0.003843 0.028666 -0.006331
# 6 0.000879 -0.000319 -0.000470 0.005852 -0.006331 0.028954
#
#
# Mechanical properties :
#
#
# Convention : Reuss Voigt Hill
#
# Bulk Modulus (GPa) = 48.67989 56.52041 52.60015
# Shear Modulus (GPa) = 30.16862 35.02877 32.59869
#
# Velocity S-wave (km/s) = 3.70656 3.99397 3.85295
# Velocity P-wave (km/s) = 6.36290 6.85624 6.61417
#
# Compressibility (1/GPa) = 0.02054236
#
# Stress axis : x y z
#
# Youngs Moduli (GPa) = 91.69304 123.18000 48.60104
#
# Poissons Ratio (x) = 0.15779 0.28165
# Poissons Ratio (y) = 0.11745 0.11920
# Poissons Ratio (z) = 0.53137 0.30212
#
# Static dielectric constant tensor:
#      x y z
#    x 4.396260 0.117660 -0.166690 
#    y 0.117660 4.319030 -0.165490 
#    z -0.166690 -0.165490 3.888550 
# 
# 
# High freq. dielectric constant tensor:
#      x y z
#    x 1.880340 -0.001510 -0.007490 
#    y -0.001510 1.870400 -0.010460 
#    z -0.007490 -0.010460 1.844240 
# 
# From -- ./inp_files/358462.got.cif
#   From: 2010.06.25/outbox.cif.g09.slc.cpg/sg2_180_cif.got.tgz:358462.got - 2010.06.27 13:26:56.
