data_PCOD8021429
_publ_section_title
;
Structure prediction by ZEFSAII (Michael W. Deem and Ramdas Pophale) SiO2 
 PCOD8021429
Probable space group: P -1
;
_chemical_formula_sum "Si O2"
_cell_formula_units_Z 16
_cell_length_a 8.965750
_cell_length_b 8.965889
_cell_length_c 14.475550
_cell_angle_alpha 41.146497
_cell_angle_beta 73.415625
_cell_angle_gamma 69.790551
_cell_volume 717.913615
_symmetry_space_group_name_H-M "P -1"
_symmetry_group_IT_number 2
_symmetry_cell_setting 'triclinic'
loop_
_space_group_symop_operation_xyz
x,y,z
-x,-y,-z
loop_
_atom_site_type_symbol
_atom_site_label
_atom_site_fract_x
_atom_site_fract_y
_atom_site_fract_z
Si Si1 0.661424 0.447427 0.722586
Si Si2 0.657652 0.014736 0.020929
Si Si3 0.160921 0.827162 0.527842
Si Si4 0.301195 0.462384 0.807533
Si Si5 0.659615 0.786858 0.725147
Si Si6 0.171119 0.468735 0.527652
Si Si7 0.174180 0.522236 0.993631
Si Si8 0.680049 0.059619 0.203026
O O1 0.476354 0.454523 0.743608
O O2 0.696628 0.656758 0.681250
O O3 0.717392 0.454398 0.604954
O O4 0.744838 0.203570 0.869988
O O5 0.767438 0.756265 0.118807
O O6 0.610202 0.085956 0.100334
O O7 0.500000 0.000000 0.000000
O O8 0.196039 0.700620 0.678911
O O9 0.155081 0.635022 0.541215
O O10 0.294028 0.964928 0.408299
O O11 0.000000 0.000000 0.500000
O O12 0.299903 0.440877 0.927898
O O13 0.470467 0.833748 0.755239
O O14 0.768033 0.637605 0.853949
O O15 0.241458 0.203722 0.664766
O O16 0.000000 0.500000 0.500000
O O17 0.182280 0.790137 0.885730
O O18 0.000000 0.500000 0.000000
#
# Coordination Sequence:
#
# PCOD8021429 Si02
#       8
#     2   2   2   2   2   2   2   2
#     4  11  24  45  73 106 141 188 237 299 361 427
#     4  10  22  43  72 105 142 178 239 303 353 417
#     4  12  28  47  69 102 147 189 241 301 367 435
#     4  11  24  45  72 103 141 187 243 295 360 429
#     4  12  25  44  76 108 144 191 247 296 357 436
#     4  12  30  47  70 103 149 194 241 300 370 434
#     4  12  27  45  73 111 152 194 237 301 370 432
#     4  12  25  49  76 106 146 195 249 299 358 443
#
# _framework density 22.286802000000002
#
# number of rings (size 3 to 8) (size 9 to 14) (size 15 to 20)
#    0.000    0.500    3.750    4.125   10.500    2.000 
#    0.000    1.250    0.000    0.000    0.000    0.000 
#    0.000    0.000    0.000    0.000    0.000    0.000 
#
# Total GULP energy -198363.259340 kJ/mol
# GULP energy per Si atom -12397.703709 kJ/mol
# Density = 2.223608 g / cm^3
# Si number density = 22.286802 Si / 1000 Ang^3
#
#
#
# Elastic Constant Matrix: (Units=GPa)
#
#
# Indices 1 2 3 4 5 6 
#
# 1 98.7106 29.3009 34.9550 -13.6126 -0.2553 -0.0514
# 2 29.3009 117.0641 50.9895 -4.2526 0.0263 6.3334
# 3 34.9550 50.9895 139.5364 -20.1435 4.5994 -2.1335
# 4 -13.6126 -4.2526 -20.1435 49.3418 3.5483 0.3377
# 5 -0.2553 0.0263 4.5994 3.5483 32.1517 -5.8500
# 6 -0.0514 6.3334 -2.1335 0.3377 -5.8500 34.0050
#
#
#
# Elastic Compliance Matrix: (Units=1/GPa)
#
#
# Indices 1 2 3 4 5 6 
#
# 1 0.011713 -0.002057 -0.001854 0.002284 0.000160 0.000289
# 2 -0.002057 0.010701 -0.003596 -0.001114 0.000217 -0.002173
# 3 -0.001854 -0.003596 0.009465 0.003147 -0.001537 0.000965
# 4 0.002284 -0.001114 0.003147 0.022300 -0.002950 -0.000321
# 5 0.000160 0.000217 -0.001537 -0.002950 0.032652 0.005510
# 6 0.000289 -0.002173 0.000965 -0.000321 0.005510 0.030824
#
#
# Mechanical properties :
#
#
# Convention : Reuss Voigt Hill
#
# Bulk Modulus (GPa) = 59.29544 65.08910 62.19227
# Shear Modulus (GPa) = 36.15598 39.10407 37.63002
#
# Velocity S-wave (km/s) = 4.03215 4.19332 4.11353
# Velocity P-wave (km/s) = 6.95277 7.26043 7.10827
#
# Compressibility (1/GPa) = 0.01686470
#
# Stress axis : x y z
#
# Youngs Moduli (GPa) = 85.37375 93.45241 105.65547
#
# Poissons Ratio (x) = 0.19224 0.19585
# Poissons Ratio (y) = 0.17562 0.37995
# Poissons Ratio (z) = 0.15826 0.33607
#
# Static dielectric constant tensor:
#      x y z
#    x 3.892780 -0.099120 0.251670 
#    y -0.099120 5.223850 -1.124710 
#    z 0.251670 -1.124710 4.897140 
# 
# 
# High freq. dielectric constant tensor:
#      x y z
#    x 1.865100 0.012510 0.002800 
#    y 0.012510 1.891990 -0.007540 
#    z 0.002800 -0.007540 1.902910 
# 
# From -- ./inp_files/403198.got.cif
#   From: 2010.06.25/outbox.cif.g09.slc.cpg/sg2_202_cif.got.tgz:403198.got - 2010.06.27 13:26:56.
