data_PCOD8021480
_publ_section_title
;
Structure prediction by ZEFSAII (Michael W. Deem and Ramdas Pophale) SiO2 
 PCOD8021480
Probable space group: P -1
;
_chemical_formula_sum "Si O2"
_cell_formula_units_Z 14
_cell_length_a 20.303232
_cell_length_b 9.395050
_cell_length_c 6.586615
_cell_angle_alpha 135.260443
_cell_angle_beta 128.117845
_cell_angle_gamma 49.795895
_cell_volume 645.302395
_symmetry_space_group_name_H-M "P -1"
_symmetry_group_IT_number 2
_symmetry_cell_setting 'triclinic'
loop_
_space_group_symop_operation_xyz
x,y,z
-x,-y,-z
loop_
_atom_site_type_symbol
_atom_site_label
_atom_site_fract_x
_atom_site_fract_y
_atom_site_fract_z
Si Si1 0.678070 0.650229 0.229897
Si Si2 0.187240 0.159983 0.163468
Si Si3 0.657781 0.295379 0.095634
Si Si4 0.978685 0.798841 0.825046
Si Si5 0.069148 0.422918 0.871010
Si Si6 0.468445 0.905707 0.533624
Si Si7 0.411851 0.479814 0.411084
O O1 0.769393 0.698151 0.475783
O O2 0.667781 0.521115 0.279726
O O3 0.599737 0.883049 0.269634
O O4 0.671378 0.497074 0.876025
O O5 0.106450 0.142367 0.125760
O O6 0.161857 0.277809 0.012507
O O7 0.252688 0.915876 0.986968
O O8 0.630944 0.325314 0.311875
O O9 0.576985 0.266124 0.788113
O O10 0.962898 0.708914 0.488608
O O11 0.066363 0.635444 0.951794
O O12 0.000000 0.000000 0.000000
O O13 0.000000 0.500000 0.000000
O O14 0.555496 0.765810 0.687100
O O15 0.500000 0.000000 0.500000
O O16 0.500000 0.500000 0.500000
#
# Coordination Sequence:
#
# PCOD8021480 Si02
#       7
#     2   2   2   2   2   2   2
#     4  11  24  41  61  94 130 175 217 271 333 375
#     4  10  25  43  64  95 141 169 212 268 325 393
#     4  11  24  41  61  95 132 172 216 275 334 370
#     4  10  22  43  74 102 125 169 220 257 319 395
#     4   9  21  43  68  97 127 168 209 257 318 390
#     4  11  21  42  66  87 124 171 225 274 322 385
#     4  12  23  41  70  91 125 180 230 273 319 385
#
# _framework density 21.695255
#
# number of rings (size 3 to 8) (size 9 to 14) (size 15 to 20)
#    0.000    1.429    2.857    1.714    0.000    9.143 
#    0.000    0.000    0.000    0.000    0.000    0.000 
#    0.000    0.000    0.000    0.000    0.000    0.000 
#
# Total GULP energy -173436.409525 kJ/mol
# GULP energy per Si atom -12388.314966 kJ/mol
# Density = 2.164588 g / cm^3
# Si number density = 21.695255 Si / 1000 Ang^3
#
#
#
# Elastic Constant Matrix: (Units=GPa)
#
#
# Indices 1 2 3 4 5 6 
#
# 1 99.7957 45.8984 49.2327 4.8752 -0.7037 13.1850
# 2 45.8984 132.9687 56.3798 -4.5343 6.3175 17.4518
# 3 49.2327 56.3798 123.7756 -5.3533 -13.8983 5.0911
# 4 4.8752 -4.5343 -5.3533 40.2471 3.6395 3.0301
# 5 -0.7037 6.3175 -13.8983 3.6395 38.5633 8.0434
# 6 13.1850 17.4518 5.0911 3.0301 8.0434 32.0300
#
#
#
# Elastic Compliance Matrix: (Units=1/GPa)
#
#
# Indices 1 2 3 4 5 6 
#
# 1 0.013903 -0.002612 -0.004292 -0.002298 0.000064 -0.003416
# 2 -0.002612 0.010743 -0.003932 0.001514 -0.002608 -0.003641
# 3 -0.004292 -0.003932 0.012126 0.001215 0.004677 0.000692
# 4 -0.002298 0.001514 0.001215 0.025779 -0.001859 -0.002044
# 5 0.000064 -0.002608 0.004677 -0.001859 0.029599 -0.006606
# 6 -0.003416 -0.003641 0.000692 -0.002044 -0.006606 0.036353
#
#
# Mechanical properties :
#
#
# Convention : Reuss Voigt Hill
#
# Bulk Modulus (GPa) = 66.22318 73.28465 69.75391
# Shear Modulus (GPa) = 32.21450 35.83670 34.02560
#
# Velocity S-wave (km/s) = 3.85757 4.06867 3.96453
# Velocity P-wave (km/s) = 7.10153 7.47827 7.29233
#
# Compressibility (1/GPa) = 0.01510045
#
# Stress axis : x y z
#
# Youngs Moduli (GPa) = 71.92475 93.08454 82.46408
#
# Poissons Ratio (x) = 0.24318 0.35392
# Poissons Ratio (y) = 0.18790 0.32424
# Poissons Ratio (z) = 0.30869 0.36600
#
# Static dielectric constant tensor:
#      x y z
#    x 3.733750 0.039000 -0.172500 
#    y 0.039000 3.923260 -0.110660 
#    z -0.172500 -0.110660 4.036270 
# 
# 
# High freq. dielectric constant tensor:
#      x y z
#    x 1.835200 0.010640 -0.012180 
#    y 0.010640 1.870210 0.000200 
#    z -0.012180 0.000200 1.857940 
# 
# From -- ./inp_files/10234.got.cif
#   From: 2010.06.25/outbox.cif.g09.slc.cpg/sg2_6_cif.got.tgz:10234.got - 2010.06.27 13:26:56.
