data_PCOD8021782
_publ_section_title
;
Structure prediction by ZEFSAII (Michael W. Deem and Ramdas Pophale) SiO2 
 PCOD8021782
Probable space group: P -1
;
_chemical_formula_sum "Si O2"
_cell_formula_units_Z 12
_cell_length_a 5.068298
_cell_length_b 15.490498
_cell_length_c 7.041589
_cell_angle_alpha 56.246014
_cell_angle_beta 90.262600
_cell_angle_gamma 75.659610
_cell_volume 438.330971
_symmetry_space_group_name_H-M "P -1"
_symmetry_group_IT_number 2
_symmetry_cell_setting 'triclinic'
loop_
_space_group_symop_operation_xyz
x,y,z
-x,-y,-z
loop_
_atom_site_type_symbol
_atom_site_label
_atom_site_fract_x
_atom_site_fract_y
_atom_site_fract_z
Si Si1 0.070552 0.365697 0.638304
Si Si2 0.591106 0.339718 0.915075
Si Si3 0.942222 0.853064 0.700733
Si Si4 0.252308 0.469885 0.180985
Si Si5 0.138532 0.969692 0.238038
Si Si6 0.362247 0.236141 0.471275
O O1 0.296467 0.335013 0.846498
O O2 0.097149 0.473280 0.387625
O O3 0.139873 0.267289 0.602944
O O4 0.772597 0.362538 0.712560
O O5 0.564883 0.445579 0.924063
O O6 0.748298 0.224934 0.157610
O O7 0.937560 0.934254 0.426206
O O8 0.758105 0.779949 0.715809
O O9 0.803287 0.924004 0.797439
O O10 0.454982 0.345928 0.298714
O O11 0.000000 0.500000 0.000000
O O12 0.409141 0.870238 0.327371
O O13 0.000000 0.000000 0.000000
#
# Coordination Sequence:
#
# PCOD8021782 Si02
#       6
#     2   2   2   2   2   2
#     4  10  26  41  77 105 153 193 247 290 377 428
#     4  12  23  49  69 114 147 196 243 308 355 458
#     4  11  26  44  76 101 147 190 251 299 379 427
#     4  10  22  44  68 109 149 194 242 302 365 447
#     4  11  26  49  70 105 143 192 252 309 367 436
#     4  10  24  44  71 105 141 193 239 302 372 433
#
# _framework density 27.376574000000002
#
# number of rings (size 3 to 8) (size 9 to 14) (size 15 to 20)
#    1.000    0.333    1.667    2.500    7.000    0.667 
#    3.000    2.500    0.000    0.000    0.000    0.000 
#    0.000    0.000    0.000    0.000    0.000    0.000 
#
# Total GULP energy -148767.025458 kJ/mol
# GULP energy per Si atom -12397.252122 kJ/mol
# Density = 2.731426 g / cm^3
# Si number density = 27.376574 Si / 1000 Ang^3
#
#
#
# Elastic Constant Matrix: (Units=GPa)
#
#
# Indices 1 2 3 4 5 6 
#
# 1 37.6825 7.1277 1.8092 8.4432 6.9627 -5.5678
# 2 7.1277 179.1559 46.0902 -0.6037 3.7701 1.0172
# 3 1.8092 46.0902 169.8393 7.7536 14.1062 3.9029
# 4 8.4432 -0.6037 7.7536 46.3287 -2.9303 13.6786
# 5 6.9627 3.7701 14.1062 -2.9303 40.0781 -6.5471
# 6 -5.5678 1.0172 3.9029 13.6786 -6.5471 25.3087
#
#
#
# Elastic Compliance Matrix: (Units=1/GPa)
#
#
# Indices 1 2 3 4 5 6 
#
# 1 0.031243 -0.001393 0.000590 -0.009247 -0.004434 0.010689
# 2 -0.001393 0.006070 -0.001672 0.000829 0.000208 -0.000687
# 3 0.000590 -0.001672 0.006614 -0.001143 -0.002496 -0.000851
# 4 -0.009247 0.000829 -0.001143 0.028574 0.001241 -0.017014
# 5 -0.004434 0.000208 -0.002496 0.001241 0.027632 0.005878
# 6 0.010689 -0.000687 -0.000851 -0.017014 0.005878 0.052739
#
#
# Mechanical properties :
#
#
# Convention : Reuss Voigt Hill
#
# Bulk Modulus (GPa) = 25.65572 55.19242 40.42407
# Shear Modulus (GPa) = 29.27163 44.45315 36.86239
#
# Velocity S-wave (km/s) = 3.27344 4.03397 3.67344
# Velocity P-wave (km/s) = 4.86611 6.47313 5.72627
#
# Compressibility (1/GPa) = 0.03897766
#
# Stress axis : x y z
#
# Youngs Moduli (GPa) = 32.00669 164.75767 151.18781
#
# Poissons Ratio (x) = 0.22957 -0.08922
# Poissons Ratio (y) = 0.04460 0.25272
# Poissons Ratio (z) = -0.01889 0.27541
#
# Static dielectric constant tensor:
#      x y z
#    x 4.468860 -0.174550 -0.321180 
#    y -0.174550 5.900890 0.066600 
#    z -0.321180 0.066600 5.133850 
# 
# 
# High freq. dielectric constant tensor:
#      x y z
#    x 2.078980 -0.012480 -0.019680 
#    y -0.012480 2.146150 0.008000 
#    z -0.019680 0.008000 2.121540 
# 
# From -- ./inp_files/137395.got.cif
#   From: 2010.06.25/outbox.cif.g09.slc.cpg/sg2_69_cif.got.tgz:137395.got - 2010.06.27 13:26:56.
