data_PCOD8021528
_publ_section_title
;
Structure prediction by ZEFSAII (Michael W. Deem and Ramdas Pophale) SiO2 
 PCOD8021528
Probable space group: P -1
;
_chemical_formula_sum "Si O2"
_cell_formula_units_Z 16
_cell_length_a 12.068517
_cell_length_b 29.610561
_cell_length_c 13.700233
_cell_angle_alpha 20.818780
_cell_angle_beta 150.365327
_cell_angle_gamma 153.532272
_cell_volume 759.075291
_symmetry_space_group_name_H-M "P -1"
_symmetry_group_IT_number 2
_symmetry_cell_setting 'triclinic'
loop_
_space_group_symop_operation_xyz
x,y,z
-x,-y,-z
loop_
_atom_site_type_symbol
_atom_site_label
_atom_site_fract_x
_atom_site_fract_y
_atom_site_fract_z
Si Si1 0.556605 0.335135 0.245073
Si Si2 0.639353 0.648294 0.364622
Si Si3 0.213803 0.797607 0.454690
Si Si4 0.592323 0.476980 0.358378
Si Si5 0.869912 0.992881 0.158591
Si Si6 0.962436 0.780981 0.000367
Si Si7 0.411634 0.099439 0.289392
Si Si8 0.377932 0.715359 0.386245
O O1 0.737231 0.283964 0.432447
O O2 0.631666 0.358227 0.368744
O O3 0.256562 0.216144 0.242362
O O4 0.602838 0.487524 0.926139
O O5 0.500000 0.500000 0.500000
O O6 0.551846 0.625116 0.456326
O O7 0.937330 0.699165 0.486634
O O8 0.572378 0.768781 0.028471
O O9 0.420041 0.829104 0.631690
O O10 0.236260 0.946439 0.131434
O O11 0.712079 0.402522 0.529846
O O12 0.827661 0.629812 0.264433
O O13 0.923078 0.086197 0.108102
O O14 0.125642 0.993447 0.317486
O O15 0.665981 0.831530 0.350635
O O16 0.192294 0.787745 0.097169
O O17 0.500000 0.000000 0.500000
#
# Coordination Sequence:
#
# PCOD8021528 Si02
#       8
#     2   2   2   2   2   2   2   2
#     4  10  23  41  68  93 132 175 225 263 329 406
#     4  11  25  46  71 100 133 179 231 272 335 414
#     4  11  23  44  71  94 137 177 217 281 335 396
#     4  10  24  44  63  98 137 167 223 280 334 392
#     4  11  24  42  69  97 133 175 228 267 336 407
#     4  10  22  44  62  94 133 177 221 270 328 399
#     4  11  26  45  67 101 138 174 224 285 339 397
#     4  12  24  41  67  98 133 177 217 283 334 388
#
# _framework density 21.078278000000001
#
# number of rings (size 3 to 8) (size 9 to 14) (size 15 to 20)
#    0.750    0.500    2.500    3.375    3.500    4.500 
#    0.000    0.000    0.000    0.000    0.000    0.000 
#    0.000    0.000    0.000    0.000    0.000    0.000 
#
# Total GULP energy -198401.598285 kJ/mol
# GULP energy per Si atom -12400.099893 kJ/mol
# Density = 2.103030 g / cm^3
# Si number density = 21.078278 Si / 1000 Ang^3
#
#
#
# Elastic Constant Matrix: (Units=GPa)
#
#
# Indices 1 2 3 4 5 6 
#
# 1 121.7436 14.2504 39.6306 10.7895 6.7101 4.5342
# 2 14.2504 36.7461 17.4000 8.5982 -1.6243 5.6777
# 3 39.6306 17.4000 84.9421 7.3753 15.7659 8.4158
# 4 10.7895 8.5982 7.3753 35.1451 -0.6757 3.3001
# 5 6.7101 -1.6243 15.7659 -0.6757 38.1957 4.5164
# 6 4.5342 5.6777 8.4158 3.3001 4.5164 30.8822
#
#
#
# Elastic Compliance Matrix: (Units=1/GPa)
#
#
# Indices 1 2 3 4 5 6 
#
# 1 0.009901 -0.001480 -0.004148 -0.001825 -0.000142 0.000165
# 2 -0.001480 0.032822 -0.005942 -0.005844 0.004506 -0.004232
# 3 -0.004148 -0.005942 0.016279 -0.000638 -0.006044 -0.001783
# 4 -0.001825 -0.005844 -0.000638 0.030781 0.001109 -0.001935
# 5 -0.000142 0.004506 -0.006044 0.001109 0.029334 -0.003569
# 6 0.000165 -0.004232 -0.001783 -0.001935 -0.003569 0.034350
#
#
# Mechanical properties :
#
#
# Convention : Reuss Voigt Hill
#
# Bulk Modulus (GPa) = 27.88501 42.88823 35.38662
# Shear Modulus (GPa) = 26.51670 32.32132 29.41901
#
# Velocity S-wave (km/s) = 3.55069 3.92011 3.73996
# Velocity P-wave (km/s) = 5.48342 6.39382 5.95604
#
# Compressibility (1/GPa) = 0.03586156
#
# Stress axis : x y z
#
# Youngs Moduli (GPa) = 101.00136 30.46705 61.42922
#
# Poissons Ratio (x) = 0.04510 0.25478
# Poissons Ratio (y) = 0.14951 0.36504
# Poissons Ratio (z) = 0.41891 0.18105
#
# Static dielectric constant tensor:
#      x y z
#    x 3.886960 0.079540 0.089120 
#    y 0.079540 3.719130 0.138500 
#    z 0.089120 0.138500 3.811850 
# 
# 
# High freq. dielectric constant tensor:
#      x y z
#    x 1.833150 0.002450 0.009910 
#    y 0.002450 1.824430 0.009090 
#    z 0.009910 0.009090 1.825210 
# 
# From -- ./inp_files/524620.got.cif
#   From: 2010.06.25/outbox.cif.g09.slc.cpg/sg2_263_cif.got.tgz:524620.got - 2010.06.27 13:26:56.
