data_PCOD8021788
_publ_section_title
;
Structure prediction by ZEFSAII (Michael W. Deem and Ramdas Pophale) SiO2 
 PCOD8021788
Probable space group: P -1
;
_chemical_formula_sum "Si O2"
_cell_formula_units_Z 16
_cell_length_a 7.570211
_cell_length_b 9.473087
_cell_length_c 11.383199
_cell_angle_alpha 76.803216
_cell_angle_beta 96.350705
_cell_angle_gamma 67.508533
_cell_volume 716.315795
_symmetry_space_group_name_H-M "P -1"
_symmetry_group_IT_number 2
_symmetry_cell_setting 'triclinic'
loop_
_space_group_symop_operation_xyz
x,y,z
-x,-y,-z
loop_
_atom_site_type_symbol
_atom_site_label
_atom_site_fract_x
_atom_site_fract_y
_atom_site_fract_z
Si Si1 0.120545 0.593468 0.948577
Si Si2 0.195702 0.120344 0.237271
Si Si3 0.022867 0.093970 0.757346
Si Si4 0.729910 0.385840 0.807162
Si Si5 0.379921 0.343777 0.857652
Si Si6 0.833238 0.682415 0.361769
Si Si7 0.818142 0.630008 0.619646
Si Si8 0.536758 0.084838 0.099254
O O1 0.218199 0.520729 0.844463
O O2 0.968626 0.775961 0.887340
O O3 0.277090 0.576246 0.062785
O O4 0.000000 0.500000 0.000000
O O5 0.186089 0.220538 0.334894
O O6 0.410347 0.066647 0.203801
O O7 0.129142 0.977114 0.286164
O O8 0.236923 0.963098 0.839173
O O9 0.050020 0.205168 0.634639
O O10 0.920700 0.221553 0.829638
O O11 0.535735 0.360790 0.777235
O O12 0.713525 0.537207 0.700276
O O13 0.297272 0.247593 0.780459
O O14 0.456331 0.264480 0.006251
O O15 0.714336 0.695999 0.472317
O O16 0.963338 0.495916 0.376305
O O17 0.500000 0.000000 0.000000
#
# Coordination Sequence:
#
# PCOD8021788 Si02
#       8
#     2   2   2   2   2   2   2   2
#     4  12  20  39  62  95 131 164 206 270 323 381
#     4  12  24  40  68  97 129 172 213 264 328 381
#     4  11  25  43  63  97 133 173 212 263 323 387
#     4  11  23  40  66  96 129 169 214 263 325 384
#     4  12  22  38  67  98 128 166 215 267 323 385
#     4  10  22  45  68  88 127 173 215 269 321 375
#     4  10  22  44  68  91 123 171 220 270 319 373
#     4  12  23  39  64  96 135 173 209 256 327 396
#
# _framework density 22.336518000000002
#
# number of rings (size 3 to 8) (size 9 to 14) (size 15 to 20)
#    0.000    0.750    5.000    3.375    0.000    3.500 
#    0.000    0.625    0.000    0.000    0.000    0.000 
#    0.000    0.000    0.000    0.000    0.000    0.000 
#
# Total GULP energy -198215.728488 kJ/mol
# GULP energy per Si atom -12388.483031 kJ/mol
# Density = 2.228568 g / cm^3
# Si number density = 22.336518 Si / 1000 Ang^3
#
#
#
# Elastic Constant Matrix: (Units=GPa)
#
#
# Indices 1 2 3 4 5 6 
#
# 1 130.3556 41.4701 40.1337 10.2776 -13.8747 7.7558
# 2 41.4701 99.2059 32.0974 14.4114 -8.5802 12.0077
# 3 40.1337 32.0974 102.9829 13.7303 -20.6344 0.0694
# 4 10.2776 14.4114 13.7303 25.0094 -2.6260 0.6669
# 5 -13.8747 -8.5802 -20.6344 -2.6260 22.5125 -1.2132
# 6 7.7558 12.0077 0.0694 0.6669 -1.2132 34.9940
#
#
#
# Elastic Compliance Matrix: (Units=1/GPa)
#
#
# Indices 1 2 3 4 5 6 
#
# 1 0.009677 -0.002845 -0.002241 -0.000798 0.002675 -0.001056
# 2 -0.002845 0.013231 -0.002250 -0.005073 0.000431 -0.003793
# 3 -0.002241 -0.002250 0.013887 -0.004394 0.010067 0.001674
# 4 -0.000798 -0.005073 -0.004394 0.045507 -0.001090 0.001021
# 5 0.002675 0.000431 0.010067 -0.001090 0.055397 0.001180
# 6 -0.001056 -0.003793 0.001674 0.001021 0.001180 0.030130
#
#
# Mechanical properties :
#
#
# Convention : Reuss Voigt Hill
#
# Bulk Modulus (GPa) = 45.20277 62.21631 53.70954
# Shear Modulus (GPa) = 26.33323 31.09274 28.71298
#
# Velocity S-wave (km/s) = 3.43728 3.73502 3.58924
# Velocity P-wave (km/s) = 6.00286 6.82019 6.42454
#
# Compressibility (1/GPa) = 0.02212254
#
# Stress axis : x y z
#
# Youngs Moduli (GPa) = 103.33852 75.58288 72.01037
#
# Poissons Ratio (x) = 0.21502 0.16141
# Poissons Ratio (y) = 0.29398 0.16200
# Poissons Ratio (z) = 0.23163 0.17003
#
# Static dielectric constant tensor:
#      x y z
#    x 4.056640 0.213130 -0.191970 
#    y 0.213130 3.672390 -0.157880 
#    z -0.191970 -0.157880 3.997720 
# 
# 
# High freq. dielectric constant tensor:
#      x y z
#    x 1.876990 0.004390 -0.012250 
#    y 0.004390 1.889370 0.003270 
#    z -0.012250 0.003270 1.856980 
# 
# From -- ./inp_files/382398.got.cif
#   From: 2010.06.25/outbox.cif.g09.slc.cpg/sg2_192_cif.got.tgz:382398.got - 2010.06.27 13:26:56.
