data_PCOD8021868
_publ_section_title
;
Structure prediction by ZEFSAII (Michael W. Deem and Ramdas Pophale) SiO2 
 PCOD8021868
Probable space group: P -1
;
_chemical_formula_sum "Si O2"
_cell_formula_units_Z 16
_cell_length_a 21.723437
_cell_length_b 8.791081
_cell_length_c 12.535935
_cell_angle_alpha 142.245715
_cell_angle_beta 30.252882
_cell_angle_gamma 128.580718
_cell_volume 724.699091
_symmetry_space_group_name_H-M "P -1"
_symmetry_group_IT_number 2
_symmetry_cell_setting 'triclinic'
loop_
_space_group_symop_operation_xyz
x,y,z
-x,-y,-z
loop_
_atom_site_type_symbol
_atom_site_label
_atom_site_fract_x
_atom_site_fract_y
_atom_site_fract_z
Si Si1 0.745595 0.260718 0.610535
Si Si2 0.600682 0.476452 0.429867
Si Si3 0.999141 0.744039 0.294240
Si Si4 0.754503 0.545036 0.542128
Si Si5 0.511378 0.755774 0.918305
Si Si6 0.185996 0.293637 0.857474
Si Si7 0.853940 0.599294 0.781973
Si Si8 0.207682 0.859955 0.916675
O O1 0.758569 0.462519 0.612312
O O2 0.793836 0.364368 0.704598
O O3 0.830698 0.989366 0.303896
O O4 0.602963 0.242698 0.830751
O O5 0.500000 0.500000 0.500000
O O6 0.528399 0.533958 0.681754
O O7 0.691721 0.667005 0.368056
O O8 0.694297 0.208339 0.167735
O O9 0.862953 0.701844 0.441940
O O10 0.062273 0.493232 0.124747
O O11 0.077153 0.773016 0.087942
O O12 0.000000 0.000000 0.500000
O O13 0.628453 0.741666 0.813634
O O14 0.750868 0.295267 0.338739
O O15 0.500000 0.000000 0.000000
O O16 0.201715 0.318855 0.973982
O O17 0.000000 0.500000 0.500000
O O18 0.812098 0.840549 0.901963
#
# Coordination Sequence:
#
# PCOD8021868 Si02
#       8
#     2   2   2   2   2   2   2   2
#     4  12  25  45  69 100 141 181 224 279 343 407
#     4  10  22  44  69  96 134 180 228 286 337 404
#     4  11  24  44  68 101 134 178 230 280 340 403
#     4  11  24  44  70  95 140 180 221 285 339 408
#     4  11  24  43  68 101 129 180 235 272 339 405
#     4  11  24  45  68 102 139 178 224 281 346 400
#     4  12  26  43  70 104 138 180 228 281 341 416
#     4  10  23  43  65 103 134 177 232 275 345 405
#
# _framework density 22.078128
#
# number of rings (size 3 to 8) (size 9 to 14) (size 15 to 20)
#    0.000    1.000    2.500    3.750    1.750    6.000 
#    2.250    1.875    0.000    0.000    0.000    0.000 
#    0.000    0.000    0.000    0.000    0.000    0.000 
#
# Total GULP energy -198352.383271 kJ/mol
# GULP energy per Si atom -12397.023954 kJ/mol
# Density = 2.202788 g / cm^3
# Si number density = 22.078128 Si / 1000 Ang^3
#
#
#
# Elastic Constant Matrix: (Units=GPa)
#
#
# Indices 1 2 3 4 5 6 
#
# 1 96.1374 44.2364 41.0318 14.7723 -9.2298 10.8630
# 2 44.2364 90.6447 44.3519 19.8358 -9.7443 -1.8406
# 3 41.0318 44.3519 107.3584 7.5783 -7.3510 4.3160
# 4 14.7723 19.8358 7.5783 42.3745 -1.0150 1.6754
# 5 -9.2298 -9.7443 -7.3510 -1.0150 42.5152 -3.8595
# 6 10.8630 -1.8406 4.3160 1.6754 -3.8595 41.1482
#
#
#
# Elastic Compliance Matrix: (Units=1/GPa)
#
#
# Indices 1 2 3 4 5 6 
#
# 1 0.015031 -0.005284 -0.003194 -0.002023 0.001117 -0.003682
# 2 -0.005284 0.017460 -0.004777 -0.005547 0.002178 0.003107
# 3 -0.003194 -0.004777 0.012478 0.001154 0.000334 -0.000695
# 4 -0.002023 -0.005547 0.001154 0.026711 -0.000965 -0.001013
# 5 0.001117 0.002178 0.000334 -0.000965 0.024488 0.002104
# 6 -0.003682 0.003107 -0.000695 -0.001013 0.002104 0.025725
#
#
# Mechanical properties :
#
#
# Convention : Reuss Voigt Hill
#
# Bulk Modulus (GPa) = 54.18144 61.48674 57.83409
# Shear Modulus (GPa) = 32.35025 36.17560 34.26293
#
# Velocity S-wave (km/s) = 3.83203 4.05226 3.94368
# Velocity P-wave (km/s) = 6.64630 7.05723 6.85485
#
# Compressibility (1/GPa) = 0.01845650
#
# Stress axis : x y z
#
# Youngs Moduli (GPa) = 66.53007 57.27478 80.13823
#
# Poissons Ratio (x) = 0.30267 0.25598
# Poissons Ratio (y) = 0.35158 0.38286
# Poissons Ratio (z) = 0.21252 0.27363
#
# Static dielectric constant tensor:
#      x y z
#    x 3.986410 -0.119790 -0.103880 
#    y -0.119790 3.991470 0.138810 
#    z -0.103880 0.138810 3.126460 
# 
# 
# High freq. dielectric constant tensor:
#      x y z
#    x 1.868730 -0.011170 -0.000700 
#    y -0.011170 1.864930 0.001020 
#    z -0.000700 0.001020 1.886030 
# 
# From -- ./inp_files/456914.got.cif
#   From: 2010.06.25/outbox.cif.g09.slc.cpg/sg2_229_cif.got.tgz:456914.got - 2010.06.27 13:26:56.
