data_PCOD8021535
_publ_section_title
;
Structure prediction by ZEFSAII (Michael W. Deem and Ramdas Pophale) SiO2 
 PCOD8021535
Probable space group: P -1
;
_chemical_formula_sum "Si O2"
_cell_formula_units_Z 12
_cell_length_a 15.060090
_cell_length_b 10.222829
_cell_length_c 8.869271
_cell_angle_alpha 91.268207
_cell_angle_beta 148.058721
_cell_angle_gamma 74.552989
_cell_volume 638.234723
_symmetry_space_group_name_H-M "P -1"
_symmetry_group_IT_number 2
_symmetry_cell_setting 'triclinic'
loop_
_space_group_symop_operation_xyz
x,y,z
-x,-y,-z
loop_
_atom_site_type_symbol
_atom_site_label
_atom_site_fract_x
_atom_site_fract_y
_atom_site_fract_z
Si Si1 0.106058 0.076737 0.740606
Si Si2 0.454865 0.830880 0.818015
Si Si3 0.085110 0.340280 0.189217
Si Si4 0.118738 0.341620 0.593593
Si Si5 0.076052 0.849446 0.195740
Si Si6 0.487135 0.104431 0.767199
O O1 0.071871 0.220158 0.598594
O O2 0.027981 0.125847 0.794886
O O3 0.000000 0.000000 0.500000
O O4 0.331187 0.962475 0.083069
O O5 0.301685 0.780944 0.543024
O O6 0.410245 0.986617 0.682424
O O7 0.661046 0.703274 0.064235
O O8 0.437538 0.854510 0.972319
O O9 0.074958 0.347534 0.354547
O O10 0.303414 0.247803 0.441818
O O11 0.000000 0.500000 0.000000
O O12 0.954495 0.268989 0.947089
O O13 0.000000 0.500000 0.500000
O O14 0.000000 0.000000 0.000000
#
# Coordination Sequence:
#
# PCOD8021535 Si02
#       6
#     2   2   2   2   2   2
#     4  11  21  37  65  90 114 154 208 238 281 361
#     4   9  18  37  64  85 116 158 198 237 293 354
#     4  11  23  40  60  89 127 154 190 251 309 338
#     4  10  22  44  63  82 118 165 201 234 292 367
#     4  12  22  38  61  95 121 148 197 257 298 336
#     4   9  18  38  61  85 117 162 195 233 292 362
#
# _framework density 18.801860000000001
#
# number of rings (size 3 to 8) (size 9 to 14) (size 15 to 20)
#    0.000    1.667    3.333    3.000    0.000    0.667 
#    6.000    3.333    0.000    0.000    0.000    0.000 
#    0.000    0.000    0.000    0.000    0.000    0.000 
#
# Total GULP energy -148808.120247 kJ/mol
# GULP energy per Si atom -12400.676687 kJ/mol
# Density = 1.875907 g / cm^3
# Si number density = 18.801860 Si / 1000 Ang^3
#
#
#
# Elastic Constant Matrix: (Units=GPa)
#
#
# Indices 1 2 3 4 5 6 
#
# 1 73.3442 51.5810 69.1179 -9.2325 -11.7075 9.3561
# 2 51.5810 144.0954 88.2552 -5.4773 6.6779 0.9056
# 3 69.1179 88.2552 150.2126 2.9042 17.3910 2.3646
# 4 -9.2325 -5.4773 2.9042 41.5953 1.2982 -0.9033
# 5 -11.7075 6.6779 17.3910 1.2982 24.9127 -1.4500
# 6 9.3561 0.9056 2.3646 -0.9033 -1.4500 30.2426
#
#
#
# Elastic Compliance Matrix: (Units=1/GPa)
#
#
# Indices 1 2 3 4 5 6 
#
# 1 0.049050 -0.003508 -0.025223 0.010690 0.040411 -0.010841
# 2 -0.003508 0.011304 -0.004923 0.001116 -0.001235 0.001106
# 3 -0.025223 -0.004923 0.024333 -0.007008 -0.026890 0.004550
# 4 0.010690 0.001116 -0.007008 0.026762 0.008128 -0.001604
# 5 0.040411 -0.001235 -0.026890 0.008128 0.077437 -0.006407
# 6 -0.010841 0.001106 0.004550 -0.001604 -0.006407 0.035676
#
#
# Mechanical properties :
#
#
# Convention : Reuss Voigt Hill
#
# Bulk Modulus (GPa) = 57.54336 87.28449 72.41393
# Shear Modulus (GPa) = 16.79757 29.93000 23.36378
#
# Velocity S-wave (km/s) = 2.99222 3.99414 3.52892
# Velocity P-wave (km/s) = 6.52759 8.23377 7.42982
#
# Compressibility (1/GPa) = 0.01737820
#
# Stress axis : x y z
#
# Youngs Moduli (GPa) = 20.38729 88.46782 41.09656
#
# Poissons Ratio (x) = 0.31033 1.03659
# Poissons Ratio (y) = 0.07151 0.20232
# Poissons Ratio (z) = 0.51423 0.43554
#
# Static dielectric constant tensor:
#      x y z
#    x 3.050930 -0.516250 -0.121330 
#    y -0.516250 2.902440 -0.199200 
#    z -0.121330 -0.199200 3.580420 
# 
# 
# High freq. dielectric constant tensor:
#      x y z
#    x 1.729950 -0.003520 0.006450 
#    y -0.003520 1.723180 0.002880 
#    z 0.006450 0.002880 1.742890 
# 
# From -- ./inp_files/145629.got.cif
#   From: 2010.06.25/outbox.cif.g09.slc.cpg/sg2_73_cif.got.tgz:145629.got - 2010.06.27 13:26:56.
