data_PCOD8021944
_publ_section_title
;
Structure prediction by ZEFSAII (Michael W. Deem and Ramdas Pophale) SiO2 
 PCOD8021944
Probable space group: P -1
;
_chemical_formula_sum "Si O2"
_cell_formula_units_Z 16
_cell_length_a 14.601933
_cell_length_b 8.041186
_cell_length_c 11.636388
_cell_angle_alpha 79.652825
_cell_angle_beta 149.621492
_cell_angle_gamma 97.725149
_cell_volume 679.140187
_symmetry_space_group_name_H-M "P -1"
_symmetry_group_IT_number 2
_symmetry_cell_setting 'triclinic'
loop_
_space_group_symop_operation_xyz
x,y,z
-x,-y,-z
loop_
_atom_site_type_symbol
_atom_site_label
_atom_site_fract_x
_atom_site_fract_y
_atom_site_fract_z
Si Si1 0.458030 0.699817 0.929431
Si Si2 0.370530 0.159506 0.320055
Si Si3 0.260463 0.269424 0.941793
Si Si4 0.065985 0.139091 0.176472
Si Si5 0.406238 0.613479 0.121354
Si Si6 0.704124 0.304863 0.761524
Si Si7 0.118232 0.779577 0.393665
Si Si8 0.800369 0.521486 0.645084
O O1 0.630509 0.789296 0.048157
O O2 0.290764 0.750383 0.662493
O O3 0.500000 0.500000 0.000000
O O4 0.423838 0.752012 0.019579
O O5 0.337567 0.170027 0.148354
O O6 0.181609 0.161224 0.183176
O O7 0.501996 0.305140 0.488392
O O8 0.500000 0.000000 0.500000
O O9 0.278930 0.468462 0.956929
O O10 0.052366 0.227122 0.704660
O O11 0.100653 0.300284 0.277740
O O12 0.127792 0.963559 0.323440
O O13 0.848759 0.145551 0.910837
O O14 0.308579 0.696276 0.115016
O O15 0.603676 0.537348 0.374129
O O16 0.791464 0.469084 0.777617
O O17 0.097175 0.632232 0.293644
#
# Coordination Sequence:
#
# PCOD8021944 Si02
#       8
#     2   2   2   2   2   2   2   2
#     4  10  22  44  71 100 133 184 239 280 341 407
#     4  12  23  39  68 101 142 181 220 280 346 413
#     4  11  22  40  68 100 135 180 229 280 344 404
#     4  12  27  42  68 111 141 180 228 279 353 414
#     4  11  22  43  70 101 132 186 237 278 345 406
#     4  12  23  43  68 101 146 179 225 285 345 415
#     4  12  25  46  72 103 141 179 232 289 341 412
#     4  12  22  45  73 100 144 180 224 290 343 411
#
# _framework density 23.559201000000002
#
# number of rings (size 3 to 8) (size 9 to 14) (size 15 to 20)
#    0.000    0.500    5.000    5.250    0.000    3.500 
#    2.250    1.250    0.000    0.000    0.000    0.000 
#    0.000    0.000    0.000    0.000    0.000    0.000 
#
# Total GULP energy -198315.617377 kJ/mol
# GULP energy per Si atom -12394.726086 kJ/mol
# Density = 2.350558 g / cm^3
# Si number density = 23.559201 Si / 1000 Ang^3
#
#
#
# Elastic Constant Matrix: (Units=GPa)
#
#
# Indices 1 2 3 4 5 6 
#
# 1 165.6330 35.5545 60.1831 -6.6694 7.0832 37.1151
# 2 35.5545 95.2665 20.3869 -12.4452 -3.7811 5.9417
# 3 60.1831 20.3869 76.8104 -21.5023 17.3114 11.7380
# 4 -6.6694 -12.4452 -21.5023 31.8272 4.2647 -2.9334
# 5 7.0832 -3.7811 17.3114 4.2647 39.1034 1.6563
# 6 37.1151 5.9417 11.7380 -2.9334 1.6563 33.0799
#
#
#
# Elastic Compliance Matrix: (Units=1/GPa)
#
#
# Indices 1 2 3 4 5 6 
#
# 1 0.011978 -0.002482 -0.009573 -0.006272 0.002949 -0.010300
# 2 -0.002482 0.012043 -0.000767 0.003572 0.001516 0.001134
# 3 -0.009573 -0.000767 0.028551 0.019035 -0.013187 0.003095
# 4 -0.006272 0.003572 0.019035 0.046398 -0.012191 0.004366
# 5 0.002949 0.001516 -0.013187 -0.012191 0.032421 -0.001606
# 6 -0.010300 0.001134 0.003095 0.004366 -0.001606 0.040952
#
#
# Mechanical properties :
#
#
# Convention : Reuss Voigt Hill
#
# Bulk Modulus (GPa) = 37.13405 63.32876 50.23141
# Shear Modulus (GPa) = 24.15902 35.57448 29.86675
#
# Velocity S-wave (km/s) = 3.20575 3.89009 3.56438
# Velocity P-wave (km/s) = 5.43127 6.86412 6.18930
#
# Compressibility (1/GPa) = 0.02692946
#
# Stress axis : x y z
#
# Youngs Moduli (GPa) = 83.48792 83.03378 35.02539
#
# Poissons Ratio (x) = 0.20606 0.33528
# Poissons Ratio (y) = 0.20719 0.02687
# Poissons Ratio (z) = 0.79919 0.06369
#
# Static dielectric constant tensor:
#      x y z
#    x 4.986590 0.336350 -0.056840 
#    y 0.336350 4.191190 -0.071820 
#    z -0.056840 -0.071820 4.470560 
# 
# 
# High freq. dielectric constant tensor:
#      x y z
#    x 1.940060 0.016020 0.018480 
#    y 0.016020 1.921540 -0.007980 
#    z 0.018480 -0.007980 1.934660 
# 
# From -- ./inp_files/306313.got.cif
#   From: 2010.06.25/outbox.cif.g09.slc.cpg/sg2_154_cif.got.tgz:306313.got - 2010.06.27 13:26:56.
