data_PCOD8021382
_publ_section_title
;
Structure prediction by ZEFSAII (Michael W. Deem and Ramdas Pophale) SiO2 
 PCOD8021382
Probable space group: P -1
;
_chemical_formula_sum "Si O2"
_cell_formula_units_Z 16
_cell_length_a 14.128481
_cell_length_b 11.554636
_cell_length_c 9.560044
_cell_angle_alpha 78.525954
_cell_angle_beta 108.131119
_cell_angle_gamma 150.349832
_cell_volume 725.193305
_symmetry_space_group_name_H-M "P -1"
_symmetry_group_IT_number 2
_symmetry_cell_setting 'triclinic'
loop_
_space_group_symop_operation_xyz
x,y,z
-x,-y,-z
loop_
_atom_site_type_symbol
_atom_site_label
_atom_site_fract_x
_atom_site_fract_y
_atom_site_fract_z
Si Si1 0.728336 0.020514 0.736501
Si Si2 0.838634 0.238949 0.441648
Si Si3 0.337949 0.477022 0.758552
Si Si4 0.608213 0.670226 0.379094
Si Si5 0.920734 0.784912 0.036852
Si Si6 0.278181 0.504406 0.262058
Si Si7 0.565891 0.091351 0.669532
Si Si8 0.980155 0.800285 0.538737
O O1 0.758569 0.074155 0.572436
O O2 0.701757 0.121080 0.776643
O O3 0.905097 0.120400 0.848633
O O4 0.517088 0.746542 0.739296
O O5 0.939763 0.250121 0.380113
O O6 0.000000 0.500000 0.500000
O O7 0.652187 0.113302 0.309139
O O8 0.407032 0.420333 0.748515
O O9 0.275550 0.409100 0.908516
O O10 0.139813 0.321844 0.630679
O O11 0.500000 0.500000 0.500000
O O12 0.501092 0.684489 0.296288
O O13 0.840861 0.923011 0.458431
O O14 0.853138 0.648081 0.899382
O O15 0.000000 0.000000 0.000000
O O16 0.294953 0.654286 0.292214
O O17 0.166285 0.312591 0.375776
O O18 0.500000 0.000000 0.500000
#
# Coordination Sequence:
#
# PCOD8021382 Si02
#       8
#     2   2   2   2   2   2   2   2
#     4  11  24  46  72 101 144 188 237 289 354 430
#     4  11  20  39  74 107 137 178 235 297 359 417
#     4  12  25  44  74 101 139 194 239 291 366 420
#     4  12  25  39  69 103 142 175 240 308 351 411
#     4  12  29  48  71 102 149 197 242 284 357 436
#     4  12  26  46  68 108 144 184 241 296 351 432
#     4  10  22  43  71 105 140 177 231 299 358 412
#     4  12  22  40  70 103 135 180 235 296 361 412
#
# _framework density 22.063082000000001
#
# number of rings (size 3 to 8) (size 9 to 14) (size 15 to 20)
#    0.000    0.500    3.750    6.375    1.750    3.500 
#    0.000    0.625    0.000    0.000    0.000    0.000 
#    0.000    0.000    0.000    0.000    0.000    0.000 
#
# Total GULP energy -198282.963087 kJ/mol
# GULP energy per Si atom -12392.685193 kJ/mol
# Density = 2.201287 g / cm^3
# Si number density = 22.063082 Si / 1000 Ang^3
#
#
#
# Elastic Constant Matrix: (Units=GPa)
#
#
# Indices 1 2 3 4 5 6 
#
# 1 148.0099 38.7532 27.3075 1.6902 9.5481 -9.3805
# 2 38.7532 163.3400 36.6587 0.0204 -11.9435 -1.8372
# 3 27.3075 36.6587 71.6504 7.1244 -7.9950 -6.2849
# 4 1.6902 0.0204 7.1244 26.5896 0.4653 -5.7105
# 5 9.5481 -11.9435 -7.9950 0.4653 38.4216 8.4025
# 6 -9.3805 -1.8372 -6.2849 -5.7105 8.4025 39.5275
#
#
#
# Elastic Compliance Matrix: (Units=1/GPa)
#
#
# Indices 1 2 3 4 5 6 
#
# 1 0.007990 -0.001563 -0.002507 0.000714 -0.003499 0.002272
# 2 -0.001563 0.007330 -0.003053 0.000682 0.002218 -0.000889
# 3 -0.002507 -0.003053 0.017327 -0.004384 0.003178 0.000709
# 4 0.000714 0.000682 -0.004384 0.040040 -0.002642 0.005850
# 5 -0.003499 0.002218 0.003178 -0.002642 0.029796 -0.006938
# 6 0.002272 -0.000889 0.000709 0.005850 -0.006938 0.028229
#
#
# Mechanical properties :
#
#
# Convention : Reuss Voigt Hill
#
# Bulk Modulus (GPa) = 54.34819 65.38213 59.86516
# Shear Modulus (GPa) = 33.09211 39.59312 36.34262
#
# Velocity S-wave (km/s) = 3.87704 4.24080 4.06299
# Velocity P-wave (km/s) = 6.68793 7.32651 7.01449
#
# Compressibility (1/GPa) = 0.01839988
#
# Stress axis : x y z
#
# Youngs Moduli (GPa) = 125.16070 136.41900 57.71350
#
# Poissons Ratio (x) = 0.21325 0.14471
# Poissons Ratio (y) = 0.19565 0.17620
# Poissons Ratio (z) = 0.31383 0.41648
#
# Static dielectric constant tensor:
#      x y z
#    x 4.921800 0.157620 0.016620 
#    y 0.157620 4.147830 0.055930 
#    z 0.016620 0.055930 3.704250 
# 
# 
# High freq. dielectric constant tensor:
#      x y z
#    x 1.908270 0.009550 0.001500 
#    y 0.009550 1.882730 0.009720 
#    z 0.001500 0.009720 1.817730 
# 
# From -- ./inp_files/307398.got.cif
#   From: 2010.06.25/outbox.cif.g09.slc.cpg/sg2_154_cif.got.tgz:307398.got - 2010.06.27 13:26:56.
