data_PCOD8021855
_publ_section_title
;
Structure prediction by ZEFSAII (Michael W. Deem and Ramdas Pophale) SiO2 
 PCOD8021855
Probable space group: P -1
;
_chemical_formula_sum "Si O2"
_cell_formula_units_Z 16
_cell_length_a 8.642379
_cell_length_b 12.463694
_cell_length_c 13.918515
_cell_angle_alpha 138.255164
_cell_angle_beta 121.493185
_cell_angle_gamma 39.458472
_cell_volume 629.263910
_symmetry_space_group_name_H-M "P -1"
_symmetry_group_IT_number 2
_symmetry_cell_setting 'triclinic'
loop_
_space_group_symop_operation_xyz
x,y,z
-x,-y,-z
loop_
_atom_site_type_symbol
_atom_site_label
_atom_site_fract_x
_atom_site_fract_y
_atom_site_fract_z
Si Si1 0.036062 0.736483 0.470381
Si Si2 0.195787 0.966307 0.973716
Si Si3 0.086969 0.289070 0.998475
Si Si4 0.641318 0.542222 0.776421
Si Si5 0.309062 0.297006 0.760945
Si Si6 0.244369 0.440365 0.504689
Si Si7 0.629840 0.249726 0.675357
Si Si8 0.536198 0.994352 0.219973
O O1 0.884241 0.662097 0.349955
O O2 0.263994 0.615339 0.389904
O O3 0.148740 0.656854 0.561095
O O4 0.862707 0.994223 0.570878
O O5 0.345249 0.738595 0.812376
O O6 0.382607 0.947236 0.089426
O O7 0.075388 0.160655 0.990267
O O8 0.000000 0.000000 0.000000
O O9 0.257974 0.337532 0.113036
O O10 0.812311 0.527566 0.072674
O O11 0.195225 0.149706 0.841454
O O12 0.720804 0.382789 0.788643
O O13 0.503592 0.289977 0.763252
O O14 0.435873 0.068693 0.700781
O O15 0.430226 0.362310 0.599767
O O16 0.000000 0.500000 0.500000
O O17 0.387903 0.249773 0.342350
#
# Coordination Sequence:
#
# PCOD8021855 Si02
#       8
#     2   2   2   2   2   2   2   2
#     4  11  22  43  63  97 137 177 224 275 337 399
#     4  11  23  43  70  99 132 172 228 283 330 400
#     4  10  22  44  69  94 132 175 220 280 337 398
#     4  10  23  41  67  93 136 180 215 285 337 388
#     4  11  21  40  68  98 133 175 225 281 332 397
#     4  12  24  39  72  98 134 183 221 275 342 396
#     4  12  24  43  66 101 139 176 230 276 331 402
#     4  11  22  41  67 100 132 179 225 269 347 397
#
# _framework density 25.426531000000001
#
# number of rings (size 3 to 8) (size 9 to 14) (size 15 to 20)
#    0.000    1.000    2.500    6.375    1.750    0.500 
#    0.000    8.125    0.000    0.000    0.000    0.000 
#    0.000    0.000    0.000    0.000    0.000    0.000 
#
# Total GULP energy -198256.479197 kJ/mol
# GULP energy per Si atom -12391.029950 kJ/mol
# Density = 2.536866 g / cm^3
# Si number density = 25.426531 Si / 1000 Ang^3
#
#
#
# Elastic Constant Matrix: (Units=GPa)
#
#
# Indices 1 2 3 4 5 6 
#
# 1 95.8622 -1.0426 0.4234 8.1375 -6.9562 31.7691
# 2 -1.0426 108.8963 -0.3440 11.8787 8.7957 25.6716
# 3 0.4234 -0.3440 59.7460 19.9716 -6.9347 -8.9423
# 4 8.1375 11.8787 19.9716 44.4206 3.5502 -1.4688
# 5 -6.9562 8.7957 -6.9347 3.5502 32.7592 9.2178
# 6 31.7691 25.6716 -8.9423 -1.4688 9.2178 47.3160
#
#
#
# Elastic Compliance Matrix: (Units=1/GPa)
#
#
# Indices 1 2 3 4 5 6 
#
# 1 0.016113 0.003478 0.000293 -0.005049 0.007089 -0.014189
# 2 0.003478 0.011727 0.000181 -0.004196 0.000590 -0.008909
# 3 0.000293 0.000181 0.020943 -0.009824 0.004832 0.002417
# 4 -0.005049 -0.004196 -0.009824 0.029734 -0.006961 0.006089
# 5 0.007089 0.000590 0.004832 -0.006961 0.036906 -0.011573
# 6 -0.014189 -0.008909 0.002417 0.006089 -0.011573 0.038395
#
#
# Mechanical properties :
#
#
# Convention : Reuss Voigt Hill
#
# Bulk Modulus (GPa) = 17.64066 29.17535 23.40801
# Shear Modulus (GPa) = 30.33771 42.59699 36.46735
#
# Velocity S-wave (km/s) = 3.45795 4.09748 3.79122
# Velocity P-wave (km/s) = 4.78500 5.82109 5.32829
#
# Compressibility (1/GPa) = 0.05668721
#
# Stress axis : x y z
#
# Youngs Moduli (GPa) = 62.06027 85.27120 47.74845
#
# Poissons Ratio (x) = -0.29659 -0.01399
# Poissons Ratio (y) = -0.21586 -0.00862
# Poissons Ratio (z) = -0.01818 -0.01539
#
# Static dielectric constant tensor:
#      x y z
#    x 4.999420 0.045600 -0.408450 
#    y 0.045600 4.572070 0.446920 
#    z -0.408450 0.446920 4.923520 
# 
# 
# High freq. dielectric constant tensor:
#      x y z
#    x 2.025140 0.010760 -0.016110 
#    y 0.010760 2.017270 0.025330 
#    z -0.016110 0.025330 2.011410 
# 
# From -- ./inp_files/500858.got.cif
#   From: 2010.06.25/outbox.cif.g09.slc.cpg/sg2_251_cif.got.tgz:500858.got - 2010.06.27 13:26:56.
