data_PCOD8021837
_publ_section_title
;
Structure prediction by ZEFSAII (Michael W. Deem and Ramdas Pophale) SiO2 
 PCOD8021837
Probable space group: P -1
;
_chemical_formula_sum "Si O2"
_cell_formula_units_Z 16
_cell_length_a 8.681856
_cell_length_b 10.466726
_cell_length_c 9.710889
_cell_angle_alpha 85.851339
_cell_angle_beta 93.930244
_cell_angle_gamma 125.635553
_cell_volume 714.930705
_symmetry_space_group_name_H-M "P -1"
_symmetry_group_IT_number 2
_symmetry_cell_setting 'triclinic'
loop_
_space_group_symop_operation_xyz
x,y,z
-x,-y,-z
loop_
_atom_site_type_symbol
_atom_site_label
_atom_site_fract_x
_atom_site_fract_y
_atom_site_fract_z
Si Si1 0.960820 0.146348 0.087133
Si Si2 0.426914 0.968128 0.843864
Si Si3 0.390678 0.580573 0.498159
Si Si4 0.567081 0.913527 0.607526
Si Si5 0.299512 0.678769 0.224678
Si Si6 0.066999 0.932759 0.214807
Si Si7 0.887838 0.598208 0.269291
Si Si8 0.691272 0.511208 0.996405
O O1 0.146770 0.321241 0.071413
O O2 0.005486 0.049301 0.197250
O O3 0.799657 0.139707 0.163300
O O4 0.866664 0.066068 0.939122
O O5 0.531283 0.137812 0.762052
O O6 0.465958 0.866275 0.755175
O O7 0.500000 0.000000 0.000000
O O8 0.500000 0.500000 0.500000
O O9 0.527219 0.758817 0.546109
O O10 0.321820 0.575604 0.341603
O O11 0.198517 0.485222 0.584312
O O12 0.500000 0.000000 0.500000
O O13 0.787842 0.025239 0.654652
O O14 0.323399 0.625582 0.081468
O O15 0.098326 0.649591 0.242723
O O16 0.890376 0.754979 0.252211
O O17 0.744998 0.483482 0.151338
O O18 0.500000 0.500000 0.000000
#
# Coordination Sequence:
#
# PCOD8021837 Si02
#       8
#     2   2   2   2   2   2   2   2
#     4  10  24  41  71 109 139 182 239 298 362 421
#     4  12  24  45  77 103 140 185 244 303 355 431
#     4  12  29  47  72 103 150 197 240 294 366 431
#     4  12  25  48  73 102 144 193 241 297 360 433
#     4  12  26  47  69 107 144 188 243 297 360 431
#     4  10  22  44  69 104 143 178 240 297 357 432
#     4  11  24  47  72 101 141 188 240 299 358 430
#     4  11  26  43  71 105 144 187 238 299 364 426
#
# _framework density 22.379791999999998
#
# number of rings (size 3 to 8) (size 9 to 14) (size 15 to 20)
#    0.000    0.750    3.750    2.250   14.000    0.000 
#    0.000    1.250    0.000    0.000    0.000    0.000 
#    0.000    0.000    0.000    0.000    0.000    0.000 
#
# Total GULP energy -198303.944501 kJ/mol
# GULP energy per Si atom -12393.996531 kJ/mol
# Density = 2.232885 g / cm^3
# Si number density = 22.379792 Si / 1000 Ang^3
#
#
#
# Elastic Constant Matrix: (Units=GPa)
#
#
# Indices 1 2 3 4 5 6 
#
# 1 102.3839 41.0071 29.4840 -1.1128 -5.8742 8.4604
# 2 41.0071 88.6136 26.7942 2.8709 -5.4776 1.5314
# 3 29.4840 26.7942 104.3198 -0.5550 11.5366 -0.2549
# 4 -1.1128 2.8709 -0.5550 38.7632 -2.5517 -5.2312
# 5 -5.8742 -5.4776 11.5366 -2.5517 48.0798 -4.2070
# 6 8.4604 1.5314 -0.2549 -5.2312 -4.2070 43.2458
#
#
#
# Elastic Compliance Matrix: (Units=1/GPa)
#
#
# Indices 1 2 3 4 5 6 
#
# 1 0.012765 -0.005053 -0.002469 0.000511 0.001417 -0.002133
# 2 -0.005053 0.014499 -0.002479 -0.001082 0.001615 0.000487
# 3 -0.002469 -0.002479 0.011282 0.000105 -0.003257 0.000333
# 4 0.000511 -0.001082 0.000105 0.026444 0.001606 0.003294
# 5 0.001417 0.001615 -0.003257 0.001606 0.022197 0.002000
# 6 -0.002133 0.000487 0.000333 0.003294 0.002000 0.024119
#
#
# Mechanical properties :
#
#
# Convention : Reuss Voigt Hill
#
# Bulk Modulus (GPa) = 53.92507 54.43196 54.17852
# Shear Modulus (GPa) = 36.36620 39.21989 37.79305
#
# Velocity S-wave (km/s) = 4.03545 4.19079 4.11385
# Velocity P-wave (km/s) = 6.77207 6.91315 6.84297
#
# Compressibility (1/GPa) = 0.01854425
#
# Stress axis : x y z
#
# Youngs Moduli (GPa) = 78.33875 68.96920 88.63631
#
# Poissons Ratio (x) = 0.34848 0.21886
# Poissons Ratio (y) = 0.39582 0.21974
# Poissons Ratio (z) = 0.19344 0.17099
#
# Static dielectric constant tensor:
#      x y z
#    x 4.581430 0.450290 0.243710 
#    y 0.450290 4.548030 0.199030 
#    z 0.243710 0.199030 4.343800 
# 
# 
# High freq. dielectric constant tensor:
#      x y z
#    x 1.881340 -0.003750 0.003480 
#    y -0.003750 1.886000 -0.001440 
#    z 0.003480 -0.001440 1.888720 
# 
# From -- ./inp_files/187702.got.cif
#   From: 2010.06.25/outbox.cif.g09.slc.cpg/sg2_94_cif.got.tgz:187702.got - 2010.06.27 13:26:56.
