data_PCOD8021193
_publ_section_title
;
Structure prediction by ZEFSAII (Michael W. Deem and Ramdas Pophale) SiO2 
 PCOD8021193
Probable space group: P -1
;
_chemical_formula_sum "Si O2"
_cell_formula_units_Z 14
_cell_length_a 6.825453
_cell_length_b 17.813545
_cell_length_c 8.543950
_cell_angle_alpha 49.580430
_cell_angle_beta 101.656235
_cell_angle_gamma 122.642695
_cell_volume 648.038675
_symmetry_space_group_name_H-M "P -1"
_symmetry_group_IT_number 2
_symmetry_cell_setting 'triclinic'
loop_
_space_group_symop_operation_xyz
x,y,z
-x,-y,-z
loop_
_atom_site_type_symbol
_atom_site_label
_atom_site_fract_x
_atom_site_fract_y
_atom_site_fract_z
Si Si1 0.824722 0.620810 0.495054
Si Si2 0.462962 0.250254 0.114589
Si Si3 0.886157 0.116482 0.734438
Si Si4 0.997410 0.050224 0.162487
Si Si5 0.441566 0.054259 0.562733
Si Si6 0.672368 0.575752 0.190547
Si Si7 0.966624 0.460527 0.869214
O O1 0.825794 0.643117 0.279299
O O2 0.561800 0.544606 0.628062
O O3 0.964802 0.556717 0.630853
O O4 0.952825 0.743326 0.440938
O O5 0.477124 0.179061 0.357896
O O6 0.271602 0.158675 0.081283
O O7 0.386083 0.340311 0.029041
O O8 0.727674 0.331286 0.973607
O O9 0.616313 0.073484 0.705980
O O10 0.878029 0.069542 0.969051
O O11 0.996427 0.066253 0.700499
O O12 0.833702 0.033487 0.308591
O O13 0.500000 0.000000 0.500000
O O14 0.808665 0.543685 0.135743
O O15 0.000000 0.500000 0.000000
#
# Coordination Sequence:
#
# PCOD8021193 Si02
#       7
#     2   2   2   2   2   2   2
#     4  10  22  43  68  98 126 179 220 267 332 386
#     4  11  24  42  70  97 134 177 215 273 333 387
#     4  11  24  44  70  97 136 173 225 273 321 403
#     4  11  25  46  66 100 133 179 221 269 333 391
#     4  12  26  42  65  99 136 174 222 269 331 392
#     4  10  23  44  69  95 135 170 220 276 325 396
#     4  11  25  43  66 103 134 171 221 270 338 392
#
# _framework density 21.603649000000001
#
# number of rings (size 3 to 8) (size 9 to 14) (size 15 to 20)
#    0.000    1.143    2.857    2.143    2.000    5.714 
#    5.143    0.000    0.000    0.000    0.000    0.000 
#    0.000    0.000    0.000    0.000    0.000    0.000 
#
# Total GULP energy -173628.211397 kJ/mol
# GULP energy per Si atom -12402.015100 kJ/mol
# Density = 2.155448 g / cm^3
# Si number density = 21.603649 Si / 1000 Ang^3
#
#
#
# Elastic Constant Matrix: (Units=GPa)
#
#
# Indices 1 2 3 4 5 6 
#
# 1 137.3195 40.7924 57.4202 2.2902 3.3963 -15.8503
# 2 40.7924 103.6709 27.9901 -11.9171 -7.7419 3.9800
# 3 57.4202 27.9901 97.6943 -5.3842 17.2143 -4.2622
# 4 2.2902 -11.9171 -5.3842 34.6305 2.3785 4.1288
# 5 3.3963 -7.7419 17.2143 2.3785 36.6452 13.2098
# 6 -15.8503 3.9800 -4.2622 4.1288 13.2098 32.6818
#
#
#
# Elastic Compliance Matrix: (Units=1/GPa)
#
#
# Indices 1 2 3 4 5 6 
#
# 1 0.011475 -0.003846 -0.005305 -0.003568 -0.001452 0.006380
# 2 -0.003846 0.013230 -0.002763 0.004769 0.006719 -0.007155
# 3 -0.005305 -0.002763 0.015963 0.002114 -0.008868 0.003163
# 4 -0.003568 0.004769 0.002114 0.031792 0.000542 -0.006271
# 5 -0.001452 0.006719 -0.008868 0.000542 0.039757 -0.018817
# 6 0.006380 -0.007155 0.003163 -0.006271 -0.018817 0.043374
#
#
# Mechanical properties :
#
#
# Convention : Reuss Voigt Hill
#
# Bulk Modulus (GPa) = 59.38593 65.67666 62.53129
# Shear Modulus (GPa) = 27.02227 34.95699 30.98963
#
# Velocity S-wave (km/s) = 3.54053 4.02693 3.79154
# Velocity P-wave (km/s) = 6.65299 7.21722 6.94084
#
# Compressibility (1/GPa) = 0.01683901
#
# Stress axis : x y z
#
# Youngs Moduli (GPa) = 87.14645 75.58502 62.64619
#
# Poissons Ratio (x) = 0.29073 0.33233
# Poissons Ratio (y) = 0.33520 0.17310
# Poissons Ratio (z) = 0.46230 0.20885
#
# Static dielectric constant tensor:
#      x y z
#    x 3.985760 0.184610 0.336870 
#    y 0.184610 3.899080 -0.062510 
#    z 0.336870 -0.062510 3.926490 
# 
# 
# High freq. dielectric constant tensor:
#      x y z
#    x 1.854310 0.011400 0.022990 
#    y 0.011400 1.848500 -0.006090 
#    z 0.022990 -0.006090 1.852170 
# 
# From -- ./inp_files/27537.got.cif
#   From: 2010.06.25/outbox.cif.g09.slc.cpg/sg2_14_cif.got.tgz:27537.got - 2010.06.27 13:26:56.
