data_PCOD8021216
_publ_section_title
;
Structure prediction by ZEFSAII (Michael W. Deem and Ramdas Pophale) SiO2 
 PCOD8021216
Probable space group: P -1
;
_chemical_formula_sum "Si O2"
_cell_formula_units_Z 16
_cell_length_a 7.078632
_cell_length_b 9.684894
_cell_length_c 20.323670
_cell_angle_alpha 141.349953
_cell_angle_beta 118.165335
_cell_angle_gamma 84.443931
_cell_volume 667.166766
_symmetry_space_group_name_H-M "P -1"
_symmetry_group_IT_number 2
_symmetry_cell_setting 'triclinic'
loop_
_space_group_symop_operation_xyz
x,y,z
-x,-y,-z
loop_
_atom_site_type_symbol
_atom_site_label
_atom_site_fract_x
_atom_site_fract_y
_atom_site_fract_z
Si Si1 0.939787 0.353965 0.261336
Si Si2 0.496991 0.362982 0.533599
Si Si3 0.362585 0.810236 0.288937
Si Si4 0.222788 0.085372 0.018988
Si Si5 0.018227 0.277780 0.384703
Si Si6 0.666652 0.551622 0.947990
Si Si7 0.145563 0.273266 0.813034
Si Si8 0.632828 0.566590 0.320652
O O1 0.893204 0.598120 0.347777
O O2 0.224826 0.425875 0.327678
O O3 0.865148 0.213890 0.267938
O O4 0.783831 0.165731 0.105940
O O5 0.315713 0.391239 0.460790
O O6 0.343308 0.343645 0.567397
O O7 0.509819 0.112336 0.424266
O O8 0.323228 0.699768 0.167199
O O9 0.530079 0.719273 0.320223
O O10 0.096590 0.712917 0.244675
O O11 0.208369 0.242546 0.012640
O O12 0.462434 0.260396 0.167376
O O13 0.000000 0.000000 0.000000
O O14 0.000000 0.500000 0.500000
O O15 0.906526 0.016152 0.310523
O O16 0.377972 0.468699 0.880900
O O17 0.817810 0.653386 0.076991
#
# Coordination Sequence:
#
# PCOD8021216 Si02
#       8
#     2   2   2   2   2   2   2   2
#     4  12  24  44  69  99 140 180 231 287 347 414
#     4  11  24  42  68  98 136 183 229 284 353 413
#     4  10  24  41  66  99 136 179 236 282 344 417
#     4  11  23  46  70 102 139 181 233 284 348 418
#     4  11  23  43  70 103 138 177 231 289 350 414
#     4  10  22  43  69 101 131 187 234 287 348 404
#     4  10  22  44  70  97 140 182 235 288 342 416
#     4  11  24  43  65  97 138 180 233 281 346 413
#
# _framework density 23.982012999999998
#
# number of rings (size 3 to 8) (size 9 to 14) (size 15 to 20)
#    0.000    1.250    3.750    1.500    1.750    2.500 
#    4.500    3.750    0.000    0.000    0.000    0.000 
#    0.000    0.000    0.000    0.000    0.000    0.000 
#
# Total GULP energy -198248.217154 kJ/mol
# GULP energy per Si atom -12390.513572 kJ/mol
# Density = 2.392743 g / cm^3
# Si number density = 23.982013 Si / 1000 Ang^3
#
#
#
# Elastic Constant Matrix: (Units=GPa)
#
#
# Indices 1 2 3 4 5 6 
#
# 1 98.5761 34.9149 14.3226 7.0805 -10.4329 -8.1515
# 2 34.9149 84.6369 12.1510 3.3558 -5.4195 -27.1059
# 3 14.3226 12.1510 113.4142 6.5317 -28.0601 -7.2737
# 4 7.0805 3.3558 6.5317 26.1415 -7.8065 -0.5692
# 5 -10.4329 -5.4195 -28.0601 -7.8065 49.8605 1.5906
# 6 -8.1515 -27.1059 -7.2737 -0.5692 1.5906 42.0213
#
#
#
# Elastic Compliance Matrix: (Units=1/GPa)
#
#
# Indices 1 2 3 4 5 6 
#
# 1 0.012265 -0.005165 -0.000608 -0.002124 0.001367 -0.001138
# 2 -0.005165 0.017256 -0.000496 -0.000436 0.000127 0.010032
# 3 -0.000608 -0.000496 0.010433 -0.000698 0.005544 0.001148
# 4 -0.002124 -0.000436 -0.000698 0.040692 0.005502 -0.000471
# 5 0.001367 0.000127 0.005544 0.005502 0.024322 0.000461
# 6 -0.001138 0.010032 0.001148 -0.000471 0.000461 0.030223
#
#
# Mechanical properties :
#
#
# Convention : Reuss Voigt Hill
#
# Bulk Modulus (GPa) = 36.47796 46.60047 41.53921
# Shear Modulus (GPa) = 31.87383 39.28723 35.58053
#
# Velocity S-wave (km/s) = 3.64960 4.05185 3.85598
# Velocity P-wave (km/s) = 5.74482 6.43146 6.09781
#
# Compressibility (1/GPa) = 0.02741382
#
# Stress axis : x y z
#
# Youngs Moduli (GPa) = 81.53032 57.95214 95.85186
#
# Poissons Ratio (x) = 0.29934 0.05829
# Poissons Ratio (y) = 0.42113 0.04759
# Poissons Ratio (z) = 0.04958 0.02877
#
# Static dielectric constant tensor:
#      x y z
#    x 4.483150 -0.225030 -0.194400 
#    y -0.225030 4.086980 -0.229330 
#    z -0.194400 -0.229330 4.791920 
# 
# 
# High freq. dielectric constant tensor:
#      x y z
#    x 1.957810 -0.020240 -0.013960 
#    y -0.020240 1.928070 -0.013850 
#    z -0.013960 -0.013850 1.970670 
# 
# From -- ./inp_files/604524.got.cif
#   From: 2010.06.25/outbox.cif.g09.slc.cpg/sg2_303_cif.got.tgz:604524.got - 2010.06.27 13:26:56.
