data_PCOD8021455
_publ_section_title
;
Structure prediction by ZEFSAII (Michael W. Deem and Ramdas Pophale) SiO2 
 PCOD8021455
Probable space group: P -1
;
_chemical_formula_sum "Si O2"
_cell_formula_units_Z 14
_cell_length_a 8.257917
_cell_length_b 14.173883
_cell_length_c 10.221037
_cell_angle_alpha 57.347262
_cell_angle_beta 117.333519
_cell_angle_gamma 144.930405
_cell_volume 578.363242
_symmetry_space_group_name_H-M "P -1"
_symmetry_group_IT_number 2
_symmetry_cell_setting 'triclinic'
loop_
_space_group_symop_operation_xyz
x,y,z
-x,-y,-z
loop_
_atom_site_type_symbol
_atom_site_label
_atom_site_fract_x
_atom_site_fract_y
_atom_site_fract_z
Si Si1 0.923527 0.917825 0.335442
Si Si2 0.085866 0.415623 0.132910
Si Si3 0.619130 0.244105 0.634513
Si Si4 0.774181 0.720065 0.895302
Si Si5 0.695630 0.074366 0.391871
Si Si6 0.230666 0.516666 0.698378
Si Si7 0.280941 0.309443 0.800162
O O1 0.597074 0.779511 0.351543
O O2 0.931681 0.862857 0.237700
O O3 0.067799 0.908429 0.504995
O O4 0.077963 0.108515 0.251146
O O5 0.097233 0.333894 0.076475
O O6 0.395079 0.571323 0.194307
O O7 0.853136 0.262372 0.266192
O O8 0.000000 0.500000 0.000000
O O9 0.677282 0.324389 0.452251
O O10 0.904249 0.372993 0.731187
O O11 0.496464 0.062265 0.696859
O O12 0.435421 0.572417 0.851835
O O13 0.824171 0.754528 0.041739
O O14 0.500000 0.000000 0.500000
O O15 0.243467 0.423197 0.664164
#
# Coordination Sequence:
#
# PCOD8021455 Si02
#       7
#     2   2   2   2   2   2   2
#     4  12  24  45  73 107 145 184 249 293 363 421
#     4  11  26  47  75 108 144 193 243 296 368 430
#     4  11  23  43  74 105 136 186 239 307 358 425
#     4  11  23  48  75  98 151 194 235 298 362 432
#     4  12  26  44  75 108 148 188 239 307 360 426
#     4  10  22  43  73 102 139 185 242 293 367 427
#     4  11  26  43  69 106 146 195 237 295 358 433
#
# _framework density 24.206242
#
# number of rings (size 3 to 8) (size 9 to 14) (size 15 to 20)
#    0.000    0.857    2.857    5.143    2.000    8.000 
#    2.571    1.429    0.000    0.000    0.000    0.000 
#    0.000    0.000    0.000    0.000    0.000    0.000 
#
# Total GULP energy -173604.552985 kJ/mol
# GULP energy per Si atom -12400.325213 kJ/mol
# Density = 2.415115 g / cm^3
# Si number density = 24.206242 Si / 1000 Ang^3
#
#
#
# Elastic Constant Matrix: (Units=GPa)
#
#
# Indices 1 2 3 4 5 6 
#
# 1 103.3228 52.3820 38.3439 -8.7438 14.4751 17.4346
# 2 52.3820 104.4478 41.4443 -11.6206 6.6665 0.1227
# 3 38.3439 41.4443 94.6004 -20.0585 7.2047 0.3838
# 4 -8.7438 -11.6206 -20.0585 43.6276 -7.3840 -0.5646
# 5 14.4751 6.6665 7.2047 -7.3840 45.7236 -1.4685
# 6 17.4346 0.1227 0.3838 -0.5646 -1.4685 49.0368
#
#
#
# Elastic Compliance Matrix: (Units=1/GPa)
#
#
# Indices 1 2 3 4 5 6 
#
# 1 0.015533 -0.006282 -0.003411 -0.000841 -0.003780 -0.005603
# 2 -0.006282 0.014186 -0.003508 0.001057 0.000717 0.002259
# 3 -0.003411 -0.003508 0.014559 0.005118 0.000162 0.001172
# 4 -0.000841 0.001057 0.005118 0.025992 0.003524 0.000661
# 5 -0.003780 0.000717 0.000162 0.003524 0.023573 0.002087
# 6 -0.005603 0.002259 0.001172 0.000661 0.002087 0.022440
#
#
# Mechanical properties :
#
#
# Convention : Reuss Voigt Hill
#
# Bulk Modulus (GPa) = 55.94675 62.96793 59.45734
# Shear Modulus (GPa) = 33.63710 39.02433 36.33071
#
# Velocity S-wave (km/s) = 3.73178 4.01953 3.87832
# Velocity P-wave (km/s) = 6.45995 6.90012 6.68366
#
# Compressibility (1/GPa) = 0.01787414
#
# Stress axis : x y z
#
# Youngs Moduli (GPa) = 64.37844 70.49205 68.68815
#
# Poissons Ratio (x) = 0.44284 0.23433
# Poissons Ratio (y) = 0.40444 0.24097
# Poissons Ratio (z) = 0.21962 0.24730
#
# Static dielectric constant tensor:
#      x y z
#    x 4.388660 0.087360 0.211670 
#    y 0.087360 4.528030 -0.120170 
#    z 0.211670 -0.120170 4.103820 
# 
# 
# High freq. dielectric constant tensor:
#      x y z
#    x 1.967650 0.001630 0.009090 
#    y 0.001630 1.974760 -0.009630 
#    z 0.009090 -0.009630 1.944990 
# 
# From -- ./inp_files/397223.got.cif
#   From: 2010.06.25/outbox.cif.g09.slc.cpg/sg2_199_cif.got.tgz:397223.got - 2010.06.27 13:26:56.
