data_PCOD8021689
_publ_section_title
;
Structure prediction by ZEFSAII (Michael W. Deem and Ramdas Pophale) SiO2 
 PCOD8021689
Probable space group: P -1
;
_chemical_formula_sum "Si O2"
_cell_formula_units_Z 16
_cell_length_a 9.696998
_cell_length_b 12.145071
_cell_length_c 8.670783
_cell_angle_alpha 117.008127
_cell_angle_beta 98.604604
_cell_angle_gamma 56.388876
_cell_volume 750.532777
_symmetry_space_group_name_H-M "P -1"
_symmetry_group_IT_number 2
_symmetry_cell_setting 'triclinic'
loop_
_space_group_symop_operation_xyz
x,y,z
-x,-y,-z
loop_
_atom_site_type_symbol
_atom_site_label
_atom_site_fract_x
_atom_site_fract_y
_atom_site_fract_z
Si Si1 0.820888 0.058368 0.066536
Si Si2 0.819774 0.102483 0.454725
Si Si3 0.700290 0.398668 0.773850
Si Si4 0.489189 0.129199 0.487396
Si Si5 0.154977 0.446163 0.277710
Si Si6 0.337148 0.117446 0.135601
Si Si7 0.684117 0.360980 0.093441
Si Si8 0.209713 0.446342 0.638095
O O1 0.824842 0.060210 0.251914
O O2 0.695385 0.221632 0.083470
O O3 0.776769 0.947950 0.915662
O O4 0.000000 0.000000 0.000000
O O5 0.758330 0.273171 0.573738
O O6 0.679455 0.082682 0.490784
O O7 0.000000 0.000000 0.500000
O O8 0.790100 0.483551 0.799697
O O9 0.502962 0.507667 0.818094
O O10 0.748201 0.325623 0.904980
O O11 0.398890 0.139529 0.320942
O O12 0.368958 0.295487 0.643527
O O13 0.500000 0.000000 0.500000
O O14 0.230695 0.276126 0.132700
O O15 0.227285 0.445514 0.456335
O O16 0.954686 0.542338 0.319425
O O17 0.500000 0.000000 0.000000
O O18 0.801332 0.406441 0.218749
#
# Coordination Sequence:
#
# PCOD8021689 Si02
#       8
#     2   2   2   2   2   2   2   2
#     4  12  26  44  72 101 138 180 224 286 334 412
#     4  12  27  46  68 101 137 180 232 280 345 405
#     4  11  25  42  68 100 136 175 223 279 338 401
#     4  11  26  43  69  97 138 183 221 283 338 409
#     4  10  23  41  68  99 133 172 221 284 329 409
#     4  11  23  44  68 101 134 180 229 270 346 401
#     4  11  24  43  68  99 134 178 225 275 335 403
#     4  10  22  44  66  98 129 175 230 268 344 396
#
# _framework density 21.318190000000001
#
# number of rings (size 3 to 8) (size 9 to 14) (size 15 to 20)
#    0.000    1.000    2.500    3.000    7.000    3.500 
#    0.000    0.000    0.000    0.000    0.000    0.000 
#    0.000    0.000    0.000    0.000    0.000    0.000 
#
# Total GULP energy -198353.962433 kJ/mol
# GULP energy per Si atom -12397.122652 kJ/mol
# Density = 2.126967 g / cm^3
# Si number density = 21.318190 Si / 1000 Ang^3
#
#
#
# Elastic Constant Matrix: (Units=GPa)
#
#
# Indices 1 2 3 4 5 6 
#
# 1 144.3542 51.3807 28.4977 3.9418 6.2505 7.6678
# 2 51.3807 117.2576 24.8538 6.9104 1.6054 10.4138
# 3 28.4977 24.8538 58.7097 15.2100 10.5764 -3.3521
# 4 3.9418 6.9104 15.2100 33.8223 2.2676 3.5924
# 5 6.2505 1.6054 10.5764 2.2676 40.7743 8.1706
# 6 7.6678 10.4138 -3.3521 3.5924 8.1706 37.6330
#
#
#
# Elastic Compliance Matrix: (Units=1/GPa)
#
#
# Indices 1 2 3 4 5 6 
#
# 1 0.008715 -0.003076 -0.003294 0.001244 -0.000169 -0.001300
# 2 -0.003076 0.010882 -0.003559 -0.000047 0.001578 -0.003039
# 3 -0.003294 -0.003559 0.024219 -0.010009 -0.006310 0.006139
# 4 0.001244 -0.000047 -0.010009 0.034337 0.001444 -0.004723
# 5 -0.000169 0.001578 -0.006310 0.001444 0.027461 -0.007064
# 6 -0.001300 -0.003039 0.006139 -0.004723 -0.007064 0.030210
#
#
# Mechanical properties :
#
#
# Convention : Reuss Voigt Hill
#
# Bulk Modulus (GPa) = 41.74071 58.86511 50.30291
# Shear Modulus (GPa) = 30.54976 36.81853 33.68415
#
# Velocity S-wave (km/s) = 3.78965 4.16034 3.97932
# Velocity P-wave (km/s) = 6.22664 7.12394 6.69035
#
# Compressibility (1/GPa) = 0.02395743
#
# Stress axis : x y z
#
# Youngs Moduli (GPa) = 114.74475 91.89802 41.29006
#
# Poissons Ratio (x) = 0.28269 0.13601
# Poissons Ratio (y) = 0.35297 0.14695
# Poissons Ratio (z) = 0.37796 0.32706
#
# Static dielectric constant tensor:
#      x y z
#    x 4.005110 -0.288790 0.014050 
#    y -0.288790 3.978560 0.099110 
#    z 0.014050 0.099110 3.791280 
# 
# 
# High freq. dielectric constant tensor:
#      x y z
#    x 1.852200 -0.002680 0.002170 
#    y -0.002680 1.840630 0.017060 
#    z 0.002170 0.017060 1.840010 
# 
# From -- ./inp_files/190189.got.cif
#   From: 2010.06.25/outbox.cif.g09.slc.cpg/sg2_96_cif.got.tgz:190189.got - 2010.06.27 13:26:56.
