data_PCOD8021986
_publ_section_title
;
Structure prediction by ZEFSAII (Michael W. Deem and Ramdas Pophale) SiO2 
 PCOD8021986
Probable space group: P -1
;
_chemical_formula_sum "Si O2"
_cell_formula_units_Z 16
_cell_length_a 9.065669
_cell_length_b 11.708099
_cell_length_c 14.067173
_cell_angle_alpha 144.138347
_cell_angle_beta 59.543861
_cell_angle_gamma 104.299349
_cell_volume 713.247894
_symmetry_space_group_name_H-M "P -1"
_symmetry_group_IT_number 2
_symmetry_cell_setting 'triclinic'
loop_
_space_group_symop_operation_xyz
x,y,z
-x,-y,-z
loop_
_atom_site_type_symbol
_atom_site_label
_atom_site_fract_x
_atom_site_fract_y
_atom_site_fract_z
Si Si1 0.278509 0.814804 0.295382
Si Si2 0.408973 0.224004 0.063843
Si Si3 0.031226 0.038327 0.365967
Si Si4 0.681679 0.643092 0.019890
Si Si5 0.152747 0.317945 0.375765
Si Si6 0.623143 0.438525 0.268788
Si Si7 0.481509 0.240577 0.332929
Si Si8 0.977817 0.356583 0.994595
O O1 0.489038 0.794491 0.223774
O O2 0.179234 0.992189 0.371289
O O3 0.173367 0.879017 0.472055
O O4 0.274420 0.589710 0.112353
O O5 0.272551 0.186195 0.161058
O O6 0.531082 0.354063 0.154625
O O7 0.308831 0.360866 0.100225
O O8 0.517968 0.996186 0.832535
O O9 0.070710 0.830740 0.157389
O O10 0.051296 0.198190 0.390782
O O11 0.836870 0.727771 0.063915
O O12 0.291651 0.383568 0.442864
O O13 0.000000 0.500000 0.500000
O O14 0.641864 0.277838 0.242113
O O15 0.511805 0.670169 0.502372
O O16 0.812187 0.465138 0.192617
O O17 0.000000 0.500000 0.000000
#
# Coordination Sequence:
#
# PCOD8021986 Si02
#       8
#     2   2   2   2   2   2   2   2
#     4  10  23  42  70  92 132 184 224 270 334 402
#     4  11  23  45  70  97 136 179 222 281 341 406
#     4  11  23  45  70  98 133 180 224 271 344 410
#     4  11  24  43  65  99 134 175 225 282 332 392
#     4  11  23  40  72 104 134 175 221 281 345 399
#     4  10  23  42  69  96 131 177 229 274 336 406
#     4  10  22  44  71  96 130 183 226 270 344 406
#     4  12  25  42  65 100 135 177 224 280 333 397
#
# _framework density 22.432594000000002
#
# number of rings (size 3 to 8) (size 9 to 14) (size 15 to 20)
#    0.000    1.250    1.250    5.250    5.250    1.500 
#    9.000    1.250    0.000    0.000    0.000    0.000 
#    0.000    0.000    0.000    0.000    0.000    0.000 
#
# Total GULP energy -198278.697339 kJ/mol
# GULP energy per Si atom -12392.418584 kJ/mol
# Density = 2.238154 g / cm^3
# Si number density = 22.432594 Si / 1000 Ang^3
#
#
#
# Elastic Constant Matrix: (Units=GPa)
#
#
# Indices 1 2 3 4 5 6 
#
# 1 109.0586 48.7747 46.6233 -8.3084 -1.1780 -1.9267
# 2 48.7747 145.4564 47.2860 -23.4806 -5.9398 -7.5979
# 3 46.6233 47.2860 114.0462 -15.5252 6.4219 -2.2351
# 4 -8.3084 -23.4806 -15.5252 49.6411 8.4549 -4.8222
# 5 -1.1780 -5.9398 6.4219 8.4549 31.5708 5.9439
# 6 -1.9267 -7.5979 -2.2351 -4.8222 5.9439 22.9633
#
#
#
# Elastic Compliance Matrix: (Units=1/GPa)
#
#
# Indices 1 2 3 4 5 6 
#
# 1 0.012081 -0.002908 -0.003923 -0.000840 0.001074 -0.000785
# 2 -0.002908 0.009302 -0.002166 0.003452 0.000554 0.003204
# 3 -0.003923 -0.002166 0.011934 0.002924 -0.004102 0.001791
# 4 -0.000840 0.003452 0.002924 0.024803 -0.008258 0.008702
# 5 0.001074 0.000554 -0.004102 -0.008258 0.037019 -0.011442
# 6 -0.000785 0.003204 0.001791 0.008702 -0.011442 0.049506
#
#
# Mechanical properties :
#
#
# Convention : Reuss Voigt Hill
#
# Bulk Modulus (GPa) = 65.26663 72.65882 68.96273
# Shear Modulus (GPa) = 29.80662 35.89352 32.85007
#
# Velocity S-wave (km/s) = 3.64911 4.00442 3.83089
# Velocity P-wave (km/s) = 6.84927 7.33762 7.09764
#
# Compressibility (1/GPa) = 0.01532176
#
# Stress axis : x y z
#
# Youngs Moduli (GPa) = 82.77426 107.50771 83.79097
#
# Poissons Ratio (x) = 0.31267 0.32873
# Poissons Ratio (y) = 0.24074 0.18150
# Poissons Ratio (z) = 0.32474 0.23288
#
# Static dielectric constant tensor:
#      x y z
#    x 3.953420 -0.054090 -0.048850 
#    y -0.054090 3.923230 -0.298210 
#    z -0.048850 -0.298210 4.156470 
# 
# 
# High freq. dielectric constant tensor:
#      x y z
#    x 1.866250 0.004720 0.001240 
#    y 0.004720 1.895470 -0.020530 
#    z 0.001240 -0.020530 1.884140 
# 
# From -- ./inp_files/500935.got.cif
#   From: 2010.06.25/outbox.cif.g09.slc.cpg/sg2_251_cif.got.tgz:500935.got - 2010.06.27 13:26:56.
