data_PCOD8021633
_publ_section_title
;
Structure prediction by ZEFSAII (Michael W. Deem and Ramdas Pophale) SiO2 
 PCOD8021633
Probable space group: P -1
;
_chemical_formula_sum "Si O2"
_cell_formula_units_Z 16
_cell_length_a 5.287056
_cell_length_b 29.859791
_cell_length_c 9.534865
_cell_angle_alpha 151.106594
_cell_angle_beta 91.928100
_cell_angle_gamma 89.713177
_cell_volume 725.975995
_symmetry_space_group_name_H-M "P -1"
_symmetry_group_IT_number 2
_symmetry_cell_setting 'triclinic'
loop_
_space_group_symop_operation_xyz
x,y,z
-x,-y,-z
loop_
_atom_site_type_symbol
_atom_site_label
_atom_site_fract_x
_atom_site_fract_y
_atom_site_fract_z
Si Si1 0.787704 0.312233 0.697914
Si Si2 0.754783 0.054707 0.612369
Si Si3 0.443813 0.512870 0.698559
Si Si4 0.810881 0.554911 0.049680
Si Si5 0.270440 0.737947 0.750317
Si Si6 0.239352 0.894485 0.816302
Si Si7 0.760251 0.988644 0.142678
Si Si8 0.264847 0.357452 0.443168
O O1 0.665062 0.290852 0.485874
O O2 0.802676 0.215554 0.516747
O O3 0.062489 0.360755 0.807906
O O4 0.629966 0.382398 0.982303
O O5 0.500000 0.000000 0.500000
O O6 0.750213 0.065267 0.473529
O O7 0.768652 0.153536 0.957094
O O8 0.000000 0.000000 0.500000
O O9 0.500000 0.500000 0.500000
O O10 0.234484 0.433336 0.525089
O O11 0.671200 0.490935 0.752575
O O12 0.633213 0.595520 0.278502
O O13 0.000000 0.500000 0.000000
O O14 0.516323 0.714382 0.784880
O O15 0.013571 0.689602 0.673910
O O16 0.227863 0.950402 0.827162
O O17 0.512940 0.917862 0.955028
O O18 0.008281 0.927763 0.999091
#
# Coordination Sequence:
#
# PCOD8021633 Si02
#       8
#     2   2   2   2   2   2   2   2
#     4  11  23  40  67  98 128 175 230 276 331 410
#     4  12  24  41  67 100 136 168 220 284 334 394
#     4  12  26  43  65 100 138 178 225 294 346 400
#     4  11  22  44  70  93 131 184 232 280 340 412
#     4  11  24  40  70  97 128 177 229 275 329 406
#     4  10  23  41  69  96 131 178 221 270 335 421
#     4  10  22  44  65  96 135 177 214 271 348 401
#     4  11  23  44  66  95 132 180 230 271 334 416
#
# _framework density 22.039294000000002
#
# number of rings (size 3 to 8) (size 9 to 14) (size 15 to 20)
#    0.000    1.000    2.500    4.875    1.750    2.500 
#    2.250    0.000    0.000    0.000    0.000    0.000 
#    0.000    0.000    0.000    0.000    0.000    0.000 
#
# Total GULP energy -198260.267007 kJ/mol
# GULP energy per Si atom -12391.266688 kJ/mol
# Density = 2.198913 g / cm^3
# Si number density = 22.039294 Si / 1000 Ang^3
#
#
#
# Elastic Constant Matrix: (Units=GPa)
#
#
# Indices 1 2 3 4 5 6 
#
# 1 132.0297 54.9835 44.2674 6.4288 -17.2579 5.3483
# 2 54.9835 85.9987 61.7574 -1.9782 2.4586 17.1287
# 3 44.2674 61.7574 129.1701 9.8322 -17.3684 15.1003
# 4 6.4288 -1.9782 9.8322 49.0939 0.1446 -4.1204
# 5 -17.2579 2.4586 -17.3684 0.1446 31.5834 5.9785
# 6 5.3483 17.1287 15.1003 -4.1204 5.9785 26.2702
#
#
#
# Elastic Compliance Matrix: (Units=1/GPa)
#
#
# Indices 1 2 3 4 5 6 
#
# 1 0.012001 -0.009049 0.001389 -0.002195 0.007940 0.000507
# 2 -0.009049 0.026941 -0.010982 0.003996 -0.011951 -0.006065
# 3 0.001389 -0.010982 0.014803 -0.004014 0.010660 -0.004687
# 4 -0.002195 0.003996 -0.004014 0.022028 -0.004703 0.004674
# 5 0.007940 -0.011951 0.010660 -0.004703 0.044878 -0.010903
# 6 0.000507 -0.006065 -0.004687 0.004674 -0.010903 0.047825
#
#
# Mechanical properties :
#
#
# Convention : Reuss Voigt Hill
#
# Bulk Modulus (GPa) = 60.74695 74.35724 67.55209
# Shear Modulus (GPa) = 23.66896 33.80219 28.73558
#
# Velocity S-wave (km/s) = 3.28066 3.92053 3.61478
# Velocity P-wave (km/s) = 6.47867 7.36925 6.93826
#
# Compressibility (1/GPa) = 0.01646173
#
# Stress axis : x y z
#
# Youngs Moduli (GPa) = 83.32762 37.11785 67.55343
#
# Poissons Ratio (x) = 0.33586 -0.09382
# Poissons Ratio (y) = 0.75400 0.74187
# Poissons Ratio (z) = -0.11573 0.40763
#
# Static dielectric constant tensor:
#      x y z
#    x 4.264250 0.153640 -0.087350 
#    y 0.153640 3.883550 0.083730 
#    z -0.087350 0.083730 4.463270 
# 
# 
# High freq. dielectric constant tensor:
#      x y z
#    x 1.880210 0.010290 -0.007540 
#    y 0.010290 1.860690 0.014170 
#    z -0.007540 0.014170 1.860880 
# 
# From -- ./inp_files/143188.got.cif
#   From: 2010.06.25/outbox.cif.g09.slc.cpg/sg2_72_cif.got.tgz:143188.got - 2010.06.27 13:26:56.
