data_PCOD8021453
_publ_section_title
;
Structure prediction by ZEFSAII (Michael W. Deem and Ramdas Pophale) SiO2 
 PCOD8021453
Probable space group: P -1
;
_chemical_formula_sum "Si O2"
_cell_formula_units_Z 16
_cell_length_a 9.289693
_cell_length_b 9.201474
_cell_length_c 12.691624
_cell_angle_alpha 113.615613
_cell_angle_beta 73.863609
_cell_angle_gamma 133.490368
_cell_volume 721.141874
_symmetry_space_group_name_H-M "P -1"
_symmetry_group_IT_number 2
_symmetry_cell_setting 'triclinic'
loop_
_space_group_symop_operation_xyz
x,y,z
-x,-y,-z
loop_
_atom_site_type_symbol
_atom_site_label
_atom_site_fract_x
_atom_site_fract_y
_atom_site_fract_z
Si Si1 0.001149 0.353162 0.664985
Si Si2 0.450660 0.710338 0.875681
Si Si3 0.702355 0.702733 0.474443
Si Si4 0.970206 0.711897 0.134189
Si Si5 0.191722 0.170890 0.282324
Si Si6 0.686784 0.016795 0.468218
Si Si7 0.071306 0.758928 0.720803
Si Si8 0.252325 0.892830 0.939271
O O1 0.187472 0.362813 0.627293
O O2 0.948322 0.330491 0.793292
O O3 0.055759 0.559952 0.666485
O O4 0.820530 0.164431 0.580397
O O5 0.267886 0.475775 0.886677
O O6 0.581877 0.709783 0.761841
O O7 0.369826 0.812870 0.865307
O O8 0.595776 0.863248 0.986043
O O9 0.500000 0.500000 0.500000
O O10 0.834052 0.849747 0.591353
O O11 0.644642 0.802820 0.435404
O O12 0.027599 0.935828 0.202357
O O13 0.089145 0.732231 0.014062
O O14 0.139935 0.307453 0.284026
O O15 0.500000 0.000000 0.500000
O O16 0.778756 0.088566 0.355889
O O17 0.145707 0.879745 0.852097
#
# Coordination Sequence:
#
# PCOD8021453 Si02
#       8
#     2   2   2   2   2   2   2   2
#     4  12  24  45  72  97 145 187 233 284 352 424
#     4  10  22  43  73 102 129 185 239 284 349 423
#     4  12  25  45  71 100 138 194 234 281 352 432
#     4  11  22  45  75 101 132 191 241 284 351 421
#     4  11  25  44  69  98 146 180 234 292 353 416
#     4  12  27  43  69 107 142 180 233 295 353 419
#     4  12  26  46  65 103 147 182 227 299 352 407
#     4  10  24  43  73 102 140 179 239 297 342 420
#
# _framework density 22.187034000000001
#
# number of rings (size 3 to 8) (size 9 to 14) (size 15 to 20)
#    0.000    0.750    3.750    3.375    3.500    3.000 
#    0.000    1.250    0.000    0.000    0.000    0.000 
#    0.000    0.000    0.000    0.000    0.000    0.000 
#
# Total GULP energy -198437.802989 kJ/mol
# GULP energy per Si atom -12402.362687 kJ/mol
# Density = 2.213654 g / cm^3
# Si number density = 22.187034 Si / 1000 Ang^3
#
#
#
# Elastic Constant Matrix: (Units=GPa)
#
#
# Indices 1 2 3 4 5 6 
#
# 1 143.3880 49.7823 51.5587 -24.1412 -7.4715 -18.9017
# 2 49.7823 134.5738 32.5997 -18.6852 -1.0679 -0.9947
# 3 51.5587 32.5997 126.2778 -31.0787 5.2409 -3.2869
# 4 -24.1412 -18.6852 -31.0787 27.2581 -4.5155 1.3288
# 5 -7.4715 -1.0679 5.2409 -4.5155 33.8970 -0.5753
# 6 -18.9017 -0.9947 -3.2869 1.3288 -0.5753 45.7916
#
#
#
# Elastic Compliance Matrix: (Units=1/GPa)
#
#
# Indices 1 2 3 4 5 6 
#
# 1 0.010192 -0.002452 -0.002319 0.005053 0.003267 0.003882
# 2 -0.002452 0.008935 -0.000481 0.003495 0.000265 -0.000951
# 3 -0.002319 -0.000481 0.011673 0.010799 -0.000900 -0.000455
# 4 0.005053 0.003495 0.010799 0.056991 0.007169 0.001373
# 5 0.003267 0.000265 -0.000900 0.007169 0.031349 0.001475
# 6 0.003882 -0.000951 -0.000455 0.001373 0.001475 0.023366
#
#
# Mechanical properties :
#
#
# Convention : Reuss Voigt Hill
#
# Bulk Modulus (GPa) = 49.27185 74.68011 61.97598
# Shear Modulus (GPa) = 31.29381 39.40924 35.35153
#
# Velocity S-wave (km/s) = 3.75968 4.21910 3.99600
# Velocity P-wave (km/s) = 6.41113 7.58069 7.02031
#
# Compressibility (1/GPa) = 0.02029557
#
# Stress axis : x y z
#
# Youngs Moduli (GPa) = 98.11512 111.92142 85.66449
#
# Poissons Ratio (x) = 0.27446 0.19867
# Poissons Ratio (y) = 0.24060 0.04120
# Poissons Ratio (z) = 0.22755 0.05383
#
# Static dielectric constant tensor:
#      x y z
#    x 3.039400 0.269620 -0.042060 
#    y 0.269620 3.993840 0.139280 
#    z -0.042060 0.139280 4.396630 
# 
# 
# High freq. dielectric constant tensor:
#      x y z
#    x 1.871980 0.002470 -0.004760 
#    y 0.002470 1.876680 0.007750 
#    z -0.004760 0.007750 1.885140 
# 
# From -- ./inp_files/382611.got.cif
#   From: 2010.06.25/outbox.cif.g09.slc.cpg/sg2_192_cif.got.tgz:382611.got - 2010.06.27 13:26:56.
