data_PCOD8021002
_publ_section_title
;
Structure prediction by ZEFSAII (Michael W. Deem and Ramdas Pophale) SiO2 
 PCOD8021002
Probable space group: P -1
;
_chemical_formula_sum "Si O2"
_cell_formula_units_Z 16
_cell_length_a 11.165989
_cell_length_b 6.723518
_cell_length_c 12.321516
_cell_angle_alpha 56.591626
_cell_angle_beta 76.625874
_cell_angle_gamma 57.986423
_cell_volume 652.353840
_symmetry_space_group_name_H-M "P -1"
_symmetry_group_IT_number 2
_symmetry_cell_setting 'triclinic'
loop_
_space_group_symop_operation_xyz
x,y,z
-x,-y,-z
loop_
_atom_site_type_symbol
_atom_site_label
_atom_site_fract_x
_atom_site_fract_y
_atom_site_fract_z
Si Si1 0.286868 0.268656 0.439444
Si Si2 0.864035 0.825117 0.791379
Si Si3 0.296852 0.477705 0.019546
Si Si4 0.806741 0.409883 0.216355
Si Si5 0.477990 0.117542 0.843910
Si Si6 0.515915 0.761818 0.429219
Si Si7 0.852349 0.017638 0.508215
Si Si8 0.683127 0.296941 0.834824
O O1 0.323940 0.334621 0.531023
O O2 0.139598 0.255999 0.467811
O O3 0.294598 0.464919 0.290430
O O4 0.400764 0.951221 0.484626
O O5 0.810588 0.607099 0.877528
O O6 0.791290 0.029147 0.640277
O O7 0.033085 0.651697 0.793641
O O8 0.818868 0.009325 0.854611
O O9 0.328797 0.655361 0.046469
O O10 0.223534 0.674699 0.871441
O O11 0.439432 0.194145 0.031131
O O12 0.692510 0.736148 0.149149
O O13 0.767073 0.271437 0.366199
O O14 0.512423 0.066243 0.725362
O O15 0.540433 0.308497 0.818393
O O16 0.500000 0.500000 0.500000
O O17 0.000000 0.000000 0.500000
#
# Coordination Sequence:
#
# PCOD8021002 Si02
#       8
#     2   2   2   2   2   2   2   2
#     4  11  21  37  65  98 131 174 218 270 335 386
#     4  10  23  46  70  94 126 177 229 272 320 397
#     4  11  23  45  69  94 128 181 226 263 328 402
#     4  11  25  42  66  96 140 172 212 278 341 386
#     4  11  23  40  65 100 134 169 217 281 333 385
#     4  11  21  34  64 100 130 166 223 274 326 396
#     4  10  22  43  66  95 134 173 218 275 331 387
#     4  11  22  40  72  95 128 175 229 267 318 402
#
# _framework density 24.526568000000001
#
# number of rings (size 3 to 8) (size 9 to 14) (size 15 to 20)
#    0.000    1.250    3.750    2.250    3.500    1.000 
#    0.000    8.750    0.000    0.000    0.000    0.000 
#    0.000    0.000    0.000    0.000    0.000    0.000 
#
# Total GULP energy -198228.174058 kJ/mol
# GULP energy per Si atom -12389.260879 kJ/mol
# Density = 2.447074 g / cm^3
# Si number density = 24.526568 Si / 1000 Ang^3
#
#
#
# Elastic Constant Matrix: (Units=GPa)
#
#
# Indices 1 2 3 4 5 6 
#
# 1 136.2575 54.4590 39.2544 4.0360 -0.1281 8.9222
# 2 54.4590 100.2003 18.5535 11.9786 4.6965 16.4160
# 3 39.2544 18.5535 130.1847 16.1270 27.3756 7.3714
# 4 4.0360 11.9786 16.1270 18.3367 7.1584 5.8502
# 5 -0.1281 4.6965 27.3756 7.1584 40.5390 8.3196
# 6 8.9222 16.4160 7.3714 5.8502 8.3196 52.3469
#
#
#
# Elastic Compliance Matrix: (Units=1/GPa)
#
#
# Indices 1 2 3 4 5 6 
#
# 1 0.010397 -0.005507 -0.003237 0.003352 0.002334 -0.000335
# 2 -0.005507 0.014214 0.000815 -0.007816 -0.000277 -0.002716
# 3 -0.003237 0.000815 0.010676 -0.006967 -0.006198 0.000557
# 4 0.003352 -0.007816 -0.006967 0.068487 -0.005674 -0.003891
# 5 0.002334 -0.000277 -0.006198 -0.005674 0.030649 -0.003675
# 6 -0.000335 -0.002716 0.000557 -0.003891 -0.003675 0.020953
#
#
# Mechanical properties :
#
#
# Convention : Reuss Voigt Hill
#
# Bulk Modulus (GPa) = 51.46761 65.68625 58.57693
# Shear Modulus (GPa) = 28.13534 39.20290 33.66912
#
# Velocity S-wave (km/s) = 3.39062 4.00232 3.70910
# Velocity P-wave (km/s) = 6.02979 6.94247 6.50216
#
# Compressibility (1/GPa) = 0.01942969
#
# Stress axis : x y z
#
# Youngs Moduli (GPa) = 96.17708 70.35116 93.66468
#
# Poissons Ratio (x) = 0.38741 0.30323
# Poissons Ratio (y) = 0.52963 -0.07633
# Poissons Ratio (z) = 0.31136 -0.05733
#
# Static dielectric constant tensor:
#      x y z
#    x 4.714890 0.410580 0.135800 
#    y 0.410580 4.470740 0.356310 
#    z 0.135800 0.356310 5.022130 
# 
# 
# High freq. dielectric constant tensor:
#      x y z
#    x 1.977330 0.017780 0.004370 
#    y 0.017780 1.952260 0.015740 
#    z 0.004370 0.015740 1.996710 
# 
# From -- ./inp_files/409834.got.cif
#   From: 2010.06.25/outbox.cif.g09.slc.cpg/sg2_205_cif.got.tgz:409834.got - 2010.06.27 13:26:56.
