data_PCOD8021075
_publ_section_title
;
Structure prediction by ZEFSAII (Michael W. Deem and Ramdas Pophale) SiO2 
 PCOD8021075
Probable space group: P -1
;
_chemical_formula_sum "Si O2"
_cell_formula_units_Z 14
_cell_length_a 15.505228
_cell_length_b 11.859168
_cell_length_c 9.344512
_cell_angle_alpha 50.277041
_cell_angle_beta 149.495666
_cell_angle_gamma 117.619276
_cell_volume 653.964403
_symmetry_space_group_name_H-M "P -1"
_symmetry_group_IT_number 2
_symmetry_cell_setting 'triclinic'
loop_
_space_group_symop_operation_xyz
x,y,z
-x,-y,-z
loop_
_atom_site_type_symbol
_atom_site_label
_atom_site_fract_x
_atom_site_fract_y
_atom_site_fract_z
Si Si1 0.060782 0.617516 0.154870
Si Si2 0.815112 0.560913 0.265206
Si Si3 0.354507 0.965229 0.713304
Si Si4 0.976008 0.057329 0.079518
Si Si5 0.377775 0.626483 0.042086
Si Si6 0.674478 0.915247 0.741960
Si Si7 0.761206 0.473227 0.803469
O O1 0.163245 0.471654 0.507529
O O2 0.134495 0.626210 0.094004
O O3 0.084807 0.763367 0.155719
O O4 0.857879 0.608065 0.868287
O O5 0.000000 0.500000 0.500000
O O6 0.678732 0.467996 0.089625
O O7 0.728724 0.735976 0.980888
O O8 0.159179 0.012251 0.464848
O O9 0.352816 0.054316 0.490682
O O10 0.386894 0.789707 0.866959
O O11 0.500000 0.000000 0.000000
O O12 0.000000 0.000000 0.000000
O O13 0.824075 0.981678 0.982727
O O14 0.568363 0.544745 0.425333
O O15 0.244379 0.632689 0.980494
O O16 0.500000 0.000000 0.500000
#
# Coordination Sequence:
#
# PCOD8021075 Si02
#       7
#     2   2   2   2   2   2   2
#     4  11  23  44  70  96 133 170 227 277 331 393
#     4  12  23  42  72  96 131 181 229 269 334 409
#     4  11  24  43  69  96 135 176 219 270 349 405
#     4  10  22  43  67  94 136 178 218 270 341 404
#     4  11  24  42  69  94 133 176 224 268 342 399
#     4  11  27  44  65 101 138 172 227 285 334 399
#     4  10  25  41  68  99 131 165 227 283 329 389
#
# _framework density 21.407893999999999
#
# number of rings (size 3 to 8) (size 9 to 14) (size 15 to 20)
#    0.000    1.143    1.429    5.143    8.000    0.571 
#    0.000    1.429    0.000    0.000    0.000    0.000 
#    0.000    0.000    0.000    0.000    0.000    0.000 
#
# Total GULP energy -173546.703327 kJ/mol
# GULP energy per Si atom -12396.193095 kJ/mol
# Density = 2.135917 g / cm^3
# Si number density = 21.407894 Si / 1000 Ang^3
#
#
#
# Elastic Constant Matrix: (Units=GPa)
#
#
# Indices 1 2 3 4 5 6 
#
# 1 -406.1519 -194.4920 -275.5351 333.1308 159.4067 -102.1166
# 2 -194.4920 69.9722 -84.9684 158.2381 78.4359 -50.0185
# 3 -275.5351 -84.9684 -82.7664 224.8521 107.2118 -64.0749
# 4 333.1308 158.2381 224.8521 -164.2738 -98.7950 73.4228
# 5 159.4067 78.4359 107.2118 -98.7950 -9.6939 34.8126
# 6 -102.1166 -50.0185 -64.0749 73.4228 34.8126 -0.2004
#
#
#
# Elastic Compliance Matrix: (Units=1/GPa)
#
#
# Indices 1 2 3 4 5 6 
#
# 1 0.009531 -0.001382 -0.005510 0.005971 0.003203 -0.005721
# 2 -0.001382 0.007079 -0.003243 0.000260 -0.000396 0.000997
# 3 -0.005510 -0.003243 0.011186 -0.000217 0.000211 -0.002471
# 4 0.005971 0.000260 -0.000217 0.011426 -0.006588 0.003329
# 5 0.003203 -0.000396 0.000211 -0.006588 0.023119 0.002046
# 6 -0.005721 0.000997 -0.002471 0.003329 0.002046 0.041577
#
#
# Mechanical properties :
#
#
# Convention : Reuss Voigt Hill
#
# Bulk Modulus (GPa) = 132.87999 -169.88191 -18.50096
# Shear Modulus (GPa) = 39.46421 -25.76367 6.85027
#
# Velocity S-wave (km/s) = 4.29819 -3.47286 1.79076
# Velocity P-wave (km/s) = 9.31868 9.77794 2.09407
#
# Compressibility (1/GPa) = 0.00752559
#
# Stress axis : x y z
#
# Youngs Moduli (GPa) = 104.92159 141.26409 89.39461
#
# Poissons Ratio (x) = 0.19529 0.49255
# Poissons Ratio (y) = 0.14505 0.28991
# Poissons Ratio (z) = 0.57810 0.45813
#
# Static dielectric constant tensor:
#      x y z
#    x 4.171420 0.031750 0.239120 
#    y 0.031750 4.212820 0.061470 
#    z 0.239120 0.061470 4.331890 
# 
# 
# High freq. dielectric constant tensor:
#      x y z
#    x 1.826150 0.009860 0.004040 
#    y 0.009860 1.851980 0.013900 
#    z 0.004040 0.013900 1.854050 
# 
# From -- ./inp_files/156764.got.cif
#   From: 2010.06.25/outbox.cif.g09.slc.cpg/sg2_79_cif.got.tgz:156764.got - 2010.06.27 13:26:56.
