data_PCOD8021985
_publ_section_title
;
Structure prediction by ZEFSAII (Michael W. Deem and Ramdas Pophale) SiO2 
 PCOD8021985
Probable space group: P -1
;
_chemical_formula_sum "Si O2"
_cell_formula_units_Z 16
_cell_length_a 19.043526
_cell_length_b 16.357176
_cell_length_c 9.223365
_cell_angle_alpha 67.544973
_cell_angle_beta 55.551957
_cell_angle_gamma 21.369106
_cell_volume 756.418618
_symmetry_space_group_name_H-M "P -1"
_symmetry_group_IT_number 2
_symmetry_cell_setting 'triclinic'
loop_
_space_group_symop_operation_xyz
x,y,z
-x,-y,-z
loop_
_atom_site_type_symbol
_atom_site_label
_atom_site_fract_x
_atom_site_fract_y
_atom_site_fract_z
Si Si1 0.333312 0.230235 0.369782
Si Si2 0.346831 0.934261 0.759585
Si Si3 0.992038 0.421496 0.743023
Si Si4 0.738219 0.719436 0.105901
Si Si5 0.854305 0.159908 0.210075
Si Si6 0.610167 0.267109 0.631255
Si Si7 0.891465 0.950057 0.809786
Si Si8 0.626116 0.631214 0.368094
O O1 0.441410 0.203006 0.355770
O O2 0.223501 0.263960 0.585111
O O3 0.107270 0.490965 0.363524
O O4 0.535126 0.991026 0.190099
O O5 0.442433 0.786375 0.609868
O O6 0.087532 0.234810 0.819851
O O7 0.308080 0.907214 0.957648
O O8 0.765384 0.677512 0.930636
O O9 0.659917 0.703465 0.279974
O O10 0.000000 0.500000 0.000000
O O11 0.777538 0.144193 0.390143
O O12 0.609820 0.452778 0.257441
O O13 0.024040 0.046803 0.202161
O O14 0.000000 0.000000 0.000000
O O15 0.497223 0.284602 0.693265
O O16 0.770552 0.095952 0.701948
O O17 0.116905 0.666733 0.699700
#
# Coordination Sequence:
#
# PCOD8021985 Si02
#       8
#     2   2   2   2   2   2   2   2
#     4  11  24  39  60  88 118 166 222 267 312 370
#     4  12  23  40  61  89 127 164 211 263 314 364
#     4  11  23  39  59  85 119 164 215 268 313 366
#     4  12  21  40  62  83 121 169 211 264 320 364
#     4  10  22  44  71  96 126 160 198 249 305 371
#     4  10  24  43  65  96 128 160 203 249 305 376
#     4  11  24  41  65  96 127 164 202 249 312 376
#     4  11  24  40  61  89 129 163 206 260 310 368
#
# _framework density 21.152308000000001
#
# number of rings (size 3 to 8) (size 9 to 14) (size 15 to 20)
#    0.000    1.000    3.750    2.625    1.750    2.500 
#    2.250    0.000    0.000    0.000    0.000    0.000 
#    0.000    0.000    0.000    0.000    0.000    0.000 
#
# Total GULP energy -198459.375074 kJ/mol
# GULP energy per Si atom -12403.710942 kJ/mol
# Density = 2.110416 g / cm^3
# Si number density = 21.152308 Si / 1000 Ang^3
#
#
#
# Elastic Constant Matrix: (Units=GPa)
#
#
# Indices 1 2 3 4 5 6 
#
# 1 89.0973 36.8665 21.6656 -5.0718 -5.4941 -12.4549
# 2 36.8665 65.8053 23.7753 -6.3926 -6.5376 -27.5925
# 3 21.6656 23.7753 117.6877 6.9923 7.5963 -3.6396
# 4 -5.0718 -6.3926 6.9923 32.2717 4.7391 6.2882
# 5 -5.4941 -6.5376 7.5963 4.7391 34.2880 -1.5349
# 6 -12.4549 -27.5925 -3.6396 6.2882 -1.5349 22.5434
#
#
#
# Elastic Compliance Matrix: (Units=1/GPa)
#
#
# Indices 1 2 3 4 5 6 
#
# 1 0.014950 -0.009360 -0.001091 0.001385 0.000494 -0.003725
# 2 -0.009360 0.044267 -0.006239 -0.002589 0.010895 0.049467
# 3 -0.001091 -0.006239 0.010105 -0.001827 -0.003635 -0.006346
# 4 0.001385 -0.002589 -0.001827 0.034306 -0.005174 -0.012620
# 5 0.000494 0.010895 -0.003635 -0.005174 0.033591 0.016752
# 6 -0.003725 0.049467 -0.006346 -0.012620 0.016752 0.106483
#
#
# Mechanical properties :
#
#
# Convention : Reuss Voigt Hill
#
# Bulk Modulus (GPa) = 27.82232 48.57835 38.20033
# Shear Modulus (GPa) = 17.29720 30.50615 23.90167
#
# Velocity S-wave (km/s) = 2.86273 3.80177 3.36516
# Velocity P-wave (km/s) = 4.91007 6.50285 5.76177
#
# Compressibility (1/GPa) = 0.03594237
#
# Stress axis : x y z
#
# Youngs Moduli (GPa) = 66.88748 22.59024 98.95879
#
# Poissons Ratio (x) = 0.21145 0.10794
# Poissons Ratio (y) = 0.62607 0.61743
# Poissons Ratio (z) = 0.07296 0.14095
#
# Static dielectric constant tensor:
#      x y z
#    x 3.839240 -0.014860 -0.001480 
#    y -0.014860 3.665430 0.126210 
#    z -0.001480 0.126210 4.035640 
# 
# 
# High freq. dielectric constant tensor:
#      x y z
#    x 1.832160 -0.007310 0.002680 
#    y -0.007310 1.820570 0.005930 
#    z 0.002680 0.005930 1.846000 
# 
# From -- ./inp_files/348409.got.cif
#   From: 2010.06.25/outbox.cif.g09.slc.cpg/sg2_175_cif.got.tgz:348409.got - 2010.06.27 13:26:56.
