data_PCOD8021155
_publ_section_title
;
Structure prediction by ZEFSAII (Michael W. Deem and Ramdas Pophale) SiO2 
 PCOD8021155
Probable space group: P -1
;
_chemical_formula_sum "Si O2"
_cell_formula_units_Z 16
_cell_length_a 9.970818
_cell_length_b 13.925968
_cell_length_c 13.996037
_cell_angle_alpha 149.778830
_cell_angle_beta 92.030660
_cell_angle_gamma 68.161517
_cell_volume 717.996703
_symmetry_space_group_name_H-M "P -1"
_symmetry_group_IT_number 2
_symmetry_cell_setting 'triclinic'
loop_
_space_group_symop_operation_xyz
x,y,z
-x,-y,-z
loop_
_atom_site_type_symbol
_atom_site_label
_atom_site_fract_x
_atom_site_fract_y
_atom_site_fract_z
Si Si1 0.022605 0.202151 0.669127
Si Si2 0.590211 0.245356 0.655700
Si Si3 0.564699 0.842153 0.582352
Si Si4 0.363323 0.376760 0.945584
Si Si5 0.467993 0.214862 0.246792
Si Si6 0.039223 0.388680 0.630448
Si Si7 0.931657 0.257834 0.338027
Si Si8 0.132504 0.093794 0.009416
O O1 0.003449 0.295611 0.641462
O O2 0.218992 0.057386 0.595666
O O3 0.000000 0.000000 0.500000
O O4 0.850775 0.455657 0.940574
O O5 0.498511 0.286655 0.587404
O O6 0.467742 0.275610 0.762114
O O7 0.612164 0.449992 0.845616
O O8 0.556311 0.809261 0.664544
O O9 0.767988 0.694010 0.428034
O O10 0.434602 0.144425 0.816478
O O11 0.284814 0.494448 0.447253
O O12 0.500000 0.000000 0.000000
O O13 0.652214 0.162275 0.190115
O O14 0.036913 0.245227 0.418758
O O15 0.887544 0.702731 0.885207
O O16 0.027400 0.250807 0.239624
O O17 0.962702 0.999864 0.119278
#
# Coordination Sequence:
#
# PCOD8021155 Si02
#       8
#     2   2   2   2   2   2   2   2
#     4  10  23  44  67  98 131 173 225 275 334 399
#     4  10  23  46  63  96 138 165 225 281 327 402
#     4  12  25  42  70  99 132 181 224 272 341 404
#     4  10  22  43  68  94 131 178 215 279 339 387
#     4  12  24  46  71 100 140 179 226 282 339 405
#     4  12  23  44  68  96 139 179 222 280 341 400
#     4  11  25  46  68  99 140 176 227 285 334 408
#     4  11  24  45  69 101 135 180 228 278 342 404
#
# _framework density 22.284226
#
# number of rings (size 3 to 8) (size 9 to 14) (size 15 to 20)
#    0.000    1.000    3.750    2.625    0.000    3.500 
#    4.500    0.000    0.000    0.000    0.000    0.000 
#    0.000    0.000    0.000    0.000    0.000    0.000 
#
# Total GULP energy -198399.678619 kJ/mol
# GULP energy per Si atom -12399.979914 kJ/mol
# Density = 2.223351 g / cm^3
# Si number density = 22.284226 Si / 1000 Ang^3
#
#
#
# Elastic Constant Matrix: (Units=GPa)
#
#
# Indices 1 2 3 4 5 6 
#
# 1 82.1112 36.8282 38.7868 -8.7215 -20.0206 -3.4233
# 2 36.8282 75.8161 13.3967 -6.2649 12.7695 -4.6077
# 3 38.7868 13.3967 77.1465 1.4890 -17.2720 -8.6521
# 4 -8.7215 -6.2649 1.4890 25.8258 -9.1007 -0.3535
# 5 -20.0206 12.7695 -17.2720 -9.1007 49.2125 7.0917
# 6 -3.4233 -4.6077 -8.6521 -0.3535 7.0917 35.3816
#
#
#
# Elastic Compliance Matrix: (Units=1/GPa)
#
#
# Indices 1 2 3 4 5 6 
#
# 1 0.026379 -0.012916 -0.008608 0.011031 0.013658 -0.003862
# 2 -0.012916 0.021288 0.000685 -0.003315 -0.011729 0.004008
# 3 -0.008608 0.000685 0.017951 -0.003182 0.001557 0.003302
# 4 0.011031 -0.003315 -0.003182 0.046428 0.013151 -0.002315
# 5 0.013658 -0.011729 0.001557 0.013151 0.032801 -0.006268
# 6 -0.003862 0.004008 0.003302 -0.002315 -0.006268 0.030452
#
#
# Mechanical properties :
#
#
# Convention : Reuss Voigt Hill
#
# Bulk Modulus (GPa) = 41.77127 45.89968 43.83548
# Shear Modulus (GPa) = 22.22644 31.82145 27.02395
#
# Velocity S-wave (km/s) = 3.16160 3.78296 3.48615
# Velocity P-wave (km/s) = 5.66684 6.30263 5.99317
#
# Compressibility (1/GPa) = 0.02393990
#
# Stress axis : x y z
#
# Youngs Moduli (GPa) = 37.90960 46.97486 55.70619
#
# Poissons Ratio (x) = 0.60674 0.47949
# Poissons Ratio (y) = 0.48965 -0.03814
# Poissons Ratio (z) = 0.32631 -0.03217
#
# Static dielectric constant tensor:
#      x y z
#    x 4.348190 -0.148950 -0.329520 
#    y -0.148950 3.934780 0.207040 
#    z -0.329520 0.207040 4.304880 
# 
# 
# High freq. dielectric constant tensor:
#      x y z
#    x 1.894690 -0.001920 -0.008500 
#    y -0.001920 1.864130 0.006310 
#    z -0.008500 0.006310 1.891620 
# 
# From -- ./inp_files/505824.got.cif
#   From: 2010.06.25/outbox.cif.g09.slc.cpg/sg2_253_cif.got.tgz:505824.got - 2010.06.27 13:26:56.
