data_PCOD8021816
_publ_section_title
;
Structure prediction by ZEFSAII (Michael W. Deem and Ramdas Pophale) SiO2 
 PCOD8021816
Probable space group: P -1
;
_chemical_formula_sum "Si O2"
_cell_formula_units_Z 12
_cell_length_a 12.770792
_cell_length_b 12.091183
_cell_length_c 9.485700
_cell_angle_alpha 54.126683
_cell_angle_beta 35.565803
_cell_angle_gamma 38.583025
_cell_volume 526.262459
_symmetry_space_group_name_H-M "P -1"
_symmetry_group_IT_number 2
_symmetry_cell_setting 'triclinic'
loop_
_space_group_symop_operation_xyz
x,y,z
-x,-y,-z
loop_
_atom_site_type_symbol
_atom_site_label
_atom_site_fract_x
_atom_site_fract_y
_atom_site_fract_z
Si Si1 0.937107 0.010191 0.721000
Si Si2 0.209747 0.214359 0.519286
Si Si3 0.745509 0.310743 0.910852
Si Si4 0.445545 0.684512 0.434745
Si Si5 0.516623 0.862371 0.984203
Si Si6 0.486216 0.801344 0.576896
O O1 0.168592 0.832356 0.672042
O O2 0.873415 0.187693 0.724478
O O3 0.000000 0.000000 0.500000
O O4 0.706817 0.025068 0.964864
O O5 0.256420 0.247899 0.284196
O O6 0.295595 0.278918 0.496004
O O7 0.928229 0.331614 0.760089
O O8 0.348080 0.005471 0.538395
O O9 0.500000 0.500000 0.000000
O O10 0.703206 0.207952 0.140645
O O11 0.500000 0.500000 0.500000
O O12 0.588440 0.683042 0.409512
O O13 0.513930 0.726255 0.182881
O O14 0.500000 0.000000 0.000000
#
# Coordination Sequence:
#
# PCOD8021816 Si02
#       6
#     2   2   2   2   2   2
#     4  10  22  44  68  98 142 196 231 287 365 432
#     4  11  23  45  74 102 138 195 242 296 359 428
#     4  12  26  44  72 106 145 189 240 300 363 430
#     4  11  25  44  73 107 144 189 238 298 369 432
#     4  11  21  45  70 101 141 191 244 292 355 435
#     4  11  24  43  71 106 145 180 246 294 366 420
#
# _framework density 22.802312000000001
#
# number of rings (size 3 to 8) (size 9 to 14) (size 15 to 20)
#    0.000    1.000    5.000    1.500    4.667    0.667 
#    0.000    2.500    0.000    0.000    0.000    0.000 
#    0.000    0.000    0.000    0.000    0.000    0.000 
#
# Total GULP energy -148787.445090 kJ/mol
# GULP energy per Si atom -12398.953757 kJ/mol
# Density = 2.275041 g / cm^3
# Si number density = 22.802312 Si / 1000 Ang^3
#
#
#
# Elastic Constant Matrix: (Units=GPa)
#
#
# Indices 1 2 3 4 5 6 
#
# 1 168.6238 48.1463 63.3111 6.5170 -12.7249 3.3668
# 2 48.1463 125.6050 43.8647 1.8128 1.0445 7.9360
# 3 63.3111 43.8647 128.2203 -13.7003 -14.3607 -8.8423
# 4 6.5170 1.8128 -13.7003 38.4574 -3.8384 -0.6902
# 5 -12.7249 1.0445 -14.3607 -3.8384 46.5410 1.3211
# 6 3.3668 7.9360 -8.8423 -0.6902 1.3211 20.2190
#
#
#
# Elastic Compliance Matrix: (Units=1/GPa)
#
#
# Indices 1 2 3 4 5 6 
#
# 1 0.008011 -0.001568 -0.003765 -0.002578 0.000923 -0.002513
# 2 -0.001568 0.010119 -0.003414 -0.001690 -0.001702 -0.005150
# 3 -0.003765 -0.003414 0.012277 0.005612 0.003090 0.007325
# 4 -0.002578 -0.001690 0.005612 0.028928 0.003328 0.004317
# 5 0.000923 -0.001702 0.003090 0.003328 0.022991 0.000477
# 6 -0.002513 -0.005150 0.007325 0.004317 0.000477 0.055218
#
#
# Mechanical properties :
#
#
# Convention : Reuss Voigt Hill
#
# Bulk Modulus (GPa) = 77.43625 81.45481 79.44553
# Shear Modulus (GPa) = 31.37928 38.85195 35.11562
#
# Velocity S-wave (km/s) = 3.71367 4.13226 3.92854
# Velocity P-wave (km/s) = 7.24030 7.65292 7.44947
#
# Compressibility (1/GPa) = 0.01291385
#
# Stress axis : x y z
#
# Youngs Moduli (GPa) = 124.83079 98.82859 81.45437
#
# Poissons Ratio (x) = 0.15493 0.30665
# Poissons Ratio (y) = 0.19569 0.27808
# Poissons Ratio (z) = 0.46994 0.33739
#
# Static dielectric constant tensor:
#      x y z
#    x 5.078200 -0.238720 -0.664460 
#    y -0.238720 3.996420 0.075890 
#    z -0.664460 0.075890 5.133050 
# 
# 
# High freq. dielectric constant tensor:
#      x y z
#    x 1.924570 0.005700 -0.000820 
#    y 0.005700 1.873660 -0.008960 
#    z -0.000820 -0.008960 1.901860 
# 
# From -- ./inp_files/147612.got.cif
#   From: 2010.06.25/outbox.cif.g09.slc.cpg/sg2_74_cif.got.tgz:147612.got - 2010.06.27 13:26:56.
