data_PCOD8021700
_publ_section_title
;
Structure prediction by ZEFSAII (Michael W. Deem and Ramdas Pophale) SiO2 
 PCOD8021700
Probable space group: P -1
;
_chemical_formula_sum "Si O2"
_cell_formula_units_Z 16
_cell_length_a 9.373234
_cell_length_b 12.029948
_cell_length_c 21.141197
_cell_angle_alpha 28.664824
_cell_angle_beta 48.304794
_cell_angle_gamma 38.784120
_cell_volume 714.874262
_symmetry_space_group_name_H-M "P -1"
_symmetry_group_IT_number 2
_symmetry_cell_setting 'triclinic'
loop_
_space_group_symop_operation_xyz
x,y,z
-x,-y,-z
loop_
_atom_site_type_symbol
_atom_site_label
_atom_site_fract_x
_atom_site_fract_y
_atom_site_fract_z
Si Si1 0.347597 0.580644 0.066114
Si Si2 0.208004 0.420395 0.933520
Si Si3 0.779293 0.609714 0.573903
Si Si4 0.303340 0.921906 0.349916
Si Si5 0.434141 0.011326 0.869301
Si Si6 0.427250 0.756490 0.711281
Si Si7 0.249395 0.500645 0.499691
Si Si8 0.048683 0.484810 0.811299
O O1 0.472312 0.330435 0.204671
O O2 0.106791 0.633844 0.093953
O O3 0.500000 0.500000 0.000000
O O4 0.299515 0.867397 0.963799
O O5 0.247319 0.671031 0.795579
O O6 0.159339 0.367644 0.904545
O O7 0.000000 0.500000 0.000000
O O8 0.426681 0.133741 0.035769
O O9 0.632140 0.600995 0.677837
O O10 0.753958 0.455793 0.597230
O O11 0.042481 0.456993 0.596717
O O12 0.700357 0.916161 0.421790
O O13 0.393466 0.038348 0.212458
O O14 0.208770 0.757712 0.424693
O O15 0.501788 0.756350 0.425441
O O16 0.089270 0.181986 0.319267
O O17 0.252886 0.340094 0.771173
#
# Coordination Sequence:
#
# PCOD8021700 Si02
#       8
#     2   2   2   2   2   2   2   2
#     4  11  22  44  66 101 140 178 219 281 343 405
#     4  11  22  44  66 101 140 178 219 281 343 405
#     4  10  22  44  67 101 131 182 230 279 334 402
#     4  11  23  45  67  97 137 172 225 284 342 400
#     4  11  25  41  65 101 132 177 223 268 348 411
#     4  10  23  41  70 101 138 173 233 277 334 412
#     4  10  24  44  66  96 132 180 228 284 344 396
#     4  12  23  41  67  95 134 176 217 278 337 406
#
# _framework density 22.381557999999998
#
# number of rings (size 3 to 8) (size 9 to 14) (size 15 to 20)
#    0.000    1.250    2.500    3.000    3.500    0.000 
#    0.000    1.250    0.000    0.000    0.000    0.000 
#    0.000    0.000    0.000    0.000    0.000    0.000 
#
# Total GULP energy -198399.364675 kJ/mol
# GULP energy per Si atom -12399.960292 kJ/mol
# Density = 2.233062 g / cm^3
# Si number density = 22.381558 Si / 1000 Ang^3
#
#
#
# Elastic Constant Matrix: (Units=GPa)
#
#
# Indices 1 2 3 4 5 6 
#
# 1 165.3325 29.9068 32.4582 -4.7100 1.8066 -1.7877
# 2 29.9068 124.2349 26.0879 -13.9797 0.3500 0.8251
# 3 32.4582 26.0879 77.8039 -0.7735 0.8275 -0.2645
# 4 -4.7100 -13.9797 -0.7735 45.8091 0.4055 -0.7464
# 5 1.8066 0.3500 0.8275 0.4055 36.4365 0.5086
# 6 -1.7877 0.8251 -0.2645 -0.7464 0.5086 22.3966
#
#
#
# Elastic Compliance Matrix: (Units=1/GPa)
#
#
# Indices 1 2 3 4 5 6 
#
# 1 0.006741 -0.001075 -0.002444 0.000336 -0.000280 0.000566
# 2 -0.001075 0.009152 -0.002595 0.002633 0.000000 -0.000366
# 3 -0.002444 -0.002595 0.014737 -0.000792 -0.000181 0.000052
# 4 0.000336 0.002633 -0.000792 0.022668 -0.000286 0.000682
# 5 -0.000280 0.000000 -0.000181 -0.000286 0.027475 -0.000658
# 6 0.000566 -0.000366 0.000052 0.000682 -0.000658 0.044747
#
#
# Mechanical properties :
#
#
# Convention : Reuss Voigt Hill
#
# Bulk Modulus (GPa) = 54.34175 60.47523 57.40849
# Shear Modulus (GPa) = 34.75090 39.52300 37.13695
#
# Velocity S-wave (km/s) = 3.94465 4.20679 4.07783
# Velocity P-wave (km/s) = 6.71412 7.11863 6.91933
#
# Compressibility (1/GPa) = 0.01840206
#
# Stress axis : x y z
#
# Youngs Moduli (GPa) = 148.33830 109.26995 67.85786
#
# Poissons Ratio (x) = 0.11745 0.16582
# Poissons Ratio (y) = 0.15945 0.17611
# Poissons Ratio (z) = 0.36249 0.28358
#
# Static dielectric constant tensor:
#      x y z
#    x 4.416840 -0.001890 0.004790 
#    y -0.001890 4.251480 -0.019150 
#    z 0.004790 -0.019150 3.859730 
# 
# 
# High freq. dielectric constant tensor:
#      x y z
#    x 1.905970 -0.000110 0.000500 
#    y -0.000110 1.886110 -0.002500 
#    z 0.000500 -0.002500 1.864050 
# 
# From -- ./inp_files/566458.got.cif
#   From: 2010.06.25/outbox.cif.g09.slc.cpg/sg2_284_cif.got.tgz:566458.got - 2010.06.27 13:26:56.
