data_PCOD8021792
_publ_section_title
;
Structure prediction by ZEFSAII (Michael W. Deem and Ramdas Pophale) SiO2 
 PCOD8021792
Probable space group: P -1
;
_chemical_formula_sum "Si O2"
_cell_formula_units_Z 16
_cell_length_a 12.012844
_cell_length_b 5.701468
_cell_length_c 11.452958
_cell_angle_alpha 59.317457
_cell_angle_beta 95.549670
_cell_angle_gamma 90.989249
_cell_volume 670.975796
_symmetry_space_group_name_H-M "P -1"
_symmetry_group_IT_number 2
_symmetry_cell_setting 'triclinic'
loop_
_space_group_symop_operation_xyz
x,y,z
-x,-y,-z
loop_
_atom_site_type_symbol
_atom_site_label
_atom_site_fract_x
_atom_site_fract_y
_atom_site_fract_z
Si Si1 0.923204 0.749108 0.264935
Si Si2 0.760418 0.323529 0.400070
Si Si3 0.261724 0.822638 0.828653
Si Si4 0.254568 0.429635 0.129938
Si Si5 0.417731 0.260865 0.652158
Si Si6 0.972061 0.322670 0.928660
Si Si7 0.830572 0.121321 0.682391
Si Si8 0.640870 0.509840 0.643585
O O1 0.849562 0.555001 0.386541
O O2 0.952588 0.569564 0.197187
O O3 0.036742 0.843716 0.311909
O O4 0.845367 0.022421 0.160316
O O5 0.774486 0.248455 0.286865
O O6 0.636673 0.452043 0.379034
O O7 0.791885 0.072331 0.555046
O O8 0.370258 0.008217 0.783179
O O9 0.295508 0.557054 0.978563
O O10 0.158798 0.631940 0.124397
O O11 0.354472 0.395466 0.244251
O O12 0.200933 0.137118 0.175826
O O13 0.550029 0.272940 0.685138
O O14 0.392529 0.243516 0.513423
O O15 0.000000 0.500000 0.000000
O O16 0.000000 0.000000 0.000000
O O17 0.762526 0.389872 0.650302
#
# Coordination Sequence:
#
# PCOD8021792 Si02
#       8
#     2   2   2   2   2   2   2   2
#     4  11  23  40  64  96 131 179 224 276 337 406
#     4  10  23  42  66  93 131 176 225 280 345 407
#     4  11  24  41  64  95 133 175 218 273 343 410
#     4  12  25  38  65  98 133 174 223 277 341 415
#     4   9  22  45  69  89 124 172 227 286 338 410
#     4  12  24  41  65  97 145 189 227 274 344 421
#     4  11  24  41  64  99 133 173 227 282 342 411
#     4  10  22  44  68  93 124 171 228 284 344 399
#
# _framework density 23.845869
#
# number of rings (size 3 to 8) (size 9 to 14) (size 15 to 20)
#    0.000    1.250    2.500    2.625    1.750    4.000 
#    0.000    5.000    0.000    0.000    0.000    0.000 
#    0.000    0.000    0.000    0.000    0.000    0.000 
#
# Total GULP energy -198274.110178 kJ/mol
# GULP energy per Si atom -12392.131886 kJ/mol
# Density = 2.379159 g / cm^3
# Si number density = 23.845869 Si / 1000 Ang^3
#
#
#
# Elastic Constant Matrix: (Units=GPa)
#
#
# Indices 1 2 3 4 5 6 
#
# 1 83.1451 1.7590 19.6852 7.6002 -3.6998 14.6470
# 2 1.7590 65.9258 33.0362 16.1674 -0.2550 2.6669
# 3 19.6852 33.0362 134.6552 16.0021 -11.5765 6.1550
# 4 7.6002 16.1674 16.0021 48.0068 4.5498 -2.0616
# 5 -3.6998 -0.2550 -11.5765 4.5498 28.2831 4.7870
# 6 14.6470 2.6669 6.1550 -2.0616 4.7870 22.0374
#
#
#
# Elastic Compliance Matrix: (Units=1/GPa)
#
#
# Indices 1 2 3 4 5 6 
#
# 1 0.014640 0.001500 -0.001325 -0.003189 0.003701 -0.010645
# 2 0.001500 0.018538 -0.004024 -0.005252 0.000003 -0.002609
# 3 -0.001325 -0.004024 0.009334 -0.002060 0.004345 -0.002376
# 4 -0.003189 -0.005252 -0.002060 0.024707 -0.006475 0.007049
# 5 0.003701 0.000003 0.004345 -0.006475 0.040889 -0.013161
# 6 -0.010645 -0.002609 -0.002376 0.007049 -0.013161 0.056950
#
#
# Mechanical properties :
#
#
# Convention : Reuss Voigt Hill
#
# Bulk Modulus (GPa) = 28.72199 43.63189 36.17694
# Shear Modulus (GPa) = 27.12072 34.94851 31.03461
#
# Velocity S-wave (km/s) = 3.37610 3.83247 3.61150
# Velocity P-wave (km/s) = 5.22191 6.15800 5.70917
#
# Compressibility (1/GPa) = 0.03481653
#
# Stress axis : x y z
#
# Youngs Moduli (GPa) = 68.30399 53.94199 107.13275
#
# Poissons Ratio (x) = -0.08092 0.14190
# Poissons Ratio (y) = -0.10247 0.43110
# Poissons Ratio (z) = 0.09047 0.21706
#
# Static dielectric constant tensor:
#      x y z
#    x 4.476850 -0.133110 -0.214620 
#    y -0.133110 4.076980 0.119370 
#    z -0.214620 0.119370 4.696430 
# 
# 
# High freq. dielectric constant tensor:
#      x y z
#    x 1.946540 0.009170 -0.011690 
#    y 0.009170 1.925150 0.003460 
#    z -0.011690 0.003460 1.953680 
# 
# From -- ./inp_files/409884.got.cif
#   From: 2010.06.25/outbox.cif.g09.slc.cpg/sg2_205_cif.got.tgz:409884.got - 2010.06.27 13:26:56.
