data_PCOD8021537
_publ_section_title
;
Structure prediction by ZEFSAII (Michael W. Deem and Ramdas Pophale) SiO2 
 PCOD8021537
Probable space group: P -1
;
_chemical_formula_sum "Si O2"
_cell_formula_units_Z 16
_cell_length_a 12.961829
_cell_length_b 15.117237
_cell_length_c 8.954873
_cell_angle_alpha 116.444955
_cell_angle_beta 123.540269
_cell_angle_gamma 110.286196
_cell_volume 795.555174
_symmetry_space_group_name_H-M "P -1"
_symmetry_group_IT_number 2
_symmetry_cell_setting 'triclinic'
loop_
_space_group_symop_operation_xyz
x,y,z
-x,-y,-z
loop_
_atom_site_type_symbol
_atom_site_label
_atom_site_fract_x
_atom_site_fract_y
_atom_site_fract_z
Si Si1 0.586656 0.449495 0.680727
Si Si2 0.919962 0.533135 0.848058
Si Si3 0.462482 0.020420 0.827711
Si Si4 0.530501 0.295191 0.803159
Si Si5 0.204070 0.039763 0.569982
Si Si6 0.270643 0.244660 0.024339
Si Si7 0.786702 0.383083 0.316609
Si Si8 0.354581 0.833883 0.344740
O O1 0.789683 0.528796 0.834340
O O2 0.544381 0.396570 0.780307
O O3 0.389941 0.291452 0.307059
O O4 0.618522 0.586787 0.818958
O O5 0.784629 0.404603 0.507062
O O6 0.000000 0.500000 0.000000
O O7 0.112569 0.705829 0.046975
O O8 0.270727 0.973638 0.630377
O O9 0.416656 0.889904 0.607295
O O10 0.657955 0.200980 0.051609
O O11 0.500000 0.000000 0.000000
O O12 0.302998 0.131825 0.558857
O O13 0.608645 0.254670 0.734561
O O14 0.676345 0.399632 0.144445
O O15 0.283576 0.166990 0.853671
O O16 0.965922 0.886901 0.231542
O O17 0.000000 0.500000 0.500000
O O18 0.500000 0.000000 0.500000
#
# Coordination Sequence:
#
# PCOD8021537 Si02
#       8
#     2   2   2   2   2   2   2   2
#     4  11  23  41  65  91 118 164 212 256 307 365
#     4  12  22  38  65  93 128 162 199 253 316 373
#     4  11  23  36  63  93 125 157 199 246 312 374
#     4  11  23  38  64  90 128 160 203 259 313 367
#     4  10  22  44  63  87 124 164 204 261 304 360
#     4  10  24  44  65  85 118 167 220 255 299 359
#     4  11  20  37  54  88 130 162 189 240 307 373
#     4  12  21  38  57  95 129 162 193 244 316 385
#
# _framework density 20.111743000000001
#
# number of rings (size 3 to 8) (size 9 to 14) (size 15 to 20)
#    0.000    1.000    5.000    3.000    1.750    2.000 
#    0.000    0.000    0.000    0.000    0.000    0.000 
#    0.000    0.000    0.000    0.000    0.000    0.000 
#
# Total GULP energy -198306.308370 kJ/mol
# GULP energy per Si atom -12394.144273 kJ/mol
# Density = 2.006597 g / cm^3
# Si number density = 20.111743 Si / 1000 Ang^3
#
#
#
# Elastic Constant Matrix: (Units=GPa)
#
#
# Indices 1 2 3 4 5 6 
#
# 1 65.7341 27.4816 29.2886 -10.0460 4.6548 14.5881
# 2 27.4816 109.3335 38.2797 -22.6390 9.1770 8.3668
# 3 29.2886 38.2797 121.9911 -9.9933 5.1743 8.3187
# 4 -10.0460 -22.6390 -9.9933 31.7903 8.6711 -0.7885
# 5 4.6548 9.1770 5.1743 8.6711 42.9543 3.8643
# 6 14.5881 8.3668 8.3187 -0.7885 3.8643 21.9920
#
#
#
# Elastic Compliance Matrix: (Units=1/GPa)
#
#
# Indices 1 2 3 4 5 6 
#
# 1 0.020790 -0.002354 -0.003105 0.003949 -0.001150 -0.011377
# 2 -0.002354 0.012818 -0.002496 0.008599 -0.003793 -0.001396
# 3 -0.003105 -0.002496 0.009816 0.000403 -0.000337 -0.000630
# 4 0.003949 0.008599 0.000403 0.041751 -0.010499 -0.002702
# 5 -0.001150 -0.003793 -0.000337 -0.010499 0.026620 -0.002721
# 6 -0.011377 -0.001396 -0.000630 -0.002702 -0.002721 0.054169
#
#
# Mechanical properties :
#
#
# Convention : Reuss Voigt Hill
#
# Bulk Modulus (GPa) = 36.34480 54.12872 45.23676
# Shear Modulus (GPa) = 26.17165 32.81457 29.49311
#
# Velocity S-wave (km/s) = 3.61128 4.04370 3.83360
# Velocity P-wave (km/s) = 5.95812 6.98387 6.49129
#
# Compressibility (1/GPa) = 0.02751425
#
# Stress axis : x y z
#
# Youngs Moduli (GPa) = 48.09979 78.01619 101.87012
#
# Poissons Ratio (x) = 0.18364 0.31628
# Poissons Ratio (y) = 0.11322 0.25432
# Poissons Ratio (z) = 0.14934 0.19477
#
# Static dielectric constant tensor:
#      x y z
#    x 4.103590 0.075440 -0.243090 
#    y 0.075440 3.201840 -0.339790 
#    z -0.243090 -0.339790 3.916590 
# 
# 
# High freq. dielectric constant tensor:
#      x y z
#    x 1.786350 0.015560 -0.001830 
#    y 0.015560 1.778710 0.001250 
#    z -0.001830 0.001250 1.801150 
# 
# From -- ./inp_files/224843.got.cif
#   From: 2010.06.25/outbox.cif.g09.slc.cpg/sg2_113_cif.got.tgz:224843.got - 2010.06.27 13:26:56.
