data_PCOD8021926
_publ_section_title
;
Structure prediction by ZEFSAII (Michael W. Deem and Ramdas Pophale) SiO2 
 PCOD8021926
Probable space group: P -1
;
_chemical_formula_sum "Si O2"
_cell_formula_units_Z 14
_cell_length_a 9.396073
_cell_length_b 15.121574
_cell_length_c 11.562721
_cell_angle_alpha 150.040408
_cell_angle_beta 118.759844
_cell_angle_gamma 50.577529
_cell_volume 623.538923
_symmetry_space_group_name_H-M "P -1"
_symmetry_group_IT_number 2
_symmetry_cell_setting 'triclinic'
loop_
_space_group_symop_operation_xyz
x,y,z
-x,-y,-z
loop_
_atom_site_type_symbol
_atom_site_label
_atom_site_fract_x
_atom_site_fract_y
_atom_site_fract_z
Si Si1 0.091847 0.265770 0.582918
Si Si2 0.335471 0.952842 0.904482
Si Si3 0.034866 0.293481 0.332945
Si Si4 0.355267 0.680079 0.795484
Si Si5 0.672622 0.194550 0.822163
Si Si6 0.735016 0.469726 0.005689
Si Si7 0.271840 0.700092 0.431295
O O1 0.139391 0.251083 0.448796
O O2 0.874268 0.340749 0.602025
O O3 0.220136 0.044341 0.445089
O O4 0.120731 0.446191 0.852063
O O5 0.422844 0.753821 0.794685
O O6 0.253762 0.915498 0.709175
O O7 0.500000 0.000000 0.000000
O O8 0.159310 0.123601 0.097158
O O9 0.000000 0.500000 0.500000
O O10 0.841311 0.300963 0.288344
O O11 0.514661 0.452222 0.624128
O O12 0.332726 0.814625 0.052145
O O13 0.775391 0.321234 0.964099
O O14 0.466132 0.321510 0.829260
O O15 0.756280 0.320768 0.738790
#
# Coordination Sequence:
#
# PCOD8021926 Si02
#       7
#     2   2   2   2   2   2   2
#     4  12  23  43  70 100 139 187 234 281 348 411
#     4  12  25  42  68 104 137 176 230 286 355 407
#     4  12  25  42  71 102 137 184 232 283 349 419
#     4  11  22  46  66  99 141 179 226 287 350 408
#     4  10  22  44  70  96 134 185 239 289 332 419
#     4  10  24  45  68 100 137 182 237 283 347 408
#     4  11  25  43  67  99 144 177 224 294 339 415
#
# _framework density 22.452489
#
# number of rings (size 3 to 8) (size 9 to 14) (size 15 to 20)
#    0.000    0.857    2.857    4.286    2.000    2.857 
#    5.143    0.000    0.000    0.000    0.000    0.000 
#    0.000    0.000    0.000    0.000    0.000    0.000 
#
# Total GULP energy -173557.741214 kJ/mol
# GULP energy per Si atom -12396.981515 kJ/mol
# Density = 2.240139 g / cm^3
# Si number density = 22.452489 Si / 1000 Ang^3
#
#
#
# Elastic Constant Matrix: (Units=GPa)
#
#
# Indices 1 2 3 4 5 6 
#
# 1 133.6097 26.0211 48.9744 -11.8231 19.5877 -1.8664
# 2 26.0211 73.4524 34.0611 -5.5491 4.1122 7.0861
# 3 48.9744 34.0611 117.4254 -21.1549 5.8687 -0.8728
# 4 -11.8231 -5.5491 -21.1549 25.1106 0.9491 8.5825
# 5 19.5877 4.1122 5.8687 0.9491 47.3331 -0.1841
# 6 -1.8664 7.0861 -0.8728 8.5825 -0.1841 28.4598
#
#
#
# Elastic Compliance Matrix: (Units=1/GPa)
#
#
# Indices 1 2 3 4 5 6 
#
# 1 0.009587 -0.001720 -0.003046 0.001536 -0.003469 0.000478
# 2 -0.001720 0.016595 -0.003901 0.001197 -0.000289 -0.004727
# 3 -0.003046 -0.003901 0.012487 0.008735 -0.000130 -0.001480
# 4 0.001536 0.001197 0.008735 0.053811 -0.002964 -0.016176
# 5 -0.003469 -0.000289 -0.000130 -0.002964 0.022667 0.000881
# 6 0.000478 -0.004727 -0.001480 -0.016176 0.000881 0.041184
#
#
# Mechanical properties :
#
#
# Convention : Reuss Voigt Hill
#
# Bulk Modulus (GPa) = 46.87103 60.28897 53.58000
# Shear Modulus (GPa) = 27.65833 34.54277 31.10055
#
# Velocity S-wave (km/s) = 3.51359 3.92661 3.72583
# Velocity P-wave (km/s) = 6.11404 6.88968 6.51342
#
# Compressibility (1/GPa) = 0.02133514
#
# Stress axis : x y z
#
# Youngs Moduli (GPa) = 104.30687 60.25788 80.08196
#
# Poissons Ratio (x) = 0.10362 0.24394
# Poissons Ratio (y) = 0.17937 0.31244
# Poissons Ratio (z) = 0.31773 0.23510
#
# Static dielectric constant tensor:
#      x y z
#    x 4.026150 0.013900 -0.193030 
#    y 0.013900 3.831500 -0.085020 
#    z -0.193030 -0.085020 4.170940 
# 
# 
# High freq. dielectric constant tensor:
#      x y z
#    x 1.889320 0.001590 -0.006760 
#    y 0.001590 1.878190 -0.001460 
#    z -0.006760 -0.001460 1.892450 
# 
# From -- ./inp_files/175796.got.cif
#   From: 2010.06.25/outbox.cif.g09.slc.cpg/sg2_88_cif.got.tgz:175796.got - 2010.06.27 13:26:56.
