data_PCOD8021176
_publ_section_title
;
Structure prediction by ZEFSAII (Michael W. Deem and Ramdas Pophale) SiO2 
 PCOD8021176
Probable space group: P -1
;
_chemical_formula_sum "Si O2"
_cell_formula_units_Z 16
_cell_length_a 8.733127
_cell_length_b 5.249421
_cell_length_c 13.538997
_cell_angle_alpha 85.601593
_cell_angle_beta 74.399556
_cell_angle_gamma 74.214734
_cell_volume 575.265371
_symmetry_space_group_name_H-M "P -1"
_symmetry_group_IT_number 2
_symmetry_cell_setting 'triclinic'
loop_
_space_group_symop_operation_xyz
x,y,z
-x,-y,-z
loop_
_atom_site_type_symbol
_atom_site_label
_atom_site_fract_x
_atom_site_fract_y
_atom_site_fract_z
Si Si1 0.148848 0.527669 0.333825
Si Si2 0.356860 0.168105 0.089340
Si Si3 0.665548 0.003615 0.346120
Si Si4 0.590168 0.141516 0.726335
Si Si5 0.673499 0.397773 0.183852
Si Si6 0.868597 0.846671 0.496312
Si Si7 0.219139 0.764889 0.032051
Si Si8 0.946970 0.648180 0.181401
O O1 0.252411 0.744097 0.329968
O O2 0.221785 0.244256 0.387813
O O3 0.106380 0.499290 0.226942
O O4 0.969283 0.608527 0.416920
O O5 0.376874 0.135442 0.208028
O O6 0.215507 0.017757 0.093881
O O7 0.323663 0.475617 0.061077
O O8 0.500000 0.000000 0.000000
O O9 0.517618 0.865519 0.354452
O O10 0.713000 0.010522 0.452941
O O11 0.829167 0.877891 0.257704
O O12 0.612706 0.294945 0.299748
O O13 0.471426 0.339106 0.819455
O O14 0.852830 0.444618 0.163910
O O15 0.700177 0.201410 0.090181
O O16 0.000000 0.000000 0.500000
O O17 0.026064 0.760315 0.069511
#
# Coordination Sequence:
#
# PCOD8021176 Si02
#       8
#     2   2   2   2   2   2   2   2
#     4  10  22  43  68  96 132 169 229 280 353 414
#     4  12  25  43  66  99 141 186 239 287 342 404
#     4  10  24  42  65  95 137 175 227 283 354 410
#     4  11  24  42  65  97 136 183 223 285 344 418
#     4  11  24  41  64  94 139 182 227 286 341 405
#     4  10  22  43  71  97 126 172 222 291 349 420
#     4  12  26  41  71  99 137 193 240 288 340 409
#     4  10  23  42  62  99 130 181 228 288 338 412
#
# _framework density 27.813251999999999
#
# number of rings (size 3 to 8) (size 9 to 14) (size 15 to 20)
#    0.000    1.250    2.500    2.250    5.250    4.000 
#    0.000    1.250    0.000    0.000    0.000    0.000 
#    0.000    0.000    0.000    0.000    0.000    0.000 
#
# Total GULP energy -198255.373340 kJ/mol
# GULP energy per Si atom -12390.960834 kJ/mol
# Density = 2.774995 g / cm^3
# Si number density = 27.813252 Si / 1000 Ang^3
#
#
#
# Elastic Constant Matrix: (Units=GPa)
#
#
# Indices 1 2 3 4 5 6 
#
# 1 108.5054 3.4260 22.0865 -4.9409 -1.1122 18.1093
# 2 3.4260 32.8102 -8.9081 -21.8920 10.1380 19.2677
# 3 22.0865 -8.9081 122.7761 -12.8988 -10.4344 11.8733
# 4 -4.9409 -21.8920 -12.8988 41.0072 4.5510 -5.9005
# 5 -1.1122 10.1380 -10.4344 4.5510 45.3054 4.6215
# 6 18.1093 19.2677 11.8733 -5.9005 4.6215 39.8744
#
#
#
# Elastic Compliance Matrix: (Units=1/GPa)
#
#
# Indices 1 2 3 4 5 6 
#
# 1 0.010343 0.003708 -0.000829 0.002162 -0.000384 -0.005878
# 2 0.003708 0.108532 0.016192 0.059003 -0.021525 -0.047724
# 3 -0.000829 0.016192 0.011397 0.010955 -0.001193 -0.009082
# 4 0.002162 0.059003 0.010955 0.057917 -0.014145 -0.022545
# 5 -0.000384 -0.021525 -0.001193 -0.014145 0.027449 0.005656
# 6 -0.005878 -0.047724 -0.009082 -0.022545 0.005656 0.049521
#
#
# Mechanical properties :
#
#
# Convention : Reuss Voigt Hill
#
# Bulk Modulus (GPa) = 5.93769 33.03338 19.48553
# Shear Modulus (GPa) = 17.65822 41.73656 29.69739
#
# Velocity S-wave (km/s) = 2.52243 3.87796 3.27118
# Velocity P-wave (km/s) = 3.25929 5.65279 4.61395
#
# Compressibility (1/GPa) = 0.16841571
#
# Stress axis : x y z
#
# Youngs Moduli (GPa) = 96.68097 9.21387 87.74516
#
# Poissons Ratio (x) = -0.03417 0.07271
# Poissons Ratio (y) = -0.35853 -1.42078
# Poissons Ratio (z) = 0.08012 -0.14919
#
# Static dielectric constant tensor:
#      x y z
#    x 5.324780 -0.130310 0.062000 
#    y -0.130310 5.407290 0.003660 
#    z 0.062000 0.003660 5.426410 
# 
# 
# High freq. dielectric constant tensor:
#      x y z
#    x 2.133820 -0.009040 -0.013770 
#    y -0.009040 2.118190 0.004150 
#    z -0.013770 0.004150 2.133280 
# 
# From -- ./inp_files/55734.got.cif
#   From: 2010.06.25/outbox.cif.g09.slc.cpg/sg2_28_cif.got.tgz:55734.got - 2010.06.27 13:26:56.
