data_PCOD8021504
_publ_section_title
;
Structure prediction by ZEFSAII (Michael W. Deem and Ramdas Pophale) SiO2 
 PCOD8021504
Probable space group: P -1
;
_chemical_formula_sum "Si O2"
_cell_formula_units_Z 16
_cell_length_a 20.077635
_cell_length_b 5.359459
_cell_length_c 19.813106
_cell_angle_alpha 73.090568
_cell_angle_beta 21.459907
_cell_angle_gamma 80.536265
_cell_volume 711.042323
_symmetry_space_group_name_H-M "P -1"
_symmetry_group_IT_number 2
_symmetry_cell_setting 'triclinic'
loop_
_space_group_symop_operation_xyz
x,y,z
-x,-y,-z
loop_
_atom_site_type_symbol
_atom_site_label
_atom_site_fract_x
_atom_site_fract_y
_atom_site_fract_z
Si Si1 0.407051 0.117309 0.177180
Si Si2 0.031962 0.247693 0.725092
Si Si3 0.963400 0.494240 0.114190
Si Si4 0.627978 0.719686 0.954649
Si Si5 0.666652 0.762374 0.342350
Si Si6 0.270483 0.871773 0.871709
Si Si7 0.028780 0.842975 0.637764
Si Si8 0.679706 0.932001 0.456924
O O1 0.361055 0.193137 0.139887
O O2 0.208961 0.974789 0.410943
O O3 0.521429 0.393876 0.087717
O O4 0.524522 0.897882 0.082331
O O5 0.037019 0.555304 0.681085
O O6 0.223610 0.284378 0.586361
O O7 0.029939 0.063755 0.676526
O O8 0.840009 0.090029 0.960016
O O9 0.842569 0.705347 0.220664
O O10 0.842552 0.217695 0.285256
O O11 0.000000 0.500000 0.000000
O O12 0.159879 0.578953 0.964832
O O13 0.841590 0.785632 0.773887
O O14 0.500000 0.500000 0.500000
O O15 0.596503 0.911658 0.459426
O O16 0.746007 0.916237 0.187005
O O17 0.489518 0.906970 0.682280
#
# Coordination Sequence:
#
# PCOD8021504 Si02
#       8
#     2   2   2   2   2   2   2   2
#     4  10  22  43  76 113 147 183 231 294 340 395
#     4  12  29  46  69 100 139 198 238 278 340 434
#     4  12  22  41  69  95 129 160 217 293 363 441
#     4  10  22  43  76 115 144 182 237 286 345 397
#     4  12  23  41  69  97 121 162 223 297 374 414
#     4  12  25  47  67  97 129 177 228 298 361 422
#     4  12  26  48  70 102 148 194 236 276 345 405
#     4  12  26  47  65  95 131 171 231 293 359 420
#
# _framework density 22.502179000000002
#
# number of rings (size 3 to 8) (size 9 to 14) (size 15 to 20)
#    0.000    0.500    3.750    4.875    0.000    4.000 
#    0.000    7.500    0.000    0.000    0.000    0.000 
#    0.000    0.000    0.000    0.000    0.000    0.000 
#
# Total GULP energy -198336.279490 kJ/mol
# GULP energy per Si atom -12396.017468 kJ/mol
# Density = 2.245096 g / cm^3
# Si number density = 22.502179 Si / 1000 Ang^3
#
#
#
# Elastic Constant Matrix: (Units=GPa)
#
#
# Indices 1 2 3 4 5 6 
#
# 1 70.2419 38.2191 52.0783 2.6827 -20.6708 -0.7932
# 2 38.2191 120.9733 47.3095 -8.7174 -10.9377 1.6274
# 3 52.0783 47.3095 166.7129 -0.9668 -14.5379 0.5071
# 4 2.6827 -8.7174 -0.9668 36.9399 4.9917 -7.3857
# 5 -20.6708 -10.9377 -14.5379 4.9917 49.5521 11.4597
# 6 -0.7932 1.6274 0.5071 -7.3857 11.4597 36.4765
#
#
#
# Elastic Compliance Matrix: (Units=1/GPa)
#
#
# Indices 1 2 3 4 5 6 
#
# 1 0.023315 -0.004887 -0.005198 -0.004638 0.008219 -0.002724
# 2 -0.004887 0.010559 -0.001495 0.002910 -0.000483 0.000184
# 3 -0.005198 -0.001495 0.008035 0.000243 -0.000151 -0.000061
# 4 -0.004638 0.002910 0.000243 0.030498 -0.006111 0.007861
# 5 0.008219 -0.000483 -0.000151 -0.006111 0.026218 -0.009272
# 6 -0.002724 0.000184 -0.000061 0.007861 -0.009272 0.031853
#
#
# Mechanical properties :
#
#
# Convention : Reuss Voigt Hill
#
# Bulk Modulus (GPa) = 53.34288 70.34910 61.84599
# Shear Modulus (GPa) = 31.27172 39.28178 35.27675
#
# Velocity S-wave (km/s) = 3.73194 4.18268 3.96372
# Velocity P-wave (km/s) = 6.50592 7.39307 6.96363
#
# Compressibility (1/GPa) = 0.01874665
#
# Stress axis : x y z
#
# Youngs Moduli (GPa) = 42.89116 94.70841 124.45766
#
# Poissons Ratio (x) = 0.46288 0.64694
# Poissons Ratio (y) = 0.20963 0.18611
# Poissons Ratio (z) = 0.22295 0.14162
#
# Static dielectric constant tensor:
#      x y z
#    x 4.031470 -0.128480 0.050520 
#    y -0.128480 4.053140 0.171300 
#    z 0.050520 0.171300 4.385370 
# 
# 
# High freq. dielectric constant tensor:
#      x y z
#    x 1.885070 0.001190 -0.002890 
#    y 0.001190 1.895520 0.003910 
#    z -0.002890 0.003910 1.906580 
# 
# From -- ./inp_files/600757.got.cif
#   From: 2010.06.25/outbox.cif.g09.slc.cpg/sg2_301_cif.got.tgz:600757.got - 2010.06.27 13:26:56.
