data_PCOD8021593
_publ_section_title
;
Structure prediction by ZEFSAII (Michael W. Deem and Ramdas Pophale) SiO2 
 PCOD8021593
Probable space group: P -1
;
_chemical_formula_sum "Si O2"
_cell_formula_units_Z 14
_cell_length_a 12.273194
_cell_length_b 15.268686
_cell_length_c 12.278206
_cell_angle_alpha 46.594426
_cell_angle_beta 143.584050
_cell_angle_gamma 152.026571
_cell_volume 638.397218
_symmetry_space_group_name_H-M "P -1"
_symmetry_group_IT_number 2
_symmetry_cell_setting 'triclinic'
loop_
_space_group_symop_operation_xyz
x,y,z
-x,-y,-z
loop_
_atom_site_type_symbol
_atom_site_label
_atom_site_fract_x
_atom_site_fract_y
_atom_site_fract_z
Si Si1 0.934115 0.442723 0.819474
Si Si2 0.723438 0.511769 0.768823
Si Si3 0.569858 0.934030 0.375896
Si Si4 0.827558 0.467736 0.289324
Si Si5 0.254279 0.113873 0.233116
Si Si6 0.879304 0.814751 0.515963
Si Si7 0.103324 0.860419 0.152976
O O1 0.891055 0.534769 0.783686
O O2 0.629870 0.226051 0.739839
O O3 0.079170 0.554869 0.726627
O O4 0.143331 0.452991 0.038136
O O5 0.767349 0.676880 0.644268
O O6 0.391259 0.304729 0.680086
O O7 0.623502 0.858389 0.574889
O O8 0.416628 0.974589 0.268228
O O9 0.867773 0.123451 0.400274
O O10 0.494667 0.284406 0.198608
O O11 0.000000 0.500000 0.500000
O O12 0.893658 0.641665 0.178228
O O13 0.122773 0.928077 0.230979
O O14 0.018767 0.101676 0.062825
O O15 0.000000 0.000000 0.500000
#
# Coordination Sequence:
#
# PCOD8021593 Si02
#       7
#     2   2   2   2   2   2   2
#     4  10  22  44  65 100 130 176 226 269 335 396
#     4  10  24  45  66  95 136 171 225 278 327 400
#     4  11  23  43  69 100 135 178 218 282 336 394
#     4  11  22  40  69  95 134 178 215 271 333 394
#     4  11  23  43  66  98 139 171 225 270 332 405
#     4  11  24  44  69  98 129 176 225 277 336 393
#     4  10  24  41  63 100 134 175 224 269 329 399
#
# _framework density 21.929919999999999
#
# number of rings (size 3 to 8) (size 9 to 14) (size 15 to 20)
#    0.000    1.429    4.286    0.857    2.000    5.143 
#    2.571    0.000    0.000    0.000    0.000    0.000 
#    0.000    0.000    0.000    0.000    0.000    0.000 
#
# Total GULP energy -173619.825110 kJ/mol
# GULP energy per Si atom -12401.416079 kJ/mol
# Density = 2.188001 g / cm^3
# Si number density = 21.929920 Si / 1000 Ang^3
#
#
#
# Elastic Constant Matrix: (Units=GPa)
#
#
# Indices 1 2 3 4 5 6 
#
# 1 75.9817 24.8305 46.6637 -2.5064 -0.1378 8.2761
# 2 24.8305 100.0655 33.6238 11.5030 3.2251 6.4516
# 3 46.6637 33.6238 161.3901 18.9390 0.3249 0.7059
# 4 -2.5064 11.5030 18.9390 28.3698 -4.4705 7.7578
# 5 -0.1378 3.2251 0.3249 -4.4705 37.8283 2.2451
# 6 8.2761 6.4516 0.7059 7.7578 2.2451 41.7009
#
#
#
# Elastic Compliance Matrix: (Units=1/GPa)
#
#
# Indices 1 2 3 4 5 6 
#
# 1 0.018499 -0.003416 -0.005593 0.008296 0.001665 -0.004681
# 2 -0.003416 0.011742 -0.000909 -0.004652 -0.001545 -0.000175
# 3 -0.005593 -0.000909 0.008793 -0.006810 -0.000967 0.002421
# 4 0.008296 -0.004652 -0.006810 0.046104 0.006512 -0.009739
# 5 0.001665 -0.001545 -0.000967 0.006512 0.027515 -0.002768
# 6 -0.004681 -0.000175 0.002421 -0.009739 -0.002768 0.026856
#
#
# Mechanical properties :
#
#
# Convention : Reuss Voigt Hill
#
# Bulk Modulus (GPa) = 52.08985 60.85257 56.47121
# Shear Modulus (GPa) = 30.16652 37.06776 33.61714
#
# Velocity S-wave (km/s) = 3.71291 4.11576 3.91952
# Velocity P-wave (km/s) = 6.49503 7.09894 6.80369
#
# Compressibility (1/GPa) = 0.01919760
#
# Stress axis : x y z
#
# Youngs Moduli (GPa) = 54.05602 85.16123 113.72283
#
# Poissons Ratio (x) = 0.29095 0.63610
# Poissons Ratio (y) = 0.18468 0.10335
# Poissons Ratio (z) = 0.30236 0.07739
#
# Static dielectric constant tensor:
#      x y z
#    x 3.967390 0.119060 0.159410 
#    y 0.119060 3.937340 0.143110 
#    z 0.159410 0.143110 4.044480 
# 
# 
# High freq. dielectric constant tensor:
#      x y z
#    x 1.856080 -0.002220 0.010660 
#    y -0.002220 1.861690 0.012320 
#    z 0.010660 0.012320 1.870160 
# 
# From -- ./inp_files/432635.got.cif
#   From: 2010.06.25/outbox.cif.g09.slc.cpg/sg2_217_cif.got.tgz:432635.got - 2010.06.27 13:26:56.
