data_PCOD8021728
_publ_section_title
;
Structure prediction by ZEFSAII (Michael W. Deem and Ramdas Pophale) SiO2 
 PCOD8021728
Probable space group: P -1
;
_chemical_formula_sum "Si O2"
_cell_formula_units_Z 16
_cell_length_a 15.243234
_cell_length_b 12.359988
_cell_length_c 8.530737
_cell_angle_alpha 74.178038
_cell_angle_beta 110.329059
_cell_angle_gamma 46.102342
_cell_volume 705.812957
_symmetry_space_group_name_H-M "P -1"
_symmetry_group_IT_number 2
_symmetry_cell_setting 'triclinic'
loop_
_space_group_symop_operation_xyz
x,y,z
-x,-y,-z
loop_
_atom_site_type_symbol
_atom_site_label
_atom_site_fract_x
_atom_site_fract_y
_atom_site_fract_z
Si Si1 0.807577 0.531629 0.074201
Si Si2 0.401396 0.800349 0.167184
Si Si3 0.167270 0.041561 0.418962
Si Si4 0.460791 0.562601 0.770576
Si Si5 0.662919 0.542340 0.715823
Si Si6 0.068353 0.444955 0.388259
Si Si7 0.417726 0.926830 0.831230
Si Si8 0.032457 0.212054 0.939555
O O1 0.930155 0.517919 0.157603
O O2 0.702246 0.616348 0.809810
O O3 0.645383 0.708500 0.037497
O O4 0.967752 0.262626 0.307341
O O5 0.518878 0.573209 0.259750
O O6 0.496911 0.742076 0.409960
O O7 0.391629 0.914943 0.998048
O O8 0.182165 0.996965 0.997494
O O9 0.238725 0.838795 0.509668
O O10 0.348682 0.902657 0.678797
O O11 0.137525 0.136277 0.197578
O O12 0.609542 0.496197 0.815861
O O13 0.500000 0.500000 0.000000
O O14 0.860365 0.305949 0.837746
O O15 0.000000 0.500000 0.500000
O O16 0.061480 0.580619 0.280974
O O17 0.290341 0.171246 0.623597
#
# Coordination Sequence:
#
# PCOD8021728 Si02
#       8
#     2   2   2   2   2   2   2   2
#     4  10  23  44  70  97 138 177 228 276 336 406
#     4  12  24  42  72  96 147 177 220 293 333 393
#     4  10  22  44  67  95 141 170 223 284 332 406
#     4  12  23  46  72 100 136 184 222 282 346 398
#     4  11  25  44  68 103 138 173 232 274 342 413
#     4  11  25  43  71 101 139 180 227 285 340 393
#     4  11  22  43  70 101 137 179 230 276 336 410
#     4  11  25  46  67 101 140 179 225 284 341 399
#
# _framework density 22.668894999999999
#
# number of rings (size 3 to 8) (size 9 to 14) (size 15 to 20)
#    0.000    1.000    5.000    0.375    1.750    6.500 
#    2.250    6.875    0.000    0.000    0.000    0.000 
#    0.000    0.000    0.000    0.000    0.000    0.000 
#
# Total GULP energy -198294.852397 kJ/mol
# GULP energy per Si atom -12393.428275 kJ/mol
# Density = 2.261730 g / cm^3
# Si number density = 22.668895 Si / 1000 Ang^3
#
#
#
# Elastic Constant Matrix: (Units=GPa)
#
#
# Indices 1 2 3 4 5 6 
#
# 1 74.2058 31.5675 57.7979 -6.5168 -1.7556 -24.2865
# 2 31.5675 106.2725 50.2469 -29.5537 3.2157 -12.4666
# 3 57.7979 50.2469 117.7851 -19.0906 -11.6224 -9.5780
# 4 -6.5168 -29.5537 -19.0906 45.9556 -11.9046 9.8586
# 5 -1.7556 3.2157 -11.6224 -11.9046 39.6577 -5.7280
# 6 -24.2865 -12.4666 -9.5780 9.8586 -5.7280 44.5020
#
#
#
# Elastic Compliance Matrix: (Units=1/GPa)
#
#
# Indices 1 2 3 4 5 6 
#
# 1 0.028379 -0.002401 -0.013113 -0.006405 -0.002423 0.013099
# 2 -0.002401 0.013773 -0.003568 0.006948 -0.000151 0.000222
# 3 -0.013113 -0.003568 0.017552 0.005703 0.005859 -0.004888
# 4 -0.006405 0.006948 0.005703 0.031422 0.009380 -0.006075
# 5 -0.002423 -0.000151 0.005859 0.009380 0.029894 0.001666
# 6 0.013099 0.000222 -0.004888 -0.006075 0.001666 0.030190
#
#
# Mechanical properties :
#
#
# Convention : Reuss Voigt Hill
#
# Bulk Modulus (GPa) = 46.42761 64.16530 55.29646
# Shear Modulus (GPa) = 25.43832 36.59981 31.01907
#
# Velocity S-wave (km/s) = 3.35351 4.02249 3.70314
# Velocity P-wave (km/s) = 5.95986 7.06688 6.53685
#
# Compressibility (1/GPa) = 0.02153891
#
# Stress axis : x y z
#
# Youngs Moduli (GPa) = 35.23784 72.60793 56.97323
#
# Poissons Ratio (x) = 0.17431 0.74711
# Poissons Ratio (y) = 0.08459 0.20329
# Poissons Ratio (z) = 0.46209 0.25908
#
# Static dielectric constant tensor:
#      x y z
#    x 3.923100 -0.258070 0.078220 
#    y -0.258070 4.402760 -0.178650 
#    z 0.078220 -0.178650 4.290690 
# 
# 
# High freq. dielectric constant tensor:
#      x y z
#    x 1.860430 -0.024510 0.005680 
#    y -0.024510 1.910930 -0.006930 
#    z 0.005680 -0.006930 1.903470 
# 
# From -- ./inp_files/307107.got.cif
#   From: 2010.06.25/outbox.cif.g09.slc.cpg/sg2_154_cif.got.tgz:307107.got - 2010.06.27 13:26:56.
