data_PCOD8021281
_publ_section_title
;
Structure prediction by ZEFSAII (Michael W. Deem and Ramdas Pophale) SiO2 
 PCOD8021281
Probable space group: P -1
;
_chemical_formula_sum "Si O2"
_cell_formula_units_Z 12
_cell_length_a 14.451373
_cell_length_b 5.683417
_cell_length_c 17.938426
_cell_angle_alpha 107.179382
_cell_angle_beta 21.636360
_cell_angle_gamma 107.229419
_cell_volume 518.024268
_symmetry_space_group_name_H-M "P -1"
_symmetry_group_IT_number 2
_symmetry_cell_setting 'triclinic'
loop_
_space_group_symop_operation_xyz
x,y,z
-x,-y,-z
loop_
_atom_site_type_symbol
_atom_site_label
_atom_site_fract_x
_atom_site_fract_y
_atom_site_fract_z
Si Si1 0.987312 0.244105 0.945390
Si Si2 0.135495 0.740833 0.381343
Si Si3 0.048288 0.005816 0.732986
Si Si4 0.396577 0.103920 0.732574
Si Si5 0.289045 0.798924 0.114189
Si Si6 0.623931 0.657912 0.084164
O O1 0.039264 0.244315 0.817427
O O2 0.212286 0.099320 0.799651
O O3 0.000000 0.500000 0.000000
O O4 0.708405 0.119985 0.156759
O O5 0.188065 0.651104 0.249128
O O6 0.395747 0.808469 0.236253
O O7 0.000000 0.500000 0.500000
O O8 0.000000 0.000000 0.500000
O O9 0.941132 0.068531 0.738489
O O10 0.328369 0.928285 0.506327
O O11 0.891336 0.778035 0.867773
O O12 0.390932 0.344637 0.814105
O O13 0.409191 0.620172 0.947679
O O14 0.500000 0.000000 0.000000
#
# Coordination Sequence:
#
# PCOD8021281 Si02
#       6
#     2   2   2   2   2   2
#     4  10  22  43  69  98 138 175 229 296 360 435
#     4  12  27  45  73 104 144 197 249 301 367 434
#     4  11  24  43  70 101 137 185 237 291 364 434
#     4  10  23  42  67 101 136 178 233 292 362 432
#     4  12  25  45  68 100 147 190 241 301 361 429
#     4  11  25  43  68  99 142 185 238 300 356 430
#
# _framework density 23.164936000000001
#
# number of rings (size 3 to 8) (size 9 to 14) (size 15 to 20)
#    0.000    1.000    1.667    4.000    4.667    2.000 
#    0.000    0.000    0.000    0.000    0.000    0.000 
#    0.000    0.000    0.000    0.000    0.000    0.000 
#
# Total GULP energy -148764.260185 kJ/mol
# GULP energy per Si atom -12397.021682 kJ/mol
# Density = 2.311221 g / cm^3
# Si number density = 23.164936 Si / 1000 Ang^3
#
#
#
# Elastic Constant Matrix: (Units=GPa)
#
#
# Indices 1 2 3 4 5 6 
#
# 1 117.0065 22.1774 43.2924 -19.3165 9.6674 17.8720
# 2 22.1774 117.0375 51.8913 0.2177 9.2064 22.6186
# 3 43.2924 51.8913 164.6751 -14.2297 -6.2077 10.7622
# 4 -19.3165 0.2177 -14.2297 24.7675 0.7588 8.2451
# 5 9.6674 9.2064 -6.2077 0.7588 47.3703 5.6741
# 6 17.8720 22.6186 10.7622 8.2451 5.6741 44.1671
#
#
#
# Elastic Compliance Matrix: (Units=1/GPa)
#
#
# Indices 1 2 3 4 5 6 
#
# 1 0.012099 -0.000122 -0.001930 0.010401 -0.002143 -0.006029
# 2 -0.000122 0.011039 -0.003278 -0.000534 -0.002009 -0.004447
# 3 -0.001930 -0.003278 0.007986 0.003163 0.002068 -0.000343
# 4 0.010401 -0.000534 0.003163 0.055304 -0.000701 -0.014940
# 5 -0.002143 -0.002009 0.002068 -0.000701 0.022382 -0.001353
# 6 -0.006029 -0.004447 -0.000343 -0.014940 -0.001353 0.030405
#
#
# Mechanical properties :
#
#
# Convention : Reuss Voigt Hill
#
# Bulk Modulus (GPa) = 48.86590 70.38236 59.62413
# Shear Modulus (GPa) = 31.90864 42.01819 36.96342
#
# Velocity S-wave (km/s) = 3.71543 4.26358 3.99891
# Velocity P-wave (km/s) = 6.28860 7.39504 6.86415
#
# Compressibility (1/GPa) = 0.02046417
#
# Stress axis : x y z
#
# Youngs Moduli (GPa) = 82.65192 90.58654 125.21249
#
# Poissons Ratio (x) = 0.01109 0.24168
# Poissons Ratio (y) = 0.01012 0.41039
# Poissons Ratio (z) = 0.15953 0.29690
#
# Static dielectric constant tensor:
#      x y z
#    x 5.721020 0.209050 0.033360 
#    y 0.209050 3.991840 0.061170 
#    z 0.033360 0.061170 4.256450 
# 
# 
# High freq. dielectric constant tensor:
#      x y z
#    x 1.941530 0.016390 -0.001060 
#    y 0.016390 1.898980 0.003500 
#    z -0.001060 0.003500 1.918740 
# 
# From -- ./inp_files/3112.got.cif
#   From: 2010.06.25/outbox.cif.g09.slc.cpg/sg2_2_cif.got.tgz:3112.got - 2010.06.27 13:26:56.
