data_PCOD8021831
_publ_section_title
;
Structure prediction by ZEFSAII (Michael W. Deem and Ramdas Pophale) SiO2 
 PCOD8021831
Probable space group: P -1
;
_chemical_formula_sum "Si O2"
_cell_formula_units_Z 16
_cell_length_a 11.969833
_cell_length_b 22.106006
_cell_length_c 12.099764
_cell_angle_alpha 158.224089
_cell_angle_beta 128.086137
_cell_angle_gamma 40.530013
_cell_volume 717.348539
_symmetry_space_group_name_H-M "P -1"
_symmetry_group_IT_number 2
_symmetry_cell_setting 'triclinic'
loop_
_space_group_symop_operation_xyz
x,y,z
-x,-y,-z
loop_
_atom_site_type_symbol
_atom_site_label
_atom_site_fract_x
_atom_site_fract_y
_atom_site_fract_z
Si Si1 0.959535 0.476422 0.809965
Si Si2 0.682562 0.098733 0.243248
Si Si3 0.921880 0.181503 0.904059
Si Si4 0.058384 0.195392 0.787277
Si Si5 0.528862 0.436118 0.125423
Si Si6 0.549569 0.637902 0.820494
Si Si7 0.555312 0.147930 0.484343
Si Si8 0.314656 0.056289 0.249265
O O1 0.759701 0.546008 0.779976
O O2 0.098335 0.228368 0.438004
O O3 0.004310 0.604073 0.981749
O O4 0.000000 0.500000 0.000000
O O5 0.647766 0.315607 0.567104
O O6 0.544825 0.157302 0.360191
O O7 0.896251 0.894405 0.048574
O O8 0.627300 0.048447 0.013714
O O9 0.918627 0.261910 0.915869
O O10 0.931547 0.977845 0.570795
O O11 0.726968 0.381103 0.179112
O O12 0.259748 0.088118 0.775597
O O13 0.489384 0.338210 0.032565
O O14 0.560041 0.326714 0.840220
O O15 0.500000 0.500000 0.500000
O O16 0.411376 0.874480 0.090867
O O17 0.387901 0.186770 0.512533
#
# Coordination Sequence:
#
# PCOD8021831 Si02
#       8
#     2   2   2   2   2   2   2   2
#     4  12  29  45  74 105 139 191 242 290 344 426
#     4  11  24  42  68 106 138 180 229 284 353 427
#     4   9  22  40  70 101 135 177 224 291 344 412
#     4   9  20  44  67 101 139 171 230 292 346 402
#     4  11  24  42  74  96 137 189 231 283 347 419
#     4  12  28  50  68 101 147 190 235 292 353 419
#     4  10  22  44  69 102 140 177 230 293 345 416
#     4  12  27  44  71 100 143 184 231 291 358 414
#
# _framework density 22.304361
#
# number of rings (size 3 to 8) (size 9 to 14) (size 15 to 20)
#    0.000    1.250    2.500    2.250   10.500    1.500 
#    0.000    1.250    0.000    0.000    0.000    0.000 
#    0.000    0.000    0.000    0.000    0.000    0.000 
#
# Total GULP energy -198297.220495 kJ/mol
# GULP energy per Si atom -12393.576281 kJ/mol
# Density = 2.225359 g / cm^3
# Si number density = 22.304361 Si / 1000 Ang^3
#
#
#
# Elastic Constant Matrix: (Units=GPa)
#
#
# Indices 1 2 3 4 5 6 
#
# 1 112.9001 31.7711 37.7129 20.1336 3.8622 6.3439
# 2 31.7711 85.9629 43.8355 19.4112 2.3033 19.1374
# 3 37.7129 43.8355 88.3109 11.3486 -4.6985 8.9958
# 4 20.1336 19.4112 11.3486 32.2685 1.5157 -3.0344
# 5 3.8622 2.3033 -4.6985 1.5157 35.5491 2.4218
# 6 6.3439 19.1374 8.9958 -3.0344 2.4218 39.0638
#
#
#
# Elastic Compliance Matrix: (Units=1/GPa)
#
#
# Indices 1 2 3 4 5 6 
#
# 1 0.011391 -0.000880 -0.003733 -0.005283 -0.001388 -0.000884
# 2 -0.000880 0.019828 -0.007440 -0.009508 -0.001186 -0.008523
# 3 -0.003733 -0.007440 0.016633 0.000840 0.003030 0.000298
# 4 -0.005283 -0.009508 0.000840 0.040561 -0.001010 0.008536
# 5 -0.001388 -0.001186 0.003030 -0.001010 0.028921 -0.001762
# 6 -0.000884 -0.008523 0.000298 0.008536 -0.001762 0.030622
#
#
# Mechanical properties :
#
#
# Convention : Reuss Voigt Hill
#
# Bulk Modulus (GPa) = 42.10806 57.09029 49.59917
# Shear Modulus (GPa) = 27.78144 32.96657 30.37401
#
# Velocity S-wave (km/s) = 3.53308 3.84869 3.69426
# Velocity P-wave (km/s) = 5.96350 6.73806 6.36258
#
# Compressibility (1/GPa) = 0.02374842
#
# Stress axis : x y z
#
# Youngs Moduli (GPa) = 87.78731 50.43420 60.11978
#
# Poissons Ratio (x) = 0.04436 0.22442
# Poissons Ratio (y) = 0.07722 0.44727
# Poissons Ratio (z) = 0.32770 0.37521
#
# Static dielectric constant tensor:
#      x y z
#    x 4.109830 -0.015070 -0.036000 
#    y -0.015070 4.108200 0.151080 
#    z -0.036000 0.151080 3.763450 
# 
# 
# High freq. dielectric constant tensor:
#      x y z
#    x 1.889210 0.001440 -0.003500 
#    y 0.001440 1.884730 0.011770 
#    z -0.003500 0.011770 1.860520 
# 
# From -- ./inp_files/438757.got.cif
#   From: 2010.06.25/outbox.cif.g09.slc.cpg/sg2_220_cif.got.tgz:438757.got - 2010.06.27 13:26:56.
