data_PCOD8021683
_publ_section_title
;
Structure prediction by ZEFSAII (Michael W. Deem and Ramdas Pophale) SiO2 
 PCOD8021683
Probable space group: P -1
;
_chemical_formula_sum "Si O2"
_cell_formula_units_Z 16
_cell_length_a 12.636284
_cell_length_b 11.139106
_cell_length_c 14.603358
_cell_angle_alpha 51.787430
_cell_angle_beta 27.093967
_cell_angle_gamma 60.320332
_cell_volume 726.669079
_symmetry_space_group_name_H-M "P -1"
_symmetry_group_IT_number 2
_symmetry_cell_setting 'triclinic'
loop_
_space_group_symop_operation_xyz
x,y,z
-x,-y,-z
loop_
_atom_site_type_symbol
_atom_site_label
_atom_site_fract_x
_atom_site_fract_y
_atom_site_fract_z
Si Si1 0.158880 0.715811 0.856850
Si Si2 0.490615 0.429753 0.942145
Si Si3 0.728667 0.002959 0.764101
Si Si4 0.470535 0.870053 0.861176
Si Si5 0.010269 0.260234 0.337989
Si Si6 0.403766 0.260866 0.364826
Si Si7 0.009462 0.026791 0.871364
Si Si8 0.740558 0.436631 0.329717
O O1 0.339941 0.737747 0.790507
O O2 0.289031 0.669902 0.687512
O O3 0.066049 0.878926 0.841618
O O4 0.941527 0.583177 0.103055
O O5 0.632626 0.558329 0.703708
O O6 0.500000 0.500000 0.000000
O O7 0.599230 0.271414 0.944335
O O8 0.216339 0.398940 0.138722
O O9 0.661215 0.987968 0.714392
O O10 0.868255 0.865882 0.754521
O O11 0.895649 0.170420 0.559877
O O12 0.500000 0.000000 0.000000
O O13 0.593185 0.821389 0.697342
O O14 0.242869 0.945157 0.980876
O O15 0.802654 0.326439 0.414640
O O16 0.203781 0.174241 0.626351
O O17 0.000000 0.000000 0.000000
O O18 0.500000 0.500000 0.500000
#
# Coordination Sequence:
#
# PCOD8021683 Si02
#       8
#     2   2   2   2   2   2   2   2
#     4  11  26  45  66 101 139 176 237 284 353 419
#     4   9  20  44  70  92 132 178 228 286 343 406
#     4  10  24  40  68 101 137 175 226 286 353 414
#     4  10  24  42  66 104 133 183 232 280 353 422
#     4  10  22  44  66  96 136 173 228 286 340 414
#     4  11  23  45  70  95 141 184 229 295 346 414
#     4  12  27  41  71 105 139 183 233 289 357 422
#     4  11  27  44  72  98 135 190 230 289 350 418
#
# _framework density 22.018274000000002
#
# number of rings (size 3 to 8) (size 9 to 14) (size 15 to 20)
#    0.000    1.500    2.500    0.375    7.000    4.500 
#    0.000    0.000    0.000    0.000    0.000    0.000 
#    0.000    0.000    0.000    0.000    0.000    0.000 
#
# Total GULP energy -198280.064714 kJ/mol
# GULP energy per Si atom -12392.504045 kJ/mol
# Density = 2.196816 g / cm^3
# Si number density = 22.018274 Si / 1000 Ang^3
#
#
#
# Elastic Constant Matrix: (Units=GPa)
#
#
# Indices 1 2 3 4 5 6 
#
# 1 99.7290 38.5689 24.4536 5.4436 -1.8398 -11.8502
# 2 38.5689 114.2958 45.3564 6.8830 7.9213 -25.0990
# 3 24.4536 45.3564 110.7367 -5.0169 21.7157 -0.1868
# 4 5.4436 6.8830 -5.0169 45.4428 -4.0270 -4.3342
# 5 -1.8398 7.9213 21.7157 -4.0270 27.9988 1.1931
# 6 -11.8502 -25.0990 -0.1868 -4.3342 1.1931 46.0803
#
#
#
# Elastic Compliance Matrix: (Units=1/GPa)
#
#
# Indices 1 2 3 4 5 6 
#
# 1 0.011976 -0.003154 -0.001986 -0.000791 0.003054 0.001200
# 2 -0.003154 0.013151 -0.004582 -0.001605 -0.000869 0.006205
# 3 -0.001986 -0.004582 0.013108 0.001361 -0.008694 -0.002600
# 4 -0.000791 -0.001605 0.001361 0.022819 0.002586 0.001007
# 5 0.003054 -0.000869 -0.008694 0.002586 0.043303 -0.000601
# 6 0.001200 0.006205 -0.002600 0.001007 -0.000601 0.025490
#
#
# Mechanical properties :
#
#
# Convention : Reuss Voigt Hill
#
# Bulk Modulus (GPa) = 53.21300 60.16882 56.69091
# Shear Modulus (GPa) = 32.14334 38.32989 35.23662
#
# Velocity S-wave (km/s) = 3.82494 4.17684 4.00476
# Velocity P-wave (km/s) = 6.61264 7.11670 6.86930
#
# Compressibility (1/GPa) = 0.01879240
#
# Stress axis : x y z
#
# Youngs Moduli (GPa) = 83.50133 76.03835 76.29055
#
# Poissons Ratio (x) = 0.23980 0.15148
# Poissons Ratio (y) = 0.26334 0.34956
# Poissons Ratio (z) = 0.16580 0.34840
#
# Static dielectric constant tensor:
#      x y z
#    x 4.141750 -0.173310 0.031570 
#    y -0.173310 4.598080 -0.476240 
#    z 0.031570 -0.476240 4.191220 
# 
# 
# High freq. dielectric constant tensor:
#      x y z
#    x 1.869920 -0.010590 -0.012680 
#    y -0.010590 1.873610 -0.018560 
#    z -0.012680 -0.018560 1.864230 
# 
# From -- ./inp_files/518735.got.cif
#   From: 2010.06.25/outbox.cif.g09.slc.cpg/sg2_260_cif.got.tgz:518735.got - 2010.06.27 13:26:56.
