data_PCOD8021022
_publ_section_title
;
Structure prediction by ZEFSAII (Michael W. Deem and Ramdas Pophale) SiO2 
 PCOD8021022
Probable space group: P -1
;
_chemical_formula_sum "Si O2"
_cell_formula_units_Z 12
_cell_length_a 10.473648
_cell_length_b 7.419830
_cell_length_c 8.712740
_cell_angle_alpha 124.983592
_cell_angle_beta 101.301875
_cell_angle_gamma 84.744843
_cell_volume 543.811784
_symmetry_space_group_name_H-M "P -1"
_symmetry_group_IT_number 2
_symmetry_cell_setting 'triclinic'
loop_
_space_group_symop_operation_xyz
x,y,z
-x,-y,-z
loop_
_atom_site_type_symbol
_atom_site_label
_atom_site_fract_x
_atom_site_fract_y
_atom_site_fract_z
Si Si1 0.618466 0.538099 0.249667
Si Si2 0.958456 0.908269 0.714631
Si Si3 0.236556 0.813100 0.706357
Si Si4 0.721627 0.008615 0.526779
Si Si5 0.155657 0.199947 0.054338
Si Si6 0.671550 0.445855 0.879350
O O1 0.685323 0.399360 0.330850
O O2 0.467518 0.465182 0.164813
O O3 0.628593 0.794665 0.420708
O O4 0.694064 0.496611 0.088267
O O5 0.080806 0.754752 0.626425
O O6 0.872107 0.946136 0.561771
O O7 0.865023 0.793904 0.764852
O O8 0.016417 0.142683 0.909902
O O9 0.294417 0.895224 0.599236
O O10 0.255936 0.009825 0.932736
O O11 0.678318 0.184932 0.728588
O O12 0.213173 0.436329 0.132947
#
# Coordination Sequence:
#
# PCOD8021022 Si02
#       6
#     2   2   2   2   2   2
#     4  11  25  47  65  95 134 171 221 264 322 386
#     4   9  21  42  66  99 133 166 215 270 322 388
#     4  10  22  43  66  98 129 169 215 269 320 385
#     4  12  24  43  66 102 130 168 219 268 323 386
#     4   9  20  44  65  99 126 174 217 254 336 380
#     4  11  25  44  68  94 131 178 212 272 320 381
#
# _framework density 22.066457
#
# number of rings (size 3 to 8) (size 9 to 14) (size 15 to 20)
#    1.000    0.667    1.667    2.000    2.333    2.667 
#    6.000    0.000    0.000    0.000    0.000    0.000 
#    0.000    0.000    0.000    0.000    0.000    0.000 
#
# Total GULP energy -148799.365452 kJ/mol
# GULP energy per Si atom -12399.947121 kJ/mol
# Density = 2.201623 g / cm^3
# Si number density = 22.066457 Si / 1000 Ang^3
#
#
#
# Elastic Constant Matrix: (Units=GPa)
#
#
# Indices 1 2 3 4 5 6 
#
# 1 48.3329 22.1966 3.4920 -13.9548 18.5426 3.8711
# 2 22.1966 124.1337 32.9817 -13.1263 19.3195 5.1405
# 3 3.4920 32.9817 60.2628 10.3534 6.8505 5.3973
# 4 -13.9548 -13.1263 10.3534 31.1431 -5.7280 5.1810
# 5 18.5426 19.3195 6.8505 -5.7280 25.7548 -0.1910
# 6 3.8711 5.1405 5.3973 5.1810 -0.1910 34.5038
#
#
#
# Elastic Compliance Matrix: (Units=1/GPa)
#
#
# Indices 1 2 3 4 5 6 
#
# 1 0.032678 -0.001166 -0.000488 0.011509 -0.020002 -0.005255
# 2 -0.001166 0.011400 -0.006509 0.005824 -0.004697 -0.001450
# 3 -0.000488 -0.006509 0.022493 -0.010878 -0.003175 -0.000878
# 4 0.011509 0.005824 -0.010878 0.044543 0.000093 -0.007145
# 5 -0.020002 -0.004697 -0.003175 0.000093 0.057644 0.003746
# 6 -0.005255 -0.001450 -0.000878 -0.007145 0.003746 0.031019
#
#
# Mechanical properties :
#
#
# Convention : Reuss Voigt Hill
#
# Bulk Modulus (GPa) = 19.90235 38.89667 29.39951
# Shear Modulus (GPa) = 21.47290 29.88429 25.67860
#
# Velocity S-wave (km/s) = 3.12284 3.68405 3.41500
# Velocity P-wave (km/s) = 4.69486 5.98011 5.37603
#
# Compressibility (1/GPa) = 0.05024533
#
# Stress axis : x y z
#
# Youngs Moduli (GPa) = 30.60179 87.71562 44.45862
#
# Poissons Ratio (x) = 0.10227 0.02171
# Poissons Ratio (y) = 0.03568 0.28937
# Poissons Ratio (z) = 0.01494 0.57091
#
# Static dielectric constant tensor:
#      x y z
#    x 3.762520 0.012060 0.031280 
#    y 0.012060 3.668690 0.005500 
#    z 0.031280 0.005500 3.853510 
# 
# 
# High freq. dielectric constant tensor:
#      x y z
#    x 1.858800 0.006000 -0.000540 
#    y 0.006000 1.854260 -0.003670 
#    z -0.000540 -0.003670 1.864690 
# 
# From -- ./inp_files/65149.got.cif
#   From: 2010.06.25/outbox.cif.g09.slc.cpg/sg2_33_cif.got.tgz:65149.got - 2010.06.27 13:26:56.
