data_PCOD8021799
_publ_section_title
;
Structure prediction by ZEFSAII (Michael W. Deem and Ramdas Pophale) SiO2 
 PCOD8021799
Probable space group: P -1
;
_chemical_formula_sum "Si O2"
_cell_formula_units_Z 16
_cell_length_a 8.433271
_cell_length_b 17.017087
_cell_length_c 6.729716
_cell_angle_alpha 106.608747
_cell_angle_beta 101.294794
_cell_angle_gamma 52.316659
_cell_volume 732.146740
_symmetry_space_group_name_H-M "P -1"
_symmetry_group_IT_number 2
_symmetry_cell_setting 'triclinic'
loop_
_space_group_symop_operation_xyz
x,y,z
-x,-y,-z
loop_
_atom_site_type_symbol
_atom_site_label
_atom_site_fract_x
_atom_site_fract_y
_atom_site_fract_z
Si Si1 0.506803 0.817987 0.770295
Si Si2 0.437857 0.448006 0.593073
Si Si3 0.408356 0.934194 0.217123
Si Si4 0.184173 0.887944 0.415670
Si Si5 0.134554 0.724055 0.318762
Si Si6 0.748441 0.849570 0.548338
Si Si7 0.822857 0.451051 0.037093
Si Si8 0.766887 0.595129 0.787876
O O1 0.319365 0.842700 0.614702
O O2 0.673487 0.804564 0.653167
O O3 0.603389 0.716403 0.852603
O O4 0.437039 0.908931 0.972536
O O5 0.500000 0.500000 0.500000
O O6 0.638384 0.336624 0.595236
O O7 0.267592 0.440278 0.455106
O O8 0.353370 0.511427 0.821327
O O9 0.305859 0.886352 0.258186
O O10 0.621810 0.887000 0.339779
O O11 0.265374 0.056088 0.291005
O O12 0.097294 0.824698 0.285583
O O13 0.000000 0.000000 0.500000
O O14 0.108651 0.656657 0.111809
O O15 0.977994 0.758439 0.486194
O O16 0.733968 0.539191 0.914346
O O17 0.011188 0.435657 0.179196
#
# Coordination Sequence:
#
# PCOD8021799 Si02
#       8
#     2   2   2   2   2   2   2   2
#     4  11  24  41  71  99 132 186 227 274 340 415
#     4  12  26  45  71 101 139 178 227 289 343 400
#     4  10  22  44  68  95 138 179 225 279 340 408
#     4  11  24  45  67  99 141 177 224 287 343 400
#     4  12  24  46  69  99 138 179 226 284 342 401
#     4  10  23  43  66  98 136 174 229 282 337 402
#     4  11  27  46  70 100 136 186 230 280 342 410
#     4  11  25  46  69  99 140 180 234 276 340 405
#
# _framework density 21.853542000000001
#
# number of rings (size 3 to 8) (size 9 to 14) (size 15 to 20)
#    0.000    1.000    3.750    1.875    3.500    2.500 
#    2.250    0.000    0.000    0.000    0.000    0.000 
#    0.000    0.000    0.000    0.000    0.000    0.000 
#
# Total GULP energy -198437.288129 kJ/mol
# GULP energy per Si atom -12402.330508 kJ/mol
# Density = 2.180380 g / cm^3
# Si number density = 21.853542 Si / 1000 Ang^3
#
#
#
# Elastic Constant Matrix: (Units=GPa)
#
#
# Indices 1 2 3 4 5 6 
#
# 1 116.5087 49.4080 58.3090 15.7382 -1.4021 6.8773
# 2 49.4080 120.1926 48.4595 25.0121 -7.2143 6.2932
# 3 58.3090 48.4595 122.2861 26.7062 -3.8091 -3.8557
# 4 15.7382 25.0121 26.7062 33.3530 -3.2772 3.5499
# 5 -1.4021 -7.2143 -3.8091 -3.2772 35.8631 5.6838
# 6 6.8773 6.2932 -3.8557 3.5499 5.6838 42.3535
#
#
#
# Elastic Compliance Matrix: (Units=1/GPa)
#
#
# Indices 1 2 3 4 5 6 
#
# 1 0.012392 -0.003176 -0.004854 0.000604 -0.000299 -0.001993
# 2 -0.003176 0.011695 -0.001914 -0.005446 0.001713 -0.001170
# 3 -0.004854 -0.001914 0.012835 -0.006884 -0.000294 0.002857
# 4 0.000604 -0.005446 -0.006884 0.039912 0.002412 -0.003585
# 5 -0.000299 0.001713 -0.000294 0.002412 0.029094 -0.004339
# 6 -0.001993 -0.001170 0.002857 -0.003585 -0.004339 0.025251
#
#
# Mechanical properties :
#
#
# Convention : Reuss Voigt Hill
#
# Bulk Modulus (GPa) = 58.71026 74.59336 66.65181
# Shear Modulus (GPa) = 31.89906 35.83466 33.86686
#
# Velocity S-wave (km/s) = 3.82471 4.05379 3.94092
# Velocity P-wave (km/s) = 6.81383 7.49122 7.16054
#
# Compressibility (1/GPa) = 0.01703280
#
# Stress axis : x y z
#
# Youngs Moduli (GPa) = 80.69919 85.50904 77.91188
#
# Poissons Ratio (x) = 0.27159 0.37819
# Poissons Ratio (y) = 0.25631 0.14913
# Poissons Ratio (z) = 0.39172 0.16367
#
# Static dielectric constant tensor:
#      x y z
#    x 4.103080 0.033920 0.170900 
#    y 0.033920 3.848350 0.035280 
#    z 0.170900 0.035280 3.852140 
# 
# 
# High freq. dielectric constant tensor:
#      x y z
#    x 1.871950 0.005050 0.004150 
#    y 0.005050 1.866440 0.008210 
#    z 0.004150 0.008210 1.851000 
# 
# From -- ./inp_files/48265.got.cif
#   From: 2010.06.25/outbox.cif.g09.slc.cpg/sg2_25_cif.got.tgz:48265.got - 2010.06.27 13:26:56.
