data_PCOD8021314
_publ_section_title
;
Structure prediction by ZEFSAII (Michael W. Deem and Ramdas Pophale) SiO2 
 PCOD8021314
Probable space group: P -1
;
_chemical_formula_sum "Si O2"
_cell_formula_units_Z 14
_cell_length_a 10.955588
_cell_length_b 11.843668
_cell_length_c 9.157138
_cell_angle_alpha 50.792100
_cell_angle_beta 119.036427
_cell_angle_gamma 143.275459
_cell_volume 549.948711
_symmetry_space_group_name_H-M "P -1"
_symmetry_group_IT_number 2
_symmetry_cell_setting 'triclinic'
loop_
_space_group_symop_operation_xyz
x,y,z
-x,-y,-z
loop_
_atom_site_type_symbol
_atom_site_label
_atom_site_fract_x
_atom_site_fract_y
_atom_site_fract_z
Si Si1 0.270903 0.888952 0.941161
Si Si2 0.196018 0.089008 0.954618
Si Si3 0.507398 0.675104 0.824065
Si Si4 0.288842 0.756403 0.542916
Si Si5 0.208373 0.284993 0.546848
Si Si6 0.754628 0.916873 0.487730
Si Si7 0.126753 0.538428 0.323713
O O1 0.179613 0.944888 0.948560
O O2 0.245653 0.930797 0.727850
O O3 0.500000 0.000000 0.000000
O O4 0.123096 0.639784 0.096635
O O5 0.275511 0.289798 0.745375
O O6 0.356851 0.150462 0.113629
O O7 0.000000 0.000000 0.000000
O O8 0.292121 0.597061 0.754193
O O9 0.593248 0.794023 0.622509
O O10 0.500000 0.500000 0.000000
O O11 0.245873 0.712804 0.380615
O O12 0.096378 0.686817 0.567220
O O13 0.500000 0.000000 0.500000
O O14 0.327817 0.281712 0.497562
O O15 0.249059 0.487216 0.387310
O O16 0.973578 0.055823 0.573323
#
# Coordination Sequence:
#
# PCOD8021314 Si02
#       7
#     2   2   2   2   2   2   2
#     4  11  26  46  72 105 149 197 244 307 379 445
#     4  11  24  43  74 100 142 193 246 304 373 439
#     4  12  25  41  71 104 138 182 250 305 359 439
#     4  11  25  44  70 112 147 186 242 313 372 432
#     4  10  22  43  70 102 138 192 239 296 369 448
#     4  10  23  44  67  99 150 189 238 301 370 444
#     4  11  25  44  76 104 149 193 247 303 376 444
#
# _framework density 25.456918999999999
#
# number of rings (size 3 to 8) (size 9 to 14) (size 15 to 20)
#    0.000    1.143    1.429    3.429    6.000    2.857 
#    0.000    3.571    0.000    0.000    0.000    0.000 
#    0.000    0.000    0.000    0.000    0.000    0.000 
#
# Total GULP energy -173461.895455 kJ/mol
# GULP energy per Si atom -12390.135390 kJ/mol
# Density = 2.539898 g / cm^3
# Si number density = 25.456919 Si / 1000 Ang^3
#
#
#
# Elastic Constant Matrix: (Units=GPa)
#
#
# Indices 1 2 3 4 5 6 
#
# 1 95.2202 16.5702 47.0137 2.4134 9.0679 -8.3128
# 2 16.5702 56.1240 31.7476 -5.1779 -16.7396 1.2047
# 3 47.0137 31.7476 200.5194 -4.7269 2.6439 -14.9123
# 4 2.4134 -5.1779 -4.7269 45.8579 -5.5474 9.5122
# 5 9.0679 -16.7396 2.6439 -5.5474 40.4929 -0.2196
# 6 -8.3128 1.2047 -14.9123 9.5122 -0.2196 36.3489
#
#
#
# Elastic Compliance Matrix: (Units=1/GPa)
#
#
# Indices 1 2 3 4 5 6 
#
# 1 0.013137 -0.004452 -0.002154 -0.002626 -0.004986 0.002925
# 2 -0.004452 0.025274 -0.003333 0.005172 0.012347 -0.004502
# 3 -0.002154 -0.003333 0.006196 -0.000244 -0.001322 0.002216
# 4 -0.002626 0.005172 -0.000244 0.024758 0.006094 -0.007314
# 5 -0.004986 0.012347 -0.001322 0.006094 0.031819 -0.003494
# 6 0.002925 -0.004502 0.002216 -0.007314 -0.003494 0.031131
#
#
# Mechanical properties :
#
#
# Convention : Reuss Voigt Hill
#
# Bulk Modulus (GPa) = 40.43937 60.28074 50.36005
# Shear Modulus (GPa) = 31.16479 41.64209 36.40344
#
# Velocity S-wave (km/s) = 3.50268 4.04887 3.78564
# Velocity P-wave (km/s) = 5.68139 6.75194 6.23967
#
# Compressibility (1/GPa) = 0.02472838
#
# Stress axis : x y z
#
# Youngs Moduli (GPa) = 76.12138 39.56580 161.38806
#
# Poissons Ratio (x) = 0.17616 0.34759
# Poissons Ratio (y) = 0.33892 0.53797
# Poissons Ratio (z) = 0.16395 0.13189
#
# Static dielectric constant tensor:
#      x y z
#    x 4.999150 -0.089560 0.291030 
#    y -0.089560 4.420010 0.332100 
#    z 0.291030 0.332100 5.059650 
# 
# 
# High freq. dielectric constant tensor:
#      x y z
#    x 2.034940 -0.009050 0.013180 
#    y -0.009050 1.998450 0.011220 
#    z 0.013180 0.011220 2.033190 
# 
# From -- ./inp_files/261782.got.cif
#   From: 2010.06.25/outbox.cif.g09.slc.cpg/sg2_131_cif.got.tgz:261782.got - 2010.06.27 13:26:56.
