data_PCOD8021684
_publ_section_title
;
Structure prediction by ZEFSAII (Michael W. Deem and Ramdas Pophale) SiO2 
 PCOD8021684
Probable space group: P -1
;
_chemical_formula_sum "Si O2"
_cell_formula_units_Z 16
_cell_length_a 15.499151
_cell_length_b 8.902100
_cell_length_c 9.626148
_cell_angle_alpha 96.688926
_cell_angle_beta 34.202733
_cell_angle_gamma 98.533987
_cell_volume 738.280401
_symmetry_space_group_name_H-M "P -1"
_symmetry_group_IT_number 2
_symmetry_cell_setting 'triclinic'
loop_
_space_group_symop_operation_xyz
x,y,z
-x,-y,-z
loop_
_atom_site_type_symbol
_atom_site_label
_atom_site_fract_x
_atom_site_fract_y
_atom_site_fract_z
Si Si1 0.842456 0.719294 0.581847
Si Si2 0.448429 0.327989 0.576399
Si Si3 0.359670 0.913459 0.826480
Si Si4 0.156057 0.774141 0.312142
Si Si5 0.463556 0.210323 0.842965
Si Si6 0.889770 0.998575 0.358800
Si Si7 0.339635 0.577499 0.223765
Si Si8 0.213177 0.086299 0.803635
O O1 0.793495 0.551668 0.562609
O O2 0.979615 0.707709 0.510742
O O3 0.901444 0.833411 0.393219
O O4 0.691858 0.775419 0.860829
O O5 0.500000 0.500000 0.500000
O O6 0.565123 0.237971 0.322728
O O7 0.453413 0.310603 0.731644
O O8 0.277623 0.265285 0.742398
O O9 0.472385 0.032372 0.779342
O O10 0.327453 0.993367 0.732331
O O11 0.207925 0.867371 0.114739
O O12 0.167184 0.886910 0.440606
O O13 0.271581 0.643547 0.177759
O O14 0.623254 0.275716 0.711372
O O15 0.779323 0.975968 0.369599
O O16 0.049992 0.070403 0.092238
O O17 0.500000 0.500000 0.000000
#
# Coordination Sequence:
#
# PCOD8021684 Si02
#       8
#     2   2   2   2   2   2   2   2
#     4  11  22  44  69 100 140 171 222 281 339 395
#     4  11  26  41  67  91 137 179 220 273 340 396
#     4  11  23  42  69  95 133 175 226 267 338 405
#     4  12  23  41  73 100 131 181 224 274 341 395
#     4  10  22  44  66  96 137 176 223 277 328 405
#     4  11  23  41  74  99 132 173 226 279 327 403
#     4  10  26  41  62  99 141 172 222 277 331 394
#     4  10  23  45  65 101 134 174 220 272 334 401
#
# _framework density 21.671982
#
# number of rings (size 3 to 8) (size 9 to 14) (size 15 to 20)
#    0.000    1.250    2.500    3.750    8.750    1.500 
#    2.250    0.000    0.000    3.750    0.000    0.000 
#    0.000    0.000    0.000    0.000    0.000    0.000 
#
# Total GULP energy -198250.724251 kJ/mol
# GULP energy per Si atom -12390.670266 kJ/mol
# Density = 2.162266 g / cm^3
# Si number density = 21.671982 Si / 1000 Ang^3
#
#
#
# Elastic Constant Matrix: (Units=GPa)
#
#
# Indices 1 2 3 4 5 6 
#
# 1 136.2334 65.4876 47.5949 -11.4186 -9.6306 23.7080
# 2 65.4876 148.7145 44.7577 -22.7297 -12.3966 21.8089
# 3 47.5949 44.7577 84.9578 -16.8713 8.2472 15.9121
# 4 -11.4186 -22.7297 -16.8713 34.8938 6.9482 -6.9203
# 5 -9.6306 -12.3966 8.2472 6.9482 29.8114 -2.6056
# 6 23.7080 21.8089 15.9121 -6.9203 -2.6056 35.6114
#
#
#
# Elastic Compliance Matrix: (Units=1/GPa)
#
#
# Indices 1 2 3 4 5 6 
#
# 1 0.011161 -0.002927 -0.004827 -0.002077 0.003893 -0.003600
# 2 -0.002927 0.009905 -0.002889 0.003087 0.003078 -0.002001
# 3 -0.004827 -0.002889 0.018887 0.007082 -0.009882 -0.002803
# 4 -0.002077 0.003087 0.007082 0.035814 -0.009467 0.002595
# 5 0.003893 0.003078 -0.009882 -0.009467 0.041119 0.001107
# 6 -0.003600 -0.002001 -0.002803 0.002595 0.001107 0.033541
#
#
# Mechanical properties :
#
#
# Convention : Reuss Voigt Hill
#
# Bulk Modulus (GPa) = 53.57013 76.17622 64.87318
# Shear Modulus (GPa) = 28.10004 34.20102 31.15053
#
# Velocity S-wave (km/s) = 3.60475 3.97687 3.79537
# Velocity P-wave (km/s) = 6.48829 7.50421 7.01467
#
# Compressibility (1/GPa) = 0.01866712
#
# Stress axis : x y z
#
# Youngs Moduli (GPa) = 89.59416 100.96175 52.94543
#
# Poissons Ratio (x) = 0.29555 0.25556
# Poissons Ratio (y) = 0.26227 0.15296
# Poissons Ratio (z) = 0.43246 0.29168
#
# Static dielectric constant tensor:
#      x y z
#    x 4.277850 0.376910 -0.051600 
#    y 0.376910 4.196850 -0.277550 
#    z -0.051600 -0.277550 3.873260 
# 
# 
# High freq. dielectric constant tensor:
#      x y z
#    x 1.858060 0.016630 -0.004520 
#    y 0.016630 1.851690 -0.016850 
#    z -0.004520 -0.016850 1.849210 
# 
# From -- ./inp_files/298487.got.cif
#   From: 2010.06.25/outbox.cif.g09.slc.cpg/sg2_150_cif.got.tgz:298487.got - 2010.06.27 13:26:56.
