data_PCOD8021006
_publ_section_title
;
Structure prediction by ZEFSAII (Michael W. Deem and Ramdas Pophale) SiO2 
 PCOD8021006
Probable space group: P -1
;
_chemical_formula_sum "Si O2"
_cell_formula_units_Z 16
_cell_length_a 11.134480
_cell_length_b 11.474628
_cell_length_c 8.374959
_cell_angle_alpha 55.749787
_cell_angle_beta 128.039250
_cell_angle_gamma 113.304965
_cell_volume 694.632316
_symmetry_space_group_name_H-M "P -1"
_symmetry_group_IT_number 2
_symmetry_cell_setting 'triclinic'
loop_
_space_group_symop_operation_xyz
x,y,z
-x,-y,-z
loop_
_atom_site_type_symbol
_atom_site_label
_atom_site_fract_x
_atom_site_fract_y
_atom_site_fract_z
Si Si1 0.400580 0.272460 0.032253
Si Si2 0.608238 0.035184 0.713293
Si Si3 0.983649 0.500083 0.172413
Si Si4 0.894640 0.783764 0.002494
Si Si5 0.116630 0.913300 0.320035
Si Si6 0.694275 0.564126 0.460508
Si Si7 0.445230 0.718182 0.291418
Si Si8 0.716125 0.282025 0.180873
O O1 0.285914 0.273156 0.089428
O O2 0.583761 0.299684 0.193695
O O3 0.376839 0.112121 0.064681
O O4 0.363400 0.399491 0.788897
O O5 0.771934 0.096076 0.735020
O O6 0.537174 0.141867 0.695373
O O7 0.500000 0.000000 0.500000
O O8 0.823932 0.425449 0.157966
O O9 0.122517 0.414270 0.416679
O O10 0.993469 0.662562 0.109314
O O11 0.000000 0.500000 0.000000
O O12 0.909227 0.921838 0.792882
O O13 0.959663 0.827703 0.199078
O O14 0.184336 0.847094 0.586269
O O15 0.615957 0.667781 0.441249
O O16 0.651636 0.402156 0.596281
O O17 0.360438 0.747623 0.032082
#
# Coordination Sequence:
#
# PCOD8021006 Si02
#       8
#     2   2   2   2   2   2   2   2
#     4  10  23  44  65 106 125 172 225 274 340 393
#     4  11  22  43  70  99 135 174 224 273 334 401
#     4  12  25  44  64  97 136 183 224 266 331 397
#     4  10  24  44  70  95 140 179 218 281 332 395
#     4  10  22  44  71 102 130 172 230 275 339 391
#     4  10  22  43  66  96 132 177 222 268 336 398
#     4  10  23  43  69  95 137 177 214 283 335 393
#     4  11  23  43  67 104 136 167 228 275 337 405
#
# _framework density 23.033768999999999
#
# number of rings (size 3 to 8) (size 9 to 14) (size 15 to 20)
#    0.000    1.500    2.500    1.500    0.000    7.500 
#    2.250    0.625    0.000    0.000    0.000    0.000 
#    0.000    0.000    0.000    0.000    0.000    0.000 
#
# Total GULP energy -198282.704757 kJ/mol
# GULP energy per Si atom -12392.669047 kJ/mol
# Density = 2.298134 g / cm^3
# Si number density = 23.033769 Si / 1000 Ang^3
#
#
#
# Elastic Constant Matrix: (Units=GPa)
#
#
# Indices 1 2 3 4 5 6 
#
# 1 89.7049 52.1840 20.4859 -7.0808 22.6153 6.1682
# 2 52.1840 96.2087 49.8462 -10.1745 9.2605 -8.9741
# 3 20.4859 49.8462 147.6943 -19.6806 10.6141 -6.5249
# 4 -7.0808 -10.1745 -19.6806 29.7839 6.4228 4.0671
# 5 22.6153 9.2605 10.6141 6.4228 37.2527 -5.4129
# 6 6.1682 -8.9741 -6.5249 4.0671 -5.4129 40.3541
#
#
#
# Elastic Compliance Matrix: (Units=1/GPa)
#
#
# Indices 1 2 3 4 5 6 
#
# 1 0.022049 -0.012000 0.002509 0.006816 -0.013473 -0.008127
# 2 -0.012000 0.019532 -0.005231 -0.001577 0.005089 0.006174
# 3 0.002509 -0.005231 0.009217 0.005936 -0.004046 -0.001197
# 4 0.006816 -0.001577 0.005936 0.042428 -0.013703 -0.006547
# 5 -0.013473 0.005089 -0.004046 -0.013703 0.038595 0.009095
# 6 -0.008127 0.006174 -0.001197 -0.006547 0.009095 0.029082
#
#
# Mechanical properties :
#
#
# Convention : Reuss Voigt Hill
#
# Bulk Modulus (GPa) = 46.82732 64.29335 55.56033
# Shear Modulus (GPa) = 25.32100 35.55091 30.43596
#
# Velocity S-wave (km/s) = 3.31916 3.93291 3.63900
# Velocity P-wave (km/s) = 5.92141 6.97115 6.46761
#
# Compressibility (1/GPa) = 0.02135506
#
# Stress axis : x y z
#
# Youngs Moduli (GPa) = 45.35384 51.19777 108.49554
#
# Poissons Ratio (x) = 0.61436 -0.27222
# Poissons Ratio (y) = 0.54423 0.56751
# Poissons Ratio (z) = -0.11379 0.26780
#
# Static dielectric constant tensor:
#      x y z
#    x 1.448680 -5.160690 5.566050 
#    y -5.160690 -7.363390 10.890120 
#    z 5.566050 10.890120 -6.818050 
# 
# 
# High freq. dielectric constant tensor:
#      x y z
#    x 1.908300 0.023480 0.021680 
#    y 0.023480 1.890570 -0.025890 
#    z 0.021680 -0.025890 1.919670 
# 
# From -- ./inp_files/261830.got.cif
#   From: 2010.06.25/outbox.cif.g09.slc.cpg/sg2_131_cif.got.tgz:261830.got - 2010.06.27 13:26:56.
