data_PCOD8021373
_publ_section_title
;
Structure prediction by ZEFSAII (Michael W. Deem and Ramdas Pophale) SiO2 
 PCOD8021373
Probable space group: P -1
;
_chemical_formula_sum "Si O2"
_cell_formula_units_Z 14
_cell_length_a 19.817725
_cell_length_b 9.061151
_cell_length_c 14.217730
_cell_angle_alpha 48.131547
_cell_angle_beta 149.721012
_cell_angle_gamma 150.399323
_cell_volume 599.107248
_symmetry_space_group_name_H-M "P -1"
_symmetry_group_IT_number 2
_symmetry_cell_setting 'triclinic'
loop_
_space_group_symop_operation_xyz
x,y,z
-x,-y,-z
loop_
_atom_site_type_symbol
_atom_site_label
_atom_site_fract_x
_atom_site_fract_y
_atom_site_fract_z
Si Si1 0.502623 0.496922 0.864505
Si Si2 0.787148 0.630035 0.288218
Si Si3 0.225035 0.843611 0.159328
Si Si4 0.817404 0.209576 0.544901
Si Si5 0.377107 0.651139 0.341558
Si Si6 0.984506 0.749383 0.069833
Si Si7 0.776563 0.864732 0.490484
O O1 0.294669 0.322630 0.747390
O O2 0.425687 0.344297 0.733212
O O3 0.675904 0.874458 0.909102
O O4 0.619520 0.447634 0.076885
O O5 0.804266 0.428763 0.432932
O O6 0.018623 0.977683 0.387123
O O7 0.384871 0.838682 0.348531
O O8 0.192641 0.904674 0.197023
O O9 0.000000 0.500000 0.000000
O O10 0.018123 0.370010 0.782637
O O11 0.609203 0.872631 0.486468
O O12 0.837465 0.146541 0.490264
O O13 0.277075 0.344111 0.400533
O O14 0.230478 0.546165 0.120846
O O15 0.000000 0.000000 0.000000
#
# Coordination Sequence:
#
# PCOD8021373 Si02
#       7
#     2   2   2   2   2   2   2
#     4  11  25  46  73  96 138 182 231 284 335 404
#     4  11  26  48  67  98 139 182 233 278 337 409
#     4  10  22  43  71 102 133 177 224 284 340 399
#     4  12  26  44  69 103 139 178 228 280 343 406
#     4  11  24  44  70 103 135 173 235 279 340 408
#     4  11  24  41  68 103 138 171 217 285 345 395
#     4  12  26  43  72 101 139 183 227 281 342 406
#
# _framework density 23.368103000000001
#
# number of rings (size 3 to 8) (size 9 to 14) (size 15 to 20)
#    0.000    0.857    2.857    3.857    4.000    2.857 
#    2.571    0.000    0.000    0.000    0.000    0.000 
#    0.000    0.000    0.000    0.000    0.000    0.000 
#
# Total GULP energy -173613.374523 kJ/mol
# GULP energy per Si atom -12400.955323 kJ/mol
# Density = 2.331492 g / cm^3
# Si number density = 23.368103 Si / 1000 Ang^3
#
#
#
# Elastic Constant Matrix: (Units=GPa)
#
#
# Indices 1 2 3 4 5 6 
#
# 1 86.3412 14.5524 27.0218 8.1133 -7.0727 -11.3658
# 2 14.5524 68.0077 28.2269 -9.6475 -4.9872 4.3323
# 3 27.0218 28.2269 126.8853 -14.6862 -31.1763 -7.4517
# 4 8.1133 -9.6475 -14.6862 37.5901 0.5684 10.6790
# 5 -7.0727 -4.9872 -31.1763 0.5684 39.3281 3.2164
# 6 -11.3658 4.3323 -7.4517 10.6790 3.2164 42.4656
#
#
#
# Elastic Compliance Matrix: (Units=1/GPa)
#
#
# Indices 1 2 3 4 5 6 
#
# 1 0.014297 -0.003155 -0.002902 -0.006533 -0.000470 0.005318
# 2 -0.003155 0.017633 -0.003003 0.005311 -0.000422 -0.004474
# 3 -0.002902 -0.003003 0.011708 0.004344 0.008327 -0.000139
# 4 -0.006533 0.005311 0.004344 0.033954 0.003295 -0.010316
# 5 -0.000470 -0.000422 0.008327 0.003295 0.031995 -0.001874
# 6 0.005318 -0.004474 -0.000139 -0.010316 -0.001874 0.028140
#
#
# Mechanical properties :
#
#
# Convention : Reuss Voigt Hill
#
# Bulk Modulus (GPa) = 39.18723 46.75959 42.97341
# Shear Modulus (GPa) = 30.42235 37.97230 34.19733
#
# Velocity S-wave (km/s) = 3.61207 4.03546 3.82962
# Velocity P-wave (km/s) = 5.84824 6.46271 6.16314
#
# Compressibility (1/GPa) = 0.02551852
#
# Stress axis : x y z
#
# Youngs Moduli (GPa) = 69.94260 56.71220 85.41387
#
# Poissons Ratio (x) = 0.17891 0.24790
# Poissons Ratio (y) = 0.22065 0.25647
# Poissons Ratio (z) = 0.20300 0.17029
#
# Static dielectric constant tensor:
#      x y z
#    x 4.669100 -0.037300 0.114380 
#    y -0.037300 3.908100 -0.028570 
#    z 0.114380 -0.028570 4.276620 
# 
# 
# High freq. dielectric constant tensor:
#      x y z
#    x 1.937680 -0.001040 0.001990 
#    y -0.001040 1.907900 -0.002540 
#    z 0.001990 -0.002540 1.930380 
# 
# From -- ./inp_files/515259.got.cif
#   From: 2010.06.25/outbox.cif.g09.slc.cpg/sg2_258_cif.got.tgz:515259.got - 2010.06.27 13:26:56.
