data_PCOD8021523
_publ_section_title
;
Structure prediction by ZEFSAII (Michael W. Deem and Ramdas Pophale) SiO2 
 PCOD8021523
Probable space group: P -1
;
_chemical_formula_sum "Si O2"
_cell_formula_units_Z 16
_cell_length_a 11.700061
_cell_length_b 17.862620
_cell_length_c 8.562212
_cell_angle_alpha 87.691767
_cell_angle_beta 102.872926
_cell_angle_gamma 149.383122
_cell_volume 846.104928
_symmetry_space_group_name_H-M "P -1"
_symmetry_group_IT_number 2
_symmetry_cell_setting 'triclinic'
loop_
_space_group_symop_operation_xyz
x,y,z
-x,-y,-z
loop_
_atom_site_type_symbol
_atom_site_label
_atom_site_fract_x
_atom_site_fract_y
_atom_site_fract_z
Si Si1 0.359774 0.943159 0.714053
Si Si2 0.661476 0.362401 0.301266
Si Si3 0.666081 0.772573 0.522700
Si Si4 0.211123 0.517670 0.217781
Si Si5 0.113979 0.661946 0.560728
Si Si6 0.213550 0.792401 0.991843
Si Si7 0.577031 0.251033 0.958858
Si Si8 0.827224 0.002461 0.369068
O O1 0.273510 0.826823 0.588290
O O2 0.654727 0.110971 0.812632
O O3 0.259900 0.963754 0.606694
O O4 0.258034 0.879601 0.865245
O O5 0.451472 0.288324 0.336578
O O6 0.705155 0.306855 0.405395
O O7 0.914554 0.550556 0.370501
O O8 0.574979 0.304338 0.102868
O O9 0.468933 0.631745 0.348968
O O10 0.763675 0.909395 0.495570
O O11 0.885442 0.836232 0.587907
O O12 0.248041 0.616881 0.132100
O O13 0.031416 0.430354 0.314542
O O14 0.077322 0.383442 0.070678
O O15 0.329621 0.778934 0.966511
O O16 0.304871 0.095092 0.823427
#
# Coordination Sequence:
#
# PCOD8021523 Si02
#       8
#     2   2   2   2   2   2   2   2
#     4   9  16  30  49  70  98 125 157 196 240 280
#     4  10  18  30  49  71 103 125 152 199 240 286
#     4   9  19  34  49  72  95 126 165 199 236 272
#     4   9  16  29  49  73  94 124 164 193 232 275
#     4   9  18  31  47  72 105 127 149 194 243 290
#     4   9  16  26  47  75  99 116 156 203 235 278
#     4  10  17  28  52  75  95 123 161 200 236 277
#     4   9  19  34  52  70  92 127 169 201 225 281
#
# _framework density 18.910184999999998
#
# number of rings (size 3 to 8) (size 9 to 14) (size 15 to 20)
#    0.000    2.750    2.500    0.375    0.000    0.500 
#    0.000    6.250    0.000    0.000    0.000    6.125 
#    0.000    0.000    0.000    0.000    0.000    0.000 
#
# Total GULP energy -198255.468821 kJ/mol
# GULP energy per Si atom -12390.966801 kJ/mol
# Density = 1.886714 g / cm^3
# Si number density = 18.910185 Si / 1000 Ang^3
#
#
#
# Elastic Constant Matrix: (Units=GPa)
#
#
# Indices 1 2 3 4 5 6 
#
# 1 27.1749 21.3214 19.1497 18.6302 -0.2612 -8.2064
# 2 21.3214 83.5600 29.5728 37.1213 -0.1814 -7.4562
# 3 19.1497 29.5728 71.4210 28.3378 -2.9823 -2.4814
# 4 18.6302 37.1213 28.3378 40.0183 -4.9492 -1.6470
# 5 -0.2612 -0.1814 -2.9823 -4.9492 25.2778 6.1738
# 6 -8.2064 -7.4562 -2.4814 -1.6470 6.1738 29.3719
#
#
#
# Elastic Compliance Matrix: (Units=1/GPa)
#
#
# Indices 1 2 3 4 5 6 
#
# 1 0.064761 -0.001923 -0.006846 -0.023923 -0.009137 0.017606
# 2 -0.001923 0.021597 -0.000986 -0.018841 -0.004849 0.004825
# 3 -0.006846 -0.000986 0.020294 -0.010243 0.000591 -0.001147
# 4 -0.023923 -0.018841 -0.010243 0.062034 0.013406 -0.011672
# 5 -0.009137 -0.004849 0.000591 0.013406 0.045173 -0.012477
# 6 0.017606 0.004825 -0.001147 -0.011672 -0.012477 0.042061
#
#
# Mechanical properties :
#
#
# Convention : Reuss Voigt Hill
#
# Bulk Modulus (GPa) = 11.47530 35.80484 23.64007
# Shear Modulus (GPa) = 16.42150 26.40775 21.41463
#
# Velocity S-wave (km/s) = 2.95005 3.74101 3.36882
# Velocity P-wave (km/s) = 4.20538 6.13477 5.25931
#
# Compressibility (1/GPa) = 0.08714370
#
# Stress axis : x y z
#
# Youngs Moduli (GPa) = 15.44132 46.30192 49.27491
#
# Poissons Ratio (x) = 0.08903 0.33732
# Poissons Ratio (y) = 0.02969 0.04860
# Poissons Ratio (z) = 0.10570 0.04566
#
# Static dielectric constant tensor:
#      x y z
#    x 2.990700 -0.151450 0.036070 
#    y -0.151450 3.762900 0.538780 
#    z 0.036070 0.538780 3.637080 
# 
# 
# High freq. dielectric constant tensor:
#      x y z
#    x 1.676960 -0.012540 0.007420 
#    y -0.012540 1.739690 0.027610 
#    z 0.007420 0.027610 1.735080 
# 
# From -- ./inp_files/239255.got.cif
#   From: 2010.06.25/outbox.cif.g09.slc.cpg/sg2_120_cif.got.tgz:239255.got - 2010.06.27 13:26:56.
