data_PCOD8021048
_publ_section_title
;
Structure prediction by ZEFSAII (Michael W. Deem and Ramdas Pophale) SiO2 
 PCOD8021048
Probable space group: P -1
;
_chemical_formula_sum "Si O2"
_cell_formula_units_Z 12
_cell_length_a 21.109860
_cell_length_b 9.462748
_cell_length_c 9.987058
_cell_angle_alpha 42.441511
_cell_angle_beta 24.798489
_cell_angle_gamma 32.304950
_cell_volume 443.342990
_symmetry_space_group_name_H-M "P -1"
_symmetry_group_IT_number 2
_symmetry_cell_setting 'triclinic'
loop_
_space_group_symop_operation_xyz
x,y,z
-x,-y,-z
loop_
_atom_site_type_symbol
_atom_site_label
_atom_site_fract_x
_atom_site_fract_y
_atom_site_fract_z
Si Si1 0.179426 0.006365 0.877544
Si Si2 0.657032 0.056194 0.668330
Si Si3 0.175578 0.245078 0.184269
Si Si4 0.348714 0.791586 0.969686
Si Si5 0.239711 0.524734 0.198446
Si Si6 0.254237 0.575440 0.642181
O O1 0.277526 0.044404 0.539635
O O2 0.277074 0.997712 0.836409
O O3 0.212133 0.726113 0.995181
O O4 0.952401 0.244013 0.156785
O O5 0.702642 0.258965 0.467024
O O6 0.783701 0.801360 0.702925
O O7 0.424799 0.217503 0.022277
O O8 0.949212 0.454537 0.441458
O O9 0.276937 0.361026 0.849161
O O10 0.263350 0.954772 0.156602
O O11 0.581341 0.587621 0.673443
O O12 0.273523 0.618437 0.208973
#
# Coordination Sequence:
#
# PCOD8021048 Si02
#       6
#     2   2   2   2   2   2
#     4  10  22  43  67  88 126 171 204 252 317 366
#     4  11  23  44  66  89 129 166 206 257 311 370
#     4  12  24  41  65 100 120 163 216 254 307 373
#     4   9  23  42  65  90 129 166 206 252 315 370
#     4   9  22  40  68  88 125 168 206 252 312 367
#     4  11  24  40  68  92 129 163 204 263 313 363
#
# _framework density 27.067079
#
# number of rings (size 3 to 8) (size 9 to 14) (size 15 to 20)
#    1.000    0.667    1.667    2.000    0.000    6.667 
#    0.000    1.667    0.000    0.000    0.000    0.000 
#    0.000    0.000    0.000    0.000    0.000    0.000 
#
# Total GULP energy -148835.864728 kJ/mol
# GULP energy per Si atom -12402.988727 kJ/mol
# Density = 2.700547 g / cm^3
# Si number density = 27.067079 Si / 1000 Ang^3
#
#
#
# Elastic Constant Matrix: (Units=GPa)
#
#
# Indices 1 2 3 4 5 6 
#
# 1 81.4850 23.2891 23.8787 12.2078 2.7909 -7.3133
# 2 23.2891 112.8073 9.9555 34.5683 -7.7702 2.4214
# 3 23.8787 9.9555 91.1210 35.1932 -21.8622 1.4812
# 4 12.2078 34.5683 35.1932 46.6761 -3.5959 -10.8539
# 5 2.7909 -7.7702 -21.8622 -3.5959 44.0911 3.1397
# 6 -7.3133 2.4214 1.4812 -10.8539 3.1397 38.3453
#
#
#
# Elastic Compliance Matrix: (Units=1/GPa)
#
#
# Indices 1 2 3 4 5 6 
#
# 1 0.015578 -0.004859 -0.007175 0.005837 -0.005326 0.005643
# 2 -0.004859 0.014915 0.007683 -0.016838 0.005901 -0.007415
# 3 -0.007175 0.007683 0.024377 -0.023664 0.012716 -0.010535
# 4 0.005837 -0.016838 -0.023664 0.053768 -0.012059 0.019297
# 5 -0.005326 0.005901 0.012716 -0.012059 0.029930 -0.007744
# 6 0.005643 -0.007415 -0.010535 0.019297 -0.007744 0.034127
#
#
# Mechanical properties :
#
#
# Convention : Reuss Voigt Hill
#
# Bulk Modulus (GPa) = 21.66015 44.40664 33.03339
# Shear Modulus (GPa) = 25.40816 41.04184 33.22500
#
# Velocity S-wave (km/s) = 3.06716 3.89820 3.50738
# Velocity P-wave (km/s) = 4.53465 6.05830 5.35098
#
# Compressibility (1/GPa) = 0.04616773
#
# Stress axis : x y z
#
# Youngs Moduli (GPa) = 64.19217 67.04547 41.02269
#
# Poissons Ratio (x) = 0.32580 0.29435
# Poissons Ratio (y) = 0.31194 -0.31519
# Poissons Ratio (z) = 0.46059 -0.51514
#
# Static dielectric constant tensor:
#      x y z
#    x 4.593740 -0.002590 -0.267890 
#    y -0.002590 4.944420 0.095590 
#    z -0.267890 0.095590 4.862010 
# 
# 
# High freq. dielectric constant tensor:
#      x y z
#    x 2.083050 0.001910 -0.013440 
#    y 0.001910 2.111570 0.001860 
#    z -0.013440 0.001860 2.090560 
# 
# From -- ./inp_files/316923.got.cif
#   From: 2010.06.25/outbox.cif.g09.slc.cpg/sg2_159_cif.got.tgz:316923.got - 2010.06.27 13:26:56.
