data_PCOD8021562
_publ_section_title
;
Structure prediction by ZEFSAII (Michael W. Deem and Ramdas Pophale) SiO2 
 PCOD8021562
Probable space group: P -1
;
_chemical_formula_sum "Si O2"
_cell_formula_units_Z 16
_cell_length_a 9.166333
_cell_length_b 17.174331
_cell_length_c 10.109326
_cell_angle_alpha 111.421760
_cell_angle_beta 44.962265
_cell_angle_gamma 76.745169
_cell_volume 702.542557
_symmetry_space_group_name_H-M "P -1"
_symmetry_group_IT_number 2
_symmetry_cell_setting 'triclinic'
loop_
_space_group_symop_operation_xyz
x,y,z
-x,-y,-z
loop_
_atom_site_type_symbol
_atom_site_label
_atom_site_fract_x
_atom_site_fract_y
_atom_site_fract_z
Si Si1 0.693583 0.737346 0.634758
Si Si2 0.708290 0.891302 0.572304
Si Si3 0.643837 0.814272 0.294527
Si Si4 0.711191 0.639970 0.309381
Si Si5 0.706464 0.381679 0.389159
Si Si6 0.707612 0.466056 0.722792
Si Si7 0.411004 0.725740 0.014154
Si Si8 0.323686 0.917210 0.312339
O O1 0.583068 0.865258 0.749769
O O2 0.834739 0.660202 0.361512
O O3 0.419447 0.759776 0.878733
O O4 0.943557 0.657482 0.540094
O O5 0.638179 0.880262 0.461573
O O6 0.551310 0.029308 0.784626
O O7 0.075086 0.789154 0.293762
O O8 0.612147 0.728480 0.307959
O O9 0.340841 0.920639 0.463419
O O10 0.946333 0.729863 0.955266
O O11 0.420498 0.674089 0.563168
O O12 0.000000 0.500000 0.000000
O O13 0.500000 0.500000 0.500000
O O14 0.653475 0.431509 0.601948
O O15 0.656739 0.579678 0.796479
O O16 0.500000 0.500000 0.000000
O O17 0.512805 0.776806 0.067585
O O18 0.000000 0.000000 0.500000
#
# Coordination Sequence:
#
# PCOD8021562 Si02
#       8
#     2   2   2   2   2   2   2   2
#     4  11  23  39  63  95 128 170 211 269 326 392
#     4  10  22  44  64  91 125 166 220 271 322 377
#     4  11  23  41  67  94 130 171 215 267 332 381
#     4  11  23  37  63  95 135 170 210 259 324 400
#     4  12  24  40  63  99 137 174 211 262 326 402
#     4  12  24  39  63  95 137 170 212 263 330 396
#     4  11  23  40  62  91 129 168 212 267 323 384
#     4  10  24  43  68  91 123 177 224 275 318 379
#
# _framework density 22.774424
#
# number of rings (size 3 to 8) (size 9 to 14) (size 15 to 20)
#    0.000    1.000    2.500    4.500    3.500    0.500 
#    0.000    2.500    0.000    9.000    0.000    0.000 
#    0.000    0.000    0.000    0.000    0.000    0.000 
#
# Total GULP energy -198227.778714 kJ/mol
# GULP energy per Si atom -12389.236170 kJ/mol
# Density = 2.272259 g / cm^3
# Si number density = 22.774424 Si / 1000 Ang^3
#
#
#
# Elastic Constant Matrix: (Units=GPa)
#
#
# Indices 1 2 3 4 5 6 
#
# 1 117.1914 68.1414 23.5324 4.2261 13.8849 -9.2789
# 2 68.1414 166.4007 11.6194 -20.7152 8.1038 14.3164
# 3 23.5324 11.6194 44.3103 -24.8514 5.4652 0.8289
# 4 4.2261 -20.7152 -24.8514 37.7942 6.7077 1.1388
# 5 13.8849 8.1038 5.4652 6.7077 32.9346 0.7449
# 6 -9.2789 14.3164 0.8289 1.1388 0.7449 47.3266
#
#
#
# Elastic Compliance Matrix: (Units=1/GPa)
#
#
# Indices 1 2 3 4 5 6 
#
# 1 0.019631 -0.010064 -0.020253 -0.021578 0.001780 0.007739
# 2 -0.010064 0.012075 0.012081 0.016579 -0.003970 -0.006174
# 3 -0.020253 0.012081 0.061545 0.052326 -0.015084 -0.009725
# 4 -0.021578 0.016579 0.052326 0.076071 -0.018894 -0.011695
# 5 0.001780 -0.003970 -0.015084 -0.018894 0.036903 0.001688
# 6 0.007739 -0.006174 -0.009725 -0.011695 0.001688 0.024940
#
#
# Mechanical properties :
#
#
# Convention : Reuss Voigt Hill
#
# Bulk Modulus (GPa) = 17.61130 59.38763 38.49947
# Shear Modulus (GPa) = 17.44815 38.58501 28.01658
#
# Velocity S-wave (km/s) = 2.77091 4.12056 3.51119
# Velocity P-wave (km/s) = 4.24110 6.98368 5.77749
#
# Compressibility (1/GPa) = 0.05678171
#
# Stress axis : x y z
#
# Youngs Moduli (GPa) = 50.93887 82.81279 16.24820
#
# Poissons Ratio (x) = 0.83339 0.32907
# Poissons Ratio (y) = 0.51263 -0.19630
# Poissons Ratio (z) = 1.03166 -1.00049
#
# Static dielectric constant tensor:
#      x y z
#    x 4.587040 0.319830 0.171410 
#    y 0.319830 4.642860 -0.107200 
#    z 0.171410 -0.107200 4.041480 
# 
# 
# High freq. dielectric constant tensor:
#      x y z
#    x 1.908790 0.006750 0.013560 
#    y 0.006750 1.923770 -0.007800 
#    z 0.013560 -0.007800 1.875570 
# 
# From -- ./inp_files/206526.got.cif
#   From: 2010.06.25/outbox.cif.g09.slc.cpg/sg2_104_cif.got.tgz:206526.got - 2010.06.27 13:26:56.
