data_PCOD8021886
_publ_section_title
;
Structure prediction by ZEFSAII (Michael W. Deem and Ramdas Pophale) SiO2 
 PCOD8021886
Probable space group: P -1
;
_chemical_formula_sum "Si O2"
_cell_formula_units_Z 16
_cell_length_a 5.793266
_cell_length_b 23.880692
_cell_length_c 17.470613
_cell_angle_alpha 160.049401
_cell_angle_beta 69.585045
_cell_angle_gamma 101.092949
_cell_volume 700.111907
_symmetry_space_group_name_H-M "P -1"
_symmetry_group_IT_number 2
_symmetry_cell_setting 'triclinic'
loop_
_space_group_symop_operation_xyz
x,y,z
-x,-y,-z
loop_
_atom_site_type_symbol
_atom_site_label
_atom_site_fract_x
_atom_site_fract_y
_atom_site_fract_z
Si Si1 0.261586 0.618951 0.622217
Si Si2 0.840476 0.169369 0.425658
Si Si3 0.750108 0.835196 0.218085
Si Si4 0.173285 0.462836 0.053678
Si Si5 0.726228 0.709031 0.887002
Si Si6 0.286435 0.283280 0.665334
Si Si7 0.136582 0.972567 0.279819
Si Si8 0.227255 0.968392 0.999121
O O1 0.500000 0.500000 0.500000
O O2 0.223920 0.498280 0.402423
O O3 0.333934 0.767449 0.762732
O O4 0.980746 0.727989 0.841708
O O5 0.749285 0.379106 0.725975
O O6 0.554695 0.162174 0.428681
O O7 0.957832 0.019415 0.284847
O O8 0.056065 0.126575 0.279884
O O9 0.500000 0.000000 0.500000
O O10 0.850006 0.655226 0.025527
O O11 0.687702 0.772433 0.061728
O O12 0.999389 0.893319 0.257027
O O13 0.887496 0.545540 0.147166
O O14 0.385490 0.338610 0.805007
O O15 0.438213 0.832432 0.040190
O O16 0.131609 0.161671 0.552330
O O17 0.500000 0.000000 0.000000
O O18 0.000000 0.000000 0.000000
#
# Coordination Sequence:
#
# PCOD8021886 Si02
#       8
#     2   2   2   2   2   2   2   2
#     4  11  26  50  77 101 143 194 253 304 372 454
#     4  11  24  45  72  93 139 185 236 291 360 437
#     4  12  26  43  65 106 147 181 229 297 359 432
#     4  10  24  40  68 100 140 177 237 287 360 425
#     4  11  25  43  77 101 138 189 245 295 365 438
#     4  10  22  44  69  99 134 190 234 284 353 440
#     4  11  23  43  70  99 136 186 237 286 356 437
#     4  12  31  48  74 111 151 189 248 317 380 439
#
# _framework density 22.853490000000001
#
# number of rings (size 3 to 8) (size 9 to 14) (size 15 to 20)
#    0.000    1.000    0.000    5.625   10.500    6.000 
#    0.000    0.000    0.000    0.000    0.000    0.000 
#    0.000    0.000    0.000    0.000    0.000    0.000 
#
# Total GULP energy -198211.423221 kJ/mol
# GULP energy per Si atom -12388.213951 kJ/mol
# Density = 2.280147 g / cm^3
# Si number density = 22.853490 Si / 1000 Ang^3
#
#
#
# Elastic Constant Matrix: (Units=GPa)
#
#
# Indices 1 2 3 4 5 6 
#
# 1 124.1948 63.6994 48.7164 4.7178 -10.9264 18.4553
# 2 63.6994 133.5351 62.8424 17.5489 -4.6912 15.5879
# 3 48.7164 62.8424 120.2584 0.1812 2.8587 9.1506
# 4 4.7178 17.5489 0.1812 53.1075 -1.0084 0.1203
# 5 -10.9264 -4.6912 2.8587 -1.0084 44.8779 -4.2963
# 6 18.4553 15.5879 9.1506 0.1203 -4.2963 39.6609
#
#
#
# Elastic Compliance Matrix: (Units=1/GPa)
#
#
# Indices 1 2 3 4 5 6 
#
# 1 0.011738 -0.004050 -0.002462 0.000355 0.002307 -0.003053
# 2 -0.004050 0.012326 -0.004663 -0.003687 0.000341 -0.001836
# 3 -0.002462 -0.004663 0.011785 0.001685 -0.001794 0.000060
# 4 0.000355 -0.003687 0.001685 0.020011 0.000124 0.000848
# 5 0.002307 0.000341 -0.001794 0.000124 0.023161 0.001715
# 6 -0.003053 -0.001836 0.000060 0.000848 0.001715 0.027526
#
#
# Mechanical properties :
#
#
# Convention : Reuss Voigt Hill
#
# Bulk Modulus (GPa) = 74.07905 80.94495 77.51200
# Shear Modulus (GPa) = 37.48228 41.04460 39.26344
#
# Velocity S-wave (km/s) = 4.05422 4.24251 4.14943
# Velocity P-wave (km/s) = 7.37569 7.71327 7.54636
#
# Compressibility (1/GPa) = 0.01349909
#
# Stress axis : x y z
#
# Youngs Moduli (GPa) = 85.19404 81.12991 84.85307
#
# Poissons Ratio (x) = 0.32857 0.20888
# Poissons Ratio (y) = 0.34503 0.39570
# Poissons Ratio (z) = 0.20972 0.37833
#
# Static dielectric constant tensor:
#      x y z
#    x 4.265040 -0.018500 -0.006290 
#    y -0.018500 4.155840 -0.195180 
#    z -0.006290 -0.195180 4.507010 
# 
# 
# High freq. dielectric constant tensor:
#      x y z
#    x 1.912360 0.006140 0.003050 
#    y 0.006140 1.889750 0.001000 
#    z 0.003050 0.001000 1.929350 
# 
# From -- ./inp_files/551265.got.cif
#   From: 2010.06.25/outbox.cif.g09.slc.cpg/sg2_276_cif.got.tgz:551265.got - 2010.06.27 13:26:56.
