data_PCOD8021076
_publ_section_title
;
Structure prediction by ZEFSAII (Michael W. Deem and Ramdas Pophale) SiO2 
 PCOD8021076
Probable space group: P -1
;
_chemical_formula_sum "Si O2"
_cell_formula_units_Z 16
_cell_length_a 20.925453
_cell_length_b 7.940156
_cell_length_c 8.525020
_cell_angle_alpha 103.916655
_cell_angle_beta 114.262886
_cell_angle_gamma 34.957644
_cell_volume 727.218622
_symmetry_space_group_name_H-M "P -1"
_symmetry_group_IT_number 2
_symmetry_cell_setting 'triclinic'
loop_
_space_group_symop_operation_xyz
x,y,z
-x,-y,-z
loop_
_atom_site_type_symbol
_atom_site_label
_atom_site_fract_x
_atom_site_fract_y
_atom_site_fract_z
Si Si1 0.040350 0.118637 0.549412
Si Si2 0.212091 0.317856 0.650190
Si Si3 0.264677 0.823531 0.530193
Si Si4 0.996245 0.701210 0.098984
Si Si5 0.782753 0.266797 0.821543
Si Si6 0.239337 0.361784 0.339935
Si Si7 0.519999 0.137136 0.644193
Si Si8 0.381376 0.194111 0.018359
O O1 0.049216 0.191930 0.744309
O O2 0.931325 0.418962 0.400293
O O3 0.167227 0.900880 0.543036
O O4 0.000000 0.000000 0.500000
O O5 0.218313 0.415276 0.516622
O O6 0.267490 0.015729 0.630013
O O7 0.281163 0.289768 0.843038
O O8 0.238960 0.869075 0.326181
O O9 0.400528 0.487895 0.619951
O O10 0.134092 0.477009 0.168571
O O11 0.000000 0.500000 0.000000
O O12 0.914332 0.990875 0.971327
O O13 0.762939 0.444353 0.699916
O O14 0.683733 0.501445 0.910507
O O15 0.367174 0.002667 0.365532
O O16 0.500000 0.000000 0.500000
O O17 0.571127 0.018369 0.842618
O O18 0.500000 0.000000 0.000000
#
# Coordination Sequence:
#
# PCOD8021076 Si02
#       8
#     2   2   2   2   2   2   2   2
#     4  11  25  44  72  98 137 182 220 281 339 415
#     4  11  25  44  67 104 134 176 226 290 342 387
#     4  12  25  44  69 102 140 175 224 283 348 399
#     4  11  24  43  67 104 135 172 226 287 338 396
#     4  11  23  41  71  97 128 186 224 275 338 406
#     4  10  22  43  67  94 137 176 229 267 338 408
#     4  11  23  44  68  98 133 182 225 276 334 413
#     4  11  25  42  69  97 134 179 233 277 327 420
#
# _framework density 22.001636999999999
#
# number of rings (size 3 to 8) (size 9 to 14) (size 15 to 20)
#    0.000    1.000    2.500    5.250    3.500    5.000 
#    2.250    0.000    0.000    0.000    0.000    0.000 
#    0.000    0.000    0.000    0.000    0.000    0.000 
#
# Total GULP energy -198224.600746 kJ/mol
# GULP energy per Si atom -12389.037547 kJ/mol
# Density = 2.195156 g / cm^3
# Si number density = 22.001637 Si / 1000 Ang^3
#
#
#
# Elastic Constant Matrix: (Units=GPa)
#
#
# Indices 1 2 3 4 5 6 
#
# 1 58.2046 40.6659 22.4277 1.3311 -4.6194 -19.4432
# 2 40.6659 165.2315 52.3153 -12.4740 4.6240 -24.2558
# 3 22.4277 52.3153 150.4579 -6.7647 -2.3582 -9.4208
# 4 1.3311 -12.4740 -6.7647 55.0458 0.3617 6.4141
# 5 -4.6194 4.6240 -2.3582 0.3617 18.4828 -4.2995
# 6 -19.4432 -24.2558 -9.4208 6.4141 -4.2995 41.3905
#
#
#
# Elastic Compliance Matrix: (Units=1/GPa)
#
#
# Indices 1 2 3 4 5 6 
#
# 1 0.025373 -0.004783 -0.001462 -0.003140 0.009806 0.010289
# 2 -0.004783 0.008324 -0.002061 0.001585 -0.003203 0.001584
# 3 -0.001462 -0.002061 0.007613 0.000512 0.001081 -0.000129
# 4 -0.003140 0.001585 0.000512 0.019103 -0.002335 -0.003633
# 5 0.009806 -0.003203 0.001081 -0.002335 0.059761 0.009545
# 6 0.010289 0.001584 -0.000129 -0.003633 0.009545 0.031446
#
#
# Mechanical properties :
#
#
# Convention : Reuss Voigt Hill
#
# Bulk Modulus (GPa) = 40.49101 67.19022 53.84061
# Shear Modulus (GPa) = 28.33434 40.21616 34.27525
#
# Velocity S-wave (km/s) = 3.59253 4.28000 3.95124
# Velocity P-wave (km/s) = 5.97092 7.41819 6.73355
#
# Compressibility (1/GPa) = 0.02469684
#
# Stress axis : x y z
#
# Youngs Moduli (GPa) = 39.41226 120.14093 131.35622
#
# Poissons Ratio (x) = 0.57460 0.19210
# Poissons Ratio (y) = 0.18850 0.27073
# Poissons Ratio (z) = 0.05764 0.24761
#
# Static dielectric constant tensor:
#      x y z
#    x 3.543030 0.000200 0.014870 
#    y 0.000200 4.158170 -0.160570 
#    z 0.014870 -0.160570 4.243910 
# 
# 
# High freq. dielectric constant tensor:
#      x y z
#    x 1.839300 -0.017140 0.000520 
#    y -0.017140 1.890120 -0.005510 
#    z 0.000520 -0.005510 1.883740 
# 
# From -- ./inp_files/352348.got.cif
#   From: 2010.06.25/outbox.cif.g09.slc.cpg/sg2_177_cif.got.tgz:352348.got - 2010.06.27 13:26:56.
