data_PCOD8021342
_publ_section_title
;
Structure prediction by ZEFSAII (Michael W. Deem and Ramdas Pophale) SiO2 
 PCOD8021342
Probable space group: P -1
;
_chemical_formula_sum "Si O2"
_cell_formula_units_Z 12
_cell_length_a 12.717975
_cell_length_b 4.937748
_cell_length_c 9.232164
_cell_angle_alpha 81.267499
_cell_angle_beta 78.180912
_cell_angle_gamma 107.599374
_cell_volume 526.523095
_symmetry_space_group_name_H-M "P -1"
_symmetry_group_IT_number 2
_symmetry_cell_setting 'triclinic'
loop_
_space_group_symop_operation_xyz
x,y,z
-x,-y,-z
loop_
_atom_site_type_symbol
_atom_site_label
_atom_site_fract_x
_atom_site_fract_y
_atom_site_fract_z
Si Si1 0.637557 0.121381 0.112522
Si Si2 0.115705 0.848295 0.345566
Si Si3 0.536954 0.709721 0.689973
Si Si4 0.863889 0.678679 0.467302
Si Si5 0.666925 0.780493 0.367671
Si Si6 0.685625 0.722393 0.907065
O O1 0.514515 0.076536 0.226195
O O2 0.716641 0.060887 0.224319
O O3 0.698785 0.448012 0.009727
O O4 0.617089 0.881326 0.011305
O O5 0.165075 0.589478 0.389072
O O6 0.982342 0.713099 0.346957
O O7 0.124189 0.025725 0.476447
O O8 0.188290 0.046124 0.179642
O O9 0.618786 0.875645 0.521395
O O10 0.435287 0.437659 0.679384
O O11 0.615643 0.608973 0.788320
O O12 0.761883 0.631775 0.384603
#
# Coordination Sequence:
#
# PCOD8021342 Si02
#       6
#     2   2   2   2   2   2
#     4  12  26  44  62 100 139 178 210 271 327 395
#     4  10  22  43  70  98 124 170 224 267 326 382
#     4  11  25  43  67  97 132 182 219 267 319 391
#     4  10  22  43  70  97 128 165 222 280 313 385
#     4  11  25  43  68 100 135 169 224 271 332 377
#     4  12  25  43  69  95 136 175 223 259 330 397
#
# _framework density 22.791025999999999
#
# number of rings (size 3 to 8) (size 9 to 14) (size 15 to 20)
#    0.000    1.000    3.333    2.500    4.667    1.333 
#    0.000    1.667    0.000    0.000    0.000    0.000 
#    0.000    0.000    0.000    0.000    0.000    0.000 
#
# Total GULP energy -148777.798490 kJ/mol
# GULP energy per Si atom -12398.149874 kJ/mol
# Density = 2.273915 g / cm^3
# Si number density = 22.791026 Si / 1000 Ang^3
#
#
#
# Elastic Constant Matrix: (Units=GPa)
#
#
# Indices 1 2 3 4 5 6 
#
# 1 125.3871 32.6833 76.5265 -22.4801 7.3812 -0.5701
# 2 32.6833 86.0593 52.5113 -16.4722 11.4603 -6.6995
# 3 76.5265 52.5113 161.6057 -13.5675 20.5515 4.2332
# 4 -22.4801 -16.4722 -13.5675 36.7797 -15.1956 -0.6232
# 5 7.3812 11.4603 20.5515 -15.1956 18.9290 -10.2334
# 6 -0.5701 -6.6995 4.2332 -0.6232 -10.2334 21.7126
#
#
#
# Elastic Compliance Matrix: (Units=1/GPa)
#
#
# Indices 1 2 3 4 5 6 
#
# 1 0.015504 0.001373 -0.010180 0.017882 0.027282 0.016187
# 2 0.001373 0.017014 -0.007311 0.011708 0.013835 0.013568
# 3 -0.010180 -0.007311 0.017572 -0.020425 -0.041079 -0.025896
# 4 0.017882 0.011708 -0.020425 0.080090 0.104684 0.059702
# 5 0.027282 0.013835 -0.041079 0.104684 0.229605 0.124214
# 6 0.016187 0.013568 -0.025896 0.059702 0.124214 0.115974
#
#
# Mechanical properties :
#
#
# Convention : Reuss Voigt Hill
#
# Bulk Modulus (GPa) = 56.00745 77.38826 66.69785
# Shear Modulus (GPa) = 9.72867 29.57299 19.65083
#
# Velocity S-wave (km/s) = 2.06831 3.60609 2.93954
# Velocity P-wave (km/s) = 5.50741 7.16713 6.39138
#
# Compressibility (1/GPa) = 0.01785477
#
# Stress axis : x y z
#
# Youngs Moduli (GPa) = 64.49901 58.77523 56.90977
#
# Poissons Ratio (x) = -0.08072 0.57936
# Poissons Ratio (y) = -0.08858 0.41605
# Poissons Ratio (z) = 0.65662 0.42968
#
# Static dielectric constant tensor:
#      x y z
#    x 4.266850 -0.173020 -0.054760 
#    y -0.173020 3.999450 -0.016370 
#    z -0.054760 -0.016370 4.458750 
# 
# 
# High freq. dielectric constant tensor:
#      x y z
#    x 1.886480 -0.018330 0.001530 
#    y -0.018330 1.895400 -0.006090 
#    z 0.001530 -0.006090 1.902570 
# 
# From -- ./inp_files/19479.got.cif
#   From: 2010.06.25/outbox.cif.g09.slc.cpg/sg2_10_cif.got.tgz:19479.got - 2010.06.27 13:26:56.
