data_PCOD8021404
_publ_section_title
;
Structure prediction by ZEFSAII (Michael W. Deem and Ramdas Pophale) SiO2 
 PCOD8021404
Probable space group: P -1
;
_chemical_formula_sum "Si O2"
_cell_formula_units_Z 16
_cell_length_a 11.894320
_cell_length_b 8.597909
_cell_length_c 12.303596
_cell_angle_alpha 52.626561
_cell_angle_beta 47.579092
_cell_angle_gamma 71.313889
_cell_volume 729.590131
_symmetry_space_group_name_H-M "P -1"
_symmetry_group_IT_number 2
_symmetry_cell_setting 'triclinic'
loop_
_space_group_symop_operation_xyz
x,y,z
-x,-y,-z
loop_
_atom_site_type_symbol
_atom_site_label
_atom_site_fract_x
_atom_site_fract_y
_atom_site_fract_z
Si Si1 0.743865 0.316716 0.034763
Si Si2 0.249833 0.015772 0.684455
Si Si3 0.395666 0.601772 0.376773
Si Si4 0.166604 0.883860 0.342834
Si Si5 0.843223 0.712976 0.706300
Si Si6 0.597498 0.697481 0.696404
Si Si7 0.690417 0.725302 0.269485
Si Si8 0.099305 0.957323 0.110860
O O1 0.561392 0.300664 0.136951
O O2 0.765292 0.220496 0.181652
O O3 0.822555 0.546335 0.885025
O O4 0.826209 0.204238 0.936685
O O5 0.341513 0.081970 0.485926
O O6 0.345898 0.120060 0.679798
O O7 0.084515 0.090262 0.755161
O O8 0.311960 0.774606 0.311881
O O9 0.425498 0.458465 0.320320
O O10 0.558126 0.702305 0.275414
O O11 0.296860 0.481908 0.590017
O O12 0.157065 0.951045 0.197713
O O13 0.015135 0.734120 0.538777
O O14 0.192553 0.078400 0.316863
O O15 0.723402 0.635158 0.722616
O O16 0.848145 0.821280 0.065742
#
# Coordination Sequence:
#
# PCOD8021404 Si02
#       8
#     2   2   2   2   2   2   2   2
#     4  11  24  40  69  99 128 172 216 277 322 383
#     4  10  22  43  71  97 131 175 218 264 329 393
#     4  10  23  42  70  95 132 176 215 267 331 390
#     4  11  26  44  66  94 132 182 210 278 326 384
#     4  11  26  44  62  97 137 167 228 267 330 384
#     4  11  23  44  66  99 133 171 217 271 327 393
#     4   9  21  40  65 104 125 158 226 271 311 392
#     4  11  23  43  71  99 127 177 223 263 324 396
#
# _framework density 21.930122000000001
#
# number of rings (size 3 to 8) (size 9 to 14) (size 15 to 20)
#    0.000    1.500    1.250    3.000   10.500    1.500 
#    2.250    0.625    0.000    0.000    0.000    0.000 
#    0.000    0.000    0.000    0.000    0.000    0.000 
#
# Total GULP energy -198382.139162 kJ/mol
# GULP energy per Si atom -12398.883698 kJ/mol
# Density = 2.188021 g / cm^3
# Si number density = 21.930122 Si / 1000 Ang^3
#
#
#
# Elastic Constant Matrix: (Units=GPa)
#
#
# Indices 1 2 3 4 5 6 
#
# 1 95.4486 29.2597 -0.5760 0.7129 1.6584 5.7121
# 2 29.2597 44.7082 18.4003 -0.5939 -3.9437 -8.4501
# 3 -0.5760 18.4003 109.6888 -13.1215 -2.9496 3.3781
# 4 0.7129 -0.5939 -13.1215 28.2687 -6.0846 0.9422
# 5 1.6584 -3.9437 -2.9496 -6.0846 35.7826 -1.5232
# 6 5.7121 -8.4501 3.3781 0.9422 -1.5232 16.1108
#
#
#
# Elastic Compliance Matrix: (Units=1/GPa)
#
#
# Indices 1 2 3 4 5 6 
#
# 1 0.015798 -0.014425 0.002935 0.000574 -0.002581 -0.014060
# 2 -0.014425 0.041002 -0.007973 -0.002284 0.005373 0.028933
# 3 0.002935 -0.007973 0.011373 0.005409 0.000507 -0.007876
# 4 0.000574 -0.002284 0.005409 0.039403 0.006689 -0.004208
# 5 -0.002581 0.005373 0.000507 0.006689 0.030096 0.006081
# 6 -0.014060 0.028933 -0.007876 -0.004208 0.006081 0.084703
#
#
# Mechanical properties :
#
#
# Convention : Reuss Voigt Hill
#
# Bulk Modulus (GPa) = 34.19250 38.22372 36.20811
# Shear Modulus (GPa) = 18.44671 29.54986 23.99828
#
# Velocity S-wave (km/s) = 2.90342 3.67475 3.31162
# Velocity P-wave (km/s) = 5.18317 5.95590 5.58292
#
# Compressibility (1/GPa) = 0.02924618
#
# Stress axis : x y z
#
# Youngs Moduli (GPa) = 63.29726 24.38935 87.92825
#
# Poissons Ratio (x) = 0.35181 -0.25807
# Poissons Ratio (y) = 0.91306 0.70109
# Poissons Ratio (z) = -0.18578 0.19447
#
# Static dielectric constant tensor:
#      x y z
#    x 3.896650 -0.012120 0.060840 
#    y -0.012120 3.680870 -0.212120 
#    z 0.060840 -0.212120 4.383070 
# 
# 
# High freq. dielectric constant tensor:
#      x y z
#    x 1.862950 -0.005750 0.002860 
#    y -0.005750 1.837830 -0.011220 
#    z 0.002860 -0.011220 1.884270 
# 
# From -- ./inp_files/418831.got.cif
#   From: 2010.06.25/outbox.cif.g09.slc.cpg/sg2_210_cif.got.tgz:418831.got - 2010.06.27 13:26:56.
