data_PCOD8021510
_publ_section_title
;
Structure prediction by ZEFSAII (Michael W. Deem and Ramdas Pophale) SiO2 
 PCOD8021510
Probable space group: P -1
;
_chemical_formula_sum "Si O2"
_cell_formula_units_Z 16
_cell_length_a 11.374973
_cell_length_b 21.044809
_cell_length_c 20.763796
_cell_angle_alpha 160.943363
_cell_angle_beta 149.868162
_cell_angle_gamma 38.147751
_cell_volume 799.920221
_symmetry_space_group_name_H-M "P -1"
_symmetry_group_IT_number 2
_symmetry_cell_setting 'triclinic'
loop_
_space_group_symop_operation_xyz
x,y,z
-x,-y,-z
loop_
_atom_site_type_symbol
_atom_site_label
_atom_site_fract_x
_atom_site_fract_y
_atom_site_fract_z
Si Si1 0.314140 0.777252 0.033546
Si Si2 0.834050 0.871053 0.135431
Si Si3 0.559956 0.176274 0.005083
Si Si4 0.359441 0.409031 0.783953
Si Si5 0.145445 0.833646 0.677668
Si Si6 0.805407 0.879068 0.902796
Si Si7 0.582170 0.434843 0.378789
Si Si8 0.603760 0.080192 0.557001
O O1 0.426524 0.752810 0.993784
O O2 0.502117 0.931650 0.310361
O O3 0.272760 0.567642 0.848936
O O4 0.063843 0.844745 0.971222
O O5 0.720469 0.893289 0.173827
O O6 0.112889 0.882426 0.276914
O O7 0.754230 0.046656 0.223979
O O8 0.701942 0.657639 0.838862
O O9 0.699431 0.994168 0.905522
O O10 0.676958 0.359625 0.283182
O O11 0.529505 0.291459 0.711386
O O12 0.130802 0.253593 0.550157
O O13 0.500000 0.500000 0.000000
O O14 0.285550 0.656162 0.587307
O O15 0.172120 0.992559 0.899505
O O16 0.628865 0.670147 0.631023
O O17 0.500000 0.000000 0.500000
#
# Coordination Sequence:
#
# PCOD8021510 Si02
#       8
#     2   2   2   2   2   2   2   2
#     4  12  23  42  68  92 130 167 210 262 312 378
#     4  10  22  44  59  90 139 160 212 262 308 381
#     4   9  25  42  60  97 127 173 204 256 320 375
#     4  12  24  40  65  99 122 162 214 262 316 369
#     4  11  20  40  63  94 127 158 210 269 320 363
#     4  11  21  40  67  97 123 165 213 260 320 370
#     4   9  22  40  60  94 127 165 209 257 318 375
#     4  12  23  43  65  93 125 163 214 267 310 367
#
# _framework density 20.001994
#
# number of rings (size 3 to 8) (size 9 to 14) (size 15 to 20)
#    0.750    0.500    5.000    0.750    0.000    2.500 
#    4.500    0.625    0.000    0.000    0.000    0.000 
#    0.000    0.000    0.000    0.000    0.000    0.000 
#
# Total GULP energy -198343.894825 kJ/mol
# GULP energy per Si atom -12396.493427 kJ/mol
# Density = 1.995647 g / cm^3
# Si number density = 20.001994 Si / 1000 Ang^3
#
#
#
# Elastic Constant Matrix: (Units=GPa)
#
#
# Indices 1 2 3 4 5 6 
#
# 1 69.0844 14.5846 15.7788 -5.5051 20.3341 6.2560
# 2 14.5846 59.2852 28.9431 -1.7641 11.9849 -10.6268
# 3 15.7788 28.9431 129.1857 -4.1206 11.8072 1.8545
# 4 -5.5051 -1.7641 -4.1206 36.4597 -8.7897 5.4166
# 5 20.3341 11.9849 11.8072 -8.7897 26.6311 -4.0616
# 6 6.2560 -10.6268 1.8545 5.4166 -4.0616 32.5817
#
#
#
# Elastic Compliance Matrix: (Units=1/GPa)
#
#
# Indices 1 2 3 4 5 6 
#
# 1 0.020188 -0.003002 -0.000330 0.000286 -0.014850 -0.006735
# 2 -0.003002 0.022093 -0.004281 -0.002304 -0.005332 0.007744
# 3 -0.000330 -0.004281 0.008967 0.000617 -0.001927 -0.002186
# 4 0.000286 -0.002304 0.000617 0.030511 0.009902 -0.004680
# 5 -0.014850 -0.005332 -0.001927 0.009902 0.056418 0.006609
# 6 -0.006735 0.007744 -0.002186 -0.004680 0.006609 0.036237
#
#
# Mechanical properties :
#
#
# Convention : Reuss Voigt Hill
#
# Bulk Modulus (GPa) = 27.75989 41.79647 34.77818
# Shear Modulus (GPa) = 24.79561 32.35110 28.57336
#
# Velocity S-wave (km/s) = 3.52470 4.02605 3.78368
# Velocity P-wave (km/s) = 5.52027 6.52331 6.04264
#
# Compressibility (1/GPa) = 0.03602319
#
# Stress axis : x y z
#
# Youngs Moduli (GPa) = 49.53503 45.26236 111.51599
#
# Poissons Ratio (x) = 0.13588 0.03681
# Poissons Ratio (y) = 0.14870 0.47735
# Poissons Ratio (z) = 0.01635 0.19375
#
# Static dielectric constant tensor:
#      x y z
#    x 3.223510 0.008520 0.211930 
#    y 0.008520 3.685910 0.014550 
#    z 0.211930 0.014550 3.573930 
# 
# 
# High freq. dielectric constant tensor:
#      x y z
#    x 1.765450 -0.007980 0.006250 
#    y -0.007980 1.782280 0.002960 
#    z 0.006250 0.002960 1.787570 
# 
# From -- ./inp_files/596275.got.cif
#   From: 2010.06.25/outbox.cif.g09.slc.cpg/sg2_299_cif.got.tgz:596275.got - 2010.06.27 13:26:56.
