data_PCOD8021166
_publ_section_title
;
Structure prediction by ZEFSAII (Michael W. Deem and Ramdas Pophale) SiO2 
 PCOD8021166
Probable space group: P -1
;
_chemical_formula_sum "Si O2"
_cell_formula_units_Z 16
_cell_length_a 6.722215
_cell_length_b 19.230694
_cell_length_c 9.153410
_cell_angle_alpha 127.473202
_cell_angle_beta 58.994117
_cell_angle_gamma 93.246217
_cell_volume 745.370830
_symmetry_space_group_name_H-M "P -1"
_symmetry_group_IT_number 2
_symmetry_cell_setting 'triclinic'
loop_
_space_group_symop_operation_xyz
x,y,z
-x,-y,-z
loop_
_atom_site_type_symbol
_atom_site_label
_atom_site_fract_x
_atom_site_fract_y
_atom_site_fract_z
Si Si1 0.368821 0.111064 0.191495
Si Si2 0.080104 0.729825 0.094539
Si Si3 0.085000 0.929269 0.594592
Si Si4 0.787671 0.453707 0.363062
Si Si5 0.483244 0.185844 0.528466
Si Si6 0.824674 0.462100 0.689050
Si Si7 0.625935 0.346439 0.821966
Si Si8 0.734372 0.125631 0.871043
O O1 0.492471 0.162873 0.323901
O O2 0.076428 0.132736 0.365049
O O3 0.444242 0.143414 0.046431
O O4 0.500000 0.000000 0.000000
O O5 0.212819 0.712497 0.180259
O O6 0.220062 0.777804 0.994621
O O7 0.793868 0.802407 0.302064
O O8 0.082277 0.634007 0.903412
O O9 0.316450 0.907439 0.589742
O O10 0.206631 0.896263 0.348892
O O11 0.918054 0.040692 0.794719
O O12 0.500000 0.500000 0.500000
O O13 0.826564 0.421352 0.474708
O O14 0.908072 0.530284 0.375760
O O15 0.538107 0.279427 0.665365
O O16 0.800251 0.387098 0.716150
O O17 0.611480 0.566562 0.916783
#
# Coordination Sequence:
#
# PCOD8021166 Si02
#       8
#     2   2   2   2   2   2   2   2
#     4  10  23  44  65  96 133 175 227 279 332 399
#     4  12  24  43  64  98 133 174 222 280 331 398
#     4  10  22  46  65  96 135 177 221 280 335 403
#     4  11  23  43  67  98 134 171 219 276 333 405
#     4  12  23  43  67  95 137 175 226 279 334 400
#     4  10  24  43  66  95 127 174 220 268 340 394
#     4  11  23  43  65  94 130 170 225 273 324 402
#     4  10  22  43  68  95 134 174 223 277 337 391
#
# _framework density 21.465824000000001
#
# number of rings (size 3 to 8) (size 9 to 14) (size 15 to 20)
#    0.000    1.250    5.000    0.000    1.750    4.000 
#    4.500    0.000    0.000    0.000    0.000    0.000 
#    0.000    0.000    0.000    0.000    0.000    0.000 
#
# Total GULP energy -198308.127855 kJ/mol
# GULP energy per Si atom -12394.257991 kJ/mol
# Density = 2.141697 g / cm^3
# Si number density = 21.465824 Si / 1000 Ang^3
#
#
#
# Elastic Constant Matrix: (Units=GPa)
#
#
# Indices 1 2 3 4 5 6 
#
# 1 120.2969 54.0305 35.4549 -12.6502 -11.8253 14.4105
# 2 54.0305 133.8014 33.9452 -25.3861 -11.0308 17.1649
# 3 35.4549 33.9452 91.2679 -19.8428 4.5088 14.5147
# 4 -12.6502 -25.3861 -19.8428 40.9223 13.8548 -7.5066
# 5 -11.8253 -11.0308 4.5088 13.8548 31.8100 7.7742
# 6 14.4105 17.1649 14.5147 -7.5066 7.7742 24.3279
#
#
#
# Elastic Compliance Matrix: (Units=1/GPa)
#
#
# Indices 1 2 3 4 5 6 
#
# 1 0.011787 -0.003216 -0.003525 -0.003369 0.006644 -0.005772
# 2 -0.003216 0.010491 -0.001352 0.003276 0.002285 -0.004410
# 3 -0.003525 -0.001352 0.014997 0.007357 -0.006748 -0.001479
# 4 -0.003369 0.003276 0.007357 0.038901 -0.021571 0.014192
# 5 0.006644 0.002285 -0.006748 -0.021571 0.051035 -0.024487
# 6 -0.005772 -0.004410 -0.001479 0.014192 -0.024487 0.060722
#
#
# Mechanical properties :
#
#
# Convention : Reuss Voigt Hill
#
# Bulk Modulus (GPa) = 47.42060 65.80305 56.61183
# Shear Modulus (GPa) = 23.67998 34.20773 28.94386
#
# Velocity S-wave (km/s) = 3.32497 3.99631 3.67600
# Velocity P-wave (km/s) = 6.07287 7.21217 6.66690
#
# Compressibility (1/GPa) = 0.02108788
#
# Stress axis : x y z
#
# Youngs Moduli (GPa) = 84.84229 95.31887 66.67950
#
# Poissons Ratio (x) = 0.30657 0.23507
# Poissons Ratio (y) = 0.27287 0.09014
# Poissons Ratio (z) = 0.29910 0.12886
#
# Static dielectric constant tensor:
#      x y z
#    x 3.857780 0.263890 -0.257650 
#    y 0.263890 4.029980 -0.300250 
#    z -0.257650 -0.300250 4.261400 
# 
# 
# High freq. dielectric constant tensor:
#      x y z
#    x 1.832790 0.017270 -0.005040 
#    y 0.017270 1.839590 -0.002520 
#    z -0.005040 -0.002520 1.859830 
# 
# From -- ./inp_files/49173.got.cif
#   From: 2010.06.25/outbox.cif.g09.slc.cpg/sg2_25_cif.got.tgz:49173.got - 2010.06.27 13:26:56.
