data_PCOD8021614
_publ_section_title
;
Structure prediction by ZEFSAII (Michael W. Deem and Ramdas Pophale) SiO2 
 PCOD8021614
Probable space group: P -1
;
_chemical_formula_sum "Si O2"
_cell_formula_units_Z 14
_cell_length_a 6.461107
_cell_length_b 12.536559
_cell_length_c 26.164801
_cell_angle_alpha 152.287229
_cell_angle_beta 134.311720
_cell_angle_gamma 46.408408
_cell_volume 688.953709
_symmetry_space_group_name_H-M "P -1"
_symmetry_group_IT_number 2
_symmetry_cell_setting 'triclinic'
loop_
_space_group_symop_operation_xyz
x,y,z
-x,-y,-z
loop_
_atom_site_type_symbol
_atom_site_label
_atom_site_fract_x
_atom_site_fract_y
_atom_site_fract_z
Si Si1 0.946644 0.380148 0.172854
Si Si2 0.174417 0.604420 0.006864
Si Si3 0.288925 0.663228 0.166076
Si Si4 0.847150 0.262536 0.566157
Si Si5 0.164090 0.073770 0.989488
Si Si6 0.788120 0.808427 0.598048
Si Si7 0.848714 0.437599 0.530129
O O1 0.606187 0.491871 0.150500
O O2 0.105421 0.558504 0.305629
O O3 0.962929 0.143718 0.106171
O O4 0.122009 0.296394 0.115331
O O5 0.162917 0.673824 0.092607
O O6 0.045556 0.850586 0.062671
O O7 0.500000 0.500000 0.000000
O O8 0.954223 0.429259 0.881018
O O9 0.319640 0.917166 0.296504
O O10 0.497364 0.286637 0.510051
O O11 0.977335 0.346391 0.570077
O O12 0.000000 0.000000 0.500000
O O13 0.500000 0.000000 0.000000
O O14 0.927691 0.672845 0.617009
O O15 0.030504 0.768710 0.577490
O O16 0.500000 0.500000 0.500000
#
# Coordination Sequence:
#
# PCOD8021614 Si02
#       7
#     2   2   2   2   2   2   2
#     4  11  24  42  65  98 132 167 221 267 329 400
#     4  11  24  43  66  95 126 171 220 269 330 385
#     4  11  23  41  67  96 126 166 222 272 326 395
#     4  11  23  41  67  98 131 168 215 269 334 395
#     4  11  24  45  66  91 134 178 216 275 329 384
#     4  10  22  44  65  92 131 171 220 269 324 399
#     4   9  22  43  60  89 129 173 218 263 322 390
#
# _framework density 20.320668999999999
#
# number of rings (size 3 to 8) (size 9 to 14) (size 15 to 20)
#    0.000    1.429    4.286    0.000    2.000    5.143 
#   10.286    0.000    0.000    0.000    0.000    0.000 
#    0.000    0.000    0.000    0.000    0.000    0.000 
#
# Total GULP energy -173485.319289 kJ/mol
# GULP energy per Si atom -12391.808521 kJ/mol
# Density = 2.027442 g / cm^3
# Si number density = 20.320669 Si / 1000 Ang^3
#
#
#
# Elastic Constant Matrix: (Units=GPa)
#
#
# Indices 1 2 3 4 5 6 
#
# 1 126.8912 51.4116 41.5929 2.0205 -11.0299 -14.3376
# 2 51.4116 152.1567 43.8211 7.7019 -5.5601 5.2037
# 3 41.5929 43.8211 128.3726 6.9683 -0.3229 -2.0585
# 4 2.0205 7.7019 6.9683 28.9569 -5.4629 -2.3060
# 5 -11.0299 -5.5601 -0.3229 -5.4629 20.9766 -0.1411
# 6 -14.3376 5.2037 -2.0585 -2.3060 -0.1411 41.6890
#
#
#
# Elastic Compliance Matrix: (Units=1/GPa)
#
#
# Indices 1 2 3 4 5 6 
#
# 1 0.010810 -0.002971 -0.002517 0.001987 0.005403 0.004092
# 2 -0.002971 0.008263 -0.001801 -0.001709 0.000140 -0.002236
# 3 -0.002517 -0.001801 0.009320 -0.002025 -0.002187 -0.000300
# 4 0.001987 -0.001709 -0.002025 0.037522 0.010352 0.002907
# 5 0.005403 0.000140 -0.002187 0.010352 0.053229 0.002485
# 6 0.004092 -0.002236 -0.000300 0.002907 0.002485 0.025828
#
#
# Mechanical properties :
#
#
# Convention : Reuss Voigt Hill
#
# Bulk Modulus (GPa) = 72.38391 75.67463 74.02927
# Shear Modulus (GPa) = 30.45942 36.36415 33.41179
#
# Velocity S-wave (km/s) = 3.87581 4.23486 4.05931
# Velocity P-wave (km/s) = 7.46508 7.82516 7.64724
#
# Compressibility (1/GPa) = 0.01381522
#
# Stress axis : x y z
#
# Youngs Moduli (GPa) = 92.50866 121.02675 107.30054
#
# Poissons Ratio (x) = 0.35953 0.27007
# Poissons Ratio (y) = 0.27481 0.19322
# Poissons Ratio (z) = 0.23284 0.21794
#
# Static dielectric constant tensor:
#      x y z
#    x 3.326510 0.041130 0.037270 
#    y 0.041130 3.953720 0.107800 
#    z 0.037270 0.107800 3.532560 
# 
# 
# High freq. dielectric constant tensor:
#      x y z
#    x 1.804670 0.006640 -0.005810 
#    y 0.006640 1.817740 0.010080 
#    z -0.005810 0.010080 1.775270 
# 
# From -- ./inp_files/48237.got.cif
#   From: 2010.06.25/outbox.cif.g09.slc.cpg/sg2_25_cif.got.tgz:48237.got - 2010.06.27 13:26:56.
