data_PCOD8021268
_publ_section_title
;
Structure prediction by ZEFSAII (Michael W. Deem and Ramdas Pophale) SiO2 
 PCOD8021268
Probable space group: P -1
;
_chemical_formula_sum "Si O2"
_cell_formula_units_Z 16
_cell_length_a 6.140682
_cell_length_b 6.297664
_cell_length_c 21.099283
_cell_angle_alpha 83.809061
_cell_angle_beta 119.695198
_cell_angle_gamma 78.527548
_cell_volume 673.913577
_symmetry_space_group_name_H-M "P -1"
_symmetry_group_IT_number 2
_symmetry_cell_setting 'triclinic'
loop_
_space_group_symop_operation_xyz
x,y,z
-x,-y,-z
loop_
_atom_site_type_symbol
_atom_site_label
_atom_site_fract_x
_atom_site_fract_y
_atom_site_fract_z
Si Si1 0.448388 0.844183 0.414709
Si Si2 0.419705 0.488262 0.665419
Si Si3 0.200938 0.634056 0.951521
Si Si4 0.274546 0.811013 0.831580
Si Si5 0.212345 0.606052 0.094843
Si Si6 0.920739 0.889940 0.552724
Si Si7 0.736454 0.800274 0.724836
Si Si8 0.478742 0.875308 0.208450
O O1 0.488153 0.620492 0.386582
O O2 0.682227 0.794941 0.501115
O O3 0.175096 0.920531 0.412411
O O4 0.446891 0.046856 0.360340
O O5 0.663162 0.569130 0.723008
O O6 0.366936 0.314708 0.714116
O O7 0.154560 0.687681 0.618362
O O8 0.177603 0.830969 0.890445
O O9 0.023043 0.477635 0.907343
O O10 0.500000 0.500000 0.000000
O O11 0.118003 0.717441 0.008440
O O12 0.528874 0.603125 0.865681
O O13 0.043557 0.766493 0.755881
O O14 0.319987 0.046493 0.810621
O O15 0.268401 0.797824 0.139401
O O16 0.000000 0.000000 0.500000
O O17 0.678274 0.908411 0.782131
#
# Coordination Sequence:
#
# PCOD8021268 Si02
#       8
#     2   2   2   2   2   2   2   2
#     4  10  25  44  69 106 134 184 234 284 361 416
#     4  11  24  47  71  99 144 186 233 294 352 416
#     4   9  20  41  68  99 134 178 231 284 344 409
#     4  11  23  41  66  95 139 177 228 292 335 418
#     4  10  22  43  69  96 134 184 228 285 346 408
#     4  11  23  47  72 100 143 179 234 295 345 424
#     4  11  25  45  63 101 138 175 233 289 338 422
#     4  11  25  41  65 100 134 182 232 280 349 412
#
# _framework density 23.74192
#
# number of rings (size 3 to 8) (size 9 to 14) (size 15 to 20)
#    0.000    1.500    1.250    2.625    3.500    5.000 
#    2.250    8.750    0.000    0.000    0.000    0.000 
#    0.000    0.000    0.000    0.000    0.000    0.000 
#
# Total GULP energy -198358.544508 kJ/mol
# GULP energy per Si atom -12397.409032 kJ/mol
# Density = 2.368788 g / cm^3
# Si number density = 23.741920 Si / 1000 Ang^3
#
#
#
# Elastic Constant Matrix: (Units=GPa)
#
#
# Indices 1 2 3 4 5 6 
#
# 1 144.3843 73.6197 62.3176 1.3682 -2.5083 15.2064
# 2 73.6197 117.6022 54.3235 19.2197 1.1850 8.7588
# 3 62.3176 54.3235 111.7697 12.7175 5.9677 10.7368
# 4 1.3682 19.2197 12.7175 39.6193 0.5416 -5.1325
# 5 -2.5083 1.1850 5.9677 0.5416 49.9564 -0.4858
# 6 15.2064 8.7588 10.7368 -5.1325 -0.4858 42.1781
#
#
#
# Elastic Compliance Matrix: (Units=1/GPa)
#
#
# Indices 1 2 3 4 5 6 
#
# 1 0.011910 -0.006093 -0.004003 0.003612 0.001166 -0.001557
# 2 -0.006093 0.014760 -0.002988 -0.006098 -0.000241 -0.000853
# 3 -0.004003 -0.002988 0.013205 -0.002843 -0.001693 -0.001663
# 4 0.003612 -0.006098 -0.002843 0.029536 0.000387 0.004287
# 5 0.001166 -0.000241 -0.001693 0.000387 0.020283 0.000341
# 6 -0.001557 -0.000853 -0.001663 0.004287 0.000341 0.025396
#
#
# Mechanical properties :
#
#
# Convention : Reuss Voigt Hill
#
# Bulk Modulus (GPa) = 72.95398 83.80863 78.38131
# Shear Modulus (GPa) = 34.28680 38.58378 36.43529
#
# Velocity S-wave (km/s) = 3.80432 4.03567 3.92170
# Velocity P-wave (km/s) = 7.07755 7.55592 7.32064
#
# Compressibility (1/GPa) = 0.01370727
#
# Stress axis : x y z
#
# Youngs Moduli (GPa) = 83.95998 67.74916 75.72967
#
# Poissons Ratio (x) = 0.41279 0.30315
# Poissons Ratio (y) = 0.51157 0.22629
# Poissons Ratio (z) = 0.33609 0.20245
#
# Static dielectric constant tensor:
#      x y z
#    x 4.495430 0.118060 -0.139290 
#    y 0.118060 4.040720 0.010180 
#    z -0.139290 0.010180 4.900710 
# 
# 
# High freq. dielectric constant tensor:
#      x y z
#    x 1.945510 0.006330 -0.003500 
#    y 0.006330 1.914310 -0.002160 
#    z -0.003500 -0.002160 1.964870 
# 
# From -- ./inp_files/603234.got.cif
#   From: 2010.06.25/outbox.cif.g09.slc.cpg/sg2_302_cif.got.tgz:603234.got - 2010.06.27 13:26:56.
