data_PCOD8021395
_publ_section_title
;
Structure prediction by ZEFSAII (Michael W. Deem and Ramdas Pophale) SiO2 
 PCOD8021395
Probable space group: P -1
;
_chemical_formula_sum "Si O2"
_cell_formula_units_Z 16
_cell_length_a 9.432143
_cell_length_b 15.314488
_cell_length_c 15.317361
_cell_angle_alpha 142.730047
_cell_angle_beta 144.652627
_cell_angle_gamma 39.718749
_cell_volume 728.190024
_symmetry_space_group_name_H-M "P -1"
_symmetry_group_IT_number 2
_symmetry_cell_setting 'triclinic'
loop_
_space_group_symop_operation_xyz
x,y,z
-x,-y,-z
loop_
_atom_site_type_symbol
_atom_site_label
_atom_site_fract_x
_atom_site_fract_y
_atom_site_fract_z
Si Si1 0.442874 0.509877 0.256234
Si Si2 0.205438 0.923091 0.115843
Si Si3 0.090361 0.045433 0.832739
Si Si4 0.737792 0.638758 0.650182
Si Si5 0.436369 0.256755 0.178072
Si Si6 0.334056 0.573094 0.889152
Si Si7 0.050878 0.822183 0.301957
Si Si8 0.425584 0.954497 0.685861
O O1 0.631058 0.563378 0.457615
O O2 0.425774 0.350427 0.157294
O O3 0.546985 0.501461 0.202876
O O4 0.151292 0.637116 0.208001
O O5 0.072633 0.966632 0.176028
O O6 0.444681 0.988722 0.284838
O O7 0.327588 0.744749 0.018623
O O8 0.000000 0.000000 0.000000
O O9 0.887485 0.105805 0.699682
O O10 0.284692 0.874855 0.775263
O O11 0.218946 0.177234 0.007557
O O12 0.619774 0.621163 0.672323
O O13 0.660701 0.825471 0.751777
O O14 0.049027 0.559918 0.744776
O O15 0.500000 0.500000 0.000000
O O16 0.217546 0.872738 0.497285
O O17 0.735475 0.895200 0.217477
#
# Coordination Sequence:
#
# PCOD8021395 Si02
#       8
#     2   2   2   2   2   2   2   2
#     4  11  26  42  70  99 134 185 222 267 345 407
#     4  12  23  42  69  94 129 179 223 270 330 405
#     4  11  23  41  67  98 135 169 226 285 325 387
#     4  11  22  47  68  95 141 178 222 280 332 402
#     4  11  23  41  69 100 131 179 229 273 332 402
#     4  12  26  45  65 101 142 172 220 285 341 392
#     4  10  23  44  66  97 136 169 220 284 330 389
#     4  10  22  43  71  96 129 179 225 269 337 398
#
# _framework density 21.972286
#
# number of rings (size 3 to 8) (size 9 to 14) (size 15 to 20)
#    0.000    1.000    3.750    2.250    3.500    2.000 
#    2.250    0.000    0.000    0.000    0.000    0.000 
#    0.000    0.000    0.000    0.000    0.000    0.000 
#
# Total GULP energy -198304.675521 kJ/mol
# GULP energy per Si atom -12394.042220 kJ/mol
# Density = 2.192228 g / cm^3
# Si number density = 21.972286 Si / 1000 Ang^3
#
#
#
# Elastic Constant Matrix: (Units=GPa)
#
#
# Indices 1 2 3 4 5 6 
#
# 1 154.5007 45.4202 39.4481 -4.9604 -17.7262 2.5478
# 2 45.4202 148.9149 29.2826 -7.9277 -4.1010 8.8462
# 3 39.4481 29.2826 46.8129 -2.0425 -12.5068 -4.0707
# 4 -4.9604 -7.9277 -2.0425 28.8897 5.2495 -3.7926
# 5 -17.7262 -4.1010 -12.5068 5.2495 38.2088 -0.3720
# 6 2.5478 8.8462 -4.0707 -3.7926 -0.3720 38.1451
#
#
#
# Elastic Compliance Matrix: (Units=1/GPa)
#
#
# Indices 1 2 3 4 5 6 
#
# 1 0.008634 -0.001337 -0.006010 0.000240 0.001854 -0.000866
# 2 -0.001337 0.008183 -0.004496 0.001684 -0.001466 -0.002135
# 3 -0.006010 -0.004496 0.031549 -0.000712 0.007201 0.004810
# 4 0.000240 0.001684 -0.000712 0.036364 -0.004907 0.003085
# 5 0.001854 -0.001466 0.007201 -0.004907 0.029914 0.000788
# 6 -0.000866 -0.002135 0.004810 0.003085 0.000788 0.027596
#
#
# Mechanical properties :
#
#
# Convention : Reuss Voigt Hill
#
# Bulk Modulus (GPa) = 40.51497 64.28115 52.39806
# Shear Modulus (GPa) = 28.71035 36.78724 32.74879
#
# Velocity S-wave (km/s) = 3.61870 4.09621 3.86483
# Velocity P-wave (km/s) = 5.99493 7.18964 6.61929
#
# Compressibility (1/GPa) = 0.02468223
#
# Stress axis : x y z
#
# Youngs Moduli (GPa) = 115.81479 122.20177 31.69640
#
# Poissons Ratio (x) = 0.16333 0.19048
# Poissons Ratio (y) = 0.15479 0.14252
# Poissons Ratio (z) = 0.69600 0.54945
#
# Static dielectric constant tensor:
#      x y z
#    x 4.163410 -0.024070 -0.192050 
#    y -0.024070 4.378180 -0.054490 
#    z -0.192050 -0.054490 3.787640 
# 
# 
# High freq. dielectric constant tensor:
#      x y z
#    x 1.871540 -0.000500 -0.013800 
#    y -0.000500 1.879320 -0.001890 
#    z -0.013800 -0.001890 1.851900 
# 
# From -- ./inp_files/280215.got.cif
#   From: 2010.06.25/outbox.cif.g09.slc.cpg/sg2_141_cif.got.tgz:280215.got - 2010.06.27 13:26:56.
