data_PCOD8021174
_publ_section_title
;
Structure prediction by ZEFSAII (Michael W. Deem and Ramdas Pophale) SiO2 
 PCOD8021174
Probable space group: P -1
;
_chemical_formula_sum "Si O2"
_cell_formula_units_Z 16
_cell_length_a 10.779596
_cell_length_b 22.435441
_cell_length_c 8.128974
_cell_angle_alpha 110.628707
_cell_angle_beta 96.097814
_cell_angle_gamma 25.556431
_cell_volume 675.970349
_symmetry_space_group_name_H-M "P -1"
_symmetry_group_IT_number 2
_symmetry_cell_setting 'triclinic'
loop_
_space_group_symop_operation_xyz
x,y,z
-x,-y,-z
loop_
_atom_site_type_symbol
_atom_site_label
_atom_site_fract_x
_atom_site_fract_y
_atom_site_fract_z
Si Si1 0.182456 0.348082 0.914791
Si Si2 0.176826 0.883619 0.260860
Si Si3 0.578187 0.607936 0.277354
Si Si4 0.463514 0.504674 0.694415
Si Si5 0.075259 0.607806 0.367012
Si Si6 0.442749 0.721241 0.702242
Si Si7 0.260172 0.172820 0.154133
Si Si8 0.739393 0.056946 0.057730
O O1 0.573412 0.180327 0.845662
O O2 0.175252 0.306758 0.712004
O O3 0.000000 0.500000 0.000000
O O4 0.975525 0.411300 0.094551
O O5 0.383344 0.723896 0.199575
O O6 0.000000 0.000000 0.500000
O O7 0.906690 0.985620 0.192631
O O8 0.408465 0.624771 0.348095
O O9 0.553788 0.672745 0.480430
O O10 0.500000 0.500000 0.500000
O O11 0.679754 0.458802 0.763653
O O12 0.067707 0.692284 0.865944
O O13 0.315137 0.442629 0.329354
O O14 0.848368 0.755688 0.606819
O O15 0.460871 0.781874 0.850266
O O16 0.043865 0.892724 0.818844
O O17 0.456394 0.138932 0.072862
O O18 0.500000 0.000000 0.000000
#
# Coordination Sequence:
#
# PCOD8021174 Si02
#       8
#     2   2   2   2   2   2   2   2
#     4  10  24  41  66  98 133 171 222 271 332 405
#     4  11  22  43  64  95 141 175 208 273 342 398
#     4  11  22  41  68  98 131 179 224 273 332 401
#     4  10  22  43  68  96 128 174 224 283 325 391
#     4  11  23  45  69  96 133 177 225 282 333 395
#     4  11  22  41  68  99 133 175 224 282 338 395
#     4  11  24  40  68  97 130 176 225 277 335 392
#     4  11  25  40  64 102 137 176 219 276 343 401
#
# _framework density 23.669677
#
# number of rings (size 3 to 8) (size 9 to 14) (size 15 to 20)
#    0.000    1.250    3.750    3.000    3.500    5.000 
#    0.000    0.000    0.000    4.500    0.000    0.000 
#    0.000    0.000    0.000    0.000    0.000    0.000 
#
# Total GULP energy -198226.411966 kJ/mol
# GULP energy per Si atom -12389.150748 kJ/mol
# Density = 2.361580 g / cm^3
# Si number density = 23.669677 Si / 1000 Ang^3
#
#
#
# Elastic Constant Matrix: (Units=GPa)
#
#
# Indices 1 2 3 4 5 6 
#
# 1 141.4380 41.2309 35.3776 14.1688 -17.8487 4.0238
# 2 41.2309 75.3779 23.7621 16.6799 13.4038 6.7786
# 3 35.3776 23.7621 127.6543 18.0747 5.7322 6.2763
# 4 14.1688 16.6799 18.0747 32.3696 -0.2984 -0.2662
# 5 -17.8487 13.4038 5.7322 -0.2984 45.4427 -1.3160
# 6 4.0238 6.7786 6.2763 -0.2662 -1.3160 28.1718
#
#
#
# Elastic Compliance Matrix: (Units=1/GPa)
#
#
# Indices 1 2 3 4 5 6 
#
# 1 0.010050 -0.005970 -0.001953 -0.000171 0.005974 0.000714
# 2 -0.005970 0.020271 -0.000432 -0.007705 -0.008447 -0.004396
# 3 -0.001953 -0.000432 0.009208 -0.004096 -0.001880 -0.001795
# 4 -0.000171 -0.007705 -0.004096 0.037281 0.003062 0.003286
# 5 0.005974 -0.008447 -0.001880 0.003062 0.027185 0.002897
# 6 0.000714 -0.004396 -0.001795 0.003286 0.002897 0.037019
#
#
# Mechanical properties :
#
#
# Convention : Reuss Voigt Hill
#
# Bulk Modulus (GPa) = 43.82568 60.57902 52.20235
# Shear Modulus (GPa) = 30.24257 37.47013 33.85635
#
# Velocity S-wave (km/s) = 3.57836 3.98306 3.78612
# Velocity P-wave (km/s) = 5.96897 6.84121 6.41992
#
# Compressibility (1/GPa) = 0.02281767
#
# Stress axis : x y z
#
# Youngs Moduli (GPa) = 99.50400 49.33215 108.60095
#
# Poissons Ratio (x) = 0.29452 0.21210
# Poissons Ratio (y) = 0.59405 0.04695
# Poissons Ratio (z) = 0.19433 0.02133
#
# Static dielectric constant tensor:
#      x y z
#    x 4.893000 -0.151500 -0.336730 
#    y -0.151500 4.307970 0.160970 
#    z -0.336730 0.160970 4.682150 
# 
# 
# High freq. dielectric constant tensor:
#      x y z
#    x 1.938610 -0.002550 -0.009580 
#    y -0.002550 1.931340 0.005430 
#    z -0.009580 0.005430 1.946280 
# 
# From -- ./inp_files/284838.got.cif
#   From: 2010.06.25/outbox.cif.g09.slc.cpg/sg2_143_cif.got.tgz:284838.got - 2010.06.27 13:26:56.
