data_PCOD8021818
_publ_section_title
;
Structure prediction by ZEFSAII (Michael W. Deem and Ramdas Pophale) SiO2 
 PCOD8021818
Probable space group: P -1
;
_chemical_formula_sum "Si O2"
_cell_formula_units_Z 16
_cell_length_a 15.938586
_cell_length_b 14.357964
_cell_length_c 10.616527
_cell_angle_alpha 56.587350
_cell_angle_beta 37.146470
_cell_angle_gamma 30.573299
_cell_volume 669.541803
_symmetry_space_group_name_H-M "P -1"
_symmetry_group_IT_number 2
_symmetry_cell_setting 'triclinic'
loop_
_space_group_symop_operation_xyz
x,y,z
-x,-y,-z
loop_
_atom_site_type_symbol
_atom_site_label
_atom_site_fract_x
_atom_site_fract_y
_atom_site_fract_z
Si Si1 0.365221 0.166523 0.852340
Si Si2 0.412712 0.389487 0.629813
Si Si3 0.130717 0.819005 0.893986
Si Si4 0.941133 0.191626 0.393592
Si Si5 0.129164 0.226086 0.329873
Si Si6 0.235033 0.410420 0.333989
Si Si7 0.258991 0.034088 0.916512
Si Si8 0.549558 0.592052 0.143039
O O1 0.365051 0.294595 0.712875
O O2 0.245472 0.172033 0.878730
O O3 0.650496 0.930353 0.712867
O O4 0.205291 0.261805 0.102030
O O5 0.706168 0.229842 0.374777
O O6 0.226671 0.593835 0.622463
O O7 0.351152 0.441880 0.811991
O O8 0.326752 0.610490 0.894339
O O9 0.918509 0.874169 0.057986
O O10 0.000000 0.000000 0.000000
O O11 0.759717 0.208863 0.629992
O O12 0.081680 0.136152 0.394235
O O13 0.160955 0.017963 0.158302
O O14 0.864762 0.437706 0.554384
O O15 0.000000 0.500000 0.500000
O O16 0.451834 0.188107 0.303051
O O17 0.365904 0.375703 0.082359
#
# Coordination Sequence:
#
# PCOD8021818 Si02
#       8
#     2   2   2   2   2   2   2   2
#     4  10  23  43  70  95 133 185 220 277 329 401
#     4  11  22  44  72  98 132 178 226 275 336 401
#     4  11  25  45  69 100 135 174 224 283 338 395
#     4  10  22  44  68  99 130 175 231 275 325 410
#     4  10  23  42  63  96 138 170 233 264 333 393
#     4  12  26  43  64  97 140 178 220 283 333 390
#     4  11  23  45  67  98 138 173 228 271 332 404
#     4  11  24  45  69  96 136 180 223 281 334 395
#
# _framework density 23.896939
#
# number of rings (size 3 to 8) (size 9 to 14) (size 15 to 20)
#    0.000    1.250    3.750    1.500    8.750    4.000 
#    2.250    1.250    0.000    0.000    0.000    0.000 
#    0.000    0.000    0.000    0.000    0.000    0.000 
#
# Total GULP energy -198375.582459 kJ/mol
# GULP energy per Si atom -12398.473904 kJ/mol
# Density = 2.384255 g / cm^3
# Si number density = 23.896939 Si / 1000 Ang^3
#
#
#
# Elastic Constant Matrix: (Units=GPa)
#
#
# Indices 1 2 3 4 5 6 
#
# 1 87.0175 -4.8059 11.4895 5.8526 -18.1487 5.0088
# 2 -4.8059 30.7209 29.3322 5.9573 3.6404 11.6595
# 3 11.4895 29.3322 112.5938 12.0811 -17.5324 -1.1666
# 4 5.8526 5.9573 12.0811 46.5859 10.1214 -1.4381
# 5 -18.1487 3.6404 -17.5324 10.1214 43.0055 2.5811
# 6 5.0088 11.6595 -1.1666 -1.4381 2.5811 23.7302
#
#
#
# Elastic Compliance Matrix: (Units=1/GPa)
#
#
# Indices 1 2 3 4 5 6 
#
# 1 0.014008 0.006891 -0.002011 -0.003603 0.005794 -0.007290
# 2 0.006891 0.066769 -0.019229 -0.003834 -0.007603 -0.034611
# 3 -0.002011 -0.019229 0.015589 -0.002587 0.007161 0.009703
# 4 -0.003603 -0.003834 -0.002587 0.025068 -0.008448 0.004955
# 5 0.005794 -0.007603 0.007161 -0.008448 0.031312 -0.001053
# 6 -0.007290 -0.034611 0.009703 0.004955 -0.001053 0.061577
#
#
# Mechanical properties :
#
#
# Convention : Reuss Voigt Hill
#
# Bulk Modulus (GPa) = 14.77795 33.59598 24.18697
# Shear Modulus (GPa) = 18.82686 35.61874 27.22280
#
# Velocity S-wave (km/s) = 2.80989 3.86491 3.37883
# Velocity P-wave (km/s) = 4.08959 5.83146 5.03640
#
# Compressibility (1/GPa) = 0.06766837
#
# Stress axis : x y z
#
# Youngs Moduli (GPa) = 71.38545 14.97704 64.14692
#
# Poissons Ratio (x) = -0.10320 0.12902
# Poissons Ratio (y) = -0.49190 1.23345
# Poissons Ratio (z) = 0.14358 0.28799
#
# Static dielectric constant tensor:
#      x y z
#    x 4.238350 0.161390 -0.072770 
#    y 0.161390 4.270410 0.483450 
#    z -0.072770 0.483450 4.902460 
# 
# 
# High freq. dielectric constant tensor:
#      x y z
#    x 1.938320 0.006160 -0.019010 
#    y 0.006160 1.943270 0.020330 
#    z -0.019010 0.020330 1.954810 
# 
# From -- ./inp_files/188642.got.cif
#   From: 2010.06.25/outbox.cif.g09.slc.cpg/sg2_95_cif.got.tgz:188642.got - 2010.06.27 13:26:56.
