data_PCOD8021567
_publ_section_title
;
Structure prediction by ZEFSAII (Michael W. Deem and Ramdas Pophale) SiO2 
 PCOD8021567
Probable space group: P -1
;
_chemical_formula_sum "Si O2"
_cell_formula_units_Z 16
_cell_length_a 14.669294
_cell_length_b 8.465730
_cell_length_c 8.857379
_cell_angle_alpha 44.441152
_cell_angle_beta 68.549341
_cell_angle_gamma 73.119450
_cell_volume 716.098144
_symmetry_space_group_name_H-M "P -1"
_symmetry_group_IT_number 2
_symmetry_cell_setting 'triclinic'
loop_
_space_group_symop_operation_xyz
x,y,z
-x,-y,-z
loop_
_atom_site_type_symbol
_atom_site_label
_atom_site_fract_x
_atom_site_fract_y
_atom_site_fract_z
Si Si1 0.802227 0.339119 0.568419
Si Si2 0.356394 0.480196 0.662934
Si Si3 0.072532 0.256084 0.864831
Si Si4 0.759703 0.570251 0.940108
Si Si5 0.566311 0.710702 0.788263
Si Si6 0.515430 0.812876 0.417889
Si Si7 0.143777 0.790208 0.055175
Si Si8 0.090187 0.100238 0.291546
O O1 0.693288 0.407526 0.531537
O O2 0.880164 0.506224 0.341012
O O3 0.803200 0.336658 0.749865
O O4 0.827513 0.092919 0.657127
O O5 0.422084 0.657253 0.587546
O O6 0.418951 0.259134 0.718244
O O7 0.274565 0.408659 0.879971
O O8 0.969992 0.268632 0.830536
O O9 0.050137 0.206253 0.087103
O O10 0.146937 0.062270 0.878383
O O11 0.675083 0.660690 0.817749
O O12 0.795782 0.311027 0.056112
O O13 0.856427 0.716025 0.764098
O O14 0.575019 0.772897 0.564410
O O15 0.517154 0.925151 0.761147
O O16 0.500000 0.500000 0.000000
O O17 0.000000 0.000000 0.500000
#
# Coordination Sequence:
#
# PCOD8021567 Si02
#       8
#     2   2   2   2   2   2   2   2
#     4  11  22  43  64  92 129 171 220 265 324 392
#     4  11  23  43  68  96 131 173 215 274 327 384
#     4  10  22  44  64  92 130 175 221 267 325 389
#     4  12  24  43  66 102 129 171 223 271 323 388
#     4  11  23  45  68  99 132 169 217 266 329 395
#     4  10  24  46  67  95 134 171 212 268 334 392
#     4  10  24  40  64  92 130 171 218 269 324 382
#     4  11  25  41  66  97 133 175 216 273 330 380
#
# _framework density 22.343305999999998
#
# number of rings (size 3 to 8) (size 9 to 14) (size 15 to 20)
#    0.000    1.250    2.500    2.625    1.750    4.500 
#    4.500    0.000    0.000    0.000    0.000    0.000 
#    0.000    0.000    0.000    0.000    0.000    0.000 
#
# Total GULP energy -198459.836241 kJ/mol
# GULP energy per Si atom -12403.739765 kJ/mol
# Density = 2.229245 g / cm^3
# Si number density = 22.343306 Si / 1000 Ang^3
#
#
#
# Elastic Constant Matrix: (Units=GPa)
#
#
# Indices 1 2 3 4 5 6 
#
# 1 110.0427 28.1266 14.3007 1.7334 19.3680 8.6427
# 2 28.1266 131.2784 39.8507 -5.0911 2.6778 -4.4170
# 3 14.3007 39.8507 58.2735 -2.2325 1.9944 -1.6520
# 4 1.7334 -5.0911 -2.2325 28.8648 -6.7713 -2.2648
# 5 19.3680 2.6778 1.9944 -6.7713 33.2684 -0.3623
# 6 8.6427 -4.4170 -1.6520 -2.2648 -0.3623 31.9245
#
#
#
# Elastic Compliance Matrix: (Units=1/GPa)
#
#
# Indices 1 2 3 4 5 6 
#
# 1 0.011392 -0.002145 -0.001313 -0.003113 -0.007055 -0.003750
# 2 -0.002145 0.010096 -0.006298 0.001847 0.001209 0.001797
# 3 -0.001313 -0.006298 0.021832 0.000737 0.000120 0.000667
# 4 -0.003113 0.001847 0.000737 0.037712 0.009338 0.003918
# 5 -0.007055 0.001209 0.000120 0.009338 0.035996 0.003154
# 6 -0.003750 0.001797 0.000667 0.003918 0.003154 0.032936
#
#
# Mechanical properties :
#
#
# Convention : Reuss Voigt Hill
#
# Bulk Modulus (GPa) = 42.00071 51.57230 46.78651
# Shear Modulus (GPa) = 28.18313 33.29931 30.74122
#
# Velocity S-wave (km/s) = 3.55543 3.86469 3.71328
# Velocity P-wave (km/s) = 5.97440 6.56097 6.27454
#
# Compressibility (1/GPa) = 0.02380912
#
# Stress axis : x y z
#
# Youngs Moduli (GPa) = 87.78460 99.04831 45.80380
#
# Poissons Ratio (x) = 0.21247 0.06013
# Poissons Ratio (y) = 0.18831 0.28845
# Poissons Ratio (z) = 0.11523 0.62376
#
# Static dielectric constant tensor:
#      x y z
#    x 4.078900 0.130150 0.225460 
#    y 0.130150 4.212650 -0.147330 
#    z 0.225460 -0.147330 3.821940 
# 
# 
# High freq. dielectric constant tensor:
#      x y z
#    x 1.891840 0.007330 0.013550 
#    y 0.007330 1.894270 -0.009700 
#    z 0.013550 -0.009700 1.862500 
# 
# From -- ./inp_files/135184.got.cif
#   From: 2010.06.25/outbox.cif.g09.slc.cpg/sg2_68_cif.got.tgz:135184.got - 2010.06.27 13:26:56.
