data_PCOD8021397
_publ_section_title
;
Structure prediction by ZEFSAII (Michael W. Deem and Ramdas Pophale) SiO2 
 PCOD8021397
Probable space group: P -1
;
_chemical_formula_sum "Si O2"
_cell_formula_units_Z 16
_cell_length_a 9.116913
_cell_length_b 11.309912
_cell_length_c 16.012312
_cell_angle_alpha 72.254291
_cell_angle_beta 65.232956
_cell_angle_gamma 127.418358
_cell_volume 751.567580
_symmetry_space_group_name_H-M "P -1"
_symmetry_group_IT_number 2
_symmetry_cell_setting 'triclinic'
loop_
_space_group_symop_operation_xyz
x,y,z
-x,-y,-z
loop_
_atom_site_type_symbol
_atom_site_label
_atom_site_fract_x
_atom_site_fract_y
_atom_site_fract_z
Si Si1 0.534042 0.584900 0.884131
Si Si2 0.637822 0.260037 0.141610
Si Si3 0.870912 0.146615 0.374712
Si Si4 0.796522 0.748743 0.119938
Si Si5 0.190854 0.475833 0.381257
Si Si6 0.865610 0.234965 0.857152
Si Si7 0.189561 0.764678 0.312165
Si Si8 0.701654 0.272741 0.306457
O O1 0.497262 0.707659 0.879139
O O2 0.289089 0.371677 0.921889
O O3 0.875636 0.787251 0.724356
O O4 0.500000 0.500000 0.000000
O O5 0.532664 0.191004 0.277685
O O6 0.507908 0.049981 0.176474
O O7 0.000000 0.500000 0.000000
O O8 0.812430 0.201822 0.299432
O O9 0.960098 0.290700 0.401582
O O10 0.554793 0.867712 0.530975
O O11 0.494110 0.590683 0.276845
O O12 0.995509 0.789811 0.121758
O O13 0.000000 0.000000 0.000000
O O14 0.278193 0.677778 0.310567
O O15 0.034772 0.344886 0.535369
O O16 0.975388 0.304305 0.719718
O O17 0.996358 0.446391 0.819687
O O18 0.500000 0.000000 0.000000
#
# Coordination Sequence:
#
# PCOD8021397 Si02
#       8
#     2   2   2   2   2   2   2   2
#     4  11  26  46  66 100 131 171 220 278 331 384
#     4  12  25  41  66  98 130 171 223 274 322 391
#     4  10  22  43  71  96 134 168 218 276 328 391
#     4  11  26  44  69  95 133 176 218 271 335 388
#     4  10  22  44  68  98 133 171 216 273 330 388
#     4  12  25  43  66  97 135 177 220 267 323 396
#     4  11  24  42  68  95 135 174 217 268 325 391
#     4  11  22  43  66 100 126 177 220 262 338 383
#
# _framework density 21.288837999999998
#
# number of rings (size 3 to 8) (size 9 to 14) (size 15 to 20)
#    0.000    1.000    3.750    2.250    5.250    2.000 
#    2.250    0.000    0.000    0.000    0.000    0.000 
#    0.000    0.000    0.000    0.000    0.000    0.000 
#
# Total GULP energy -198436.678783 kJ/mol
# GULP energy per Si atom -12402.292424 kJ/mol
# Density = 2.124038 g / cm^3
# Si number density = 21.288838 Si / 1000 Ang^3
#
#
#
# Elastic Constant Matrix: (Units=GPa)
#
#
# Indices 1 2 3 4 5 6 
#
# 1 157.8495 39.5443 64.2317 -0.2653 8.4596 10.1922
# 2 39.5443 82.5553 19.3435 -4.5066 5.4745 -0.4642
# 3 64.2317 19.3435 69.4568 -6.3356 1.9628 -4.4010
# 4 -0.2653 -4.5066 -6.3356 43.9589 5.0534 9.3131
# 5 8.4596 5.4745 1.9628 5.0534 41.4346 3.2126
# 6 10.1922 -0.4642 -4.4010 9.3131 3.2126 35.3539
#
#
#
# Elastic Compliance Matrix: (Units=1/GPa)
#
#
# Indices 1 2 3 4 5 6 
#
# 1 0.011597 -0.003168 -0.010151 -0.000670 -0.001047 -0.004377
# 2 -0.003168 0.013974 -0.000755 0.001297 -0.001383 0.000787
# 3 -0.010151 -0.000755 0.024528 0.002225 0.000324 0.005354
# 4 -0.000670 0.001297 0.002225 0.024734 -0.002708 -0.005782
# 5 -0.001047 -0.001383 0.000324 -0.002708 0.024941 -0.001229
# 6 -0.004377 0.000787 0.005354 -0.005782 -0.001229 0.031859
#
#
# Mechanical properties :
#
#
# Convention : Reuss Voigt Hill
#
# Bulk Modulus (GPa) = 45.55491 61.78894 53.67192
# Shear Modulus (GPa) = 29.92214 36.59897 33.26056
#
# Velocity S-wave (km/s) = 3.75311 4.15078 3.95694
# Velocity P-wave (km/s) = 6.34240 7.21520 6.79283
#
# Compressibility (1/GPa) = 0.02195153
#
# Stress axis : x y z
#
# Youngs Moduli (GPa) = 86.22749 71.55902 40.76925
#
# Poissons Ratio (x) = 0.22672 0.41386
# Poissons Ratio (y) = 0.27320 0.03076
# Poissons Ratio (z) = 0.87532 0.05400
#
# Static dielectric constant tensor:
#      x y z
#    x 4.016330 0.231800 0.273370 
#    y 0.231800 4.130800 0.118930 
#    z 0.273370 0.118930 4.071350 
# 
# 
# High freq. dielectric constant tensor:
#      x y z
#    x 1.835870 0.007860 0.011900 
#    y 0.007860 1.836330 -0.003250 
#    z 0.011900 -0.003250 1.849390 
# 
# From -- ./inp_files/208278.got.cif
#   From: 2010.06.25/outbox.cif.g09.slc.cpg/sg2_105_cif.got.tgz:208278.got - 2010.06.27 13:26:56.
