data_PCOD8021082
_publ_section_title
;
Structure prediction by ZEFSAII (Michael W. Deem and Ramdas Pophale) SiO2 
 PCOD8021082
Probable space group: P -1
;
_chemical_formula_sum "Si O2"
_cell_formula_units_Z 14
_cell_length_a 11.485761
_cell_length_b 6.760666
_cell_length_c 9.851034
_cell_angle_alpha 71.600364
_cell_angle_beta 77.358352
_cell_angle_gamma 104.393016
_cell_volume 665.258454
_symmetry_space_group_name_H-M "P -1"
_symmetry_group_IT_number 2
_symmetry_cell_setting 'triclinic'
loop_
_space_group_symop_operation_xyz
x,y,z
-x,-y,-z
loop_
_atom_site_type_symbol
_atom_site_label
_atom_site_fract_x
_atom_site_fract_y
_atom_site_fract_z
Si Si1 0.133538 0.996323 0.252306
Si Si2 0.965687 0.267875 0.220075
Si Si3 0.857713 0.250374 0.961440
Si Si4 0.437437 0.926889 0.886570
Si Si5 0.766341 0.202350 0.505967
Si Si6 0.378794 0.249658 0.263941
Si Si7 0.438199 0.618459 0.382663
O O1 0.122826 0.917528 0.117632
O O2 0.136109 0.797475 0.395732
O O3 0.014363 0.072625 0.302968
O O4 0.265257 0.205220 0.192118
O O5 0.079709 0.498538 0.159677
O O6 0.843790 0.275772 0.332157
O O7 0.927150 0.215088 0.086053
O O8 0.710448 0.202040 0.035042
O O9 0.494638 0.751237 0.844393
O O10 0.465626 0.139387 0.734404
O O11 0.500000 0.000000 0.000000
O O12 0.692282 0.371003 0.522186
O O13 0.664471 0.952607 0.570822
O O14 0.404283 0.480875 0.281892
O O15 0.500000 0.500000 0.500000
#
# Coordination Sequence:
#
# PCOD8021082 Si02
#       7
#     2   2   2   2   2   2   2
#     4  10  22  43  67  95 132 172 225 269 324 398
#     4  11  25  42  67  95 137 180 215 271 335 389
#     4  11  25  43  64  98 139 171 223 272 331 397
#     4  11  23  44  68  98 133 171 220 283 325 404
#     4   9  23  43  66  96 128 171 224 276 316 401
#     4   9  23  40  68  96 129 169 223 274 337 382
#     4  11  25  42  67 102 131 172 221 278 342 388
#
# _framework density 21.044454000000002
#
# number of rings (size 3 to 8) (size 9 to 14) (size 15 to 20)
#    0.857    0.857    1.429    0.857    8.000    4.571 
#    2.571    0.000    0.000    0.000    0.000    0.000 
#    0.000    0.000    0.000    0.000    0.000    0.000 
#
# Total GULP energy -173574.754354 kJ/mol
# GULP energy per Si atom -12398.196740 kJ/mol
# Density = 2.099656 g / cm^3
# Si number density = 21.044454 Si / 1000 Ang^3
#
#
#
# Elastic Constant Matrix: (Units=GPa)
#
#
# Indices 1 2 3 4 5 6 
#
# 1 94.0631 48.2252 25.9453 2.3061 -9.7247 -21.5656
# 2 48.2252 109.4512 28.6703 27.4587 -14.8015 -11.8953
# 3 25.9453 28.6703 86.1149 10.8115 -13.9204 -13.0405
# 4 2.3061 27.4587 10.8115 27.7469 -2.9867 -2.4387
# 5 -9.7247 -14.8015 -13.9204 -2.9867 39.2320 -0.9359
# 6 -21.5656 -11.8953 -13.0405 -2.4387 -0.9359 43.3285
#
#
#
# Elastic Compliance Matrix: (Units=1/GPa)
#
#
# Indices 1 2 3 4 5 6 
#
# 1 0.016590 -0.007934 -0.002304 0.007999 0.001050 0.005858
# 2 -0.007934 0.017178 -0.000927 -0.015687 0.002983 -0.000330
# 3 -0.002304 -0.000927 0.014122 -0.003738 0.003870 0.002722
# 4 0.007999 -0.015687 -0.003738 0.052351 -0.001242 0.001469
# 5 0.001050 0.002983 0.003870 -0.001242 0.028227 0.003046
# 6 0.005858 -0.000330 0.002722 0.001469 0.003046 0.026872
#
#
# Mechanical properties :
#
#
# Convention : Reuss Voigt Hill
#
# Bulk Modulus (GPa) = 39.12358 55.03452 47.07905
# Shear Modulus (GPa) = 26.85400 34.51404 30.68402
#
# Velocity S-wave (km/s) = 3.57607 4.05415 3.82259
# Velocity P-wave (km/s) = 5.97347 6.93709 6.47324
#
# Compressibility (1/GPa) = 0.02556003
#
# Stress axis : x y z
#
# Youngs Moduli (GPa) = 60.27698 58.21326 70.80929
#
# Poissons Ratio (x) = 0.46187 0.16316
# Poissons Ratio (y) = 0.47825 0.06564
# Poissons Ratio (z) = 0.13889 0.05396
#
# Static dielectric constant tensor:
#      x y z
#    x 3.861180 0.123180 -0.052700 
#    y 0.123180 3.821910 0.065560 
#    z -0.052700 0.065560 3.664650 
# 
# 
# High freq. dielectric constant tensor:
#      x y z
#    x 1.827660 -0.006620 -0.002410 
#    y -0.006620 1.823390 0.012490 
#    z -0.002410 0.012490 1.817210 
# 
# From -- ./inp_files/409038.got.cif
#   From: 2010.06.25/outbox.cif.g09.slc.cpg/sg2_205_cif.got.tgz:409038.got - 2010.06.27 13:26:56.
