data_PCOD8021695
_publ_section_title
;
Structure prediction by ZEFSAII (Michael W. Deem and Ramdas Pophale) SiO2 
 PCOD8021695
Probable space group: P -1
;
_chemical_formula_sum "Si O2"
_cell_formula_units_Z 12
_cell_length_a 19.159856
_cell_length_b 5.171279
_cell_length_c 8.915323
_cell_angle_alpha 120.329549
_cell_angle_beta 45.900630
_cell_angle_gamma 115.765123
_cell_volume 542.571434
_symmetry_space_group_name_H-M "P -1"
_symmetry_group_IT_number 2
_symmetry_cell_setting 'triclinic'
loop_
_space_group_symop_operation_xyz
x,y,z
-x,-y,-z
loop_
_atom_site_type_symbol
_atom_site_label
_atom_site_fract_x
_atom_site_fract_y
_atom_site_fract_z
Si Si1 0.016287 0.761397 0.172429
Si Si2 0.303818 0.898908 0.416169
Si Si3 0.565276 0.797851 0.434188
Si Si4 0.287465 0.418402 0.082554
Si Si5 0.085246 0.432832 0.243579
Si Si6 0.795989 0.711552 0.536741
O O1 0.084515 0.643526 0.161922
O O2 0.911218 0.822313 0.412291
O O3 0.070850 0.076108 0.116835
O O4 0.000000 0.500000 0.000000
O O5 0.390831 0.027391 0.433655
O O6 0.248542 0.165143 0.511428
O O7 0.347581 0.721157 0.158245
O O8 0.224951 0.656573 0.551212
O O9 0.500000 0.500000 0.500000
O O10 0.500000 0.000000 0.500000
O O11 0.651629 0.727049 0.175604
O O12 0.190072 0.526102 0.190250
O O13 0.254797 0.186967 0.202743
O O14 0.000000 0.500000 0.500000
#
# Coordination Sequence:
#
# PCOD8021695 Si02
#       6
#     2   2   2   2   2   2
#     4  12  26  39  66 104 148 183 236 279 333 402
#     4  10  24  46  70  97 136 174 230 282 349 406
#     4  12  29  48  72 104 131 174 235 288 352 419
#     4  10  27  43  76  95 145 181 227 282 349 396
#     4  12  24  43  68 101 141 188 233 275 333 420
#     4  10  22  44  66  99 140 187 219 272 346 400
#
# _framework density 22.116903000000001
#
# number of rings (size 3 to 8) (size 9 to 14) (size 15 to 20)
#    1.000    0.000    1.667    4.000    9.333    1.333 
#    0.000    0.000    0.000    0.000    0.000    0.000 
#    0.000    0.000    0.000    0.000    0.000    0.000 
#
# Total GULP energy -148745.571756 kJ/mol
# GULP energy per Si atom -12395.464313 kJ/mol
# Density = 2.206656 g / cm^3
# Si number density = 22.116903 Si / 1000 Ang^3
#
#
#
# Elastic Constant Matrix: (Units=GPa)
#
#
# Indices 1 2 3 4 5 6 
#
# 1 188.5282 50.7965 38.0352 6.0864 3.4132 -10.4935
# 2 50.7965 100.4949 4.2329 4.2949 1.2474 -11.3354
# 3 38.0352 4.2329 106.5709 5.6374 -2.3606 10.0241
# 4 6.0864 4.2949 5.6374 31.3178 7.7994 3.7507
# 5 3.4132 1.2474 -2.3606 7.7994 30.3053 9.7352
# 6 -10.4935 -11.3354 10.0241 3.7507 9.7352 50.7857
#
#
#
# Elastic Compliance Matrix: (Units=1/GPa)
#
#
# Indices 1 2 3 4 5 6 
#
# 1 0.006746 -0.003118 -0.002428 -0.000319 -0.001198 0.001430
# 2 -0.003118 0.011797 0.000506 -0.001241 -0.000439 0.002065
# 3 -0.002428 0.000506 0.010644 -0.001785 0.002449 -0.002827
# 4 -0.000319 -0.001241 -0.001785 0.034760 -0.008713 -0.000888
# 5 -0.001198 -0.000439 0.002449 -0.008713 0.037982 -0.007466
# 6 0.001430 0.002065 -0.002827 -0.000888 -0.007466 0.022502
#
#
# Mechanical properties :
#
#
# Convention : Reuss Voigt Hill
#
# Bulk Modulus (GPa) = 52.33544 64.63591 58.48567
# Shear Modulus (GPa) = 35.49129 42.65039 39.07084
#
# Velocity S-wave (km/s) = 4.01023 4.39613 4.20761
# Velocity P-wave (km/s) = 6.71990 7.41997 7.07860
#
# Compressibility (1/GPa) = 0.01910751
#
# Stress axis : x y z
#
# Youngs Moduli (GPa) = 148.24327 84.76990 93.94542
#
# Poissons Ratio (x) = 0.26428 0.22809
# Poissons Ratio (y) = 0.46216 -0.04752
# Poissons Ratio (z) = 0.35992 -0.04288
#
# Static dielectric constant tensor:
#      x y z
#    x 4.061640 -0.156580 0.430160 
#    y -0.156580 4.144000 0.025040 
#    z 0.430160 0.025040 3.857870 
# 
# 
# High freq. dielectric constant tensor:
#      x y z
#    x 1.882100 -0.008450 0.014150 
#    y -0.008450 1.880010 0.010410 
#    z 0.014150 0.010410 1.849180 
# 
# From -- ./inp_files/89555.got.cif
#   From: 2010.06.25/outbox.cif.g09.slc.cpg/sg2_45_cif.got.tgz:89555.got - 2010.06.27 13:26:56.
