data_PCOD8021680
_publ_section_title
;
Structure prediction by ZEFSAII (Michael W. Deem and Ramdas Pophale) SiO2 
 PCOD8021680
Probable space group: P -1
;
_chemical_formula_sum "Si O2"
_cell_formula_units_Z 14
_cell_length_a 11.309223
_cell_length_b 17.233587
_cell_length_c 8.739136
_cell_angle_alpha 75.838308
_cell_angle_beta 138.655490
_cell_angle_gamma 135.135975
_cell_volume 624.691917
_symmetry_space_group_name_H-M "P -1"
_symmetry_group_IT_number 2
_symmetry_cell_setting 'triclinic'
loop_
_space_group_symop_operation_xyz
x,y,z
-x,-y,-z
loop_
_atom_site_type_symbol
_atom_site_label
_atom_site_fract_x
_atom_site_fract_y
_atom_site_fract_z
Si Si1 0.598036 0.017196 0.915846
Si Si2 0.180537 0.076492 0.796931
Si Si3 0.805390 0.273513 0.634283
Si Si4 0.199215 0.554352 0.314799
Si Si5 0.133037 0.263801 0.122148
Si Si6 0.210438 0.970000 0.332560
Si Si7 0.839167 0.367504 0.325414
O O1 0.318482 0.941134 0.569378
O O2 0.914050 0.181378 0.099887
O O3 0.500000 0.000000 0.000000
O O4 0.660038 0.947013 0.988129
O O5 0.942880 0.013635 0.730227
O O6 0.468413 0.245412 0.986418
O O7 0.000000 0.000000 0.500000
O O8 0.735046 0.337348 0.591561
O O9 0.878253 0.305494 0.507145
O O10 0.501936 0.107960 0.450858
O O11 0.098024 0.338671 0.973112
O O12 0.514761 0.624566 0.538701
O O13 0.014658 0.423251 0.306725
O O14 0.000000 0.500000 0.000000
O O15 0.036954 0.159473 0.959447
O O16 0.000000 0.500000 0.500000
#
# Coordination Sequence:
#
# PCOD8021680 Si02
#       7
#     2   2   2   2   2   2   2
#     4  11  23  40  63 106 136 165 218 285 335 399
#     4  12  24  39  69  99 133 176 214 276 347 385
#     4  10  22  44  66  96 132 170 220 274 332 393
#     4  11  26  42  64  92 135 180 223 270 320 401
#     4  11  24  42  70  97 130 179 222 270 338 395
#     4  11  22  41  70 100 129 166 222 278 333 402
#     4  10  23  43  64  94 133 175 224 270 322 405
#
# _framework density 22.411047
#
# number of rings (size 3 to 8) (size 9 to 14) (size 15 to 20)
#    0.000    1.143    1.429    6.000    4.000    2.857 
#    0.000    2.857    0.000    0.000    0.000    0.000 
#    0.000    0.000    0.000    0.000    0.000    0.000 
#
# Total GULP energy -173565.903088 kJ/mol
# GULP energy per Si atom -12397.564506 kJ/mol
# Density = 2.236004 g / cm^3
# Si number density = 22.411047 Si / 1000 Ang^3
#
#
#
# Elastic Constant Matrix: (Units=GPa)
#
#
# Indices 1 2 3 4 5 6 
#
# 1 111.1356 42.8785 43.8715 -20.2785 13.4543 26.0434
# 2 42.8785 120.4639 58.4187 -20.5536 -1.3815 24.5281
# 3 43.8715 58.4187 159.2384 -5.1508 12.0902 20.1241
# 4 -20.2785 -20.5536 -5.1508 33.5323 -3.8424 -0.9153
# 5 13.4543 -1.3815 12.0902 -3.8424 38.0713 -8.8131
# 6 26.0434 24.5281 20.1241 -0.9153 -8.8131 47.4643
#
#
#
# Elastic Compliance Matrix: (Units=1/GPa)
#
#
# Indices 1 2 3 4 5 6 
#
# 1 0.013672 -0.001667 -0.001695 0.006194 -0.005300 -0.006787
# 2 -0.001667 0.012438 -0.003615 0.006195 0.002006 -0.003488
# 3 -0.001695 -0.003615 0.008370 -0.002303 -0.002724 -0.001301
# 4 0.006194 0.006195 -0.002303 0.037049 0.001431 -0.004643
# 5 -0.005300 0.002006 -0.002724 0.001431 0.031273 0.008860
# 6 -0.006787 -0.003488 -0.001301 -0.004643 0.008860 0.028702
#
#
# Mechanical properties :
#
#
# Convention : Reuss Voigt Hill
#
# Bulk Modulus (GPa) = 48.71698 75.68613 62.20156
# Shear Modulus (GPa) = 32.83023 40.19151 36.51087
#
# Velocity S-wave (km/s) = 3.83157 4.23943 4.04065
# Velocity P-wave (km/s) = 6.43115 7.60321 7.04161
#
# Compressibility (1/GPa) = 0.02052672
#
# Stress axis : x y z
#
# Youngs Moduli (GPa) = 73.14054 80.39972 119.47846
#
# Poissons Ratio (x) = 0.13401 0.20251
# Poissons Ratio (y) = 0.12191 0.43190
# Poissons Ratio (z) = 0.12397 0.29063
#
# Static dielectric constant tensor:
#      x y z
#    x 4.839010 0.131170 -0.041510 
#    y 0.131170 4.716290 -0.203570 
#    z -0.041510 -0.203570 4.172660 
# 
# 
# High freq. dielectric constant tensor:
#      x y z
#    x 1.877940 0.011460 -0.004280 
#    y 0.011460 1.889910 -0.012260 
#    z -0.004280 -0.012260 1.887430 
# 
# From -- ./inp_files/183838.got.cif
#   From: 2010.06.25/outbox.cif.g09.slc.cpg/sg2_92_cif.got.tgz:183838.got - 2010.06.27 13:26:56.
