data_PCOD8021991
_publ_section_title
;
Structure prediction by ZEFSAII (Michael W. Deem and Ramdas Pophale) SiO2 
 PCOD8021991
Probable space group: P -1
;
_chemical_formula_sum "Si O2"
_cell_formula_units_Z 14
_cell_length_a 13.087245
_cell_length_b 6.689660
_cell_length_c 13.262138
_cell_angle_alpha 96.682847
_cell_angle_beta 32.449874
_cell_angle_gamma 85.965793
_cell_volume 586.997871
_symmetry_space_group_name_H-M "P -1"
_symmetry_group_IT_number 2
_symmetry_cell_setting 'triclinic'
loop_
_space_group_symop_operation_xyz
x,y,z
-x,-y,-z
loop_
_atom_site_type_symbol
_atom_site_label
_atom_site_fract_x
_atom_site_fract_y
_atom_site_fract_z
Si Si1 0.403920 0.327198 0.535534
Si Si2 0.753001 0.066000 0.563459
Si Si3 0.389318 0.106092 0.741710
Si Si4 0.149688 0.773585 0.143486
Si Si5 0.539895 0.840329 0.866280
Si Si6 0.031838 0.466983 0.089503
Si Si7 0.817780 0.416394 0.673892
O O1 0.500000 0.500000 0.500000
O O2 0.367161 0.195806 0.652865
O O3 0.189465 0.459746 0.669919
O O4 0.544936 0.152651 0.330291
O O5 0.557182 0.180523 0.665949
O O6 0.818633 0.222971 0.590407
O O7 0.705248 0.883117 0.658316
O O8 0.937641 0.960687 0.328842
O O9 0.168655 0.220498 0.982675
O O10 0.157100 0.613967 0.036264
O O11 0.173247 0.651697 0.222481
O O12 0.331170 0.871597 0.982267
O O13 0.612465 0.604539 0.836672
O O14 0.500000 0.000000 0.000000
O O15 0.000000 0.500000 0.000000
O O16 0.000000 0.500000 0.500000
#
# Coordination Sequence:
#
# PCOD8021991 Si02
#       7
#     2   2   2   2   2   2   2
#     4  10  22  44  71  97 136 181 233 288 352 416
#     4  12  25  46  69 104 143 181 238 292 354 432
#     4  10  23  43  68  98 138 179 227 295 349 411
#     4  12  24  46  72 100 143 186 235 299 354 421
#     4  12  26  44  70 101 141 188 237 290 353 425
#     4  10  23  44  69  98 137 180 233 290 348 421
#     4  12  25  44  70 100 141 186 231 289 358 422
#
# _framework density 23.850171
#
# number of rings (size 3 to 8) (size 9 to 14) (size 15 to 20)
#    0.000    0.857    4.286    2.571    2.000    5.143 
#    2.571    0.000    0.000    0.000    0.000    0.000 
#    0.000    0.000    0.000    0.000    0.000    0.000 
#
# Total GULP energy -173567.400609 kJ/mol
# GULP energy per Si atom -12397.671472 kJ/mol
# Density = 2.379589 g / cm^3
# Si number density = 23.850171 Si / 1000 Ang^3
#
#
#
# Elastic Constant Matrix: (Units=GPa)
#
#
# Indices 1 2 3 4 5 6 
#
# 1 123.9928 36.2268 39.2465 21.5222 -13.1311 35.2031
# 2 36.2268 108.3900 63.5585 25.5705 -16.2185 35.9112
# 3 39.2465 63.5585 118.6058 40.0427 -31.4822 14.6756
# 4 21.5222 25.5705 40.0427 49.0225 -2.6968 -7.6388
# 5 -13.1311 -16.2185 -31.4822 -2.6968 48.1360 4.9713
# 6 35.2031 35.9112 14.6756 -7.6388 4.9713 50.0853
#
#
#
# Elastic Compliance Matrix: (Units=1/GPa)
#
#
# Indices 1 2 3 4 5 6 
#
# 1 0.013130 0.002852 0.000490 -0.009429 0.005721 -0.013423
# 2 0.002852 0.019820 -0.004466 -0.010283 0.005719 -0.017043
# 3 0.000490 -0.004466 0.018822 -0.013570 0.010777 -0.005796
# 4 -0.009429 -0.010283 -0.013570 0.044240 -0.015142 0.026227
# 5 0.005721 0.005719 0.010777 -0.015142 0.032196 -0.016784
# 6 -0.013423 -0.017043 -0.005796 0.026227 -0.016784 0.048985
#
#
# Mechanical properties :
#
#
# Convention : Reuss Voigt Hill
#
# Bulk Modulus (GPa) = 20.19264 69.89470 45.04367
# Shear Modulus (GPa) = 25.51687 43.57920 34.54804
#
# Velocity S-wave (km/s) = 3.27445 4.27922 3.81010
# Velocity P-wave (km/s) = 4.77293 7.33383 6.18732
#
# Compressibility (1/GPa) = 0.04952301
#
# Stress axis : x y z
#
# Youngs Moduli (GPa) = 76.16007 50.45432 53.13012
#
# Poissons Ratio (x) = -0.14391 -0.02602
# Poissons Ratio (y) = -0.21722 0.23730
# Poissons Ratio (z) = -0.03729 0.22534
#
# Static dielectric constant tensor:
#      x y z
#    x 4.406680 0.039130 -0.429230 
#    y 0.039130 4.442280 0.469780 
#    z -0.429230 0.469780 5.280790 
# 
# 
# High freq. dielectric constant tensor:
#      x y z
#    x 1.960400 0.010340 -0.013650 
#    y 0.010340 1.930650 0.023340 
#    z -0.013650 0.023340 1.956460 
# 
# From -- ./inp_files/98473.got.cif
#   From: 2010.06.25/outbox.cif.g09.slc.cpg/sg2_50_cif.got.tgz:98473.got - 2010.06.27 13:26:56.
