data_PCOD8021066
_publ_section_title
;
Structure prediction by ZEFSAII (Michael W. Deem and Ramdas Pophale) SiO2 
 PCOD8021066
Probable space group: P -1
;
_chemical_formula_sum "Si O2"
_cell_formula_units_Z 16
_cell_length_a 8.807536
_cell_length_b 13.648771
_cell_length_c 18.371568
_cell_angle_alpha 144.407102
_cell_angle_beta 130.229398
_cell_angle_gamma 75.827717
_cell_volume 761.380754
_symmetry_space_group_name_H-M "P -1"
_symmetry_group_IT_number 2
_symmetry_cell_setting 'triclinic'
loop_
_space_group_symop_operation_xyz
x,y,z
-x,-y,-z
loop_
_atom_site_type_symbol
_atom_site_label
_atom_site_fract_x
_atom_site_fract_y
_atom_site_fract_z
Si Si1 0.068572 0.347780 0.449380
Si Si2 0.183814 0.516075 0.237807
Si Si3 0.321276 0.918717 0.118696
Si Si4 0.624876 0.678209 0.584690
Si Si5 0.643624 0.663049 0.211388
Si Si6 0.446648 0.052500 0.936612
Si Si7 0.765159 0.092166 0.469676
Si Si8 0.464410 0.445870 0.177072
O O1 0.136060 0.288701 0.359224
O O2 0.277660 0.411827 0.611579
O O3 0.000000 0.500000 0.500000
O O4 0.819363 0.159433 0.301928
O O5 0.390702 0.571081 0.393198
O O6 0.223725 0.737916 0.371713
O O7 0.243593 0.451278 0.142351
O O8 0.898208 0.313567 0.053115
O O9 0.334220 0.873802 0.010206
O O10 0.260419 0.084845 0.206483
O O11 0.597051 0.034793 0.310965
O O12 0.500000 0.500000 0.500000
O O13 0.496733 0.514519 0.145444
O O14 0.941211 0.779243 0.382494
O O15 0.631737 0.860324 0.326577
O O16 0.500000 0.500000 0.000000
O O17 0.377451 0.209713 0.015684
O O18 0.500000 0.000000 0.000000
#
# Coordination Sequence:
#
# PCOD8021066 Si02
#       8
#     2   2   2   2   2   2   2   2
#     4  11  22  41  60  87 128 163 212 260 307 368
#     4  10  23  41  63  90 128 167 212 259 318 379
#     4  11  23  42  63  89 130 167 211 263 315 380
#     4  10  23  37  60  88 122 173 213 260 315 370
#     4  11  23  42  70  97 126 160 210 262 317 381
#     4  12  24  36  61  91 122 168 212 256 312 367
#     4  10  22  43  67  94 121 164 209 255 325 376
#     4  11  24  42  63  94 127 165 211 261 314 375
#
# _framework density 21.014453
#
# number of rings (size 3 to 8) (size 9 to 14) (size 15 to 20)
#    0.000    1.250    1.250    4.500    3.500    4.000 
#    0.000    2.500    0.000    0.000    0.000    0.000 
#    0.000    0.000    0.000    0.000    0.000    0.000 
#
# Total GULP energy -198265.807069 kJ/mol
# GULP energy per Si atom -12391.612942 kJ/mol
# Density = 2.096662 g / cm^3
# Si number density = 21.014453 Si / 1000 Ang^3
#
#
#
# Elastic Constant Matrix: (Units=GPa)
#
#
# Indices 1 2 3 4 5 6 
#
# 1 139.4649 69.4794 49.9027 9.4319 -14.8629 -0.7845
# 2 69.4794 125.0311 42.3612 26.0212 -13.7485 3.5803
# 3 49.9027 42.3612 117.8709 22.7423 -4.6583 -0.4241
# 4 9.4319 26.0212 22.7423 38.3894 -9.4823 -6.6123
# 5 -14.8629 -13.7485 -4.6583 -9.4823 38.5666 8.6657
# 6 -0.7845 3.5803 -0.4241 -6.6123 8.6657 38.8584
#
#
#
# Elastic Compliance Matrix: (Units=1/GPa)
#
#
# Indices 1 2 3 4 5 6 
#
# 1 0.011196 -0.005609 -0.003355 0.003832 0.002681 0.000760
# 2 -0.005609 0.013141 -0.000927 -0.007149 0.001291 -0.002838
# 3 -0.003355 -0.000927 0.011273 -0.005692 -0.001553 -0.000481
# 4 0.003832 -0.007149 -0.005692 0.035695 0.005791 0.005457
# 5 0.002681 0.001291 -0.001553 0.005791 0.029957 -0.005777
# 6 0.000760 -0.002838 -0.000481 0.005457 -0.005777 0.028223
#
#
# Mechanical properties :
#
#
# Convention : Reuss Voigt Hill
#
# Bulk Modulus (GPa) = 63.18814 78.42819 70.80817
# Shear Modulus (GPa) = 32.35348 37.87109 35.11229
#
# Velocity S-wave (km/s) = 3.92801 4.24977 4.09205
# Velocity P-wave (km/s) = 7.12085 7.84110 7.48964
#
# Compressibility (1/GPa) = 0.01582575
#
# Stress axis : x y z
#
# Youngs Moduli (GPa) = 89.31704 76.10042 88.71140
#
# Poissons Ratio (x) = 0.42689 0.29761
# Poissons Ratio (y) = 0.50102 0.08227
# Poissons Ratio (z) = 0.29964 0.07058
#
# Static dielectric constant tensor:
#      x y z
#    x 4.261240 -0.346500 -0.089870 
#    y -0.346500 4.192400 0.036670 
#    z -0.089870 0.036670 4.133510 
# 
# 
# High freq. dielectric constant tensor:
#      x y z
#    x 1.828330 -0.012400 -0.002750 
#    y -0.012400 1.823380 0.009030 
#    z -0.002750 0.009030 1.837240 
# 
# From -- ./inp_files/90830.got.cif
#   From: 2010.06.25/outbox.cif.g09.slc.cpg/sg2_46_cif.got.tgz:90830.got - 2010.06.27 13:26:56.
