data_PCOD8021087
_publ_section_title
;
Structure prediction by ZEFSAII (Michael W. Deem and Ramdas Pophale) SiO2 
 PCOD8021087
Probable space group: P -1
;
_chemical_formula_sum "Si O2"
_cell_formula_units_Z 12
_cell_length_a 8.897261
_cell_length_b 11.995538
_cell_length_c 9.368875
_cell_angle_alpha 39.724578
_cell_angle_beta 58.695271
_cell_angle_gamma 57.098623
_cell_volume 526.800626
_symmetry_space_group_name_H-M "P -1"
_symmetry_group_IT_number 2
_symmetry_cell_setting 'triclinic'
loop_
_space_group_symop_operation_xyz
x,y,z
-x,-y,-z
loop_
_atom_site_type_symbol
_atom_site_label
_atom_site_fract_x
_atom_site_fract_y
_atom_site_fract_z
Si Si1 0.626702 0.884336 0.700386
Si Si2 0.955756 0.176258 0.752484
Si Si3 0.894628 0.644111 0.023751
Si Si4 0.071384 0.944220 0.672016
Si Si5 0.336349 0.219901 0.519610
Si Si6 0.332615 0.487617 0.496705
O O1 0.623108 0.750913 0.698324
O O2 0.720958 0.040471 0.438953
O O3 0.427487 0.007130 0.723525
O O4 0.724591 0.777635 0.894408
O O5 0.762352 0.324219 0.724040
O O6 0.119558 0.270490 0.600165
O O7 0.946266 0.102884 0.671187
O O8 0.000000 0.000000 0.000000
O O9 0.819925 0.558708 0.280112
O O10 0.000000 0.500000 0.000000
O O11 0.038229 0.748190 0.915536
O O12 0.000000 0.000000 0.500000
O O13 0.409528 0.344838 0.472498
O O14 0.500000 0.500000 0.500000
#
# Coordination Sequence:
#
# PCOD8021087 Si02
#       6
#     2   2   2   2   2   2
#     4   9  21  40  69  97 130 180 220 275 330 400
#     4  11  24  43  66  92 129 181 217 269 342 389
#     4  11  23  40  67  97 137 177 222 272 339 389
#     4   9  19  38  66  94 128 169 222 267 328 396
#     4  10  22  43  67  95 139 169 225 276 334 391
#     4  12  28  42  67 102 140 172 225 282 326 396
#
# _framework density 22.779017
#
# number of rings (size 3 to 8) (size 9 to 14) (size 15 to 20)
#    0.000    1.667    0.000    4.500    9.333    2.000 
#    0.000    0.833    0.000    0.000    0.000    0.000 
#    0.000    0.000    0.000    0.000    0.000    0.000 
#
# Total GULP energy -148669.431598 kJ/mol
# GULP energy per Si atom -12389.119300 kJ/mol
# Density = 2.272717 g / cm^3
# Si number density = 22.779017 Si / 1000 Ang^3
#
#
#
# Elastic Constant Matrix: (Units=GPa)
#
#
# Indices 1 2 3 4 5 6 
#
# 1 106.5941 49.3457 18.2727 -11.0251 13.4795 10.7500
# 2 49.3457 129.3447 19.2645 -4.5158 4.9656 16.5138
# 3 18.2727 19.2645 82.3800 -6.5507 9.7616 1.5589
# 4 -11.0251 -4.5158 -6.5507 30.4682 -0.8274 8.8991
# 5 13.4795 4.9656 9.7616 -0.8274 39.6154 -9.7881
# 6 10.7500 16.5138 1.5589 8.8991 -9.7881 51.0755
#
#
#
# Elastic Compliance Matrix: (Units=1/GPa)
#
#
# Indices 1 2 3 4 5 6 
#
# 1 0.012701 -0.004005 -0.000964 0.004542 -0.004216 -0.002948
# 2 -0.004005 0.009775 -0.001306 0.000408 -0.000118 -0.002372
# 3 -0.000964 -0.001306 0.013210 0.002441 -0.002900 -0.000759
# 4 0.004542 0.000408 0.002441 0.037392 -0.003478 -0.008344
# 5 -0.004216 -0.000118 -0.002900 -0.003478 0.029113 0.007199
# 6 -0.002948 -0.002372 -0.000759 -0.008344 0.007199 0.023823
#
#
# Mechanical properties :
#
#
# Convention : Reuss Voigt Hill
#
# Bulk Modulus (GPa) = 43.22366 54.67607 48.94987
# Shear Modulus (GPa) = 34.18177 39.66087 36.92132
#
# Velocity S-wave (km/s) = 3.87794 4.17719 4.03034
# Velocity P-wave (km/s) = 6.25041 6.87897 6.57221
#
# Compressibility (1/GPa) = 0.02313547
#
# Stress axis : x y z
#
# Youngs Moduli (GPa) = 78.73487 102.29815 75.69877
#
# Poissons Ratio (x) = 0.40971 0.07299
# Poissons Ratio (y) = 0.31534 0.09888
# Poissons Ratio (z) = 0.07591 0.13363
#
# Static dielectric constant tensor:
#      x y z
#    x 1.898800 0.104970 1.355220 
#    y 0.104970 4.034470 0.110030 
#    z 1.355220 0.110030 3.249440 
# 
# 
# High freq. dielectric constant tensor:
#      x y z
#    x 1.911290 0.012050 0.011590 
#    y 0.012050 1.905600 0.003580 
#    z 0.011590 0.003580 1.873590 
# 
# From -- ./inp_files/156480.got.cif
#   From: 2010.06.25/outbox.cif.g09.slc.cpg/sg2_79_cif.got.tgz:156480.got - 2010.06.27 13:26:56.
