data_PCOD8021474
_publ_section_title
;
Structure prediction by ZEFSAII (Michael W. Deem and Ramdas Pophale) SiO2 
 PCOD8021474
Probable space group: P -1
;
_chemical_formula_sum "Si O2"
_cell_formula_units_Z 14
_cell_length_a 10.993642
_cell_length_b 16.383700
_cell_length_c 9.292570
_cell_angle_alpha 105.302435
_cell_angle_beta 52.292271
_cell_angle_gamma 144.864547
_cell_volume 651.431871
_symmetry_space_group_name_H-M "P -1"
_symmetry_group_IT_number 2
_symmetry_cell_setting 'triclinic'
loop_
_space_group_symop_operation_xyz
x,y,z
-x,-y,-z
loop_
_atom_site_type_symbol
_atom_site_label
_atom_site_fract_x
_atom_site_fract_y
_atom_site_fract_z
Si Si1 0.797965 0.129323 0.657117
Si Si2 0.866208 0.028033 0.101529
Si Si3 0.796643 0.644494 0.948579
Si Si4 0.652821 0.326434 0.199024
Si Si5 0.407828 0.843027 0.592959
Si Si6 0.564996 0.902913 0.968707
Si Si7 0.467844 0.425918 0.352251
O O1 0.149215 0.288830 0.436835
O O2 0.587111 0.005856 0.615423
O O3 0.732956 0.035662 0.789274
O O4 0.730396 0.191157 0.794847
O O5 0.111498 0.214089 0.052974
O O6 0.570718 0.893668 0.352333
O O7 0.801269 0.006016 0.971272
O O8 0.000000 0.000000 0.000000
O O9 0.076228 0.718560 0.727722
O O10 0.500000 0.500000 0.000000
O O11 0.730710 0.577140 0.123642
O O12 0.596320 0.239363 0.336075
O O13 0.519817 0.226554 0.100033
O O14 0.498679 0.343882 0.344415
O O15 0.000000 0.500000 0.000000
O O16 0.500000 0.500000 0.500000
#
# Coordination Sequence:
#
# PCOD8021474 Si02
#       7
#     2   2   2   2   2   2   2
#     4  10  22  43  73  99 132 184 233 284 346 414
#     4  12  28  45  71 102 142 186 239 283 345 428
#     4  12  27  48  70 102 145 185 231 290 357 416
#     4  11  24  45  69 103 139 176 232 293 349 403
#     4  11  25  47  73  97 138 190 230 285 349 422
#     4  10  23  42  71  97 138 181 236 280 346 411
#     4  12  26  42  73 103 141 177 234 292 351 407
#
# _framework density 21.491121
#
# number of rings (size 3 to 8) (size 9 to 14) (size 15 to 20)
#    0.000    0.857    2.857    3.000   12.000    1.143 
#    0.000    1.429    0.000    0.000    0.000    0.000 
#    0.000    0.000    0.000    0.000    0.000    0.000 
#
# Total GULP energy -173623.245178 kJ/mol
# GULP energy per Si atom -12401.660370 kJ/mol
# Density = 2.144221 g / cm^3
# Si number density = 21.491121 Si / 1000 Ang^3
#
#
#
# Elastic Constant Matrix: (Units=GPa)
#
#
# Indices 1 2 3 4 5 6 
#
# 1 92.5717 54.8518 34.5969 7.1965 -27.8658 -4.2446
# 2 54.8518 132.8500 39.1372 9.8482 -20.5785 -0.0447
# 3 34.5969 39.1372 91.7851 4.6381 -23.2748 0.3090
# 4 7.1965 9.8482 4.6381 39.2920 2.8326 -5.2084
# 5 -27.8658 -20.5785 -23.2748 2.8326 37.9790 3.8425
# 6 -4.2446 -0.0447 0.3090 -5.2084 3.8425 48.9775
#
#
#
# Elastic Compliance Matrix: (Units=1/GPa)
#
#
# Indices 1 2 3 4 5 6 
#
# 1 0.017448 -0.005052 -0.002049 -0.002254 0.008918 0.000581
# 2 -0.005052 0.010529 -0.002309 -0.001582 0.000766 -0.000642
# 3 -0.002049 -0.002309 0.014290 -0.001297 0.006190 -0.000893
# 4 -0.002254 -0.001582 -0.001297 0.027238 -0.005656 0.003152
# 5 0.008918 0.000766 0.006190 -0.005656 0.037791 -0.002832
# 6 0.000581 -0.000642 -0.000893 0.003152 -0.002832 0.021030
#
#
# Mechanical properties :
#
#
# Convention : Reuss Voigt Hill
#
# Bulk Modulus (GPa) = 42.64891 63.81984 53.23437
# Shear Modulus (GPa) = 32.26593 37.82442 35.04518
#
# Velocity S-wave (km/s) = 3.87894 4.19979 4.04255
# Velocity P-wave (km/s) = 6.32057 7.29918 6.82743
#
# Compressibility (1/GPa) = 0.02344726
#
# Stress axis : x y z
#
# Youngs Moduli (GPa) = 57.31342 94.97588 69.97769
#
# Poissons Ratio (x) = 0.47978 0.14341
# Poissons Ratio (y) = 0.28952 0.16158
# Poissons Ratio (z) = 0.11746 0.21930
#
# Static dielectric constant tensor:
#      x y z
#    x 4.238180 0.459730 0.053920 
#    y 0.459730 4.888310 0.190670 
#    z 0.053920 0.190670 4.151990 
# 
# 
# High freq. dielectric constant tensor:
#      x y z
#    x 1.855860 0.000630 0.001780 
#    y 0.000630 1.842880 0.000480 
#    z 0.001780 0.000480 1.855540 
# 
# From -- ./inp_files/156574.got.cif
#   From: 2010.06.25/outbox.cif.g09.slc.cpg/sg2_79_cif.got.tgz:156574.got - 2010.06.27 13:26:56.
