data_PCOD8021284
_publ_section_title
;
Structure prediction by ZEFSAII (Michael W. Deem and Ramdas Pophale) SiO2 
 PCOD8021284
Probable space group: P -1
;
_chemical_formula_sum "Si O2"
_cell_formula_units_Z 16
_cell_length_a 9.955652
_cell_length_b 9.803219
_cell_length_c 15.522207
_cell_angle_alpha 150.464511
_cell_angle_beta 72.387317
_cell_angle_gamma 97.259813
_cell_volume 680.915239
_symmetry_space_group_name_H-M "P -1"
_symmetry_group_IT_number 2
_symmetry_cell_setting 'triclinic'
loop_
_space_group_symop_operation_xyz
x,y,z
-x,-y,-z
loop_
_atom_site_type_symbol
_atom_site_label
_atom_site_fract_x
_atom_site_fract_y
_atom_site_fract_z
Si Si1 0.560703 0.218577 0.984643
Si Si2 0.680979 0.714278 0.813008
Si Si3 0.965580 0.194650 0.838607
Si Si4 0.711009 0.194896 0.401375
Si Si5 0.746364 0.981560 0.661814
Si Si6 0.122212 0.967632 0.058686
Si Si7 0.492474 0.138607 0.670309
Si Si8 0.188974 0.674355 0.719289
O O1 0.629710 0.041931 0.960087
O O2 0.615838 0.035163 0.787696
O O3 0.385412 0.286532 0.078390
O O4 0.593075 0.524193 0.134481
O O5 0.646406 0.473483 0.627830
O O6 0.851078 0.711803 0.782932
O O7 0.855965 0.167060 0.922849
O O8 0.870479 0.147956 0.747730
O O9 0.121430 0.948849 0.678830
O O10 0.000000 0.500000 0.000000
O O11 0.695203 0.296905 0.360740
O O12 0.607266 0.989918 0.318179
O O13 0.832706 0.642047 0.457103
O O14 0.658708 0.083247 0.645336
O O15 0.225718 0.729620 0.841664
O O16 0.949578 0.046524 0.118586
O O17 0.500000 0.000000 0.500000
#
# Coordination Sequence:
#
# PCOD8021284 Si02
#       8
#     2   2   2   2   2   2   2   2
#     4  11  24  43  64 102 135 185 232 283 349 414
#     4  11  22  41  74  95 136 186 233 286 342 420
#     4  11  24  46  75 103 142 184 235 288 358 417
#     4  11  23  45  74 101 139 187 231 289 351 420
#     4  12  25  44  73 100 141 187 235 289 352 417
#     4  10  22  43  69  98 145 174 233 297 344 407
#     4  12  28  47  67 103 149 184 232 293 354 416
#     4  10  23  42  68 109 132 183 238 288 345 420
#
# _framework density 23.497786999999999
#
# number of rings (size 3 to 8) (size 9 to 14) (size 15 to 20)
#    0.000    1.000    3.750    1.875    3.500    2.500 
#    4.500    1.250    0.000    0.000    0.000    0.000 
#    0.000    0.000    0.000    0.000    0.000    0.000 
#
# Total GULP energy -198216.726991 kJ/mol
# GULP energy per Si atom -12388.545437 kJ/mol
# Density = 2.344430 g / cm^3
# Si number density = 23.497787 Si / 1000 Ang^3
#
#
#
# Elastic Constant Matrix: (Units=GPa)
#
#
# Indices 1 2 3 4 5 6 
#
# 1 104.4240 35.7612 31.8101 3.3377 21.0885 -3.3692
# 2 35.7612 77.4547 51.4113 5.5170 13.9867 9.4564
# 3 31.8101 51.4113 128.9576 8.7998 11.5658 0.5800
# 4 3.3377 5.5170 8.7998 43.8308 5.1163 6.8537
# 5 21.0885 13.9867 11.5658 5.1163 33.8990 4.4585
# 6 -3.3692 9.4564 0.5800 6.8537 4.4585 44.4422
#
#
#
# Elastic Compliance Matrix: (Units=1/GPa)
#
#
# Indices 1 2 3 4 5 6 
#
# 1 0.012683 -0.004551 -0.000785 0.000078 -0.006091 0.002539
# 2 -0.004551 0.020560 -0.006815 0.000134 -0.002772 -0.004374
# 3 -0.000785 -0.006815 0.010789 -0.001442 -0.000362 0.001509
# 4 0.000078 0.000134 -0.001442 0.023940 -0.002776 -0.003417
# 5 -0.006091 -0.002772 -0.000362 -0.002776 0.035367 -0.002987
# 6 0.002539 -0.004374 0.001509 -0.003417 -0.002987 0.024431
#
#
# Mechanical properties :
#
#
# Convention : Reuss Voigt Hill
#
# Bulk Modulus (GPa) = 50.68063 60.97796 55.82929
# Shear Modulus (GPa) = 31.51589 37.22466 34.37028
#
# Velocity S-wave (km/s) = 3.66625 3.98449 3.82868
# Velocity P-wave (km/s) = 6.28784 6.86841 6.58453
#
# Compressibility (1/GPa) = 0.01973140
#
# Stress axis : x y z
#
# Youngs Moduli (GPa) = 78.84384 48.63708 92.68579
#
# Poissons Ratio (x) = 0.22133 0.07275
# Poissons Ratio (y) = 0.35879 0.63167
# Poissons Ratio (z) = 0.06189 0.33147
#
# Static dielectric constant tensor:
#      x y z
#    x 4.375920 0.230230 -0.031740 
#    y 0.230230 4.430030 -0.098000 
#    z -0.031740 -0.098000 4.239580 
# 
# 
# High freq. dielectric constant tensor:
#      x y z
#    x 1.928950 0.011150 -0.000750 
#    y 0.011150 1.927180 -0.003090 
#    z -0.000750 -0.003090 1.936020 
# 
# From -- ./inp_files/516451.got.cif
#   From: 2010.06.25/outbox.cif.g09.slc.cpg/sg2_259_cif.got.tgz:516451.got - 2010.06.27 13:26:56.
