data_PCOD8021762
_publ_section_title
;
Structure prediction by ZEFSAII (Michael W. Deem and Ramdas Pophale) SiO2 
 PCOD8021762
Probable space group: P -1
;
_chemical_formula_sum "Si O2"
_cell_formula_units_Z 16
_cell_length_a 11.759683
_cell_length_b 11.284638
_cell_length_c 18.596028
_cell_angle_alpha 132.323108
_cell_angle_beta 29.093758
_cell_angle_gamma 113.619632
_cell_volume 756.666925
_symmetry_space_group_name_H-M "P -1"
_symmetry_group_IT_number 2
_symmetry_cell_setting 'triclinic'
loop_
_space_group_symop_operation_xyz
x,y,z
-x,-y,-z
loop_
_atom_site_type_symbol
_atom_site_label
_atom_site_fract_x
_atom_site_fract_y
_atom_site_fract_z
Si Si1 0.830096 0.491907 0.525215
Si Si2 0.154050 0.069491 0.128027
Si Si3 0.576099 0.604665 0.249491
Si Si4 0.956386 0.042004 0.367002
Si Si5 0.089962 0.070018 0.910536
Si Si6 0.918157 0.488635 0.154125
Si Si7 0.739018 0.848461 0.651202
Si Si8 0.722223 0.838648 0.490043
O O1 0.541357 0.533586 0.734672
O O2 0.769987 0.648393 0.564010
O O3 0.000000 0.500000 0.500000
O O4 0.987075 0.294537 0.316590
O O5 0.191562 0.977282 0.149304
O O6 0.985334 0.002172 0.147610
O O7 0.444283 0.010358 0.908958
O O8 0.325425 0.813044 0.457851
O O9 0.717418 0.600587 0.244771
O O10 0.784340 0.546998 0.044704
O O11 0.021868 0.139456 0.435979
O O12 0.930315 0.872084 0.341587
O O13 0.412162 0.987788 0.700129
O O14 0.930982 0.296669 0.088856
O O15 0.000000 0.000000 0.000000
O O16 0.801659 0.625604 0.343653
O O17 0.765724 0.870447 0.561324
#
# Coordination Sequence:
#
# PCOD8021762 Si02
#       8
#     2   2   2   2   2   2   2   2
#     4  11  23  42  69 101 133 173 232 280 325 402
#     4  11  25  43  73  97 133 181 228 282 339 392
#     4  10  22  44  68 100 134 170 230 286 331 393
#     4  11  24  46  69 101 137 178 233 280 331 407
#     4  12  26  47  68 100 141 174 225 287 340 410
#     4  11  26  44  72  98 134 179 226 286 342 397
#     4  12  25  45  67 102 142 182 223 278 342 410
#     4  12  27  43  71 101 141 182 225 276 350 406
#
# _framework density 21.145368000000001
#
# number of rings (size 3 to 8) (size 9 to 14) (size 15 to 20)
#    0.000    0.750    5.000    3.000    7.000    1.500 
#    0.000    0.625    0.000    0.000    0.000    0.000 
#    0.000    0.000    0.000    0.000    0.000    0.000 
#
# Total GULP energy -198428.749393 kJ/mol
# GULP energy per Si atom -12401.796837 kJ/mol
# Density = 2.109724 g / cm^3
# Si number density = 21.145368 Si / 1000 Ang^3
#
#
#
# Elastic Constant Matrix: (Units=GPa)
#
#
# Indices 1 2 3 4 5 6 
#
# 1 107.8773 36.0191 36.6977 9.4919 15.8211 3.0461
# 2 36.0191 122.8351 33.2468 10.3437 6.1399 6.1290
# 3 36.6977 33.2468 81.0768 8.4230 11.2207 1.4937
# 4 9.4919 10.3437 8.4230 39.8979 2.5319 3.3903
# 5 15.8211 6.1399 11.2207 2.5319 30.6877 -0.3448
# 6 3.0461 6.1290 1.4937 3.3903 -0.3448 33.1811
#
#
#
# Elastic Compliance Matrix: (Units=1/GPa)
#
#
# Indices 1 2 3 4 5 6 
#
# 1 0.012041 -0.002154 -0.003843 -0.001184 -0.004279 -0.000458
# 2 -0.002154 0.009716 -0.002893 -0.001303 0.000317 -0.001330
# 3 -0.003843 -0.002893 0.015841 -0.001508 -0.003104 0.000296
# 4 -0.001184 -0.001303 -0.001508 0.026244 -0.000768 -0.002272
# 5 -0.004279 0.000317 -0.003104 -0.000768 0.035938 0.000926
# 6 -0.000458 -0.001330 0.000296 -0.002272 0.000926 0.030654
#
#
# Mechanical properties :
#
#
# Convention : Reuss Voigt Hill
#
# Bulk Modulus (GPa) = 50.46214 58.19069 54.32642
# Shear Modulus (GPa) = 32.29566 34.47505 33.38536
#
# Velocity S-wave (km/s) = 3.91233 4.04218 3.97778
# Velocity P-wave (km/s) = 6.65767 7.02600 6.84432
#
# Compressibility (1/GPa) = 0.01981684
#
# Stress axis : x y z
#
# Youngs Moduli (GPa) = 83.04904 102.92337 63.12859
#
# Poissons Ratio (x) = 0.22171 0.24261
# Poissons Ratio (y) = 0.17890 0.18264
# Poissons Ratio (z) = 0.31917 0.29778
#
# Static dielectric constant tensor:
#      x y z
#    x 3.867340 0.018650 -0.105740 
#    y 0.018650 4.070830 -0.079810 
#    z -0.105740 -0.079810 3.926480 
# 
# 
# High freq. dielectric constant tensor:
#      x y z
#    x 1.834580 0.004560 -0.004800 
#    y 0.004560 1.837540 -0.005650 
#    z -0.004800 -0.005650 1.826830 
# 
# From -- ./inp_files/568791.got.cif
#   From: 2010.06.25/outbox.cif.g09.slc.cpg/sg2_285_cif.got.tgz:568791.got - 2010.06.27 13:26:56.
