data_PCOD8021724
_publ_section_title
;
Structure prediction by ZEFSAII (Michael W. Deem and Ramdas Pophale) SiO2 
 PCOD8021724
Probable space group: P -1
;
_chemical_formula_sum "Si O2"
_cell_formula_units_Z 16
_cell_length_a 6.760957
_cell_length_b 20.921792
_cell_length_c 9.788557
_cell_angle_alpha 56.028619
_cell_angle_beta 133.747644
_cell_angle_gamma 124.213755
_cell_volume 792.947013
_symmetry_space_group_name_H-M "P -1"
_symmetry_group_IT_number 2
_symmetry_cell_setting 'triclinic'
loop_
_space_group_symop_operation_xyz
x,y,z
-x,-y,-z
loop_
_atom_site_type_symbol
_atom_site_label
_atom_site_fract_x
_atom_site_fract_y
_atom_site_fract_z
Si Si1 0.577542 0.040511 0.633231
Si Si2 0.169718 0.337977 0.548517
Si Si3 0.454926 0.931992 0.946857
Si Si4 0.519976 0.315136 0.274315
Si Si5 0.238274 0.418241 0.205904
Si Si6 0.405361 0.601970 0.073010
Si Si7 0.844119 0.861639 0.621601
Si Si8 0.867118 0.838202 0.346861
O O1 0.319451 0.070936 0.530501
O O2 0.867889 0.113093 0.677259
O O3 0.500000 0.000000 0.500000
O O4 0.613884 0.972689 0.836201
O O5 0.262727 0.405212 0.394945
O O6 0.374723 0.364829 0.741659
O O7 0.199414 0.255598 0.600399
O O8 0.849184 0.329498 0.454789
O O9 0.120431 0.889021 0.816512
O O10 0.587181 0.862874 0.143161
O O11 0.500000 0.000000 0.000000
O O12 0.389508 0.364107 0.259240
O O13 0.358511 0.221131 0.317664
O O14 0.485182 0.342064 0.071861
O O15 0.396033 0.511263 0.137352
O O16 0.905873 0.394496 0.031196
O O17 0.942527 0.854231 0.522860
#
# Coordination Sequence:
#
# PCOD8021724 Si02
#       8
#     2   2   2   2   2   2   2   2
#     4  12  24  45  70  91 129 172 211 271 328 380
#     4  11  24  41  66  98 129 173 219 262 320 386
#     4  12  26  43  69  97 125 171 220 266 327 388
#     4  11  24  41  67  95 133 172 215 262 328 382
#     4  10  22  44  67  95 135 174 208 266 326 379
#     4  10  24  41  67 101 131 167 221 264 314 386
#     4  12  25  45  66  96 135 169 212 274 325 380
#     4  12  25  43  66  96 131 170 218 267 325 385
#
# _framework density 20.177893000000001
#
# number of rings (size 3 to 8) (size 9 to 14) (size 15 to 20)
#    0.000    0.750    5.000    2.250    1.750    4.500 
#    0.000    0.000    0.000    0.000    0.000    0.000 
#    0.000    0.000    0.000    0.000    0.000    0.000 
#
# Total GULP energy -198518.318898 kJ/mol
# GULP energy per Si atom -12407.394931 kJ/mol
# Density = 2.013197 g / cm^3
# Si number density = 20.177893 Si / 1000 Ang^3
#
#
#
# Elastic Constant Matrix: (Units=GPa)
#
#
# Indices 1 2 3 4 5 6 
#
# 1 88.2938 38.1813 39.7620 10.6969 4.2942 1.0245
# 2 38.1813 76.7451 55.5650 4.6194 3.8340 2.2461
# 3 39.7620 55.5650 166.9931 16.1046 14.8330 25.4040
# 4 10.6969 4.6194 16.1046 43.5838 -1.1786 -2.7654
# 5 4.2942 3.8340 14.8330 -1.1786 41.3649 3.1245
# 6 1.0245 2.2461 25.4040 -2.7654 3.1245 42.5443
#
#
#
# Elastic Compliance Matrix: (Units=1/GPa)
#
#
# Indices 1 2 3 4 5 6 
#
# 1 0.014974 -0.006394 -0.001228 -0.002523 -0.000638 0.000593
# 2 -0.006394 0.020221 -0.005843 0.001772 0.000736 0.002637
# 3 -0.001228 -0.005843 0.009551 -0.003016 -0.002435 -0.005382
# 4 -0.002523 0.001772 -0.003016 0.024741 0.001638 0.003256
# 5 -0.000638 0.000736 -0.002435 0.001638 0.025116 -0.000308
# 6 0.000593 0.002637 -0.005382 0.003256 -0.000308 0.026799
#
#
# Mechanical properties :
#
#
# Convention : Reuss Voigt Hill
#
# Bulk Modulus (GPa) = 56.13233 66.56094 61.34663
# Shear Modulus (GPa) = 32.41034 38.73351 35.57193
#
# Velocity S-wave (km/s) = 4.01213 4.38608 4.20326
# Velocity P-wave (km/s) = 7.02439 7.66217 7.35020
#
# Compressibility (1/GPa) = 0.01781505
#
# Stress axis : x y z
#
# Youngs Moduli (GPa) = 66.78379 49.45264 104.70234
#
# Poissons Ratio (x) = 0.31620 0.12857
# Poissons Ratio (y) = 0.42702 0.61182
# Poissons Ratio (z) = 0.08201 0.28897
#
# Static dielectric constant tensor:
#      x y z
#    x 3.794010 0.125560 0.098800 
#    y 0.125560 3.860870 0.156520 
#    z 0.098800 0.156520 4.277470 
# 
# 
# High freq. dielectric constant tensor:
#      x y z
#    x 1.795800 0.003530 -0.000170 
#    y 0.003530 1.797950 -0.009270 
#    z -0.000170 -0.009270 1.800840 
# 
# From -- ./inp_files/47270.got.cif
#   From: 2010.06.25/outbox.cif.g09.slc.cpg/sg2_24_cif.got.tgz:47270.got - 2010.06.27 13:26:56.
