data_PCOD8021329
_publ_section_title
;
Structure prediction by ZEFSAII (Michael W. Deem and Ramdas Pophale) SiO2 
 PCOD8021329
Probable space group: P -1
;
_chemical_formula_sum "Si O2"
_cell_formula_units_Z 16
_cell_length_a 13.140716
_cell_length_b 14.631966
_cell_length_c 14.978679
_cell_angle_alpha 151.745554
_cell_angle_beta 41.029584
_cell_angle_gamma 119.223878
_cell_volume 737.073884
_symmetry_space_group_name_H-M "P -1"
_symmetry_group_IT_number 2
_symmetry_cell_setting 'triclinic'
loop_
_space_group_symop_operation_xyz
x,y,z
-x,-y,-z
loop_
_atom_site_type_symbol
_atom_site_label
_atom_site_fract_x
_atom_site_fract_y
_atom_site_fract_z
Si Si1 0.037928 0.187070 0.264911
Si Si2 0.156293 0.768906 0.250940
Si Si3 0.276722 0.465155 0.573630
Si Si4 0.759929 0.717750 0.916287
Si Si5 0.400335 0.754365 0.238263
Si Si6 0.901792 0.881080 0.115335
Si Si7 0.619317 0.394057 0.205581
Si Si8 0.851846 0.854740 0.641469
O O1 0.224803 0.127669 0.037613
O O2 0.072634 0.161318 0.324304
O O3 0.867271 0.451501 0.582315
O O4 0.973664 0.019091 0.132435
O O5 0.269029 0.802403 0.281936
O O6 0.034566 0.690600 0.314922
O O7 0.312411 0.579070 0.913962
O O8 0.000000 0.000000 0.500000
O O9 0.400084 0.484854 0.431736
O O10 0.359393 0.446687 0.601298
O O11 0.284692 0.231571 0.349088
O O12 0.066185 0.692922 0.909269
O O13 0.546357 0.811962 0.157324
O O14 0.858666 0.734374 0.952683
O O15 0.280768 0.941059 0.554103
O O16 0.500000 0.500000 0.000000
O O17 0.739076 0.123477 0.920311
#
# Coordination Sequence:
#
# PCOD8021329 Si02
#       8
#     2   2   2   2   2   2   2   2
#     4  11  22  42  65  96 134 169 220 274 336 394
#     4  10  22  43  70  94 130 177 217 272 332 387
#     4  11  23  39  67  95 127 173 217 273 335 390
#     4  11  25  40  67  97 128 175 222 268 335 398
#     4  12  24  45  70  97 135 176 221 278 332 397
#     4  12  22  44  66  91 136 172 220 278 336 394
#     4  10  23  42  63  96 129 167 225 272 320 399
#     4  11  20  42  67  89 130 177 211 272 336 389
#
# _framework density 21.707457999999999
#
# number of rings (size 3 to 8) (size 9 to 14) (size 15 to 20)
#    0.000    1.000    5.000    1.875    1.750    0.500 
#    2.250    0.000    0.000    0.000    0.000    0.000 
#    0.000    0.000    0.000    0.000    0.000    0.000 
#
# Total GULP energy -198344.524855 kJ/mol
# GULP energy per Si atom -12396.532803 kJ/mol
# Density = 2.165805 g / cm^3
# Si number density = 21.707458 Si / 1000 Ang^3
#
#
#
# Elastic Constant Matrix: (Units=GPa)
#
#
# Indices 1 2 3 4 5 6 
#
# 1 81.7518 25.6852 5.8600 -9.5217 -10.7843 8.3503
# 2 25.6852 85.3669 24.9110 -33.2287 -14.8279 7.7537
# 3 5.8600 24.9110 66.9626 -26.4600 -6.1096 -4.1906
# 4 -9.5217 -33.2287 -26.4600 43.4651 -1.5757 3.9628
# 5 -10.7843 -14.8279 -6.1096 -1.5757 26.8027 -5.0994
# 6 8.3503 7.7537 -4.1906 3.9628 -5.0994 39.5371
#
#
#
# Elastic Compliance Matrix: (Units=1/GPa)
#
#
# Indices 1 2 3 4 5 6 
#
# 1 0.014006 -0.002967 0.000727 0.001561 0.003879 -0.001955
# 2 -0.002967 0.021148 -0.000607 0.015879 0.010576 -0.003813
# 3 0.000727 -0.000607 0.020566 0.012271 0.005679 0.001648
# 4 0.001561 0.015879 0.012271 0.043895 0.013886 -0.004752
# 5 0.003879 0.010576 0.005679 0.013886 0.047292 0.002416
# 6 -0.001955 -0.003813 0.001648 -0.004752 0.002416 0.027416
#
#
# Mechanical properties :
#
#
# Convention : Reuss Voigt Hill
#
# Bulk Modulus (GPa) = 19.99002 38.55486 29.27244
# Shear Modulus (GPa) = 25.42050 33.80266 29.61158
#
# Velocity S-wave (km/s) = 3.42577 3.95041 3.69741
# Velocity P-wave (km/s) = 4.98766 6.21348 5.63400
#
# Compressibility (1/GPa) = 0.05002497
#
# Stress axis : x y z
#
# Youngs Moduli (GPa) = 71.40051 47.28583 48.62409
#
# Poissons Ratio (x) = 0.14029 -0.03533
# Poissons Ratio (y) = 0.21184 0.02951
# Poissons Ratio (z) = -0.05188 0.02870
#
# Static dielectric constant tensor:
#      x y z
#    x 3.835250 0.048000 0.074740 
#    y 0.048000 4.379160 -0.418120 
#    z 0.074740 -0.418120 4.096540 
# 
# 
# High freq. dielectric constant tensor:
#      x y z
#    x 1.850650 0.007400 0.002920 
#    y 0.007400 1.858150 -0.021790 
#    z 0.002920 -0.021790 1.853060 
# 
# From -- ./inp_files/457697.got.cif
#   From: 2010.06.25/outbox.cif.g09.slc.cpg/sg2_229_cif.got.tgz:457697.got - 2010.06.27 13:26:56.
