data_PCOD8021696
_publ_section_title
;
Structure prediction by ZEFSAII (Michael W. Deem and Ramdas Pophale) SiO2 
 PCOD8021696
Probable space group: P -1
;
_chemical_formula_sum "Si O2"
_cell_formula_units_Z 16
_cell_length_a 10.909536
_cell_length_b 11.042771
_cell_length_c 11.893510
_cell_angle_alpha 118.833994
_cell_angle_beta 95.237430
_cell_angle_gamma 134.497332
_cell_volume 650.546149
_symmetry_space_group_name_H-M "P -1"
_symmetry_group_IT_number 2
_symmetry_cell_setting 'triclinic'
loop_
_space_group_symop_operation_xyz
x,y,z
-x,-y,-z
loop_
_atom_site_type_symbol
_atom_site_label
_atom_site_fract_x
_atom_site_fract_y
_atom_site_fract_z
Si Si1 0.226189 0.661494 0.747952
Si Si2 0.808074 0.534974 0.765592
Si Si3 0.348801 0.116738 0.126199
Si Si4 0.231111 0.206800 0.819455
Si Si5 0.427919 0.393829 0.693687
Si Si6 0.797175 0.966575 0.684439
Si Si7 0.920183 0.380096 0.814415
Si Si8 0.014033 0.714476 0.639814
O O1 0.500822 0.879864 0.876268
O O2 0.203304 0.784378 0.734601
O O3 0.131870 0.575406 0.829046
O O4 0.078956 0.408230 0.547820
O O5 0.640669 0.491936 0.780307
O O6 0.741867 0.327950 0.730465
O O7 0.790050 0.503313 0.613793
O O8 0.081543 0.832738 0.943659
O O9 0.466069 0.351435 0.169222
O O10 0.360029 0.175706 0.282073
O O11 0.221016 0.175124 0.669804
O O12 0.065255 0.176203 0.828921
O O13 0.146201 0.987380 0.776036
O O14 0.500000 0.500000 0.000000
O O15 0.316314 0.261140 0.503497
O O16 0.790867 0.108605 0.685019
O O17 0.000000 0.500000 0.000000
#
# Coordination Sequence:
#
# PCOD8021696 Si02
#       8
#     2   2   2   2   2   2   2   2
#     4  10  23  42  73  97 130 175 218 271 328 386
#     4  11  24  43  66  97 135 173 215 277 325 385
#     4  12  23  42  67 101 131 175 219 268 328 391
#     4  12  25  41  66  98 134 175 215 272 329 391
#     4  12  25  42  67  96 134 174 222 267 331 392
#     4  12  25  43  67  95 134 176 219 273 326 392
#     4  11  24  45  67  96 135 169 221 274 327 393
#     4  10  22  44  67 100 134 168 220 268 326 393
#
# _framework density 24.594721
#
# number of rings (size 3 to 8) (size 9 to 14) (size 15 to 20)
#    0.000    0.750    1.250    6.375    0.000    4.500 
#    0.000    0.000    0.000    0.000    0.000    0.000 
#    0.000    0.000    0.000    0.000    0.000    0.000 
#
# Total GULP energy -198432.979391 kJ/mol
# GULP energy per Si atom -12402.061212 kJ/mol
# Density = 2.453874 g / cm^3
# Si number density = 24.594721 Si / 1000 Ang^3
#
#
#
# Elastic Constant Matrix: (Units=GPa)
#
#
# Indices 1 2 3 4 5 6 
#
# 1 129.5905 46.0738 -12.1642 4.8179 8.4090 -13.0808
# 2 46.0738 121.2928 8.0766 -19.5470 -3.9333 -3.5181
# 3 -12.1642 8.0766 55.1028 -13.0361 -1.4893 -2.7371
# 4 4.8179 -19.5470 -13.0361 38.3787 5.4355 -18.1060
# 5 8.4090 -3.9333 -1.4893 5.4355 38.7406 5.0935
# 6 -13.0808 -3.5181 -2.7371 -18.1060 5.0935 52.1153
#
#
#
# Elastic Compliance Matrix: (Units=1/GPa)
#
#
# Indices 1 2 3 4 5 6 
#
# 1 0.009847 -0.004097 0.002571 -0.001031 -0.002602 0.002226
# 2 -0.004097 0.011003 -0.000837 0.006612 0.000798 0.001890
# 3 0.002571 -0.000837 0.021185 0.009066 -0.001761 0.005023
# 4 -0.001031 0.006612 0.009066 0.040870 -0.006529 0.015501
# 5 -0.002602 0.000798 -0.001761 -0.006529 0.028057 -0.005702
# 6 0.002226 0.001890 0.005023 0.015501 -0.005702 0.026081
#
#
# Mechanical properties :
#
#
# Convention : Reuss Voigt Hill
#
# Bulk Modulus (GPa) = 26.80564 43.32873 35.06719
# Shear Modulus (GPa) = 32.42407 43.44693 37.93550
#
# Velocity S-wave (km/s) = 3.63483 4.20755 3.93163
# Velocity P-wave (km/s) = 5.34215 6.42339 5.90756
#
# Compressibility (1/GPa) = 0.03730558
#
# Stress axis : x y z
#
# Youngs Moduli (GPa) = 101.55813 90.88397 47.20372
#
# Poissons Ratio (x) = 0.37239 -0.12134
# Poissons Ratio (y) = 0.41613 0.03953
# Poissons Ratio (z) = -0.26106 0.07611
#
# Static dielectric constant tensor:
#      x y z
#    x 4.808220 0.125790 -0.128890 
#    y 0.125790 4.777270 -0.422670 
#    z -0.128890 -0.422670 4.289400 
# 
# 
# High freq. dielectric constant tensor:
#      x y z
#    x 1.995920 0.001140 -0.008730 
#    y 0.001140 1.982770 -0.018680 
#    z -0.008730 -0.018680 1.976490 
# 
# From -- ./inp_files/357086.got.cif
#   From: 2010.06.25/outbox.cif.g09.slc.cpg/sg2_179_cif.got.tgz:357086.got - 2010.06.27 13:26:56.
