data_PCOD8021310
_publ_section_title
;
Structure prediction by ZEFSAII (Michael W. Deem and Ramdas Pophale) SiO2 
 PCOD8021310
Probable space group: P -1
;
_chemical_formula_sum "Si O2"
_cell_formula_units_Z 16
_cell_length_a 9.075363
_cell_length_b 17.320362
_cell_length_c 5.503906
_cell_angle_alpha 99.041089
_cell_angle_beta 96.785406
_cell_angle_gamma 49.795926
_cell_volume 652.389724
_symmetry_space_group_name_H-M "P -1"
_symmetry_group_IT_number 2
_symmetry_cell_setting 'triclinic'
loop_
_space_group_symop_operation_xyz
x,y,z
-x,-y,-z
loop_
_atom_site_type_symbol
_atom_site_label
_atom_site_fract_x
_atom_site_fract_y
_atom_site_fract_z
Si Si1 0.279443 0.820737 0.035323
Si Si2 0.059837 0.891273 0.507777
Si Si3 0.522497 0.087267 0.832130
Si Si4 0.179783 0.273226 0.143358
Si Si5 0.507356 0.565239 0.339693
Si Si6 0.750626 0.878945 0.606594
Si Si7 0.623557 0.636277 0.756247
Si Si8 0.789526 0.435265 0.937766
O O1 0.164755 0.850477 0.771852
O O2 0.484156 0.705647 0.988698
O O3 0.176812 0.821341 0.257007
O O4 0.318258 0.898117 0.142385
O O5 0.874766 0.896481 0.475872
O O6 0.000000 0.000000 0.500000
O O7 0.413364 0.112390 0.568294
O O8 0.643426 0.966478 0.841693
O O9 0.368945 0.162940 0.041123
O O10 0.107369 0.237535 0.319913
O O11 0.241083 0.337590 0.284210
O O12 0.015944 0.339184 0.941274
O O13 0.500000 0.500000 0.500000
O O14 0.491382 0.655637 0.509116
O O15 0.324865 0.607874 0.152290
O O16 0.713309 0.492693 0.208458
O O17 0.757119 0.516086 0.779417
#
# Coordination Sequence:
#
# PCOD8021310 Si02
#       8
#     2   2   2   2   2   2   2   2
#     4  11  27  47  79 111 151 197 252 305 374 442
#     4  12  27  48  77 112 151 196 255 310 369 442
#     4  10  25  47  71  99 149 193 246 301 377 440
#     4  11  25  42  68 105 141 188 247 302 372 441
#     4   9  21  42  67  95 136 184 233 299 369 429
#     4  11  26  45  72 103 146 197 243 312 369 446
#     4  10  24  43  70 102 144 195 243 304 368 447
#     4  10  22  43  70 101 142 186 245 306 369 439
#
# _framework density 24.525216
#
# number of rings (size 3 to 8) (size 9 to 14) (size 15 to 20)
#    0.000    1.500    1.250    1.125    7.000    7.500 
#    0.000    0.000    0.000    0.000    0.000    0.000 
#    0.000    0.000    0.000    0.000    0.000    0.000 
#
# Total GULP energy -198268.995061 kJ/mol
# GULP energy per Si atom -12391.812191 kJ/mol
# Density = 2.446940 g / cm^3
# Si number density = 24.525216 Si / 1000 Ang^3
#
#
#
# Elastic Constant Matrix: (Units=GPa)
#
#
# Indices 1 2 3 4 5 6 
#
# 1 131.3190 50.5220 49.0036 2.6382 12.5788 6.5785
# 2 50.5220 104.0614 25.5714 -17.3761 11.1527 12.6026
# 3 49.0036 25.5714 118.0749 3.4653 15.1703 7.3386
# 4 2.6382 -17.3761 3.4653 28.0732 4.3779 4.0303
# 5 12.5788 11.1527 15.1703 4.3779 39.6710 1.7152
# 6 6.5785 12.6026 7.3386 4.0303 1.7152 29.6610
#
#
#
# Elastic Compliance Matrix: (Units=1/GPa)
#
#
# Indices 1 2 3 4 5 6 
#
# 1 0.010930 -0.005271 -0.003309 -0.004002 -0.000328 0.001197
# 2 -0.005271 0.015432 -0.000646 0.011608 -0.003415 -0.006608
# 3 -0.003309 -0.000646 0.010423 -0.000779 -0.002612 -0.001313
# 4 -0.004002 0.011608 -0.000779 0.045654 -0.006316 -0.009690
# 5 -0.000328 -0.003415 -0.002612 -0.006316 0.027906 0.001415
# 6 0.001197 -0.006608 -0.001313 -0.009690 0.001415 0.037816
#
#
# Mechanical properties :
#
#
# Convention : Reuss Voigt Hill
#
# Bulk Modulus (GPa) = 54.54869 67.07214 60.81041
# Shear Modulus (GPa) = 28.94778 34.70493 31.82635
#
# Velocity S-wave (km/s) = 3.43932 3.76582 3.60627
# Velocity P-wave (km/s) = 6.16944 6.80560 6.49531
#
# Compressibility (1/GPa) = 0.01833225
#
# Stress axis : x y z
#
# Youngs Moduli (GPa) = 91.49266 64.79939 95.94591
#
# Poissons Ratio (x) = 0.34158 0.31751
# Poissons Ratio (y) = 0.48229 0.06194
# Poissons Ratio (z) = 0.30277 0.04184
#
# Static dielectric constant tensor:
#      x y z
#    x 4.631590 0.146280 0.307770 
#    y 0.146280 4.432230 0.138360 
#    z 0.307770 0.138360 4.613220 
# 
# 
# High freq. dielectric constant tensor:
#      x y z
#    x 1.980530 0.013230 0.007450 
#    y 0.013230 1.976860 0.008870 
#    z 0.007450 0.008870 1.969740 
# 
# From -- ./inp_files/48347.got.cif
#   From: 2010.06.25/outbox.cif.g09.slc.cpg/sg2_25_cif.got.tgz:48347.got - 2010.06.27 13:26:56.
