data_PCOD8021640
_publ_section_title
;
Structure prediction by ZEFSAII (Michael W. Deem and Ramdas Pophale) SiO2 
 PCOD8021640
Probable space group: P -1
;
_chemical_formula_sum "Si O2"
_cell_formula_units_Z 14
_cell_length_a 15.654728
_cell_length_b 7.631842
_cell_length_c 11.002339
_cell_angle_alpha 92.727371
_cell_angle_beta 51.926997
_cell_angle_gamma 51.376209
_cell_volume 574.778602
_symmetry_space_group_name_H-M "P -1"
_symmetry_group_IT_number 2
_symmetry_cell_setting 'triclinic'
loop_
_space_group_symop_operation_xyz
x,y,z
-x,-y,-z
loop_
_atom_site_type_symbol
_atom_site_label
_atom_site_fract_x
_atom_site_fract_y
_atom_site_fract_z
Si Si1 0.334315 0.870599 0.024694
Si Si2 0.699370 0.571351 0.103478
Si Si3 0.952688 0.325799 0.233438
Si Si4 0.386774 0.820566 0.244636
Si Si5 0.237407 0.717476 0.738310
Si Si6 0.464126 0.194032 0.351374
Si Si7 0.094619 0.219562 0.737073
O O1 0.290130 0.993942 0.204769
O O2 0.522614 0.494264 0.846878
O O3 0.398992 0.945644 0.887674
O O4 0.136359 0.048409 0.151441
O O5 0.564478 0.715853 0.109899
O O6 0.712727 0.375677 0.166715
O O7 0.586664 0.869838 0.295063
O O8 0.906471 0.360370 0.868153
O O9 0.940609 0.184866 0.136425
O O10 0.751045 0.584356 0.496074
O O11 0.959482 0.508317 0.167800
O O12 0.225142 0.047960 0.497408
O O13 0.430493 0.401191 0.480577
O O14 0.194707 0.978750 0.753374
#
# Coordination Sequence:
#
# PCOD8021640 Si02
#       7
#     2   2   2   2   2   2   2
#     4  11  23  46  70  90 134 175 216 279 326 380
#     4  12  24  44  64 100 135 171 216 272 327 390
#     4  10  23  44  66  99 132 170 220 266 326 391
#     4  11  25  43  68  99 125 177 227 260 333 395
#     4  10  24  45  66  97 140 167 218 274 320 394
#     4  10  22  44  65  98 133 171 217 272 326 384
#     4  12  23  43  66 102 132 172 221 264 334 386
#
# _framework density 24.357206000000001
#
# number of rings (size 3 to 8) (size 9 to 14) (size 15 to 20)
#    0.857    0.286    4.286    1.714    0.000    3.429 
#    5.143    3.571    0.000    0.000    0.000    0.000 
#    0.000    0.000    0.000    0.000    0.000    0.000 
#
# Total GULP energy -173518.691381 kJ/mol
# GULP energy per Si atom -12394.192242 kJ/mol
# Density = 2.430177 g / cm^3
# Si number density = 24.357206 Si / 1000 Ang^3
#
#
#
# Elastic Constant Matrix: (Units=GPa)
#
#
# Indices 1 2 3 4 5 6 
#
# 1 86.7966 28.8759 21.8627 -3.8341 -5.7958 -5.5563
# 2 28.8759 79.1757 21.8605 5.8824 10.0880 2.0961
# 3 21.8627 21.8605 91.8364 -4.9237 -23.9300 -12.3588
# 4 -3.8341 5.8824 -4.9237 33.9867 5.2204 -2.8597
# 5 -5.7958 10.0880 -23.9300 5.2204 34.1836 11.6506
# 6 -5.5563 2.0961 -12.3588 -2.8597 11.6506 38.7638
#
#
#
# Elastic Compliance Matrix: (Units=1/GPa)
#
#
# Indices 1 2 3 4 5 6 
#
# 1 0.013885 -0.005223 -0.001170 0.002063 0.002298 0.001361
# 2 -0.005223 0.017510 -0.005612 -0.003103 -0.009183 -0.000954
# 3 -0.001170 -0.005612 0.015882 0.001486 0.011743 0.001780
# 4 0.002063 -0.003103 0.001486 0.031399 -0.004009 0.004459
# 5 0.002298 -0.009183 0.011743 -0.004009 0.044264 -0.009030
# 6 0.001361 -0.000954 0.001780 0.004459 -0.009030 0.029654
#
#
# Mechanical properties :
#
#
# Convention : Reuss Voigt Hill
#
# Bulk Modulus (GPa) = 42.97786 44.77852 43.87819
# Shear Modulus (GPa) = 27.12070 33.73410 30.42740
#
# Velocity S-wave (km/s) = 3.34047 3.72556 3.53826
# Velocity P-wave (km/s) = 5.70626 6.07704 5.89457
#
# Compressibility (1/GPa) = 0.02326780
#
# Stress axis : x y z
#
# Youngs Moduli (GPa) = 72.01936 57.10889 62.96302
#
# Poissons Ratio (x) = 0.29829 0.07365
# Poissons Ratio (y) = 0.37617 0.35336
# Poissons Ratio (z) = 0.08424 0.32051
#
# Static dielectric constant tensor:
#      x y z
#    x 4.245080 0.191060 -0.017230 
#    y 0.191060 4.496490 0.274150 
#    z -0.017230 0.274150 4.489790 
# 
# 
# High freq. dielectric constant tensor:
#      x y z
#    x 1.949890 0.021970 -0.006580 
#    y 0.021970 1.967100 0.021780 
#    z -0.006580 0.021780 1.983310 
# 
# From -- ./inp_files/462105.got.cif
#   From: 2010.06.25/outbox.cif.g09.slc.cpg/sg2_232_cif.got.tgz:462105.got - 2010.06.27 13:26:56.
