data_PCOD8021982
_publ_section_title
;
Structure prediction by ZEFSAII (Michael W. Deem and Ramdas Pophale) SiO2 
 PCOD8021982
Probable space group: P -1
;
_chemical_formula_sum "Si O2"
_cell_formula_units_Z 16
_cell_length_a 8.662238
_cell_length_b 21.563610
_cell_length_c 8.617257
_cell_angle_alpha 146.166011
_cell_angle_beta 51.460796
_cell_angle_gamma 126.970543
_cell_volume 687.880924
_symmetry_space_group_name_H-M "P -1"
_symmetry_group_IT_number 2
_symmetry_cell_setting 'triclinic'
loop_
_space_group_symop_operation_xyz
x,y,z
-x,-y,-z
loop_
_atom_site_type_symbol
_atom_site_label
_atom_site_fract_x
_atom_site_fract_y
_atom_site_fract_z
Si Si1 0.663678 0.111324 0.113989
Si Si2 0.002764 0.660688 0.157949
Si Si3 0.030353 0.047635 0.909229
Si Si4 0.061936 0.845581 0.246816
Si Si5 0.236506 0.239949 0.002029
Si Si6 0.420002 0.471779 0.820983
Si Si7 0.157164 0.486146 0.508529
Si Si8 0.336042 0.703609 0.268958
O O1 0.609624 0.225126 0.458433
O O2 0.734851 0.140182 0.953483
O O3 0.825509 0.080669 0.062709
O O4 0.500000 0.000000 0.000000
O O5 0.762915 0.637651 0.298943
O O6 0.036983 0.733323 0.131070
O O7 0.132705 0.723907 0.351536
O O8 0.091771 0.547606 0.829175
O O9 0.085823 0.953538 0.565405
O O10 0.192524 0.165688 0.033287
O O11 0.000000 0.000000 0.000000
O O12 0.869450 0.837262 0.235912
O O13 0.144230 0.355009 0.294792
O O14 0.474916 0.262939 0.893330
O O15 0.611317 0.458972 0.568503
O O16 0.500000 0.500000 0.000000
O O17 0.310101 0.571995 0.047600
O O18 0.000000 0.500000 0.500000
#
# Coordination Sequence:
#
# PCOD8021982 Si02
#       8
#     2   2   2   2   2   2   2   2
#     4  11  24  44  74  95 129 185 236 286 344 425
#     4  12  25  44  68 106 149 182 227 296 349 414
#     4  11  24  43  67 100 135 174 229 296 349 403
#     4  11  23  44  67  99 135 181 233 284 346 419
#     4  10  22  44  71  94 139 184 231 286 338 425
#     4  11  24  41  70 100 143 186 236 281 337 434
#     4  11  22  44  72 103 137 190 234 280 348 419
#     4  11  25  44  65 107 137 176 233 293 355 404
#
# _framework density 23.259837999999998
#
# number of rings (size 3 to 8) (size 9 to 14) (size 15 to 20)
#    0.000    1.000    2.500    4.875    5.250    3.000 
#    9.000    2.500    0.000    0.000    0.000    0.000 
#    0.000    0.000    0.000    0.000    0.000    0.000 
#
# Total GULP energy -198321.321633 kJ/mol
# GULP energy per Si atom -12395.082602 kJ/mol
# Density = 2.320690 g / cm^3
# Si number density = 23.259838 Si / 1000 Ang^3
#
#
#
# Elastic Constant Matrix: (Units=GPa)
#
#
# Indices 1 2 3 4 5 6 
#
# 1 70.3817 49.9387 6.9059 3.9798 0.2425 4.2788
# 2 49.9387 183.7142 29.3554 10.9602 -1.9899 -2.4317
# 3 6.9059 29.3554 90.4248 4.5740 0.9552 4.0807
# 4 3.9798 10.9602 4.5740 20.7375 1.3000 1.1856
# 5 0.2425 -1.9899 0.9552 1.3000 31.9996 -0.8572
# 6 4.2788 -2.4317 4.0807 1.1856 -0.8572 46.1849
#
#
#
# Elastic Compliance Matrix: (Units=1/GPa)
#
#
# Indices 1 2 3 4 5 6 
#
# 1 0.017798 -0.004879 0.000356 -0.000776 -0.000469 -0.001926
# 2 -0.004879 0.007250 -0.001906 -0.002579 0.000678 0.001081
# 3 0.000356 -0.001906 0.011786 -0.001567 -0.000440 -0.001143
# 4 -0.000776 -0.002579 -0.001567 0.050288 -0.002184 -0.001257
# 5 -0.000469 0.000678 -0.000440 -0.002184 0.031418 0.000757
# 6 -0.001926 0.001081 -0.001143 -0.001257 0.000757 0.022035
#
#
# Mechanical properties :
#
#
# Convention : Reuss Voigt Hill
#
# Bulk Modulus (GPa) = 41.71139 57.43562 49.57350
# Shear Modulus (GPa) = 30.97402 37.00579 33.98991
#
# Velocity S-wave (km/s) = 3.65314 3.99303 3.82686
# Velocity P-wave (km/s) = 5.98044 6.78275 6.39419
#
# Compressibility (1/GPa) = 0.02397427
#
# Stress axis : x y z
#
# Youngs Moduli (GPa) = 56.18669 137.93775 84.84551
#
# Poissons Ratio (x) = 0.67301 -0.03019
# Poissons Ratio (y) = 0.27414 0.16175
# Poissons Ratio (z) = -0.01999 0.26296
#
# Static dielectric constant tensor:
#      x y z
#    x 3.888140 0.064020 -0.107710 
#    y 0.064020 4.406550 0.023740 
#    z -0.107710 0.023740 4.394040 
# 
# 
# High freq. dielectric constant tensor:
#      x y z
#    x 1.908160 0.001780 -0.002340 
#    y 0.001780 1.940620 0.002580 
#    z -0.002340 0.002580 1.919610 
# 
# From -- ./inp_files/226731.got.cif
#   From: 2010.06.25/outbox.cif.g09.slc.cpg/sg2_114_cif.got.tgz:226731.got - 2010.06.27 13:26:56.
