data_PCOD8021452
_publ_section_title
;
Structure prediction by ZEFSAII (Michael W. Deem and Ramdas Pophale) SiO2 
 PCOD8021452
Probable space group: P -1
;
_chemical_formula_sum "Si O2"
_cell_formula_units_Z 14
_cell_length_a 13.637053
_cell_length_b 24.979808
_cell_length_c 17.331351
_cell_angle_alpha 162.879498
_cell_angle_beta 23.507189
_cell_angle_gamma 156.116197
_cell_volume 655.939098
_symmetry_space_group_name_H-M "P -1"
_symmetry_group_IT_number 2
_symmetry_cell_setting 'triclinic'
loop_
_space_group_symop_operation_xyz
x,y,z
-x,-y,-z
loop_
_atom_site_type_symbol
_atom_site_label
_atom_site_fract_x
_atom_site_fract_y
_atom_site_fract_z
Si Si1 0.366705 0.120632 0.812957
Si Si2 0.964466 0.949124 0.182420
Si Si3 0.492940 0.055740 0.388886
Si Si4 0.248852 0.686819 0.575885
Si Si5 0.244723 0.687528 0.961372
Si Si6 0.661083 0.656916 0.503055
Si Si7 0.350005 0.431599 0.779972
O O1 0.100633 0.096457 0.925097
O O2 0.500000 0.000000 0.500000
O O3 0.331744 0.031085 0.801138
O O4 0.542772 0.340536 0.992955
O O5 0.711933 0.874375 0.316634
O O6 0.086146 0.175660 0.419391
O O7 0.177193 0.842355 0.896919
O O8 0.681581 0.238335 0.458959
O O9 0.342118 0.899485 0.218988
O O10 0.499035 0.642229 0.365380
O O11 0.000000 0.500000 0.500000
O O12 0.405150 0.669243 0.745500
O O13 0.277942 0.539937 0.798264
O O14 0.951236 0.634747 0.070990
O O15 0.617294 0.673198 0.466743
#
# Coordination Sequence:
#
# PCOD8021452 Si02
#       7
#     2   2   2   2   2   2   2
#     4  10  22  43  73 102 129 181 228 278 342 396
#     4  11  23  46  70 100 139 176 230 281 338 402
#     4  11  23  45  74  96 138 180 224 287 339 397
#     4  12  28  48  64  98 142 184 231 274 336 414
#     4  11  22  41  71 106 133 173 227 280 345 395
#     4  11  23  42  72 106 136 169 229 288 330 405
#     4  12  24  45  71  96 145 178 219 284 340 398
#
# _framework density 21.343444000000002
#
# number of rings (size 3 to 8) (size 9 to 14) (size 15 to 20)
#    0.000    0.857    5.714    2.143    0.000    3.429 
#   10.286    0.000    0.000    0.000    0.000    0.000 
#    0.000    0.000    0.000    0.000    0.000    0.000 
#
# Total GULP energy -173600.701365 kJ/mol
# GULP energy per Si atom -12400.050098 kJ/mol
# Density = 2.129487 g / cm^3
# Si number density = 21.343444 Si / 1000 Ang^3
#
#
#
# Elastic Constant Matrix: (Units=GPa)
#
#
# Indices 1 2 3 4 5 6 
#
# 1 105.0925 69.8876 38.8502 -1.9599 -9.2386 14.0048
# 2 69.8876 138.7408 45.2979 4.9414 -4.3688 -9.6395
# 3 38.8502 45.2979 90.3995 -11.0737 -8.3428 -4.7745
# 4 -1.9599 4.9414 -11.0737 39.1794 5.4263 3.6330
# 5 -9.2386 -4.3688 -8.3428 5.4263 32.0316 5.8594
# 6 14.0048 -9.6395 -4.7745 3.6330 5.8594 30.3092
#
#
#
# Elastic Compliance Matrix: (Units=1/GPa)
#
#
# Indices 1 2 3 4 5 6 
#
# 1 0.019589 -0.009523 -0.003657 0.001656 0.005670 -0.013951
# 2 -0.009523 0.013644 -0.002939 -0.003503 -0.002746 0.009227
# 3 -0.003657 -0.002939 0.014840 0.003982 0.001302 0.002364
# 4 0.001656 -0.003503 0.003982 0.027958 -0.002962 -0.004030
# 5 0.005670 -0.002746 0.001302 -0.002962 0.035099 -0.009718
# 6 -0.013951 0.009227 0.002364 -0.004030 -0.009718 0.045108
#
#
# Mechanical properties :
#
#
# Convention : Reuss Voigt Hill
#
# Bulk Modulus (GPa) = 63.16048 71.36710 67.26379
# Shear Modulus (GPa) = 25.80601 32.31719 29.06160
#
# Velocity S-wave (km/s) = 3.48096 3.89543 3.69401
# Velocity P-wave (km/s) = 6.76852 7.33093 7.05533
#
# Compressibility (1/GPa) = 0.01583269
#
# Stress axis : x y z
#
# Youngs Moduli (GPa) = 51.04977 73.29378 67.38769
#
# Poissons Ratio (x) = 0.69797 0.24646
# Poissons Ratio (y) = 0.48615 0.19807
# Poissons Ratio (z) = 0.18671 0.21543
#
# Static dielectric constant tensor:
#      x y z
#    x 4.688820 0.173860 -0.133130 
#    y 0.173860 3.877740 -0.032070 
#    z -0.133130 -0.032070 4.020310 
# 
# 
# High freq. dielectric constant tensor:
#      x y z
#    x 1.830210 0.005460 0.003690 
#    y 0.005460 1.838980 -0.003590 
#    z 0.003690 -0.003590 1.847620 
# 
# From -- ./inp_files/188631.got.cif
#   From: 2010.06.25/outbox.cif.g09.slc.cpg/sg2_95_cif.got.tgz:188631.got - 2010.06.27 13:26:56.
