data_PCOD8021574
_publ_section_title
;
Structure prediction by ZEFSAII (Michael W. Deem and Ramdas Pophale) SiO2 
 PCOD8021574
Probable space group: P -1
;
_chemical_formula_sum "Si O2"
_cell_formula_units_Z 14
_cell_length_a 14.966238
_cell_length_b 7.928673
_cell_length_c 7.928664
_cell_angle_alpha 57.179307
_cell_angle_beta 105.985892
_cell_angle_gamma 91.878022
_cell_volume 752.130703
_symmetry_space_group_name_H-M "P -1"
_symmetry_group_IT_number 2
_symmetry_cell_setting 'triclinic'
loop_
_space_group_symop_operation_xyz
x,y,z
-x,-y,-z
loop_
_atom_site_type_symbol
_atom_site_label
_atom_site_fract_x
_atom_site_fract_y
_atom_site_fract_z
Si Si1 0.610298 0.955399 0.565698
Si Si2 0.096659 0.466519 0.968758
Si Si3 0.293259 0.880518 0.787763
Si Si4 0.096659 0.872098 0.563178
Si Si5 0.100093 0.016384 0.116477
Si Si6 0.293474 0.867327 0.160800
Si Si7 0.706740 0.505495 0.826225
O O1 0.639603 0.715622 0.696571
O O2 0.500000 0.000000 0.500000
O O3 0.639604 0.056963 0.355228
O O4 0.654946 0.047322 0.702268
O O5 0.095040 0.637352 0.732393
O O6 0.111793 0.250242 0.005936
O O7 0.183752 0.466122 0.142894
O O8 0.000000 0.500000 0.000000
O O9 0.183751 0.959144 0.649873
O O10 0.318327 0.967679 0.938871
O O11 0.307738 0.633649 0.941385
O O12 0.111793 0.894143 0.362034
O O13 0.000000 0.000000 0.500000
O O14 0.181126 0.912112 0.093238
O O15 0.000000 0.000000 0.000000
O O16 0.318327 0.620544 0.286004
#
# Coordination Sequence:
#
# PCOD8021574 Si02
#       7
#     2   2   2   2   2   2   2
#     4  12  24  44  71  95 128 172 210 268 330 376
#     4  11  20  36  63  89 129 172 207 264 314 368
#     4   9  22  44  62  94 132 161 215 271 309 377
#     4  11  20  36  63  89 129 172 207 264 314 368
#     4  12  22  38  60  94 133 165 216 256 314 391
#     4  10  22  44  64  93 131 165 213 265 315 383
#     4   9  22  44  62  94 132 161 215 271 309 377
#
# _framework density 18.613786999999999
#
# number of rings (size 3 to 8) (size 9 to 14) (size 15 to 20)
#    0.857    0.571    4.286    1.714    0.000    2.286 
#    5.143    0.000    0.000    0.000    0.000    0.000 
#    0.000    0.000    0.000    0.000    0.000    0.000 
#
# Total GULP energy -173474.173236 kJ/mol
# GULP energy per Si atom -12391.012374 kJ/mol
# Density = 1.857142 g / cm^3
# Si number density = 18.613787 Si / 1000 Ang^3
#
#
#
# Elastic Constant Matrix: (Units=GPa)
#
#
# Indices 1 2 3 4 5 6 
#
# 1 141.5806 48.6714 56.3184 0.5672 2.5192 -12.8092
# 2 48.6714 137.1203 52.9214 -0.9138 4.4388 -8.5191
# 3 56.3184 52.9214 108.2885 0.7592 -13.9388 -9.3792
# 4 0.5672 -0.9138 0.7592 42.0453 -5.0668 1.9483
# 5 2.5192 4.4388 -13.9388 -5.0668 34.1003 -0.2656
# 6 -12.8092 -8.5191 -9.3792 1.9483 -0.2656 23.2848
#
#
#
# Elastic Compliance Matrix: (Units=1/GPa)
#
#
# Indices 1 2 3 4 5 6 
#
# 1 0.009602 -0.001489 -0.004300 -0.000504 -0.002325 0.003021
# 2 -0.001489 0.009594 -0.004197 -0.000085 -0.002860 0.000975
# 3 -0.004300 -0.004197 0.014583 0.000442 0.006906 0.002014
# 4 -0.000504 -0.000085 0.000442 0.024341 0.003829 -0.002123
# 5 -0.002325 -0.002860 0.006906 0.003829 0.033265 0.000516
# 6 0.003021 0.000975 0.002014 -0.002123 0.000516 0.045960
#
#
# Mechanical properties :
#
#
# Convention : Reuss Voigt Hill
#
# Bulk Modulus (GPa) = 72.43397 78.09020 75.26209
# Shear Modulus (GPa) = 30.87954 35.15798 33.01876
#
# Velocity S-wave (km/s) = 4.07745 4.35076 4.21632
# Velocity P-wave (km/s) = 7.82088 8.20261 8.01402
#
# Compressibility (1/GPa) = 0.01380568
#
# Stress axis : x y z
#
# Youngs Moduli (GPa) = 104.14174 104.23292 68.57495
#
# Poissons Ratio (x) = 0.15522 0.29489
# Poissons Ratio (y) = 0.15508 0.28782
# Poissons Ratio (z) = 0.44783 0.43749
#
# Static dielectric constant tensor:
#      x y z
#    x 3.421630 0.067940 0.253710 
#    y 0.067940 2.431870 -0.096440 
#    z 0.253710 -0.096440 2.697400 
# 
# 
# High freq. dielectric constant tensor:
#      x y z
#    x 1.722530 0.000290 -0.000750 
#    y 0.000290 1.717410 -0.003900 
#    z -0.000750 -0.003900 1.723460 
# 
# From -- ./inp_files/195952.got.cif
#   From: 2010.06.25/outbox.cif.g09.slc.cpg/sg2_98_cif.got.tgz:195952.got - 2010.06.27 13:26:56.
