data_PCOD8021358
_publ_section_title
;
Structure prediction by ZEFSAII (Michael W. Deem and Ramdas Pophale) SiO2 
 PCOD8021358
Probable space group: P -1
;
_chemical_formula_sum "Si O2"
_cell_formula_units_Z 16
_cell_length_a 9.776333
_cell_length_b 29.154158
_cell_length_c 8.578745
_cell_angle_alpha 136.909527
_cell_angle_beta 113.421964
_cell_angle_gamma 32.449857
_cell_volume 719.168013
_symmetry_space_group_name_H-M "P -1"
_symmetry_group_IT_number 2
_symmetry_cell_setting 'triclinic'
loop_
_space_group_symop_operation_xyz
x,y,z
-x,-y,-z
loop_
_atom_site_type_symbol
_atom_site_label
_atom_site_fract_x
_atom_site_fract_y
_atom_site_fract_z
Si Si1 0.590757 0.622602 0.212726
Si Si2 0.273455 0.633171 0.935758
Si Si3 0.446471 0.094368 0.765161
Si Si4 0.367126 0.356172 0.358462
Si Si5 0.337449 0.875340 0.257621
Si Si6 0.284987 0.292790 0.687234
Si Si7 0.658463 0.365122 0.372220
Si Si8 0.374052 0.113888 0.128076
O O1 0.595353 0.638136 0.433031
O O2 0.533135 0.715758 0.327397
O O3 0.306310 0.682920 0.193675
O O4 0.913021 0.455309 0.895915
O O5 0.477904 0.486483 0.713332
O O6 0.436489 0.589349 0.738193
O O7 0.922432 0.743052 0.029225
O O8 0.665154 0.051011 0.641076
O O9 0.500000 0.000000 0.500000
O O10 0.549946 0.057633 0.902818
O O11 0.558444 0.330034 0.272374
O O12 0.000000 0.500000 0.500000
O O13 0.567832 0.208639 0.055089
O O14 0.623010 0.748843 0.193980
O O15 0.000000 0.000000 0.500000
O O16 0.388942 0.179352 0.384153
O O17 0.026269 0.229000 0.217180
O O18 0.500000 0.000000 0.000000
#
# Coordination Sequence:
#
# PCOD8021358 Si02
#       8
#     2   2   2   2   2   2   2   2
#     4  11  24  42  72 105 137 178 233 303 344 426
#     4  10  22  43  70  99 137 175 233 290 352 413
#     4  11  26  46  73 101 139 190 236 287 353 428
#     4  12  25  43  68 100 138 180 235 286 353 417
#     4  12  28  48  71 101 147 190 234 288 359 429
#     4  11  24  44  70 102 140 182 234 288 362 413
#     4  10  23  41  69 100 133 182 228 287 353 418
#     4  11  24  46  72 103 144 185 233 293 355 423
#
# _framework density 22.247928999999999
#
# number of rings (size 3 to 8) (size 9 to 14) (size 15 to 20)
#    0.000    1.000    2.500    3.000    8.750    2.500 
#    0.000    1.250    0.000    0.000    0.000    0.000 
#    0.000    0.000    0.000    0.000    0.000    0.000 
#
# Total GULP energy -198301.958886 kJ/mol
# GULP energy per Si atom -12393.872430 kJ/mol
# Density = 2.219729 g / cm^3
# Si number density = 22.247929 Si / 1000 Ang^3
#
#
#
# Elastic Constant Matrix: (Units=GPa)
#
#
# Indices 1 2 3 4 5 6 
#
# 1 122.3240 28.1917 33.1748 -2.6689 6.0431 16.1412
# 2 28.1917 93.9571 28.4872 -16.2343 6.2462 14.8383
# 3 33.1748 28.4872 127.7129 -11.8059 16.6157 9.6048
# 4 -2.6689 -16.2343 -11.8059 38.3900 1.7898 6.7768
# 5 6.0431 6.2462 16.6157 1.7898 40.7680 -1.7833
# 6 16.1412 14.8383 9.6048 6.7768 -1.7833 31.4038
#
#
#
# Elastic Compliance Matrix: (Units=1/GPa)
#
#
# Indices 1 2 3 4 5 6 
#
# 1 0.009551 -0.001714 -0.001741 0.000070 -0.000605 -0.003616
# 2 -0.001714 0.013907 -0.001271 0.006672 -0.001951 -0.006852
# 3 -0.001741 -0.001271 0.009464 0.002811 -0.003624 -0.002211
# 4 0.000070 0.006672 0.002811 0.031899 -0.004067 -0.011163
# 5 -0.000605 -0.001951 -0.003624 -0.004067 0.026781 0.004740
# 6 -0.003616 -0.006852 -0.002211 -0.011163 0.004740 0.040294
#
#
# Mechanical properties :
#
#
# Convention : Reuss Voigt Hill
#
# Bulk Modulus (GPa) = 42.61057 58.18906 50.39981
# Shear Modulus (GPa) = 33.51835 39.05505 36.28670
#
# Velocity S-wave (km/s) = 3.88568 4.19435 4.04296
# Velocity P-wave (km/s) = 6.27101 7.04758 6.67060
#
# Compressibility (1/GPa) = 0.02346836
#
# Stress axis : x y z
#
# Youngs Moduli (GPa) = 104.70165 71.90374 105.66793
#
# Poissons Ratio (x) = 0.12327 0.18402
# Poissons Ratio (y) = 0.17951 0.13429
# Poissons Ratio (z) = 0.18234 0.09138
#
# Static dielectric constant tensor:
#      x y z
#    x 2.714850 -1.429720 1.849660 
#    y -1.429720 2.367100 1.709280 
#    z 1.849660 1.709280 2.086690 
# 
# 
# High freq. dielectric constant tensor:
#      x y z
#    x 1.883660 0.005380 0.012430 
#    y 0.005380 1.873510 -0.003940 
#    z 0.012430 -0.003940 1.887990 
# 
# From -- ./inp_files/227765.got.cif
#   From: 2010.06.25/outbox.cif.g09.slc.cpg/sg2_114_cif.got.tgz:227765.got - 2010.06.27 13:26:56.
