data_PCOD8021461
_publ_section_title
;
Structure prediction by ZEFSAII (Michael W. Deem and Ramdas Pophale) SiO2 
 PCOD8021461
Probable space group: P -1
;
_chemical_formula_sum "Si O2"
_cell_formula_units_Z 14
_cell_length_a 11.641348
_cell_length_b 12.089369
_cell_length_c 9.410433
_cell_angle_alpha 141.879140
_cell_angle_beta 56.521987
_cell_angle_gamma 131.942584
_cell_volume 607.165753
_symmetry_space_group_name_H-M "P -1"
_symmetry_group_IT_number 2
_symmetry_cell_setting 'triclinic'
loop_
_space_group_symop_operation_xyz
x,y,z
-x,-y,-z
loop_
_atom_site_type_symbol
_atom_site_label
_atom_site_fract_x
_atom_site_fract_y
_atom_site_fract_z
Si Si1 0.949754 0.625403 0.769558
Si Si2 0.204769 0.036272 0.488775
Si Si3 0.267224 0.343579 0.264663
Si Si4 0.476083 0.780556 0.632210
Si Si5 0.484832 0.783869 0.955823
Si Si6 0.854284 0.388980 0.881535
Si Si7 0.089013 0.984211 0.210777
O O1 0.830540 0.696675 0.853352
O O2 0.872173 0.504657 0.841198
O O3 0.000000 0.500000 0.500000
O O4 0.096350 0.833039 0.932305
O O5 0.382919 0.203930 0.550565
O O6 0.089072 0.112501 0.709913
O O7 0.165546 0.825387 0.375685
O O8 0.188070 0.986855 0.281250
O O9 0.322861 0.579392 0.495968
O O10 0.152409 0.208570 0.331545
O O11 0.410219 0.289756 0.096902
O O12 0.456090 0.979593 0.815394
O O13 0.516998 0.760141 0.746094
O O14 0.304257 0.642561 0.966378
O O15 0.000000 0.500000 0.000000
#
# Coordination Sequence:
#
# PCOD8021461 Si02
#       7
#     2   2   2   2   2   2   2
#     4  12  29  46  72 105 149 199 239 297 376 431
#     4  10  22  43  73 106 142 178 249 305 348 426
#     4  12  26  43  72 103 151 190 236 300 364 442
#     4  10  23  43  70 109 141 192 237 301 367 423
#     4  10  24  42  72 106 148 186 249 298 356 432
#     4  11  24  45  73 104 141 192 247 299 351 433
#     4  11  24  43  70 109 140 190 243 299 357 432
#
# _framework density 23.057952
#
# number of rings (size 3 to 8) (size 9 to 14) (size 15 to 20)
#    0.000    1.143    2.857    1.714    8.000    0.571 
#    0.000    1.429    0.000    0.000    0.000    0.000 
#    0.000    0.000    0.000    0.000    0.000    0.000 
#
# Total GULP energy -173530.291566 kJ/mol
# GULP energy per Si atom -12395.020826 kJ/mol
# Density = 2.300547 g / cm^3
# Si number density = 23.057952 Si / 1000 Ang^3
#
#
#
# Elastic Constant Matrix: (Units=GPa)
#
#
# Indices 1 2 3 4 5 6 
#
# 1 110.5107 39.3825 16.9652 -6.8778 -9.3226 -12.5954
# 2 39.3825 142.2512 32.0434 9.9129 0.5091 9.3428
# 3 16.9652 32.0434 80.6698 10.6737 1.5436 12.2091
# 4 -6.8778 9.9129 10.6737 34.2297 9.3431 -7.1168
# 5 -9.3226 0.5091 1.5436 9.3431 23.2875 0.2086
# 6 -12.5954 9.3428 12.2091 -7.1168 0.2086 41.4647
#
#
#
# Elastic Compliance Matrix: (Units=1/GPa)
#
#
# Indices 1 2 3 4 5 6 
#
# 1 0.011913 -0.003409 -0.002725 0.004620 0.003117 0.005967
# 2 -0.003409 0.008827 -0.001900 -0.003250 -0.000101 -0.003022
# 3 -0.002725 -0.001900 0.015444 -0.006190 0.000464 -0.006012
# 4 0.004620 -0.003250 -0.006190 0.038887 -0.013367 0.010700
# 5 0.003117 -0.000101 0.000464 -0.013367 0.049539 -0.001711
# 6 0.005967 -0.003022 -0.006012 0.010700 -0.001711 0.030226
#
#
# Mechanical properties :
#
#
# Convention : Reuss Voigt Hill
#
# Bulk Modulus (GPa) = 49.71371 56.69043 53.20207
# Shear Modulus (GPa) = 28.15178 36.13242 32.14210
#
# Velocity S-wave (km/s) = 3.49795 3.96286 3.73764
# Velocity P-wave (km/s) = 6.15803 6.75118 6.46142
#
# Compressibility (1/GPa) = 0.02011518
#
# Stress axis : x y z
#
# Youngs Moduli (GPa) = 83.94395 113.28941 64.75023
#
# Poissons Ratio (x) = 0.38623 0.17645
# Poissons Ratio (y) = 0.28618 0.12302
# Poissons Ratio (z) = 0.22876 0.21524
#
# Static dielectric constant tensor:
#      x y z
#    x 4.111120 0.059810 -0.008610 
#    y 0.059810 4.443240 0.124270 
#    z -0.008610 0.124270 4.037220 
# 
# 
# High freq. dielectric constant tensor:
#      x y z
#    x 1.908370 0.005680 -0.012830 
#    y 0.005680 1.931830 0.014120 
#    z -0.012830 0.014120 1.890890 
# 
# From -- ./inp_files/263714.got.cif
#   From: 2010.06.25/outbox.cif.g09.slc.cpg/sg2_132_cif.got.tgz:263714.got - 2010.06.27 13:26:56.
