data_PCOD8021628
_publ_section_title
;
Structure prediction by ZEFSAII (Michael W. Deem and Ramdas Pophale) SiO2 
 PCOD8021628
Probable space group: P -1
;
_chemical_formula_sum "Si O2"
_cell_formula_units_Z 16
_cell_length_a 18.093397
_cell_length_b 9.063111
_cell_length_c 8.789722
_cell_angle_alpha 77.004626
_cell_angle_beta 35.670032
_cell_angle_gamma 66.120697
_cell_volume 753.777465
_symmetry_space_group_name_H-M "P -1"
_symmetry_group_IT_number 2
_symmetry_cell_setting 'triclinic'
loop_
_space_group_symop_operation_xyz
x,y,z
-x,-y,-z
loop_
_atom_site_type_symbol
_atom_site_label
_atom_site_fract_x
_atom_site_fract_y
_atom_site_fract_z
Si Si1 0.762124 0.647346 0.035304
Si Si2 0.220060 0.801557 0.340541
Si Si3 0.021593 0.119895 0.052737
Si Si4 0.490393 0.165355 0.402029
Si Si5 0.205962 0.009842 0.058162
Si Si6 0.971517 0.583314 0.188137
Si Si7 0.510528 0.156203 0.028281
Si Si8 0.722277 0.548718 0.789506
O O1 0.743117 0.579424 0.921869
O O2 0.891988 0.500034 0.921157
O O3 0.787062 0.816938 0.944311
O O4 0.624101 0.678957 0.358007
O O5 0.117248 0.782426 0.643524
O O6 0.133926 0.948137 0.330326
O O7 0.283786 0.627979 0.186524
O O8 0.333920 0.853722 0.220063
O O9 0.139733 0.027058 0.999305
O O10 0.065446 0.228476 0.835746
O O11 0.000000 0.000000 0.000000
O O12 0.444762 0.170113 0.302343
O O13 0.500000 0.000000 0.500000
O O14 0.647404 0.149914 0.155626
O O15 0.843741 0.568507 0.487920
O O16 0.000000 0.500000 0.000000
O O17 0.425372 0.319099 0.040676
O O18 0.500000 0.000000 0.000000
#
# Coordination Sequence:
#
# PCOD8021628 Si02
#       8
#     2   2   2   2   2   2   2   2
#     4  11  23  42  70  97 131 179 227 274 332 405
#     4  11  25  45  64 100 138 173 221 278 339 392
#     4  12  28  41  69  99 137 175 223 282 330 402
#     4   9  20  38  67  97 128 168 222 273 323 393
#     4  10  22  44  65  95 135 177 219 271 336 399
#     4  12  24  45  67  99 133 180 224 277 339 390
#     4  11  24  43  71  98 134 179 224 273 335 406
#     4  12  25  42  69  98 136 179 223 280 332 402
#
# _framework density 21.226424000000002
#
# number of rings (size 3 to 8) (size 9 to 14) (size 15 to 20)
#    0.000    1.000    2.500    4.125    7.000    1.000 
#    0.000    2.500    0.000    0.000    0.000    0.000 
#    0.000    0.000    0.000    0.000    0.000    0.000 
#
# Total GULP energy -198302.719213 kJ/mol
# GULP energy per Si atom -12393.919951 kJ/mol
# Density = 2.117811 g / cm^3
# Si number density = 21.226424 Si / 1000 Ang^3
#
#
#
# Elastic Constant Matrix: (Units=GPa)
#
#
# Indices 1 2 3 4 5 6 
#
# 1 166.5400 65.8906 34.6778 8.2282 6.9040 -2.8274
# 2 65.8906 111.4383 15.3463 0.6290 2.3103 -2.9580
# 3 34.6778 15.3463 79.0313 -3.5780 7.4124 1.2074
# 4 8.2282 0.6290 -3.5780 29.4225 -3.0947 2.9050
# 5 6.9040 2.3103 7.4124 -3.0947 37.4130 7.8794
# 6 -2.8274 -2.9580 1.2074 2.9050 7.8794 48.0212
#
#
#
# Elastic Compliance Matrix: (Units=1/GPa)
#
#
# Indices 1 2 3 4 5 6 
#
# 1 0.008655 -0.004658 -0.002929 -0.002857 -0.001102 0.000650
# 2 -0.004658 0.011758 -0.000216 0.001008 0.000183 0.000364
# 3 -0.002929 -0.000216 0.014282 0.002386 -0.002002 -0.000361
# 4 -0.002857 0.001008 0.002386 0.035717 0.003560 -0.002911
# 5 -0.001102 0.000183 -0.002002 0.003560 0.028648 -0.004919
# 6 0.000650 0.000364 -0.000361 -0.002911 -0.004919 0.021877
#
#
# Mechanical properties :
#
#
# Convention : Reuss Voigt Hill
#
# Bulk Modulus (GPa) = 52.38970 65.42656 58.90813
# Shear Modulus (GPa) = 34.98781 39.04433 37.01607
#
# Velocity S-wave (km/s) = 4.06435 4.29350 4.18049
# Velocity P-wave (km/s) = 6.83814 7.44775 7.14944
#
# Compressibility (1/GPa) = 0.01908772
#
# Stress axis : x y z
#
# Youngs Moduli (GPa) = 115.53552 85.05035 70.01901
#
# Poissons Ratio (x) = 0.39617 0.20510
# Poissons Ratio (y) = 0.53817 0.01515
# Poissons Ratio (z) = 0.33843 0.01840
#
# Static dielectric constant tensor:
#      x y z
#    x 3.948470 -0.131080 -0.160570 
#    y -0.131080 3.802760 -0.125800 
#    z -0.160570 -0.125800 6.125280 
# 
# 
# High freq. dielectric constant tensor:
#      x y z
#    x 1.843970 -0.013790 0.001630 
#    y -0.013790 1.836600 -0.005360 
#    z 0.001630 -0.005360 1.838630 
# 
# From -- ./inp_files/328809.got.cif
#   From: 2010.06.25/outbox.cif.g09.slc.cpg/sg2_165_cif.got.tgz:328809.got - 2010.06.27 13:26:56.
