data_PCOD8021904
_publ_section_title
;
Structure prediction by ZEFSAII (Michael W. Deem and Ramdas Pophale) SiO2 
 PCOD8021904
Probable space group: P -1
;
_chemical_formula_sum "Si O2"
_cell_formula_units_Z 16
_cell_length_a 5.312107
_cell_length_b 14.115148
_cell_length_c 15.539342
_cell_angle_alpha 37.001972
_cell_angle_beta 76.882112
_cell_angle_gamma 72.423335
_cell_volume 668.298235
_symmetry_space_group_name_H-M "P -1"
_symmetry_group_IT_number 2
_symmetry_cell_setting 'triclinic'
loop_
_space_group_symop_operation_xyz
x,y,z
-x,-y,-z
loop_
_atom_site_type_symbol
_atom_site_label
_atom_site_fract_x
_atom_site_fract_y
_atom_site_fract_z
Si Si1 0.673525 0.164128 0.423954
Si Si2 0.825230 0.744837 0.495260
Si Si3 0.306250 0.918553 0.956659
Si Si4 0.100830 0.211758 0.039438
Si Si5 0.209717 0.532980 0.729039
Si Si6 0.789599 0.716205 0.325508
Si Si7 0.040149 0.948324 0.676101
Si Si8 0.636874 0.342595 0.725485
O O1 0.375569 0.227155 0.429731
O O2 0.819126 0.313644 0.317708
O O3 0.697110 0.113712 0.357986
O O4 0.800703 0.010508 0.583719
O O5 0.703881 0.720210 0.429422
O O6 0.045412 0.588180 0.614772
O O7 0.938930 0.908224 0.363227
O O8 0.601880 0.889986 0.916751
O O9 0.105041 0.848479 0.963013
O O10 0.206164 0.107896 0.839475
O O11 0.312560 0.837473 0.109063
O O12 0.014692 0.197518 0.155581
O O13 0.091611 0.397723 0.884808
O O14 0.513074 0.465386 0.722979
O O15 0.574532 0.640188 0.347689
O O16 0.091554 0.614731 0.362305
#
# Coordination Sequence:
#
# PCOD8021904 Si02
#       8
#     2   2   2   2   2   2   2   2
#     4  10  23  44  72  94 138 173 222 280 345 392
#     4  11  24  42  69  96 138 173 227 276 339 393
#     4  11  22  42  68  98 141 172 226 280 336 383
#     4  11  23  42  73 100 137 178 219 278 337 400
#     4  10  26  43  63  97 140 181 215 276 338 401
#     4  12  24  40  69 100 131 180 231 275 326 396
#     4  10  22  44  70 105 124 173 232 279 334 404
#     4  11  25  41  64 100 136 181 223 273 332 399
#
# _framework density 23.941407000000002
#
# number of rings (size 3 to 8) (size 9 to 14) (size 15 to 20)
#    0.000    1.250    1.250    4.125    8.750    1.500 
#    0.000    0.625    0.000    0.000    0.000    0.000 
#    0.000    0.000    0.000    0.000    0.000    0.000 
#
# Total GULP energy -198422.404675 kJ/mol
# GULP energy per Si atom -12401.400292 kJ/mol
# Density = 2.388692 g / cm^3
# Si number density = 23.941407 Si / 1000 Ang^3
#
#
#
# Elastic Constant Matrix: (Units=GPa)
#
#
# Indices 1 2 3 4 5 6 
#
# 1 124.4027 28.2999 36.2264 9.5380 7.9160 -12.5112
# 2 28.2999 90.0943 45.8753 13.4664 7.4799 -7.5395
# 3 36.2264 45.8753 116.6632 10.2825 -9.2833 -2.8670
# 4 9.5380 13.4664 10.2825 39.0737 -5.0990 -3.9283
# 5 7.9160 7.4799 -9.2833 -5.0990 24.5578 5.6243
# 6 -12.5112 -7.5395 -2.8670 -3.9283 5.6243 39.4219
#
#
#
# Elastic Compliance Matrix: (Units=1/GPa)
#
#
# Indices 1 2 3 4 5 6 
#
# 1 0.009859 -0.000576 -0.003017 -0.001764 -0.005283 0.003377
# 2 -0.000576 0.016259 -0.006437 -0.004602 -0.008905 0.003270
# 3 -0.003017 -0.006437 0.012602 0.000486 0.008351 -0.002415
# 4 -0.001764 -0.004602 0.000486 0.028557 0.008015 0.000297
# 5 -0.005283 -0.008905 0.008351 0.008015 0.052111 -0.009408
# 6 0.003377 0.003270 -0.002415 0.000297 -0.009408 0.028260
#
#
# Mechanical properties :
#
#
# Convention : Reuss Voigt Hill
#
# Bulk Modulus (GPa) = 53.58981 61.32928 57.45955
# Shear Modulus (GPa) = 28.74736 35.32790 32.03763
#
# Velocity S-wave (km/s) = 3.46893 3.84552 3.66207
# Velocity P-wave (km/s) = 6.20298 6.73716 6.47558
#
# Compressibility (1/GPa) = 0.01866026
#
# Stress axis : x y z
#
# Youngs Moduli (GPa) = 101.43033 61.50436 79.35137
#
# Poissons Ratio (x) = 0.03541 0.23940
# Poissons Ratio (y) = 0.05840 0.51081
# Poissons Ratio (z) = 0.30601 0.39592
#
# Static dielectric constant tensor:
#      x y z
#    x 4.307420 -0.078630 0.041410 
#    y -0.078630 4.276380 -0.152280 
#    z 0.041410 -0.152280 4.413920 
# 
# 
# High freq. dielectric constant tensor:
#      x y z
#    x 1.953520 -0.006330 -0.002410 
#    y -0.006330 1.941700 -0.008260 
#    z -0.002410 -0.008260 1.957820 
# 
# From -- ./inp_files/75862.got.cif
#   From: 2010.06.25/outbox.cif.g09.slc.cpg/sg2_38_cif.got.tgz:75862.got - 2010.06.27 13:26:56.
