data_PCOD8021651
_publ_section_title
;
Structure prediction by ZEFSAII (Michael W. Deem and Ramdas Pophale) SiO2 
 PCOD8021651
Probable space group: P -1
;
_chemical_formula_sum "Si O2"
_cell_formula_units_Z 14
_cell_length_a 5.232249
_cell_length_b 14.231055
_cell_length_c 15.086585
_cell_angle_alpha 142.939619
_cell_angle_beta 72.562884
_cell_angle_gamma 125.338673
_cell_volume 521.446963
_symmetry_space_group_name_H-M "P -1"
_symmetry_group_IT_number 2
_symmetry_cell_setting 'triclinic'
loop_
_space_group_symop_operation_xyz
x,y,z
-x,-y,-z
loop_
_atom_site_type_symbol
_atom_site_label
_atom_site_fract_x
_atom_site_fract_y
_atom_site_fract_z
Si Si1 0.477978 0.211862 0.402020
Si Si2 0.739342 0.066292 0.404311
Si Si3 0.055833 0.348068 0.733019
Si Si4 0.125980 0.701528 0.974866
Si Si5 0.267459 0.410664 0.249769
Si Si6 0.727930 0.721444 0.166352
Si Si7 0.680854 0.063409 0.121460
O O1 0.514914 0.084142 0.373239
O O2 0.732422 0.434953 0.573005
O O3 0.578719 0.187859 0.276326
O O4 0.106386 0.152857 0.396061
O O5 0.762792 0.170798 0.572514
O O6 0.554950 0.833885 0.263757
O O7 0.995396 0.502737 0.892469
O O8 0.358766 0.498778 0.748255
O O9 0.139482 0.252558 0.727983
O O10 0.945062 0.631250 0.847104
O O11 0.018120 0.813586 0.130556
O O12 0.529140 0.862638 0.041188
O O13 0.081201 0.206246 0.171217
O O14 0.500000 0.500000 0.000000
O O15 0.500000 0.000000 0.000000
#
# Coordination Sequence:
#
# PCOD8021651 Si02
#       7
#     2   2   2   2   2   2   2
#     4  11  23  48  73 103 145 183 240 286 353 426
#     4  11  26  47  73 104 142 190 233 293 350 425
#     4  11  24  44  68 101 140 186 237 285 352 422
#     4  11  22  44  66 104 138 180 238 287 355 408
#     4  10  22  44  66 101 140 184 231 288 348 420
#     4  12  25  43  71 101 142 184 235 298 350 418
#     4  10  23  43  71 101 145 180 235 289 356 415
#
# _framework density 26.848369999999999
#
# number of rings (size 3 to 8) (size 9 to 14) (size 15 to 20)
#    0.000    1.143    4.286    1.286    2.000    1.714 
#    5.143    5.000    0.000    0.000    0.000    0.000 
#    0.000    0.000    0.000    0.000    0.000    0.000 
#
# Total GULP energy -173485.975130 kJ/mol
# GULP energy per Si atom -12391.855366 kJ/mol
# Density = 2.678726 g / cm^3
# Si number density = 26.848370 Si / 1000 Ang^3
#
#
#
# Elastic Constant Matrix: (Units=GPa)
#
#
# Indices 1 2 3 4 5 6 
#
# 1 35.0037 -8.4557 3.4034 1.2521 2.5377 -2.7609
# 2 -8.4557 95.3215 43.1023 24.9895 6.3726 1.2562
# 3 3.4034 43.1023 155.3325 -0.4779 3.5052 -5.4047
# 4 1.2521 24.9895 -0.4779 64.2138 -3.9068 -2.6102
# 5 2.5377 6.3726 3.5052 -3.9068 30.7635 2.8377
# 6 -2.7609 1.2562 -5.4047 -2.6102 2.8377 32.1989
#
#
#
# Elastic Compliance Matrix: (Units=1/GPa)
#
#
# Indices 1 2 3 4 5 6 
#
# 1 0.030311 0.004311 -0.001705 -0.002415 -0.003716 0.002276
# 2 0.004311 0.014571 -0.004113 -0.006046 -0.003575 -0.001064
# 3 -0.001705 -0.004113 0.007667 0.001762 0.000211 0.001425
# 4 -0.002415 -0.006046 0.001762 0.018256 0.003431 0.001502
# 5 -0.003716 -0.003575 0.000211 0.003431 0.034231 -0.002882
# 6 0.002276 -0.001064 0.001425 0.001502 -0.002882 0.031909
#
#
# Mechanical properties :
#
#
# Convention : Reuss Voigt Hill
#
# Bulk Modulus (GPa) = 20.18734 40.19532 30.19133
# Shear Modulus (GPa) = 31.95545 41.94241 36.94893
#
# Velocity S-wave (km/s) = 3.45370 3.95675 3.71375
# Velocity P-wave (km/s) = 4.84142 5.98984 5.44599
#
# Compressibility (1/GPa) = 0.04953600
#
# Stress axis : x y z
#
# Youngs Moduli (GPa) = 32.99140 68.62999 130.43617
#
# Poissons Ratio (x) = -0.29588 0.22237
# Poissons Ratio (y) = -0.14223 0.53643
# Poissons Ratio (z) = 0.05624 0.28225
#
# Static dielectric constant tensor:
#      x y z
#    x 4.525450 0.772260 -0.516510 
#    y 0.772260 7.240950 -0.733600 
#    z -0.516510 -0.733600 6.288130 
# 
# 
# High freq. dielectric constant tensor:
#      x y z
#    x 2.041450 0.025900 -0.005190 
#    y 0.025900 2.093520 0.009690 
#    z -0.005190 0.009690 2.121330 
# 
# From -- ./inp_files/28161.got.cif
#   From: 2010.06.25/outbox.cif.g09.slc.cpg/sg2_15_cif.got.tgz:28161.got - 2010.06.27 13:26:56.
