data_PCOD8021554
_publ_section_title
;
Structure prediction by ZEFSAII (Michael W. Deem and Ramdas Pophale) SiO2 
 PCOD8021554
Probable space group: P -1
;
_chemical_formula_sum "Si O2"
_cell_formula_units_Z 14
_cell_length_a 11.999878
_cell_length_b 10.915138
_cell_length_c 11.478068
_cell_angle_alpha 126.525758
_cell_angle_beta 36.894032
_cell_angle_gamma 101.898152
_cell_volume 601.225439
_symmetry_space_group_name_H-M "P -1"
_symmetry_group_IT_number 2
_symmetry_cell_setting 'triclinic'
loop_
_space_group_symop_operation_xyz
x,y,z
-x,-y,-z
loop_
_atom_site_type_symbol
_atom_site_label
_atom_site_fract_x
_atom_site_fract_y
_atom_site_fract_z
Si Si1 0.393496 0.477207 0.228061
Si Si2 0.540633 0.226603 0.560567
Si Si3 0.400363 0.379644 0.525829
Si Si4 0.911843 0.505945 0.338177
Si Si5 0.650948 0.994117 0.977375
Si Si6 0.135249 0.686083 0.341672
Si Si7 0.720354 0.859721 0.092035
O O1 0.357710 0.662799 0.416857
O O2 0.315661 0.380176 0.327884
O O3 0.234092 0.545696 0.287875
O O4 0.655520 0.318517 0.891862
O O5 0.366894 0.342910 0.666517
O O6 0.433914 0.187185 0.735179
O O7 0.720703 0.031162 0.239951
O O8 0.500000 0.500000 0.500000
O O9 0.153073 0.495166 0.741658
O O10 0.559890 0.196737 0.212483
O O11 0.056161 0.592635 0.265018
O O12 0.027907 0.309287 0.192273
O O13 0.916784 0.891429 0.664345
O O14 0.646315 0.883072 0.031508
O O15 0.500000 0.000000 0.000000
#
# Coordination Sequence:
#
# PCOD8021554 Si02
#       7
#     2   2   2   2   2   2   2
#     4  11  23  40  69 101 137 177 241 282 339 425
#     4  10  22  44  64 103 138 177 234 288 345 416
#     4  11  24  42  70 101 142 181 232 289 345 421
#     4  12  22  41  70  99 136 187 230 286 351 408
#     4  11  23  43  71 101 140 186 231 286 358 415
#     4  11  24  41  67 101 138 185 229 291 344 414
#     4  10  23  41  71 100 134 183 232 287 350 410
#
# _framework density 23.285775999999998
#
# number of rings (size 3 to 8) (size 9 to 14) (size 15 to 20)
#    0.000    1.143    5.714    0.429    0.000    2.286 
#    0.000    0.714    0.000    0.000    0.000    0.000 
#    0.000    0.000    0.000    0.000    0.000    0.000 
#
# Total GULP energy -173466.524852 kJ/mol
# GULP energy per Si atom -12390.466061 kJ/mol
# Density = 2.323278 g / cm^3
# Si number density = 23.285776 Si / 1000 Ang^3
#
#
#
# Elastic Constant Matrix: (Units=GPa)
#
#
# Indices 1 2 3 4 5 6 
#
# 1 144.2753 35.0076 32.6085 15.0317 -13.5870 -18.0180
# 2 35.0076 59.5500 20.2660 14.6505 -9.8835 -25.8241
# 3 32.6085 20.2660 98.2224 5.8977 -11.9134 -8.2541
# 4 15.0317 14.6505 5.8977 29.2528 3.7498 -0.6870
# 5 -13.5870 -9.8835 -11.9134 3.7498 37.1185 1.6239
# 6 -18.0180 -25.8241 -8.2541 -0.6870 1.6239 37.3036
#
#
#
# Elastic Compliance Matrix: (Units=1/GPa)
#
#
# Indices 1 2 3 4 5 6 
#
# 1 0.008715 -0.002608 -0.001753 -0.003051 0.002159 0.001865
# 2 -0.002608 0.033045 -0.002380 -0.015239 0.007724 0.020473
# 3 -0.001753 -0.002380 0.011587 -0.000565 0.002503 -0.000050
# 4 -0.003051 -0.015239 -0.000565 0.044443 -0.009368 -0.010922
# 5 0.002159 0.007724 0.002503 -0.009368 0.031301 0.005409
# 6 0.001865 0.020473 -0.000050 -0.010922 0.005409 0.041433
#
#
# Mechanical properties :
#
#
# Convention : Reuss Voigt Hill
#
# Bulk Modulus (GPa) = 25.08513 53.09020 39.08766
# Shear Modulus (GPa) = 25.34279 35.01267 30.17773
#
# Velocity S-wave (km/s) = 3.30258 3.88184 3.60387
# Velocity P-wave (km/s) = 5.03376 6.55290 5.84292
#
# Compressibility (1/GPa) = 0.03986426
#
# Stress axis : x y z
#
# Youngs Moduli (GPa) = 114.75059 30.26173 86.30094
#
# Poissons Ratio (x) = 0.07894 0.15129
# Poissons Ratio (y) = 0.29932 0.20538
# Poissons Ratio (z) = 0.20116 0.07202
#
# Static dielectric constant tensor:
#      x y z
#    x 4.417060 -0.319170 0.127250 
#    y -0.319170 4.068700 0.250830 
#    z 0.127250 0.250830 4.646910 
# 
# 
# High freq. dielectric constant tensor:
#      x y z
#    x 1.934870 -0.013280 0.006560 
#    y -0.013280 1.910890 0.007490 
#    z 0.006560 0.007490 1.920300 
# 
# From -- ./inp_files/255765.got.cif
#   From: 2010.06.25/outbox.cif.g09.slc.cpg/sg2_128_cif.got.tgz:255765.got - 2010.06.27 13:26:56.
