data_PCOD8021236
_publ_section_title
;
Structure prediction by ZEFSAII (Michael W. Deem and Ramdas Pophale) SiO2 
 PCOD8021236
Probable space group: P -1
;
_chemical_formula_sum "Si O2"
_cell_formula_units_Z 16
_cell_length_a 15.382911
_cell_length_b 21.351345
_cell_length_c 5.855068
_cell_angle_alpha 84.532289
_cell_angle_beta 72.465340
_cell_angle_gamma 22.481361
_cell_volume 606.357322
_symmetry_space_group_name_H-M "P -1"
_symmetry_group_IT_number 2
_symmetry_cell_setting 'triclinic'
loop_
_space_group_symop_operation_xyz
x,y,z
-x,-y,-z
loop_
_atom_site_type_symbol
_atom_site_label
_atom_site_fract_x
_atom_site_fract_y
_atom_site_fract_z
Si Si1 0.279465 0.854510 0.764310
Si Si2 0.758362 0.933144 0.970951
Si Si3 0.376827 0.676154 0.486947
Si Si4 0.044941 0.107309 0.540161
Si Si5 0.213728 0.446631 0.250512
Si Si6 0.734985 0.356168 0.077249
Si Si7 0.236259 0.197151 0.783758
Si Si8 0.797972 0.678948 0.856135
O O1 0.436303 0.708037 0.508691
O O2 0.221193 0.958052 0.647446
O O3 0.471458 0.738579 0.876756
O O4 0.000000 0.000000 0.000000
O O5 0.945160 0.850112 0.026733
O O6 0.793686 0.939822 0.685676
O O7 0.831341 0.811585 0.967002
O O8 0.435884 0.151743 0.207649
O O9 0.603073 0.510182 0.176731
O O10 0.419766 0.600092 0.689426
O O11 0.066905 0.870164 0.564651
O O12 0.762202 0.322022 0.798582
O O13 0.215156 0.388698 0.081772
O O14 0.028597 0.623470 0.234146
O O15 0.088901 0.506945 0.573498
O O16 0.500000 0.000000 0.500000
O O17 0.274825 0.237413 0.879077
#
# Coordination Sequence:
#
# PCOD8021236 Si02
#       8
#     2   2   2   2   2   2   2   2
#     4  12  26  49  78 113 155 208 264 316 386 461
#     4  11  26  44  78 112 157 201 256 317 397 466
#     4  10  23  44  71 107 151 200 261 317 376 457
#     4  11  24  45  75 106 158 208 250 321 386 464
#     4  11  28  51  81 113 160 207 261 330 390 470
#     4  10  22  43  69 110 150 202 251 310 394 456
#     4  12  27  49  81 117 155 204 262 331 389 473
#     4  11  26  51  77 115 158 202 262 320 405 469
#
# _framework density 26.387080999999998
#
# number of rings (size 3 to 8) (size 9 to 14) (size 15 to 20)
#    0.000    1.000    2.500    2.250    5.250    4.000 
#    4.500    0.000    0.000    0.000    0.000    0.000 
#    0.000    0.000    0.000    0.000    0.000    0.000 
#
# Total GULP energy -198305.102232 kJ/mol
# GULP energy per Si atom -12394.068889 kJ/mol
# Density = 2.632702 g / cm^3
# Si number density = 26.387081 Si / 1000 Ang^3
#
#
#
# Elastic Constant Matrix: (Units=GPa)
#
#
# Indices 1 2 3 4 5 6 
#
# 1 127.2695 53.3806 61.1523 3.7568 9.2999 12.3924
# 2 53.3806 158.4908 38.9150 -4.7098 -9.3586 17.0149
# 3 61.1523 38.9150 97.0199 8.0470 18.4936 12.4233
# 4 3.7568 -4.7098 8.0470 32.2410 8.5660 0.5000
# 5 9.2999 -9.3586 18.4936 8.5660 42.0759 8.2299
# 6 12.3924 17.0149 12.4233 0.5000 8.2299 45.5261
#
#
#
# Elastic Compliance Matrix: (Units=1/GPa)
#
#
# Indices 1 2 3 4 5 6 
#
# 1 0.012080 -0.002421 -0.006524 -0.000066 -0.000217 -0.000563
# 2 -0.002421 0.008176 -0.002214 0.001116 0.003579 -0.002452
# 3 -0.006524 -0.002214 0.016703 -0.002184 -0.005774 -0.000887
# 4 -0.000066 0.001116 -0.002184 0.033237 -0.005713 0.000865
# 5 -0.000217 0.003579 -0.005774 -0.005713 0.029276 -0.004933
# 6 -0.000563 -0.002452 -0.000887 0.000865 -0.004933 0.024159
#
#
# Mechanical properties :
#
#
# Convention : Reuss Voigt Hill
#
# Bulk Modulus (GPa) = 68.30514 76.63066 72.46790
# Shear Modulus (GPa) = 33.14957 39.25742 36.20350
#
# Velocity S-wave (km/s) = 3.54825 3.86132 3.70809
# Velocity P-wave (km/s) = 6.53673 6.99884 6.77173
#
# Compressibility (1/GPa) = 0.01464019
#
# Stress axis : x y z
#
# Youngs Moduli (GPa) = 82.77916 122.30241 59.86992
#
# Poissons Ratio (x) = 0.29612 0.39060
# Poissons Ratio (y) = 0.20042 0.13258
# Poissons Ratio (z) = 0.54006 0.27083
#
# Static dielectric constant tensor:
#      x y z
#    x 4.616090 0.062180 0.129830 
#    y 0.062180 5.004680 0.277130 
#    z 0.129830 0.277130 4.680240 
# 
# 
# High freq. dielectric constant tensor:
#      x y z
#    x 2.050580 -0.002300 0.008920 
#    y -0.002300 2.074940 0.012900 
#    z 0.008920 0.012900 2.045300 
# 
# From -- ./inp_files/112856.got.cif
#   From: 2010.06.25/outbox.cif.g09.slc.cpg/sg2_57_cif.got.tgz:112856.got - 2010.06.27 13:26:56.
