data_PCOD8021078
_publ_section_title
;
Structure prediction by ZEFSAII (Michael W. Deem and Ramdas Pophale) SiO2 
 PCOD8021078
Probable space group: P -1
;
_chemical_formula_sum "Si O2"
_cell_formula_units_Z 16
_cell_length_a 6.380675
_cell_length_b 21.780916
_cell_length_c 18.044930
_cell_angle_alpha 17.723596
_cell_angle_beta 75.372622
_cell_angle_gamma 77.207647
_cell_volume 737.143421
_symmetry_space_group_name_H-M "P -1"
_symmetry_group_IT_number 2
_symmetry_cell_setting 'triclinic'
loop_
_space_group_symop_operation_xyz
x,y,z
-x,-y,-z
loop_
_atom_site_type_symbol
_atom_site_label
_atom_site_fract_x
_atom_site_fract_y
_atom_site_fract_z
Si Si1 0.542632 0.066371 0.042797
Si Si2 0.722465 0.583394 0.721947
Si Si3 0.959980 0.477485 0.115547
Si Si4 0.476746 0.289274 0.651072
Si Si5 0.148412 0.612011 0.297528
Si Si6 0.106121 0.521761 0.660124
Si Si7 0.346465 0.298406 0.021323
Si Si8 0.628362 0.104127 0.599928
O O1 0.618196 0.879389 0.203468
O O2 0.371846 0.999722 0.199365
O O3 0.431767 0.223136 0.816651
O O4 0.766993 0.162908 0.946290
O O5 0.592193 0.780899 0.519318
O O6 0.807476 0.510166 0.878311
O O7 0.933172 0.639321 0.588004
O O8 0.580038 0.401281 0.904720
O O9 0.834277 0.262443 0.392680
O O10 0.821146 0.663600 0.940705
O O11 0.000000 0.500000 0.000000
O O12 0.364921 0.491395 0.408297
O O13 0.737216 0.317453 0.583666
O O14 0.000000 0.500000 0.500000
O O15 0.021841 0.628382 0.213085
O O16 0.257694 0.396510 0.842475
O O17 0.366815 0.060962 0.276565
#
# Coordination Sequence:
#
# PCOD8021078 Si02
#       8
#     2   2   2   2   2   2   2   2
#     4  11  23  41  61  87 126 168 215 270 319 370
#     4  10  22  43  67  95 128 169 211 257 323 384
#     4  10  24  46  70  99 133 165 202 256 324 391
#     4  11  24  42  58  88 129 168 222 276 318 367
#     4  12  25  40  60  90 122 175 222 270 321 368
#     4  11  21  42  65  86 133 175 218 268 321 374
#     4  10  23  41  67  97 132 171 209 265 316 378
#     4  11  23  41  65  98 129 166 215 265 317 380
#
# _framework density 21.705410000000001
#
# number of rings (size 3 to 8) (size 9 to 14) (size 15 to 20)
#    0.000    1.250    1.250    5.625    1.750    6.000 
#    4.500    3.750    0.000    0.000    0.000    0.000 
#    0.000    0.000    0.000    0.000    0.000    0.000 
#
# Total GULP energy -198411.348194 kJ/mol
# GULP energy per Si atom -12400.709262 kJ/mol
# Density = 2.165601 g / cm^3
# Si number density = 21.705410 Si / 1000 Ang^3
#
#
#
# Elastic Constant Matrix: (Units=GPa)
#
#
# Indices 1 2 3 4 5 6 
#
# 1 133.8277 70.7107 50.9560 -6.0879 -4.6535 18.6711
# 2 70.7107 155.0241 54.8988 3.3941 -8.1929 22.2445
# 3 50.9560 54.8988 74.1200 -16.7780 -16.1760 10.4567
# 4 -6.0879 3.3941 -16.7780 48.1343 -2.0559 -1.1611
# 5 -4.6535 -8.1929 -16.1760 -2.0559 26.7671 -5.6927
# 6 18.6711 22.2445 10.4567 -1.1611 -5.6927 36.4254
#
#
#
# Elastic Compliance Matrix: (Units=1/GPa)
#
#
# Indices 1 2 3 4 5 6 
#
# 1 0.011659 -0.002756 -0.006485 -0.000810 -0.003435 -0.002994
# 2 -0.002756 0.010577 -0.006778 -0.003645 -0.002381 -0.003589
# 3 -0.006485 -0.006778 0.028294 0.010215 0.015113 0.002028
# 4 -0.000810 -0.003645 0.010215 0.024835 0.007169 0.001621
# 5 -0.003435 -0.002381 0.015113 0.007169 0.047092 0.006464
# 6 -0.002994 -0.003589 0.002028 0.001621 0.006464 0.031660
#
#
# Mechanical properties :
#
#
# Convention : Reuss Voigt Hill
#
# Bulk Modulus (GPa) = 54.07361 79.56698 66.82029
# Shear Modulus (GPa) = 25.99857 34.69245 30.34551
#
# Velocity S-wave (km/s) = 3.46467 4.00225 3.74312
# Velocity P-wave (km/s) = 6.40092 7.62198 7.03798
#
# Compressibility (1/GPa) = 0.01849331
#
# Stress axis : x y z
#
# Youngs Moduli (GPa) = 85.77157 94.54682 35.34269
#
# Poissons Ratio (x) = 0.26053 0.22919
# Poissons Ratio (y) = 0.23635 0.23955
# Poissons Ratio (z) = 0.55621 0.64084
#
# Static dielectric constant tensor:
#      x y z
#    x 4.090390 0.098030 -0.035440 
#    y 0.098030 4.131530 -0.151700 
#    z -0.035440 -0.151700 3.714640 
# 
# 
# High freq. dielectric constant tensor:
#      x y z
#    x 1.857580 0.007420 -0.008650 
#    y 0.007420 1.865680 -0.012570 
#    z -0.008650 -0.012570 1.826610 
# 
# From -- ./inp_files/142626.got.cif
#   From: 2010.06.25/outbox.cif.g09.slc.cpg/sg2_72_cif.got.tgz:142626.got - 2010.06.27 13:26:56.
