data_PCOD8021997
_publ_section_title
;
Structure prediction by ZEFSAII (Michael W. Deem and Ramdas Pophale) SiO2 
 PCOD8021997
Probable space group: P -1
;
_chemical_formula_sum "Si O2"
_cell_formula_units_Z 16
_cell_length_a 17.923391
_cell_length_b 8.769096
_cell_length_c 11.822330
_cell_angle_alpha 54.289006
_cell_angle_beta 127.195082
_cell_angle_gamma 148.539696
_cell_volume 762.093557
_symmetry_space_group_name_H-M "P -1"
_symmetry_group_IT_number 2
_symmetry_cell_setting 'triclinic'
loop_
_space_group_symop_operation_xyz
x,y,z
-x,-y,-z
loop_
_atom_site_type_symbol
_atom_site_label
_atom_site_fract_x
_atom_site_fract_y
_atom_site_fract_z
Si Si1 0.244403 0.326037 0.558378
Si Si2 0.418302 0.686137 0.093155
Si Si3 0.063524 0.731223 0.362112
Si Si4 0.397967 0.314115 0.877577
Si Si5 0.037411 0.331116 0.381228
Si Si6 0.089866 0.811252 0.902397
Si Si7 0.107305 0.189680 0.912965
Si Si8 0.359442 0.410490 0.391905
O O1 0.349351 0.426821 0.715942
O O2 0.179623 0.424285 0.500289
O O3 0.331605 0.480673 0.452759
O O4 0.111415 0.972137 0.560704
O O5 0.517409 0.670860 0.145798
O O6 0.388522 0.607424 0.233557
O O7 0.268724 0.477269 0.979549
O O8 0.500000 0.000000 0.000000
O O9 0.070088 0.602233 0.315339
O O10 0.000000 0.500000 0.500000
O O11 0.945850 0.716305 0.249967
O O12 0.225112 0.065289 0.384919
O O13 0.247628 0.980967 0.926736
O O14 0.500000 0.500000 0.000000
O O15 0.008716 0.249654 0.258622
O O16 0.113444 0.006028 0.931697
O O17 0.000000 0.500000 0.000000
O O18 0.000000 0.000000 0.000000
O O19 0.500000 0.500000 0.500000
#
# Coordination Sequence:
#
# PCOD8021997 Si02
#       8
#     2   2   2   2   2   2   2   2
#     4  10  22  44  71  99 140 185 237 293 351 426
#     4  12  29  46  72 104 148 193 240 298 371 425
#     4  12  26  42  74 105 143 184 243 292 358 431
#     4  11  24  46  68 100 143 188 235 295 356 426
#     4  10  23  41  70 104 133 183 241 291 354 414
#     4  11  25  43  74 101 142 187 240 300 365 424
#     4  12  26  46  71 107 142 189 248 298 353 437
#     4  12  25  48  71 102 148 187 236 301 362 436
#
# _framework density 20.994796000000001
#
# number of rings (size 3 to 8) (size 9 to 14) (size 15 to 20)
#    0.000    0.750    5.000    1.500   10.500    0.000 
#    0.000    0.625    0.000    0.000    0.000    0.000 
#    0.000    0.000    0.000    0.000    0.000    0.000 
#
# Total GULP energy -198360.979542 kJ/mol
# GULP energy per Si atom -12397.561221 kJ/mol
# Density = 2.094701 g / cm^3
# Si number density = 20.994796 Si / 1000 Ang^3
#
#
#
# Elastic Constant Matrix: (Units=GPa)
#
#
# Indices 1 2 3 4 5 6 
#
# 1 96.2864 43.1988 44.9198 5.1383 -1.9968 18.3383
# 2 43.1988 120.8001 75.0931 0.9268 2.9291 9.5869
# 3 44.9198 75.0931 151.1284 2.1657 -0.2389 16.9220
# 4 5.1383 0.9268 2.1657 43.7774 9.2167 0.2177
# 5 -1.9968 2.9291 -0.2389 9.2167 46.2172 1.8550
# 6 18.3383 9.5869 16.9220 0.2177 1.8550 33.3956
#
#
#
# Elastic Compliance Matrix: (Units=1/GPa)
#
#
# Indices 1 2 3 4 5 6 
#
# 1 0.014001 -0.003473 -0.001751 -0.001749 0.001400 -0.005870
# 2 -0.003473 0.012875 -0.005495 0.000647 -0.001166 0.001056
# 3 -0.001751 -0.005495 0.010168 -0.000270 0.000485 -0.002638
# 4 -0.001749 0.000647 -0.000270 0.024088 -0.004963 0.001030
# 5 0.001400 -0.001166 0.000485 -0.004963 0.022840 -0.001916
# 6 -0.005870 0.001056 -0.002638 0.001030 -0.001916 0.034301
#
#
# Mechanical properties :
#
#
# Convention : Reuss Voigt Hill
#
# Bulk Modulus (GPa) = 64.07593 77.18202 70.62897
# Shear Modulus (GPa) = 34.50350 38.34493 36.42421
#
# Velocity S-wave (km/s) = 4.05832 4.27828 4.16975
# Velocity P-wave (km/s) = 7.24887 7.82606 7.54299
#
# Compressibility (1/GPa) = 0.01560649
#
# Stress axis : x y z
#
# Youngs Moduli (GPa) = 71.42218 77.66903 98.35134
#
# Poissons Ratio (x) = 0.26973 0.17225
# Poissons Ratio (y) = 0.24804 0.54039
# Poissons Ratio (z) = 0.12509 0.42675
#
# Static dielectric constant tensor:
#      x y z
#    x 3.837700 0.060310 -0.021890 
#    y 0.060310 3.944130 -0.115120 
#    z -0.021890 -0.115120 4.208120 
# 
# 
# High freq. dielectric constant tensor:
#      x y z
#    x 1.833800 0.014000 -0.004590 
#    y 0.014000 1.814440 0.008700 
#    z -0.004590 0.008700 1.840390 
# 
# From -- ./inp_files/274305.got.cif
#   From: 2010.06.25/outbox.cif.g09.slc.cpg/sg2_138_cif.got.tgz:274305.got - 2010.06.27 13:26:56.
