data_PCOD8021929
_publ_section_title
;
Structure prediction by ZEFSAII (Michael W. Deem and Ramdas Pophale) SiO2 
 PCOD8021929
Probable space group: P -1
;
_chemical_formula_sum "Si O2"
_cell_formula_units_Z 16
_cell_length_a 22.334217
_cell_length_b 15.779648
_cell_length_c 7.105074
_cell_angle_alpha 74.444127
_cell_angle_beta 116.259519
_cell_angle_gamma 158.383282
_cell_volume 745.587418
_symmetry_space_group_name_H-M "P -1"
_symmetry_group_IT_number 2
_symmetry_cell_setting 'triclinic'
loop_
_space_group_symop_operation_xyz
x,y,z
-x,-y,-z
loop_
_atom_site_type_symbol
_atom_site_label
_atom_site_fract_x
_atom_site_fract_y
_atom_site_fract_z
Si Si1 0.398533 0.455296 0.284524
Si Si2 0.729800 0.938569 0.211128
Si Si3 0.744643 0.629715 0.503614
Si Si4 0.813155 0.863280 0.179182
Si Si5 0.961395 0.599445 0.386056
Si Si6 0.738053 0.159600 0.502500
Si Si7 0.577860 0.192889 0.006999
Si Si8 0.445784 0.127688 0.221357
O O1 0.500000 0.500000 0.500000
O O2 0.553106 0.708540 0.246626
O O3 0.284832 0.374223 0.323217
O O4 0.240256 0.222119 0.059044
O O5 0.738348 0.866654 0.127253
O O6 0.702562 0.992134 0.019404
O O7 0.929086 0.196777 0.447895
O O8 0.704904 0.659845 0.284878
O O9 0.600862 0.373281 0.410581
O O10 0.958910 0.858263 0.640615
O O11 0.841082 0.379332 0.471260
O O12 0.810926 0.473252 0.128763
O O13 0.113865 0.738088 0.382609
O O14 0.676371 0.084154 0.679504
O O15 0.545448 0.903507 0.258528
O O16 0.551369 0.196314 0.178235
O O17 0.500000 0.000000 0.000000
#
# Coordination Sequence:
#
# PCOD8021929 Si02
#       8
#     2   2   2   2   2   2   2   2
#     4  12  23  43  67  91 131 177 215 271 335 386
#     4  12  23  43  66  98 135 174 226 273 329 404
#     4  11  24  42  68  95 131 175 219 276 329 393
#     4  11  24  44  63  97 134 169 225 274 328 399
#     4  10  22  44  70  97 134 174 223 278 331 397
#     4  10  23  46  67  98 135 174 224 277 333 393
#     4  10  23  46  67  95 135 174 220 281 332 388
#     4  12  24  43  70  97 135 179 220 277 334 397
#
# _framework density 21.459589999999999
#
# number of rings (size 3 to 8) (size 9 to 14) (size 15 to 20)
#    0.000    1.000    3.750    3.000    0.000    2.500 
#    6.750    0.000    0.000    0.000    0.000    0.000 
#    0.000    0.000    0.000    0.000    0.000    0.000 
#
# Total GULP energy -198443.159668 kJ/mol
# GULP energy per Si atom -12402.697479 kJ/mol
# Density = 2.141075 g / cm^3
# Si number density = 21.459590 Si / 1000 Ang^3
#
#
#
# Elastic Constant Matrix: (Units=GPa)
#
#
# Indices 1 2 3 4 5 6 
#
# 1 101.4876 12.8060 16.4486 -2.1445 -8.4514 16.6297
# 2 12.8060 58.2692 18.8961 4.2883 6.9819 9.7405
# 3 16.4486 18.8961 83.2347 7.4691 0.5796 13.5403
# 4 -2.1445 4.2883 7.4691 36.2797 4.1513 -3.9556
# 5 -8.4514 6.9819 0.5796 4.1513 38.0119 8.5202
# 6 16.6297 9.7405 13.5403 -3.9556 8.5202 33.7191
#
#
#
# Elastic Compliance Matrix: (Units=1/GPa)
#
#
# Indices 1 2 3 4 5 6 
#
# 1 0.011542 -0.001748 -0.000954 -0.000039 0.004223 -0.005876
# 2 -0.001748 0.019644 -0.003486 -0.001656 -0.003132 -0.002816
# 3 -0.000954 -0.003486 0.014089 -0.003283 0.001691 -0.004992
# 4 -0.000039 -0.001656 -0.003283 0.029623 -0.004320 0.006382
# 5 0.004223 -0.003132 0.001691 -0.004320 0.030527 -0.010077
# 6 -0.005876 -0.002816 -0.004992 0.006382 -0.010077 0.038668
#
#
# Mechanical properties :
#
#
# Convention : Reuss Voigt Hill
#
# Bulk Modulus (GPa) = 30.39562 37.69922 34.04742
# Shear Modulus (GPa) = 29.86217 34.59153 32.22685
#
# Velocity S-wave (km/s) = 3.73440 4.01925 3.87944
# Velocity P-wave (km/s) = 5.72619 6.25658 5.99725
#
# Compressibility (1/GPa) = 0.03289948
#
# Stress axis : x y z
#
# Youngs Moduli (GPa) = 86.63728 50.90579 70.97707
#
# Poissons Ratio (x) = 0.08899 0.06772
# Poissons Ratio (y) = 0.15146 0.24740
# Poissons Ratio (z) = 0.08267 0.17744
#
# Static dielectric constant tensor:
#      x y z
#    x 3.862570 0.094060 0.098790 
#    y 0.094060 3.903680 0.221720 
#    z 0.098790 0.221720 4.282670 
# 
# 
# High freq. dielectric constant tensor:
#      x y z
#    x 1.852550 0.003720 -0.000870 
#    y 0.003720 1.837490 0.015110 
#    z -0.000870 0.015110 1.848990 
# 
# From -- ./inp_files/124737.got.cif
#   From: 2010.06.25/outbox.cif.g09.slc.cpg/sg2_63_cif.got.tgz:124737.got - 2010.06.27 13:26:56.
