data_PCOD8021372
_publ_section_title
;
Structure prediction by ZEFSAII (Michael W. Deem and Ramdas Pophale) SiO2 
 PCOD8021372
Probable space group: P -1
;
_chemical_formula_sum "Si O2"
_cell_formula_units_Z 16
_cell_length_a 9.417097
_cell_length_b 13.669785
_cell_length_c 8.906572
_cell_angle_alpha 78.740305
_cell_angle_beta 129.723639
_cell_angle_gamma 71.517758
_cell_volume 701.016017
_symmetry_space_group_name_H-M "P -1"
_symmetry_group_IT_number 2
_symmetry_cell_setting 'triclinic'
loop_
_space_group_symop_operation_xyz
x,y,z
-x,-y,-z
loop_
_atom_site_type_symbol
_atom_site_label
_atom_site_fract_x
_atom_site_fract_y
_atom_site_fract_z
Si Si1 0.748267 0.632364 0.180118
Si Si2 0.610176 0.369483 0.193289
Si Si3 0.846920 0.601412 0.593135
Si Si4 0.874482 0.811648 0.498705
Si Si5 0.253137 0.145818 0.912014
Si Si6 0.625290 0.029526 0.454977
Si Si7 0.488833 0.611336 0.530649
Si Si8 0.871932 0.119101 0.773740
O O1 0.745478 0.601440 0.362305
O O2 0.854364 0.708386 0.204097
O O3 0.888539 0.511555 0.205242
O O4 0.490405 0.699775 0.928190
O O5 0.549458 0.390273 0.319922
O O6 0.879058 0.274737 0.383772
O O7 0.500000 0.500000 0.000000
O O8 0.814187 0.728170 0.566110
O O9 0.729699 0.584074 0.659080
O O10 0.687295 0.890351 0.214144
O O11 0.852906 0.902748 0.584616
O O12 0.071431 0.118226 0.832434
O O13 0.460362 0.088339 0.183433
O O14 0.707847 0.110162 0.549891
O O15 0.500000 0.000000 0.500000
O O16 0.500000 0.500000 0.500000
O O17 0.290125 0.748915 0.290301
O O18 0.000000 0.000000 0.000000
#
# Coordination Sequence:
#
# PCOD8021372 Si02
#       8
#     2   2   2   2   2   2   2   2
#     4  10  22  43  71 101 147 191 239 304 372 443
#     4  12  24  46  71 112 153 194 249 310 372 455
#     4  10  22  43  71  99 143 192 240 300 369 437
#     4  11  25  47  74 105 149 195 247 304 382 447
#     4  11  24  47  73 103 145 197 245 303 377 442
#     4  12  26  48  74 104 146 195 249 305 370 446
#     4  12  26  45  74 107 145 194 254 307 372 445
#     4  12  26  48  74 109 154 190 247 318 377 442
#
# _framework density 22.824016
#
# number of rings (size 3 to 8) (size 9 to 14) (size 15 to 20)
#    0.000    0.750    3.750    3.375    1.750    3.000 
#    4.500    0.000    0.000    0.000    0.000    0.000 
#    0.000    0.000    0.000    0.000    0.000    0.000 
#
# Total GULP energy -198255.211900 kJ/mol
# GULP energy per Si atom -12390.950744 kJ/mol
# Density = 2.277207 g / cm^3
# Si number density = 22.824016 Si / 1000 Ang^3
#
#
#
# Elastic Constant Matrix: (Units=GPa)
#
#
# Indices 1 2 3 4 5 6 
#
# 1 145.7932 52.0088 39.7663 6.6413 -1.4848 8.9119
# 2 52.0088 138.3713 40.2751 1.6109 0.4594 3.2174
# 3 39.7663 40.2751 106.8908 3.2168 -0.1428 5.2126
# 4 6.6413 1.6109 3.2168 30.4148 16.0067 5.8685
# 5 -1.4848 0.4594 -0.1428 16.0067 29.4989 4.6130
# 6 8.9119 3.2174 5.2126 5.8685 4.6130 45.4400
#
#
#
# Elastic Compliance Matrix: (Units=1/GPa)
#
#
# Indices 1 2 3 4 5 6 
#
# 1 0.008531 -0.002553 -0.002085 -0.002270 0.001870 -0.001150
# 2 -0.002553 0.008884 -0.002425 0.000666 -0.000660 0.000131
# 3 -0.002085 -0.002425 0.011099 -0.000716 0.000476 -0.000648
# 4 -0.002270 0.000666 -0.000716 0.047340 -0.025337 -0.003062
# 5 0.001870 -0.000660 0.000476 -0.025337 0.048064 -0.001982
# 6 -0.001150 0.000131 -0.000648 -0.003062 -0.001982 0.022894
#
#
# Mechanical properties :
#
#
# Convention : Reuss Voigt Hill
#
# Bulk Modulus (GPa) = 69.50274 72.79509 71.14892
# Shear Modulus (GPa) = 30.16902 38.33777 34.25340
#
# Velocity S-wave (km/s) = 3.63962 4.10288 3.87817
# Velocity P-wave (km/s) = 6.94119 7.37618 7.16199
#
# Compressibility (1/GPa) = 0.01438792
#
# Stress axis : x y z
#
# Youngs Moduli (GPa) = 117.21812 112.56721 90.10217
#
# Poissons Ratio (x) = 0.28735 0.18787
# Poissons Ratio (y) = 0.29922 0.21848
# Poissons Ratio (z) = 0.24441 0.27296
#
# Static dielectric constant tensor:
#      x y z
#    x 4.238120 0.289100 -0.110060 
#    y 0.289100 4.505110 -0.149180 
#    z -0.110060 -0.149180 4.313640 
# 
# 
# High freq. dielectric constant tensor:
#      x y z
#    x 1.908310 0.014030 -0.003330 
#    y 0.014030 1.911300 -0.003220 
#    z -0.003330 -0.003220 1.900110 
# 
# From -- ./inp_files/207190.got.cif
#   From: 2010.06.25/outbox.cif.g09.slc.cpg/sg2_104_cif.got.tgz:207190.got - 2010.06.27 13:26:56.
