data_PCOD8021584
_publ_section_title
;
Structure prediction by ZEFSAII (Michael W. Deem and Ramdas Pophale) SiO2 
 PCOD8021584
Probable space group: P -1
;
_chemical_formula_sum "Si O2"
_cell_formula_units_Z 16
_cell_length_a 9.552733
_cell_length_b 8.497270
_cell_length_c 15.308903
_cell_angle_alpha 62.663450
_cell_angle_beta 54.242814
_cell_angle_gamma 96.442144
_cell_volume 760.815095
_symmetry_space_group_name_H-M "P -1"
_symmetry_group_IT_number 2
_symmetry_cell_setting 'triclinic'
loop_
_space_group_symop_operation_xyz
x,y,z
-x,-y,-z
loop_
_atom_site_type_symbol
_atom_site_label
_atom_site_fract_x
_atom_site_fract_y
_atom_site_fract_z
Si Si1 0.191342 0.192713 0.500906
Si Si2 0.751531 0.096616 0.705902
Si Si3 0.571880 0.994844 0.615925
Si Si4 0.620796 0.363727 0.768672
Si Si5 0.776424 0.939257 0.116403
Si Si6 0.428322 0.652477 0.005752
Si Si7 0.388722 0.257057 0.590491
Si Si8 0.205819 0.666232 0.928492
O O1 0.253262 0.031228 0.484106
O O2 0.315708 0.410807 0.348954
O O3 0.229178 0.209115 0.585412
O O4 0.953256 0.101958 0.602425
O O5 0.778901 0.296588 0.696742
O O6 0.641067 0.101067 0.657757
O O7 0.607583 0.890767 0.866318
O O8 0.371162 0.765245 0.763993
O O9 0.523664 0.153943 0.541350
O O10 0.389375 0.201095 0.862051
O O11 0.646360 0.373839 0.860931
O O12 0.725477 0.833366 0.255466
O O13 0.798299 0.158390 0.059449
O O14 0.000000 0.000000 0.000000
O O15 0.254961 0.562893 0.016888
O O16 0.500000 0.500000 0.000000
O O17 0.500000 0.500000 0.500000
O O18 0.000000 0.500000 0.000000
#
# Coordination Sequence:
#
# PCOD8021584 Si02
#       8
#     2   2   2   2   2   2   2   2
#     4  12  25  39  70  98 133 181 223 281 338 407
#     4  11  23  45  66  95 134 176 229 277 337 408
#     4  10  22  44  64  96 137 175 222 286 337 394
#     4  12  23  45  69  98 139 177 226 286 340 401
#     4  11  25  41  69 100 131 176 225 281 339 403
#     4  11  25  42  70  99 136 177 222 283 343 403
#     4  11  22  44  64  96 134 176 225 275 335 398
#     4  10  23  43  67  96 136 172 221 278 338 404
#
# _framework density 21.030076000000001
#
# number of rings (size 3 to 8) (size 9 to 14) (size 15 to 20)
#    0.000    1.000    5.000    3.000    5.250    1.000 
#    0.000    2.500    0.000    0.000    0.000    0.000 
#    0.000    0.000    0.000    0.000    0.000    0.000 
#
# Total GULP energy -198257.773839 kJ/mol
# GULP energy per Si atom -12391.110865 kJ/mol
# Density = 2.098221 g / cm^3
# Si number density = 21.030076 Si / 1000 Ang^3
#
#
#
# Elastic Constant Matrix: (Units=GPa)
#
#
# Indices 1 2 3 4 5 6 
#
# 1 126.4981 33.9220 60.4405 -10.0722 2.1360 1.4996
# 2 33.9220 90.2023 34.9808 -2.0130 -0.4722 -7.9120
# 3 60.4405 34.9808 72.5060 4.3666 -0.2855 -5.2405
# 4 -10.0722 -2.0130 4.3666 27.1446 -8.5936 -1.9799
# 5 2.1360 -0.4722 -0.2855 -8.5936 42.5505 5.3589
# 6 1.4996 -7.9120 -5.2405 -1.9799 5.3589 45.3281
#
#
#
# Elastic Compliance Matrix: (Units=1/GPa)
#
#
# Indices 1 2 3 4 5 6 
#
# 1 0.014652 -0.000657 -0.012480 0.007557 0.000929 -0.001822
# 2 -0.000657 0.013927 -0.006162 0.002015 0.000328 0.001789
# 3 -0.012480 -0.006162 0.027926 -0.009901 -0.001546 0.002316
# 4 0.007557 0.002015 -0.009901 0.044065 0.008492 -0.000122
# 5 0.000929 0.000328 -0.001546 0.008492 0.025515 -0.002798
# 6 -0.001822 0.001789 0.002316 -0.000122 -0.002798 0.023027
#
#
# Mechanical properties :
#
#
# Convention : Reuss Voigt Hill
#
# Bulk Modulus (GPa) = 55.84606 60.87701 58.36153
# Shear Modulus (GPa) = 25.81591 33.66216 29.73904
#
# Velocity S-wave (km/s) = 3.50747 4.00517 3.76456
# Velocity P-wave (km/s) = 6.55867 7.09923 6.83429
#
# Compressibility (1/GPa) = 0.01790637
#
# Stress axis : x y z
#
# Youngs Moduli (GPa) = 68.25051 71.80554 35.80902
#
# Poissons Ratio (x) = 0.04714 0.44690
# Poissons Ratio (y) = 0.04481 0.22067
# Poissons Ratio (z) = 0.85177 0.44249
#
# Static dielectric constant tensor:
#      x y z
#    x 3.922880 -0.110660 0.068790 
#    y -0.110660 3.980220 -0.016740 
#    z 0.068790 -0.016740 3.757100 
# 
# 
# High freq. dielectric constant tensor:
#      x y z
#    x 1.841170 -0.009010 0.012780 
#    y -0.009010 1.836940 0.003060 
#    z 0.012780 0.003060 1.813520 
# 
# From -- ./inp_files/346337.got.cif
#   From: 2010.06.25/outbox.cif.g09.slc.cpg/sg2_174_cif.got.tgz:346337.got - 2010.06.27 13:26:56.
