data_PCOD8021833
_publ_section_title
;
Structure prediction by ZEFSAII (Michael W. Deem and Ramdas Pophale) SiO2 
 PCOD8021833
Probable space group: P -1
;
_chemical_formula_sum "Si O2"
_cell_formula_units_Z 12
_cell_length_a 19.771024
_cell_length_b 6.544870
_cell_length_c 5.964245
_cell_angle_alpha 73.571447
_cell_angle_beta 61.118216
_cell_angle_gamma 48.035286
_cell_volume 501.518657
_symmetry_space_group_name_H-M "P -1"
_symmetry_group_IT_number 2
_symmetry_cell_setting 'triclinic'
loop_
_space_group_symop_operation_xyz
x,y,z
-x,-y,-z
loop_
_atom_site_type_symbol
_atom_site_label
_atom_site_fract_x
_atom_site_fract_y
_atom_site_fract_z
Si Si1 0.381647 0.103419 0.333265
Si Si2 0.730741 0.005074 0.142590
Si Si3 0.438391 0.433452 0.989842
Si Si4 0.939545 0.222947 0.338658
Si Si5 0.865471 0.093382 0.110316
Si Si6 0.204648 0.382570 0.217184
O O1 0.318791 0.177712 0.182226
O O2 0.324977 0.105283 0.636721
O O3 0.489219 0.804478 0.232730
O O4 0.397639 0.329622 0.266450
O O5 0.653295 0.307908 0.075732
O O6 0.794645 0.010273 0.232733
O O7 0.805896 0.787909 0.895721
O O8 0.500000 0.500000 0.000000
O O9 0.867115 0.184682 0.331514
O O10 0.869167 0.523284 0.478290
O O11 0.000000 0.000000 0.500000
O O12 0.020692 0.178473 0.050054
O O13 0.823178 0.341597 0.928446
#
# Coordination Sequence:
#
# PCOD8021833 Si02
#       6
#     2   2   2   2   2   2
#     4  11  25  43  68 103 140 182 236 287 339 420
#     4  12  25  42  74 106 136 189 233 283 353 411
#     4  11  24  47  68 100 143 185 231 286 350 408
#     4   9  21  42  71  99 143 184 227 294 342 414
#     4  10  22  44  69 102 142 184 233 285 350 410
#     4  11  22  43  66 106 141 177 238 286 341 418
#
# _framework density 23.927323999999999
#
# number of rings (size 3 to 8) (size 9 to 14) (size 15 to 20)
#    0.000    1.333    3.333    1.500    0.000    6.667 
#    0.000   11.667    0.000    0.000    0.000    0.000 
#    0.000    0.000    0.000    0.000    0.000    0.000 
#
# Total GULP energy -148785.378096 kJ/mol
# GULP energy per Si atom -12398.781508 kJ/mol
# Density = 2.387286 g / cm^3
# Si number density = 23.927324 Si / 1000 Ang^3
#
#
#
# Elastic Constant Matrix: (Units=GPa)
#
#
# Indices 1 2 3 4 5 6 
#
# 1 143.8099 60.2398 49.9576 8.2696 -3.0877 17.4571
# 2 60.2398 125.1186 58.5939 7.6364 -4.6103 -3.4271
# 3 49.9576 58.5939 107.4081 12.6560 -0.3108 10.1104
# 4 8.2696 7.6364 12.6560 34.2128 8.7625 -7.8675
# 5 -3.0877 -4.6103 -0.3108 8.7625 34.4358 1.6067
# 6 17.4571 -3.4271 10.1104 -7.8675 1.6067 28.0033
#
#
#
# Elastic Compliance Matrix: (Units=1/GPa)
#
#
# Indices 1 2 3 4 5 6 
#
# 1 0.010348 -0.004282 -0.001407 -0.003112 0.001480 -0.007426
# 2 -0.004282 0.012920 -0.005910 0.001781 0.000519 0.006855
# 3 -0.001407 -0.005910 0.014460 -0.005452 0.000911 -0.006651
# 4 -0.003112 0.001781 -0.005452 0.037799 -0.010424 0.015344
# 5 0.001480 0.000519 0.000911 -0.010424 0.032181 -0.005963
# 6 -0.007426 0.006855 -0.006651 0.015344 -0.005963 0.048233
#
#
# Mechanical properties :
#
#
# Convention : Reuss Voigt Hill
#
# Bulk Modulus (GPa) = 68.82551 79.32437 74.07494
# Shear Modulus (GPa) = 27.17642 33.16675 30.17159
#
# Velocity S-wave (km/s) = 3.37380 3.72714 3.55486
# Velocity P-wave (km/s) = 6.63352 7.19349 6.91917
#
# Compressibility (1/GPa) = 0.01452950
#
# Stress axis : x y z
#
# Youngs Moduli (GPa) = 96.63263 77.39848 69.15617
#
# Poissons Ratio (x) = 0.33145 0.09731
# Poissons Ratio (y) = 0.41382 0.40872
# Poissons Ratio (z) = 0.13598 0.45743
#
# Static dielectric constant tensor:
#      x y z
#    x 4.402940 -0.325880 -0.116200 
#    y -0.325880 4.713690 0.292040 
#    z -0.116200 0.292040 4.342470 
# 
# 
# High freq. dielectric constant tensor:
#      x y z
#    x 1.948200 -0.017360 0.003840 
#    y -0.017360 1.960610 0.006370 
#    z 0.003840 0.006370 1.932980 
# 
# From -- ./inp_files/3477.got.cif
#   From: 2010.06.25/outbox.cif.g09.slc.cpg/sg2_2_cif.got.tgz:3477.got - 2010.06.27 13:26:56.
