data_PCOD8021862
_publ_section_title
;
Structure prediction by ZEFSAII (Michael W. Deem and Ramdas Pophale) SiO2 
 PCOD8021862
Probable space group: P -1
;
_chemical_formula_sum "Si O2"
_cell_formula_units_Z 16
_cell_length_a 11.941201
_cell_length_b 16.752694
_cell_length_c 9.637448
_cell_angle_alpha 79.176298
_cell_angle_beta 44.736961
_cell_angle_gamma 44.428800
_cell_volume 723.160370
_symmetry_space_group_name_H-M "P -1"
_symmetry_group_IT_number 2
_symmetry_cell_setting 'triclinic'
loop_
_space_group_symop_operation_xyz
x,y,z
-x,-y,-z
loop_
_atom_site_type_symbol
_atom_site_label
_atom_site_fract_x
_atom_site_fract_y
_atom_site_fract_z
Si Si1 0.654486 0.515410 0.310987
Si Si2 0.761589 0.925428 0.708682
Si Si3 0.126981 0.852224 0.633401
Si Si4 0.090387 0.340028 0.741037
Si Si5 0.912854 0.130963 0.037842
Si Si6 0.168600 0.621751 0.304707
Si Si7 0.673279 0.058766 0.484953
Si Si8 0.234050 0.453922 0.519106
O O1 0.500000 0.500000 0.500000
O O2 0.430546 0.676804 0.392468
O O3 0.830892 0.474416 0.300762
O O4 0.871697 0.404105 0.031333
O O5 0.903173 0.933838 0.678758
O O6 0.025243 0.753063 0.484105
O O7 0.591397 0.036835 0.691768
O O8 0.500000 0.000000 0.000000
O O9 0.003762 0.868927 0.883698
O O10 0.180334 0.924577 0.581776
O O11 0.411365 0.194866 0.569925
O O12 0.043539 0.452738 0.691535
O O13 0.040330 0.301519 0.668893
O O14 0.573094 0.287721 0.257276
O O15 0.000000 0.000000 0.000000
O O16 0.095369 0.092466 0.763700
O O17 0.150574 0.546887 0.434288
O O18 0.500000 0.500000 0.000000
#
# Coordination Sequence:
#
# PCOD8021862 Si02
#       8
#     2   2   2   2   2   2   2   2
#     4  11  23  40  69 100 139 179 222 284 357 415
#     4  12  29  45  66 103 141 185 232 287 346 411
#     4  10  22  44  69  95 135 179 228 280 344 412
#     4  12  25  43  72 105 131 180 239 286 341 415
#     4   9  18  39  69 100 132 166 222 272 347 395
#     4  12  28  49  66 101 145 189 229 283 361 414
#     4  11  24  44  71 100 134 179 231 286 343 415
#     4  11  22  43  73 101 136 179 234 288 330 420
#
# _framework density 22.125108000000001
#
# number of rings (size 3 to 8) (size 9 to 14) (size 15 to 20)
#    0.000    1.000    3.750    4.125    5.250    1.500 
#    0.000    2.500    0.000    0.000    0.000    0.000 
#    0.000    0.000    0.000    0.000    0.000    0.000 
#
# Total GULP energy -198327.803394 kJ/mol
# GULP energy per Si atom -12395.487712 kJ/mol
# Density = 2.207475 g / cm^3
# Si number density = 22.125108 Si / 1000 Ang^3
#
#
#
# Elastic Constant Matrix: (Units=GPa)
#
#
# Indices 1 2 3 4 5 6 
#
# 1 127.7816 29.5266 40.7110 -4.2198 6.0037 -16.6237
# 2 29.5266 96.4244 38.9631 -17.7751 2.7087 -9.8799
# 3 40.7110 38.9631 130.9058 -18.0440 13.7149 -2.2306
# 4 -4.2198 -17.7751 -18.0440 37.2327 6.6687 2.2236
# 5 6.0037 2.7087 13.7149 6.6687 30.0491 -3.6499
# 6 -16.6237 -9.8799 -2.2306 2.2236 -3.6499 33.6136
#
#
#
# Elastic Compliance Matrix: (Units=1/GPa)
#
#
# Indices 1 2 3 4 5 6 
#
# 1 0.009528 -0.001686 -0.002588 -0.001265 0.000214 0.004152
# 2 -0.001686 0.013085 -0.002641 0.004695 -0.000377 0.002485
# 3 -0.002588 -0.002641 0.010369 0.004547 -0.005259 -0.002240
# 4 -0.001265 0.004695 0.004547 0.033055 -0.009849 -0.002200
# 5 0.000214 -0.000377 -0.005259 -0.009849 0.038398 0.004467
# 6 0.004152 0.002485 -0.002240 -0.002200 0.004467 0.033016
#
#
# Mechanical properties :
#
#
# Convention : Reuss Voigt Hill
#
# Bulk Modulus (GPa) = 52.21100 63.72368 57.96734
# Shear Modulus (GPa) = 31.71269 36.57318 34.14293
#
# Velocity S-wave (km/s) = 3.79005 4.07014 3.93259
# Velocity P-wave (km/s) = 6.54232 7.13808 6.84668
#
# Compressibility (1/GPa) = 0.01915305
#
# Stress axis : x y z
#
# Youngs Moduli (GPa) = 104.95292 76.42265 96.43693
#
# Poissons Ratio (x) = 0.12884 0.24953
# Poissons Ratio (y) = 0.17695 0.25472
# Poissons Ratio (z) = 0.27157 0.20186
#
# Static dielectric constant tensor:
#      x y z
#    x 4.395210 -0.259970 0.637700 
#    y -0.259970 4.398140 -0.457290 
#    z 0.637700 -0.457290 4.843700 
# 
# 
# High freq. dielectric constant tensor:
#      x y z
#    x 1.872630 -0.002370 0.017860 
#    y -0.002370 1.873720 -0.011020 
#    z 0.017860 -0.011020 1.877870 
# 
# From -- ./inp_files/279368.got.cif
#   From: 2010.06.25/outbox.cif.g09.slc.cpg/sg2_140_cif.got.tgz:279368.got - 2010.06.27 13:26:56.
