data_PCOD8021441
_publ_section_title
;
Structure prediction by ZEFSAII (Michael W. Deem and Ramdas Pophale) SiO2 
 PCOD8021441
Probable space group: P -1
;
_chemical_formula_sum "Si O2"
_cell_formula_units_Z 14
_cell_length_a 15.500974
_cell_length_b 15.946763
_cell_length_c 9.541055
_cell_angle_alpha 141.556498
_cell_angle_beta 37.775301
_cell_angle_gamma 153.042557
_cell_volume 628.086220
_symmetry_space_group_name_H-M "P -1"
_symmetry_group_IT_number 2
_symmetry_cell_setting 'triclinic'
loop_
_space_group_symop_operation_xyz
x,y,z
-x,-y,-z
loop_
_atom_site_type_symbol
_atom_site_label
_atom_site_fract_x
_atom_site_fract_y
_atom_site_fract_z
Si Si1 0.229330 0.583851 0.213168
Si Si2 0.362904 0.537257 0.715387
Si Si3 0.987099 0.873765 0.464811
Si Si4 0.162036 0.191327 0.131064
Si Si5 0.436819 0.105908 0.267593
Si Si6 0.950606 0.267193 0.360472
Si Si7 0.562223 0.832607 0.329290
O O1 0.116425 0.635892 0.360273
O O2 0.363329 0.729520 0.361816
O O3 0.060391 0.363591 0.196038
O O4 0.371850 0.614665 0.955670
O O5 0.500000 0.500000 0.500000
O O6 0.134677 0.337292 0.714925
O O7 0.436184 0.691833 0.707236
O O8 0.867316 0.852557 0.723532
O O9 0.000000 0.000000 0.500000
O O10 0.202986 0.966942 0.354720
O O11 0.118790 0.318755 0.317141
O O12 0.381394 0.288256 0.924313
O O13 0.000000 0.000000 0.000000
O O14 0.475957 0.150880 0.440840
O O15 0.500000 0.000000 0.000000
O O16 0.753799 0.042203 0.293285
#
# Coordination Sequence:
#
# PCOD8021441 Si02
#       7
#     2   2   2   2   2   2   2
#     4  11  26  43  69 102 136 179 230 286 339 417
#     4  12  28  44  72 107 143 186 239 282 360 428
#     4  12  26  48  73 101 146 188 230 297 355 414
#     4  10  22  43  72  97 132 177 236 278 338 415
#     4  12  28  48  70 107 145 185 235 294 357 418
#     4  10  23  43  69  99 135 173 233 281 347 396
#     4  11  24  44  73  97 135 181 233 283 341 412
#
# _framework density 22.289933999999999
#
# number of rings (size 3 to 8) (size 9 to 14) (size 15 to 20)
#    0.000    0.857    4.286    2.143    8.000    3.429 
#    0.000    0.000    0.000    0.000    0.000    0.000 
#    0.000    0.000    0.000    0.000    0.000    0.000 
#
# Total GULP energy -173598.880495 kJ/mol
# GULP energy per Si atom -12399.920035 kJ/mol
# Density = 2.223920 g / cm^3
# Si number density = 22.289934 Si / 1000 Ang^3
#
#
#
# Elastic Constant Matrix: (Units=GPa)
#
#
# Indices 1 2 3 4 5 6 
#
# 1 108.9933 34.2558 78.5432 4.2151 3.7416 -13.7597
# 2 34.2558 115.1656 32.9309 7.2136 1.8745 -9.3943
# 3 78.5432 32.9309 163.2227 -17.5584 -2.3541 -14.9240
# 4 4.2151 7.2136 -17.5584 28.1935 -0.7485 -3.0259
# 5 3.7416 1.8745 -2.3541 -0.7485 43.1160 8.7779
# 6 -13.7597 -9.3943 -14.9240 -3.0259 8.7779 33.8866
#
#
#
# Elastic Compliance Matrix: (Units=1/GPa)
#
#
# Indices 1 2 3 4 5 6 
#
# 1 0.016110 -0.001873 -0.007886 -0.006628 -0.002387 0.002576
# 2 -0.001873 0.009916 -0.001305 -0.002946 -0.000660 0.001322
# 3 -0.007886 -0.001305 0.011323 0.008800 0.001122 0.001918
# 4 -0.006628 -0.002946 0.008800 0.043146 0.001133 0.003927
# 5 -0.002387 -0.000660 0.001122 0.001133 0.024939 -0.007017
# 6 0.002576 0.001322 0.001918 0.003927 -0.007017 0.033935
#
#
# Mechanical properties :
#
#
# Convention : Reuss Voigt Hill
#
# Bulk Modulus (GPa) = 65.69728 75.42683 70.56205
# Shear Modulus (GPa) = 30.01729 37.14934 33.58332
#
# Velocity S-wave (km/s) = 3.67369 4.08688 3.88578
# Velocity P-wave (km/s) = 6.89439 7.49550 7.20122
#
# Compressibility (1/GPa) = 0.01522133
#
# Stress axis : x y z
#
# Youngs Moduli (GPa) = 62.07407 100.84252 88.31634
#
# Poissons Ratio (x) = 0.18886 0.69647
# Poissons Ratio (y) = 0.11625 0.11526
# Poissons Ratio (z) = 0.48952 0.13160
#
# Static dielectric constant tensor:
#      x y z
#    x 4.670830 -0.135010 -0.336870 
#    y -0.135010 4.164680 -0.012610 
#    z -0.336870 -0.012610 4.381000 
# 
# 
# High freq. dielectric constant tensor:
#      x y z
#    x 1.885160 -0.004730 -0.011660 
#    y -0.004730 1.882860 -0.007410 
#    z -0.011660 -0.007410 1.882810 
# 
# From -- ./inp_files/261911.got.cif
#   From: 2010.06.25/outbox.cif.g09.slc.cpg/sg2_131_cif.got.tgz:261911.got - 2010.06.27 13:26:56.
