data_PCOD8021376
_publ_section_title
;
Structure prediction by ZEFSAII (Michael W. Deem and Ramdas Pophale) SiO2 
 PCOD8021376
Probable space group: P -1
;
_chemical_formula_sum "Si O2"
_cell_formula_units_Z 14
_cell_length_a 14.943601
_cell_length_b 9.970664
_cell_length_c 16.325334
_cell_angle_alpha 33.741225
_cell_angle_beta 150.668401
_cell_angle_gamma 127.110097
_cell_volume 592.071882
_symmetry_space_group_name_H-M "P -1"
_symmetry_group_IT_number 2
_symmetry_cell_setting 'triclinic'
loop_
_space_group_symop_operation_xyz
x,y,z
-x,-y,-z
loop_
_atom_site_type_symbol
_atom_site_label
_atom_site_fract_x
_atom_site_fract_y
_atom_site_fract_z
Si Si1 0.333748 0.335437 0.378721
Si Si2 0.454994 0.306616 0.314146
Si Si3 0.244186 0.063188 0.819455
Si Si4 0.186402 0.914740 0.516382
Si Si5 0.759763 0.191694 0.209850
Si Si6 0.823476 0.337814 0.525238
Si Si7 0.726007 0.117264 0.893901
O O1 0.334594 0.429569 0.238876
O O2 0.564677 0.122291 0.695523
O O3 0.255760 0.601858 0.237304
O O4 0.189004 0.189613 0.347627
O O5 0.674079 0.311506 0.486776
O O6 0.500000 0.000000 0.500000
O O7 0.307080 0.497129 0.027096
O O8 0.175997 0.377784 0.608386
O O9 0.046243 0.008931 0.689470
O O10 0.351933 0.923898 0.888462
O O11 0.362877 0.923468 0.068274
O O12 0.319720 0.806860 0.761368
O O13 0.263956 0.692390 0.618408
O O14 0.000000 0.000000 0.500000
O O15 0.054525 0.117786 0.834523
#
# Coordination Sequence:
#
# PCOD8021376 Si02
#       7
#     2   2   2   2   2   2   2
#     4  11  24  43  71 104 139 186 234 285 354 422
#     4  12  26  45  69 106 141 180 233 298 349 411
#     4  10  22  44  69 101 138 183 232 286 352 411
#     4  10  22  43  71 103 132 187 233 285 341 424
#     4  10  24  45  71 102 142 186 232 284 349 426
#     4  11  25  43  71 101 143 181 231 298 348 409
#     4  10  23  43  67 103 141 182 230 288 354 418
#
# _framework density 23.645776999999999
#
# number of rings (size 3 to 8) (size 9 to 14) (size 15 to 20)
#    0.000    1.429    2.857    1.714    2.000   12.000 
#    0.000    0.000    0.000    0.000    0.000    0.000 
#    0.000    0.000    0.000    0.000    0.000    0.000 
#
# Total GULP energy -173527.049192 kJ/mol
# GULP energy per Si atom -12394.789228 kJ/mol
# Density = 2.359196 g / cm^3
# Si number density = 23.645777 Si / 1000 Ang^3
#
#
#
# Elastic Constant Matrix: (Units=GPa)
#
#
# Indices 1 2 3 4 5 6 
#
# 1 94.2420 25.0146 10.5984 -12.1114 -21.4365 5.9386
# 2 25.0146 112.0339 26.7067 -27.7753 4.8866 2.2231
# 3 10.5984 26.7067 112.6890 -27.1517 -6.4422 7.7535
# 4 -12.1114 -27.7753 -27.1517 32.0150 -4.0963 -2.3207
# 5 -21.4365 4.8866 -6.4422 -4.0963 31.0131 -1.1015
# 6 5.9386 2.2231 7.7535 -2.3207 -1.1015 30.6290
#
#
#
# Elastic Compliance Matrix: (Units=1/GPa)
#
#
# Indices 1 2 3 4 5 6 
#
# 1 0.014655 -0.002640 0.001455 0.005808 0.011538 -0.002163
# 2 -0.002640 0.011874 -0.000734 0.008358 -0.002731 0.000371
# 3 0.001455 -0.000734 0.011860 0.010433 0.004882 -0.002265
# 4 0.005808 0.008358 0.010433 0.051009 0.011598 -0.000092
# 5 0.011538 -0.002731 0.004882 0.011598 0.043166 -0.000844
# 6 -0.002163 0.000371 -0.002265 -0.000092 -0.000844 0.033577
#
#
# Mechanical properties :
#
#
# Convention : Reuss Voigt Hill
#
# Bulk Modulus (GPa) = 28.94141 49.28933 39.11537
# Shear Modulus (GPa) = 27.54899 35.84110 31.69505
#
# Velocity S-wave (km/s) = 3.41702 3.89749 3.66513
# Velocity P-wave (km/s) = 5.27581 6.41436 5.87274
#
# Compressibility (1/GPa) = 0.03455256
#
# Stress axis : x y z
#
# Youngs Moduli (GPa) = 68.23569 84.21743 84.31986
#
# Poissons Ratio (x) = 0.22229 -0.12268
# Poissons Ratio (y) = 0.18011 0.06185
# Poissons Ratio (z) = -0.09928 0.06178
#
# Static dielectric constant tensor:
#      x y z
#    x 5.195160 -0.363030 -0.412120 
#    y -0.363030 4.342620 0.089360 
#    z -0.412120 0.089360 4.234400 
# 
# 
# High freq. dielectric constant tensor:
#      x y z
#    x 1.938740 -0.003830 -0.007760 
#    y -0.003830 1.938230 -0.010550 
#    z -0.007760 -0.010550 1.936640 
# 
# From -- ./inp_files/573566.got.cif
#   From: 2010.06.25/outbox.cif.g09.slc.cpg/sg2_287_cif.got.tgz:573566.got - 2010.06.27 13:26:56.
