data_PCOD8021293
_publ_section_title
;
Structure prediction by ZEFSAII (Michael W. Deem and Ramdas Pophale) SiO2 
 PCOD8021293
Probable space group: P -1
;
_chemical_formula_sum "Si O2"
_cell_formula_units_Z 14
_cell_length_a 9.368084
_cell_length_b 12.434394
_cell_length_c 16.075609
_cell_angle_alpha 30.872454
_cell_angle_beta 138.030796
_cell_angle_gamma 127.118911
_cell_volume 639.278781
_symmetry_space_group_name_H-M "P -1"
_symmetry_group_IT_number 2
_symmetry_cell_setting 'triclinic'
loop_
_space_group_symop_operation_xyz
x,y,z
-x,-y,-z
loop_
_atom_site_type_symbol
_atom_site_label
_atom_site_fract_x
_atom_site_fract_y
_atom_site_fract_z
Si Si1 0.051393 0.454643 0.647716
Si Si2 0.156374 0.764072 0.872343
Si Si3 0.808178 0.114097 0.545123
Si Si4 0.482234 0.953842 0.386793
Si Si5 0.595748 0.905030 0.917020
Si Si6 0.283094 0.648168 0.300586
Si Si7 0.815090 0.570502 0.756748
O O1 0.089692 0.669238 0.569529
O O2 0.000000 0.500000 0.500000
O O3 0.852796 0.358078 0.669574
O O4 0.263639 0.293976 0.852201
O O5 0.347240 0.889594 0.839704
O O6 0.035967 0.673792 0.800750
O O7 0.244496 0.570826 0.097258
O O8 0.989781 0.919687 0.748911
O O9 0.629172 0.096418 0.408937
O O10 0.706672 0.117527 0.590588
O O11 0.375865 0.088994 0.174443
O O12 0.617772 0.749911 0.541281
O O13 0.667626 0.113502 0.853175
O O14 0.500000 0.500000 0.500000
O O15 0.149515 0.570466 0.216613
#
# Coordination Sequence:
#
# PCOD8021293 Si02
#       7
#     2   2   2   2   2   2   2
#     4  12  29  46  65  97 139 178 225 277 337 397
#     4  10  24  43  72 101 133 177 221 279 323 402
#     4  10  23  43  68  98 134 182 217 273 333 393
#     4  10  22  43  69  99 137 171 224 276 331 393
#     4  12  26  44  70  99 133 177 225 281 331 396
#     4  12  26  45  71  98 132 180 221 277 337 399
#     4  10  23  44  70 100 139 170 225 271 339 389
#
# _framework density 21.899678999999999
#
# number of rings (size 3 to 8) (size 9 to 14) (size 15 to 20)
#    0.000    1.143    1.429    3.000    8.000    3.429 
#    0.000    0.000    0.000    0.000    0.000    0.000 
#    0.000    0.000    0.000    0.000    0.000    0.000 
#
# Total GULP energy -173711.948228 kJ/mol
# GULP energy per Si atom -12407.996302 kJ/mol
# Density = 2.184983 g / cm^3
# Si number density = 21.899679 Si / 1000 Ang^3
#
#
#
# Elastic Constant Matrix: (Units=GPa)
#
#
# Indices 1 2 3 4 5 6 
#
# 1 107.1607 56.1247 19.2519 9.8827 -6.6148 7.1699
# 2 56.1247 138.9253 48.2748 -12.9589 -7.7151 -1.4212
# 3 19.2519 48.2748 112.8539 7.0828 -3.7041 -4.1205
# 4 9.8827 -12.9589 7.0828 36.2156 1.1633 -9.5488
# 5 -6.6148 -7.7151 -3.7041 1.1633 26.6343 -0.4393
# 6 7.1699 -1.4212 -4.1205 -9.5488 -0.4393 38.1435
#
#
#
# Elastic Compliance Matrix: (Units=1/GPa)
#
#
# Indices 1 2 3 4 5 6 
#
# 1 0.013668 -0.006430 0.000782 -0.007448 0.001891 -0.004567
# 2 -0.006430 0.012152 -0.004441 0.007766 0.001018 0.003138
# 3 0.000782 -0.004441 0.010892 -0.003985 0.000595 -0.000126
# 4 -0.007448 0.007766 -0.003985 0.035953 -0.001556 0.010242
# 5 0.001891 0.001018 0.000595 -0.001556 0.038457 -0.000200
# 6 -0.004567 0.003138 -0.000126 0.010242 -0.000200 0.029740
#
#
# Mechanical properties :
#
#
# Convention : Reuss Voigt Hill
#
# Bulk Modulus (GPa) = 60.48040 67.36030 63.92035
# Shear Modulus (GPa) = 30.02051 35.88459 32.95255
#
# Velocity S-wave (km/s) = 3.70648 4.05234 3.88326
# Velocity P-wave (km/s) = 6.78191 7.26090 7.02549
#
# Compressibility (1/GPa) = 0.01653428
#
# Stress axis : x y z
#
# Youngs Moduli (GPa) = 73.16243 82.29189 91.80858
#
# Poissons Ratio (x) = 0.52913 -0.07176
# Poissons Ratio (y) = 0.47043 0.40769
# Poissons Ratio (z) = -0.05718 0.36543
#
# Static dielectric constant tensor:
#      x y z
#    x 3.841230 0.025850 -0.028090 
#    y 0.025850 4.254570 -0.059340 
#    z -0.028090 -0.059340 3.862100 
# 
# 
# High freq. dielectric constant tensor:
#      x y z
#    x 1.857440 0.003080 -0.000580 
#    y 0.003080 1.879710 -0.002110 
#    z -0.000580 -0.002110 1.863600 
# 
# From -- ./inp_files/189592.got.cif
#   From: 2010.06.25/outbox.cif.g09.slc.cpg/sg2_95_cif.got.tgz:189592.got - 2010.06.27 13:26:56.
