data_PCOD8021981
_publ_section_title
;
Structure prediction by ZEFSAII (Michael W. Deem and Ramdas Pophale) SiO2 
 PCOD8021981
Probable space group: P -1
;
_chemical_formula_sum "Si O2"
_cell_formula_units_Z 16
_cell_length_a 11.219405
_cell_length_b 5.798002
_cell_length_c 17.710806
_cell_angle_alpha 106.620273
_cell_angle_beta 50.258349
_cell_angle_gamma 125.488450
_cell_volume 714.616010
_symmetry_space_group_name_H-M "P -1"
_symmetry_group_IT_number 2
_symmetry_cell_setting 'triclinic'
loop_
_space_group_symop_operation_xyz
x,y,z
-x,-y,-z
loop_
_atom_site_type_symbol
_atom_site_label
_atom_site_fract_x
_atom_site_fract_y
_atom_site_fract_z
Si Si1 0.230623 0.100059 0.668566
Si Si2 0.397753 0.657189 0.026515
Si Si3 0.447533 0.146869 0.719980
Si Si4 0.953394 0.501260 0.773897
Si Si5 0.092681 0.187119 0.594158
Si Si6 0.852089 0.584182 0.563808
Si Si7 0.187552 0.548559 0.812578
Si Si8 0.810131 0.706015 0.068774
O O1 0.402769 0.124764 0.645206
O O2 0.254818 0.191423 0.578588
O O3 0.173209 0.277999 0.756994
O O4 0.055669 0.778224 0.706219
O O5 0.260192 0.611119 0.145768
O O6 0.500000 0.500000 0.000000
O O7 0.287773 0.482906 0.981647
O O8 0.500000 0.000000 0.000000
O O9 0.665819 0.354944 0.661147
O O10 0.335544 0.245184 0.824396
O O11 0.389676 0.834513 0.744159
O O12 0.980494 0.267160 0.702474
O O13 0.036796 0.586339 0.833946
O O14 0.194978 0.402454 0.503634
O O15 0.933446 0.884043 0.599001
O O16 0.000000 0.500000 0.500000
O O17 0.144286 0.483089 0.912677
O O18 0.000000 0.000000 0.000000
#
# Coordination Sequence:
#
# PCOD8021981 Si02
#       8
#     2   2   2   2   2   2   2   2
#     4   9  19  41  67  97 122 173 227 287 346 416
#     4  12  31  46  67 110 150 193 244 307 370 444
#     4  10  23  41  68 100 135 173 233 292 352 423
#     4  10  22  44  71  94 138 179 234 293 361 429
#     4  10  23  42  71  92 131 184 225 286 357 426
#     4  11  25  43  63 100 138 180 230 281 358 436
#     4   9  20  40  73  99 126 179 230 294 351 417
#     4  11  25  45  73 101 141 189 246 299 361 437
#
# _framework density 22.389645000000002
#
# number of rings (size 3 to 8) (size 9 to 14) (size 15 to 20)
#    0.000    1.750    0.000    3.000    8.750    6.500 
#    0.000    8.750    0.000    0.000    0.000    0.000 
#    0.000    0.000    0.000    0.000    0.000    0.000 
#
# Total GULP energy -198226.855210 kJ/mol
# GULP energy per Si atom -12389.178451 kJ/mol
# Density = 2.233869 g / cm^3
# Si number density = 22.389645 Si / 1000 Ang^3
#
#
#
# Elastic Constant Matrix: (Units=GPa)
#
#
# Indices 1 2 3 4 5 6 
#
# 1 92.0222 56.7354 53.4097 -9.4972 22.6380 -9.3967
# 2 56.7354 133.9781 52.5151 -8.7110 -4.4442 -2.0120
# 3 53.4097 52.5151 102.7347 -9.2622 -5.2700 6.8476
# 4 -9.4972 -8.7110 -9.2622 30.9736 8.0475 2.6048
# 5 22.6380 -4.4442 -5.2700 8.0475 47.9297 -3.4119
# 6 -9.3967 -2.0120 6.8476 2.6048 -3.4119 36.0148
#
#
#
# Elastic Compliance Matrix: (Units=1/GPa)
#
#
# Indices 1 2 3 4 5 6 
#
# 1 0.026415 -0.006925 -0.010843 0.006210 -0.014876 0.006708
# 2 -0.006925 0.011264 -0.001973 -0.000599 0.004173 -0.000364
# 3 -0.010843 -0.001973 0.017084 0.000032 0.006414 -0.005582
# 4 0.006210 -0.000599 0.000032 0.036603 -0.009269 -0.001945
# 5 -0.014876 0.004173 0.006414 -0.009269 0.030445 -0.001313
# 6 0.006708 -0.000364 -0.005582 -0.001945 -0.001313 0.030574
#
#
# Mechanical properties :
#
#
# Convention : Reuss Voigt Hill
#
# Bulk Modulus (GPa) = 65.44571 72.67280 69.05926
# Shear Modulus (GPa) = 25.38569 34.05529 29.72049
#
# Velocity S-wave (km/s) = 3.37087 3.90427 3.64733
# Velocity P-wave (km/s) = 6.66664 7.27001 6.97486
#
# Compressibility (1/GPa) = 0.01527984
#
# Stress axis : x y z
#
# Youngs Moduli (GPa) = 37.85672 88.77981 58.53472
#
# Poissons Ratio (x) = 0.61477 0.63472
# Poissons Ratio (y) = 0.26215 0.11552
# Poissons Ratio (z) = 0.41050 0.17521
#
# Static dielectric constant tensor:
#      x y z
#    x 4.586610 -0.215590 0.446420 
#    y -0.215590 4.286270 -0.044270 
#    z 0.446420 -0.044270 3.996760 
# 
# 
# High freq. dielectric constant tensor:
#      x y z
#    x 1.885760 -0.008800 0.020290 
#    y -0.008800 1.897960 0.005060 
#    z 0.020290 0.005060 1.870610 
# 
# From -- ./inp_files/37573.got.cif
#   From: 2010.06.25/outbox.cif.g09.slc.cpg/sg2_19_cif.got.tgz:37573.got - 2010.06.27 13:26:56.
