data_PCOD8021786
_publ_section_title
;
Structure prediction by ZEFSAII (Michael W. Deem and Ramdas Pophale) SiO2 
 PCOD8021786
Probable space group: P -1
;
_chemical_formula_sum "Si O2"
_cell_formula_units_Z 16
_cell_length_a 14.992925
_cell_length_b 13.221781
_cell_length_c 9.582652
_cell_angle_alpha 95.100656
_cell_angle_beta 46.967980
_cell_angle_gamma 131.926086
_cell_volume 762.303548
_symmetry_space_group_name_H-M "P -1"
_symmetry_group_IT_number 2
_symmetry_cell_setting 'triclinic'
loop_
_space_group_symop_operation_xyz
x,y,z
-x,-y,-z
loop_
_atom_site_type_symbol
_atom_site_label
_atom_site_fract_x
_atom_site_fract_y
_atom_site_fract_z
Si Si1 0.407956 0.190084 0.606823
Si Si2 0.897529 0.509630 0.214977
Si Si3 0.953378 0.506002 0.701572
Si Si4 0.085844 0.857442 0.091709
Si Si5 0.824192 0.631803 0.869667
Si Si6 0.934783 0.071888 0.568097
Si Si7 0.482474 0.232464 0.215321
Si Si8 0.746480 0.702453 0.227834
O O1 0.663775 0.387208 0.393598
O O2 0.379660 0.148402 0.468235
O O3 0.258243 0.184061 0.800835
O O4 0.314321 0.036340 0.786290
O O5 0.878230 0.438565 0.373609
O O6 0.052192 0.714106 0.095853
O O7 0.000000 0.500000 0.000000
O O8 0.998113 0.658262 0.686862
O O9 0.000000 0.500000 0.500000
O O10 0.693595 0.302969 0.988551
O O11 0.100112 0.901163 0.241826
O O12 0.888467 0.785033 0.225251
O O13 0.868639 0.733448 0.700597
O O14 0.573416 0.410824 0.108535
O O15 0.858729 0.717251 0.985595
O O16 0.704317 0.925637 0.715151
O O17 0.000000 0.000000 0.500000
O O18 0.500000 0.500000 0.500000
#
# Coordination Sequence:
#
# PCOD8021786 Si02
#       8
#     2   2   2   2   2   2   2   2
#     4  12  24  43  73 101 137 176 228 286 340 402
#     4  12  24  47  69 100 133 176 238 285 333 394
#     4  10  22  44  68  90 134 180 225 273 324 409
#     4  12  27  41  68 109 134 174 232 280 345 403
#     4  10  23  45  69  94 132 181 221 273 342 397
#     4  12  26  43  66 104 144 173 219 279 336 419
#     4  10  23  44  65  95 133 182 222 263 344 393
#     4  12  20  44  72  98 136 178 218 285 345 403
#
# _framework density 20.989014999999998
#
# number of rings (size 3 to 8) (size 9 to 14) (size 15 to 20)
#    0.750    0.000    3.750    4.125    1.750    1.000 
#    2.250    1.250    0.000    0.000    0.000    0.000 
#    0.000    0.000    0.000    0.000    0.000    0.000 
#
# Total GULP energy -198380.539031 kJ/mol
# GULP energy per Si atom -12398.783689 kJ/mol
# Density = 2.094124 g / cm^3
# Si number density = 20.989015 Si / 1000 Ang^3
#
#
#
# Elastic Constant Matrix: (Units=GPa)
#
#
# Indices 1 2 3 4 5 6 
#
# 1 120.8063 62.5891 41.0100 17.7841 14.7543 2.5538
# 2 62.5891 132.2325 60.6759 26.4316 15.0878 4.5725
# 3 41.0100 60.6759 110.5568 16.5340 27.5850 4.3849
# 4 17.7841 26.4316 16.5340 41.1552 -2.2983 0.6751
# 5 14.7543 15.0878 27.5850 -2.2983 45.9422 1.2574
# 6 2.5538 4.5725 4.3849 0.6751 1.2574 48.3826
#
#
#
# Elastic Compliance Matrix: (Units=1/GPa)
#
#
# Indices 1 2 3 4 5 6 
#
# 1 0.011364 -0.004295 -0.001192 -0.001763 -0.001611 -0.000019
# 2 -0.004295 0.012632 -0.004609 -0.004409 -0.000209 -0.000482
# 3 -0.001192 -0.004609 0.014085 -0.002547 -0.006673 -0.000569
# 4 -0.001763 -0.004409 -0.002547 0.029191 0.004998 0.000203
# 5 -0.001611 -0.000209 -0.006673 0.004998 0.026610 -0.000052
# 6 -0.000019 -0.000482 -0.000569 0.000203 -0.000052 0.020765
#
#
# Mechanical properties :
#
#
# Convention : Reuss Voigt Hill
#
# Bulk Modulus (GPa) = 55.89766 76.90507 66.40137
# Shear Modulus (GPa) = 35.51067 40.38406 37.94736
#
# Velocity S-wave (km/s) = 4.11770 4.39117 4.25663
# Velocity P-wave (km/s) = 7.02118 7.90126 7.47418
#
# Compressibility (1/GPa) = 0.01788984
#
# Stress axis : x y z
#
# Youngs Moduli (GPa) = 87.99434 79.16311 70.99797
#
# Poissons Ratio (x) = 0.34003 0.08461
# Poissons Ratio (y) = 0.37796 0.32721
# Poissons Ratio (z) = 0.10486 0.36485
#
# Static dielectric constant tensor:
#      x y z
#    x 4.360460 -0.689440 0.055870 
#    y -0.689440 4.376030 0.068640 
#    z 0.055870 0.068640 3.799090 
# 
# 
# High freq. dielectric constant tensor:
#      x y z
#    x 1.824630 -0.000930 0.009160 
#    y -0.000930 1.825720 0.005640 
#    z 0.009160 0.005640 1.823990 
# 
# From -- ./inp_files/313273.got.cif
#   From: 2010.06.25/outbox.cif.g09.slc.cpg/sg2_157_cif.got.tgz:313273.got - 2010.06.27 13:26:56.
