data_PCOD8021245
_publ_section_title
;
Structure prediction by ZEFSAII (Michael W. Deem and Ramdas Pophale) SiO2 
 PCOD8021245
Probable space group: P -1
;
_chemical_formula_sum "Si O2"
_cell_formula_units_Z 16
_cell_length_a 20.743327
_cell_length_b 19.676605
_cell_length_c 8.679136
_cell_angle_alpha 49.967934
_cell_angle_beta 40.288231
_cell_angle_gamma 20.178110
_cell_volume 746.912208
_symmetry_space_group_name_H-M "P -1"
_symmetry_group_IT_number 2
_symmetry_cell_setting 'triclinic'
loop_
_space_group_symop_operation_xyz
x,y,z
-x,-y,-z
loop_
_atom_site_type_symbol
_atom_site_label
_atom_site_fract_x
_atom_site_fract_y
_atom_site_fract_z
Si Si1 0.496125 0.264754 0.348502
Si Si2 0.021251 0.896620 0.009453
Si Si3 0.891022 0.047514 0.480528
Si Si4 0.481053 0.785616 0.976325
Si Si5 0.262077 0.285906 0.892357
Si Si6 0.880699 0.540005 0.792936
Si Si7 0.732827 0.369260 0.777511
Si Si8 0.314024 0.113723 0.794511
O O1 0.454858 0.278531 0.224618
O O2 0.411466 0.251410 0.623943
O O3 0.332142 0.479873 0.379674
O O4 0.769010 0.061266 0.182340
O O5 0.173551 0.702234 0.110867
O O6 0.159480 0.823491 0.716683
O O7 0.000000 0.000000 0.000000
O O8 0.650795 0.192591 0.746249
O O9 0.000000 0.000000 0.500000
O O10 0.067302 0.834093 0.396111
O O11 0.712985 0.605765 0.918249
O O12 0.327998 0.997736 0.962663
O O13 0.368859 0.114162 0.860858
O O14 0.259655 0.282565 0.089086
O O15 0.000000 0.500000 0.000000
O O16 0.000000 0.500000 0.500000
O O17 0.059595 0.339649 0.861371
O O18 0.500000 0.500000 0.000000
O O19 0.500000 0.000000 0.500000
#
# Coordination Sequence:
#
# PCOD8021245 Si02
#       8
#     2   2   2   2   2   2   2   2
#     4  12  23  45  68  97 137 178 224 279 343 405
#     4  10  22  43  69  93 135 173 222 272 340 402
#     4  11  23  45  67  98 138 176 222 281 340 405
#     4  12  25  43  67 100 138 175 225 285 334 405
#     4  10  24  43  69  97 136 181 224 280 337 407
#     4  11  24  44  67  97 136 176 226 282 335 402
#     4  11  23  42  70  95 131 178 225 280 336 402
#     4  11  22  47  68  95 136 182 223 278 342 398
#
# _framework density 21.421526
#
# number of rings (size 3 to 8) (size 9 to 14) (size 15 to 20)
#    0.000    1.000    6.250    0.750    7.000    1.500 
#    0.000    1.250    0.000    0.000    0.000    0.000 
#    0.000    0.000    0.000    0.000    0.000    0.000 
#
# Total GULP energy -198316.953665 kJ/mol
# GULP energy per Si atom -12394.809604 kJ/mol
# Density = 2.137277 g / cm^3
# Si number density = 21.421526 Si / 1000 Ang^3
#
#
#
# Elastic Constant Matrix: (Units=GPa)
#
#
# Indices 1 2 3 4 5 6 
#
# 1 144.4375 27.1212 56.2558 7.1782 6.2284 -17.1041
# 2 27.1212 85.1496 15.5278 -5.8802 -6.5965 -13.0151
# 3 56.2558 15.5278 145.2917 -2.6731 -0.5130 -10.9513
# 4 7.1782 -5.8802 -2.6731 27.1821 -0.3152 -3.2363
# 5 6.2284 -6.5965 -0.5130 -0.3152 46.7338 4.1176
# 6 -17.1041 -13.0151 -10.9513 -3.2363 4.1176 40.7605
#
#
#
# Elastic Compliance Matrix: (Units=1/GPa)
#
#
# Indices 1 2 3 4 5 6 
#
# 1 0.009072 -0.002326 -0.003162 -0.002974 -0.001782 0.002158
# 2 -0.002326 0.013461 -0.000204 0.003932 0.001936 0.003384
# 3 -0.003162 -0.000204 0.008231 0.001714 0.000414 0.000914
# 4 -0.002974 0.003932 0.001714 0.039017 0.000927 0.003472
# 5 -0.001782 0.001936 0.000414 0.000927 0.022111 -0.002178
# 6 0.002158 0.003384 0.000914 0.003472 -0.002178 0.027261
#
#
# Mechanical properties :
#
#
# Convention : Reuss Voigt Hill
#
# Bulk Modulus (GPa) = 51.60224 63.63204 57.61714
# Shear Modulus (GPa) = 36.49688 41.33356 38.91522
#
# Velocity S-wave (km/s) = 4.13213 4.39741 4.26683
# Velocity P-wave (km/s) = 6.84888 7.45333 7.15749
#
# Compressibility (1/GPa) = 0.01937900
#
# Stress axis : x y z
#
# Youngs Moduli (GPa) = 110.22718 74.28934 121.49542
#
# Poissons Ratio (x) = 0.17283 0.38421
# Poissons Ratio (y) = 0.25644 0.02474
# Poissons Ratio (z) = 0.34858 0.01513
#
# Static dielectric constant tensor:
#      x y z
#    x 4.537320 -0.247910 -0.279750 
#    y -0.247910 4.752510 0.853770 
#    z -0.279750 0.853770 7.071910 
# 
# 
# High freq. dielectric constant tensor:
#      x y z
#    x 1.860250 -0.010490 0.002110 
#    y -0.010490 1.828780 0.002050 
#    z 0.002110 0.002050 1.848240 
# 
# From -- ./inp_files/328155.got.cif
#   From: 2010.06.25/outbox.cif.g09.slc.cpg/sg2_165_cif.got.tgz:328155.got - 2010.06.27 13:26:56.
