data_PCOD8021976
_publ_section_title
;
Structure prediction by ZEFSAII (Michael W. Deem and Ramdas Pophale) SiO2 
 PCOD8021976
Probable space group: P -1
;
_chemical_formula_sum "Si O2"
_cell_formula_units_Z 14
_cell_length_a 10.974918
_cell_length_b 9.150811
_cell_length_c 11.814068
_cell_angle_alpha 36.777532
_cell_angle_beta 128.119259
_cell_angle_gamma 120.904848
_cell_volume 558.393877
_symmetry_space_group_name_H-M "P -1"
_symmetry_group_IT_number 2
_symmetry_cell_setting 'triclinic'
loop_
_space_group_symop_operation_xyz
x,y,z
-x,-y,-z
loop_
_atom_site_type_symbol
_atom_site_label
_atom_site_fract_x
_atom_site_fract_y
_atom_site_fract_z
Si Si1 0.681289 0.038264 0.582488
Si Si2 0.407519 0.479023 0.842093
Si Si3 0.283812 0.482483 0.136169
Si Si4 0.134742 0.126829 0.839474
Si Si5 0.855369 0.035871 0.312043
Si Si6 0.324313 0.406740 0.452678
Si Si7 0.137435 0.751670 0.257691
O O1 0.709814 0.294045 0.371892
O O2 0.734932 0.065576 0.725077
O O3 0.500000 0.000000 0.500000
O O4 0.770780 0.802896 0.734998
O O5 0.535539 0.486280 0.811975
O O6 0.303764 0.233739 0.909548
O O7 0.500000 0.500000 0.000000
O O8 0.260920 0.528207 0.227070
O O9 0.181366 0.676183 0.890235
O O10 0.003351 0.306222 0.699201
O O11 0.116095 0.068868 0.732224
O O12 0.091109 0.874153 0.037279
O O13 0.704864 0.887630 0.373300
O O14 0.000000 0.000000 0.500000
O O15 0.500000 0.500000 0.500000
O O16 0.220579 0.499098 0.439685
#
# Coordination Sequence:
#
# PCOD8021976 Si02
#       7
#     2   2   2   2   2   2   2
#     4  10  22  44  71 109 148 198 253 318 382 463
#     4  11  25  45  81 116 151 204 269 320 397 481
#     4  11  26  48  76 112 161 196 262 327 394 468
#     4  11  25  48  75 113 153 206 265 318 395 478
#     4  12  30  50  78 115 158 214 266 326 401 476
#     4  12  27  48  79 114 155 205 262 328 403 463
#     4  11  25  47  77 105 161 203 255 332 389 461
#
# _framework density 25.071908000000001
#
# number of rings (size 3 to 8) (size 9 to 14) (size 15 to 20)
#    0.000    0.857    1.429    5.143    6.000    7.429 
#    0.000    0.000    0.000    0.000    0.000    0.000 
#    0.000    0.000    0.000    0.000    0.000    0.000 
#
# Total GULP energy -173451.185309 kJ/mol
# GULP energy per Si atom -12389.370379 kJ/mol
# Density = 2.501484 g / cm^3
# Si number density = 25.071908 Si / 1000 Ang^3
#
#
#
# Elastic Constant Matrix: (Units=GPa)
#
#
# Indices 1 2 3 4 5 6 
#
# 1 98.8646 38.7094 41.0897 0.9106 -1.7720 -11.9189
# 2 38.7094 120.1651 62.5460 14.8412 1.1670 -9.8707
# 3 41.0897 62.5460 169.7929 -6.6370 4.9232 -6.8830
# 4 0.9106 14.8412 -6.6370 49.8501 -7.0257 1.4450
# 5 -1.7720 1.1670 4.9232 -7.0257 37.4093 -5.8907
# 6 -11.9189 -9.8707 -6.8830 1.4450 -5.8907 35.4059
#
#
#
# Elastic Compliance Matrix: (Units=1/GPa)
#
#
# Indices 1 2 3 4 5 6 
#
# 1 0.012413 -0.002844 -0.001849 0.000495 0.001526 0.003260
# 2 -0.002844 0.011840 -0.003749 -0.004093 -0.000512 0.001696
# 3 -0.001849 -0.003749 0.007805 0.002107 -0.000657 -0.000345
# 4 0.000495 -0.004093 0.002107 0.022124 0.003900 -0.000819
# 5 0.001526 -0.000512 -0.000657 0.003900 0.028396 0.004809
# 6 0.003260 0.001696 -0.000345 -0.000819 0.004809 0.030580
#
#
# Mechanical properties :
#
#
# Convention : Reuss Voigt Hill
#
# Bulk Modulus (GPa) = 65.90828 74.83475 70.37151
# Shear Modulus (GPa) = 37.00953 40.96487 38.98720
#
# Velocity S-wave (km/s) = 3.84622 4.04653 3.94765
# Velocity P-wave (km/s) = 6.78744 7.19343 6.99338
#
# Compressibility (1/GPa) = 0.01517260
#
# Stress axis : x y z
#
# Youngs Moduli (GPa) = 80.56223 84.46252 128.11517
#
# Poissons Ratio (x) = 0.24024 0.23687
# Poissons Ratio (y) = 0.22915 0.48035
# Poissons Ratio (z) = 0.14895 0.31668
#
# Static dielectric constant tensor:
#      x y z
#    x 4.551920 -0.084230 -0.052370 
#    y -0.084230 4.810080 -0.363070 
#    z -0.052370 -0.363070 5.063830 
# 
# 
# High freq. dielectric constant tensor:
#      x y z
#    x 1.993540 -0.002750 -0.009260 
#    y -0.002750 2.004120 0.000480 
#    z -0.009260 0.000480 2.012150 
# 
# From -- ./inp_files/418787.got.cif
#   From: 2010.06.25/outbox.cif.g09.slc.cpg/sg2_210_cif.got.tgz:418787.got - 2010.06.27 13:26:56.
