data_PCOD8021276
_publ_section_title
;
Structure prediction by ZEFSAII (Michael W. Deem and Ramdas Pophale) SiO2 
 PCOD8021276
Probable space group: P -1
;
_chemical_formula_sum "Si O2"
_cell_formula_units_Z 16
_cell_length_a 9.073362
_cell_length_b 11.648160
_cell_length_c 15.190390
_cell_angle_alpha 54.705124
_cell_angle_beta 78.052633
_cell_angle_gamma 36.361901
_cell_volume 656.978328
_symmetry_space_group_name_H-M "P -1"
_symmetry_group_IT_number 2
_symmetry_cell_setting 'triclinic'
loop_
_space_group_symop_operation_xyz
x,y,z
-x,-y,-z
loop_
_atom_site_type_symbol
_atom_site_label
_atom_site_fract_x
_atom_site_fract_y
_atom_site_fract_z
Si Si1 0.259694 0.602374 0.222953
Si Si2 0.146946 0.482495 0.151821
Si Si3 0.837500 0.967021 0.693453
Si Si4 0.090605 0.014913 0.565027
Si Si5 0.338796 0.966652 0.838098
Si Si6 0.364341 0.018523 0.118661
Si Si7 0.247057 0.145988 0.403433
Si Si8 0.475907 0.327482 0.887790
O O1 0.115637 0.659255 0.124307
O O2 0.556695 0.275720 0.340762
O O3 0.309171 0.728463 0.155822
O O4 0.012318 0.768435 0.255102
O O5 0.480748 0.190963 0.204872
O O6 0.080727 0.409840 0.261372
O O7 0.923137 0.660444 0.017986
O O8 0.896385 0.091037 0.630544
O O9 0.146685 0.643796 0.783136
O O10 0.710386 0.036756 0.773690
O O11 0.643486 0.053672 0.598652
O O12 0.024547 0.233677 0.457143
O O13 0.000000 0.000000 0.500000
O O14 0.395546 0.070362 0.831408
O O15 0.436464 0.763412 0.981422
O O16 0.500033 0.836325 0.097042
O O17 0.500000 0.000000 0.500000
#
# Coordination Sequence:
#
# PCOD8021276 Si02
#       8
#     2   2   2   2   2   2   2   2
#     4  11  25  42  63 100 132 176 220 271 333 388
#     4  12  24  40  69  99 136 176 219 270 334 397
#     4  10  22  43  69  97 131 175 221 269 336 397
#     4   9  21  43  70  88 126 178 222 270 322 387
#     4  12  24  39  65 100 140 170 217 271 334 400
#     4  12  24  40  69 104 135 174 218 268 340 406
#     4  11  21  40  69  96 125 174 231 269 323 385
#     4  11  24  41  64  97 140 178 209 271 335 406
#
# _framework density 24.353923000000002
#
# number of rings (size 3 to 8) (size 9 to 14) (size 15 to 20)
#    0.000    1.000    5.000    1.875    1.750    2.500 
#    0.000    0.625    5.500    7.500    0.000    0.000 
#    0.000    0.000    0.000    0.000    0.000    0.000 
#
# Total GULP energy -198269.274043 kJ/mol
# GULP energy per Si atom -12391.829628 kJ/mol
# Density = 2.429849 g / cm^3
# Si number density = 24.353923 Si / 1000 Ang^3
#
#
#
# Elastic Constant Matrix: (Units=GPa)
#
#
# Indices 1 2 3 4 5 6 
#
# 1 111.9718 15.1869 28.6567 -1.6706 -15.1673 -12.5800
# 2 15.1869 52.5293 5.0581 3.1700 -3.4203 -8.0348
# 3 28.6567 5.0581 98.5028 21.3355 -17.6831 -14.9081
# 4 -1.6706 3.1700 21.3355 14.1968 -4.6325 -2.0038
# 5 -15.1673 -3.4203 -17.6831 -4.6325 42.8414 0.5743
# 6 -12.5800 -8.0348 -14.9081 -2.0038 0.5743 37.7016
#
#
#
# Elastic Compliance Matrix: (Units=1/GPa)
#
#
# Indices 1 2 3 4 5 6 
#
# 1 0.011220 -0.002939 -0.004446 0.009879 0.002946 0.001840
# 2 -0.002939 0.020763 0.002080 -0.007358 0.000628 0.003866
# 3 -0.004446 0.002080 0.018508 -0.027069 0.003240 0.004791
# 4 0.009879 -0.007358 -0.027069 0.114881 0.004199 -0.002934
# 5 0.002946 0.000628 0.003240 0.004199 0.026197 0.002222
# 6 0.001840 0.003866 0.004791 -0.002934 0.002222 0.029666
#
#
# Mechanical properties :
#
#
# Convention : Reuss Voigt Hill
#
# Bulk Modulus (GPa) = 25.07312 40.08971 32.58141
# Shear Modulus (GPa) = 20.39664 33.22143 26.80904
#
# Velocity S-wave (km/s) = 2.89712 3.69739 3.32144
# Velocity P-wave (km/s) = 4.63775 5.89276 5.30252
#
# Compressibility (1/GPa) = 0.03988335
#
# Stress axis : x y z
#
# Youngs Moduli (GPa) = 89.12335 48.16341 54.02936
#
# Poissons Ratio (x) = 0.14154 0.24020
# Poissons Ratio (y) = 0.26191 -0.11240
# Poissons Ratio (z) = 0.39622 -0.10020
#
# Static dielectric constant tensor:
#      x y z
#    x 5.619300 -0.581220 -0.751400 
#    y -0.581220 4.080640 0.309230 
#    z -0.751400 0.309230 4.645720 
# 
# 
# High freq. dielectric constant tensor:
#      x y z
#    x 1.993280 -0.016250 -0.007350 
#    y -0.016250 1.927310 0.007120 
#    z -0.007350 0.007120 1.966500 
# 
# From -- ./inp_files/500172.got.cif
#   From: 2010.06.25/outbox.cif.g09.slc.cpg/sg2_251_cif.got.tgz:500172.got - 2010.06.27 13:26:56.
