data_PCOD8021959
_publ_section_title
;
Structure prediction by ZEFSAII (Michael W. Deem and Ramdas Pophale) SiO2 
 PCOD8021959
Probable space group: P -1
;
_chemical_formula_sum "Si O2"
_cell_formula_units_Z 14
_cell_length_a 8.132490
_cell_length_b 10.777617
_cell_length_c 16.914696
_cell_angle_alpha 135.678366
_cell_angle_beta 145.193282
_cell_angle_gamma 52.938780
_cell_volume 590.835045
_symmetry_space_group_name_H-M "P -1"
_symmetry_group_IT_number 2
_symmetry_cell_setting 'triclinic'
loop_
_space_group_symop_operation_xyz
x,y,z
-x,-y,-z
loop_
_atom_site_type_symbol
_atom_site_label
_atom_site_fract_x
_atom_site_fract_y
_atom_site_fract_z
Si Si1 0.896543 0.750836 0.913001
Si Si2 0.366448 0.486631 0.025414
Si Si3 0.217876 0.106451 0.782385
Si Si4 0.434096 0.843114 0.462870
Si Si5 0.751092 0.248458 0.300637
Si Si6 0.249170 0.423333 0.643556
Si Si7 0.303777 0.062168 0.225594
O O1 0.586144 0.729635 0.815893
O O2 0.857419 0.776552 0.814068
O O3 0.051162 0.574821 0.929193
O O4 0.068375 0.918545 0.088155
O O5 0.350049 0.281999 0.952746
O O6 0.500000 0.500000 0.000000
O O7 0.567193 0.595702 0.212830
O O8 0.902897 0.161268 0.649806
O O9 0.178584 0.963724 0.773099
O O10 0.430370 0.024428 0.761009
O O11 0.553705 0.659703 0.387539
O O12 0.592813 0.862320 0.617167
O O13 0.500000 0.000000 0.500000
O O14 0.834347 0.368125 0.312638
O O15 0.949217 0.319234 0.484387
#
# Coordination Sequence:
#
# PCOD8021959 Si02
#       7
#     2   2   2   2   2   2   2
#     4  10  22  44  71 101 140 184 234 284 347 418
#     4  12  26  45  73 103 140 185 236 290 346 420
#     4  11  24  45  73 106 139 188 233 288 350 416
#     4  12  24  42  73 107 141 183 233 295 347 411
#     4  10  24  48  69 104 142 186 230 290 352 415
#     4  11  26  48  68 103 148 182 234 290 354 416
#     4  10  23  44  71 103 144 182 237 286 346 416
#
# _framework density 23.695278999999999
#
# number of rings (size 3 to 8) (size 9 to 14) (size 15 to 20)
#    0.000    1.143    2.857    2.143    0.000    8.571 
#    0.000    4.286    0.000    0.000    0.000    0.000 
#    0.000    0.000    0.000    0.000    0.000    0.000 
#
# Total GULP energy -173450.360572 kJ/mol
# GULP energy per Si atom -12389.311469 kJ/mol
# Density = 2.364135 g / cm^3
# Si number density = 23.695279 Si / 1000 Ang^3
#
#
#
# Elastic Constant Matrix: (Units=GPa)
#
#
# Indices 1 2 3 4 5 6 
#
# 1 49.3012 2.9679 45.3535 -10.6426 4.4556 -12.1758
# 2 2.9679 113.2454 35.4785 -5.3288 2.2124 6.5916
# 3 45.3535 35.4785 142.6378 -29.6337 4.8730 -17.1110
# 4 -10.6426 -5.3288 -29.6337 43.6748 5.8698 12.7471
# 5 4.4556 2.2124 4.8730 5.8698 53.2275 -2.9852
# 6 -12.1758 6.5916 -17.1110 12.7471 -2.9852 27.7099
#
#
#
# Elastic Compliance Matrix: (Units=1/GPa)
#
#
# Indices 1 2 3 4 5 6 
#
# 1 0.030591 0.001688 -0.009353 -0.000685 -0.001282 0.007442
# 2 0.001688 0.010131 -0.003404 0.000611 -0.000549 -0.004111
# 3 -0.009353 -0.003404 0.012126 0.005104 -0.000649 0.001770
# 4 -0.000685 0.000611 0.005104 0.030278 -0.004430 -0.011700
# 5 -0.001282 -0.000549 -0.000649 -0.004430 0.019652 0.003322
# 6 0.007442 -0.004111 0.001770 -0.011700 0.003322 0.047170
#
#
# Mechanical properties :
#
#
# Convention : Reuss Voigt Hill
#
# Bulk Modulus (GPa) = 32.56103 52.53156 42.54630
# Shear Modulus (GPa) = 27.42393 39.68141 33.55267
#
# Velocity S-wave (km/s) = 3.40569 4.09669 3.76707
# Velocity P-wave (km/s) = 5.40706 6.67795 6.07583
#
# Compressibility (1/GPa) = 0.03071156
#
# Stress axis : x y z
#
# Youngs Moduli (GPa) = 32.68889 98.70343 82.46641
#
# Poissons Ratio (x) = -0.16661 0.77127
# Poissons Ratio (y) = -0.05518 0.28072
# Poissons Ratio (z) = 0.30572 0.33599
#
# Static dielectric constant tensor:
#      x y z
#    x 4.243730 -0.011920 0.570460 
#    y -0.011920 4.572800 -0.145740 
#    z 0.570460 -0.145740 4.726800 
# 
# 
# High freq. dielectric constant tensor:
#      x y z
#    x 1.910370 0.005190 0.029330 
#    y 0.005190 1.958740 -0.014350 
#    z 0.029330 -0.014350 1.953550 
# 
# From -- ./inp_files/213597.got.cif
#   From: 2010.06.25/outbox.cif.g09.slc.cpg/sg2_107_cif.got.tgz:213597.got - 2010.06.27 13:26:56.
