data_PCOD8021471
_publ_section_title
;
Structure prediction by ZEFSAII (Michael W. Deem and Ramdas Pophale) SiO2 
 PCOD8021471
Probable space group: P -1
;
_chemical_formula_sum "Si O2"
_cell_formula_units_Z 16
_cell_length_a 9.751080
_cell_length_b 8.748014
_cell_length_c 14.227873
_cell_angle_alpha 95.750286
_cell_angle_beta 41.503378
_cell_angle_gamma 115.627676
_cell_volume 672.380018
_symmetry_space_group_name_H-M "P -1"
_symmetry_group_IT_number 2
_symmetry_cell_setting 'triclinic'
loop_
_space_group_symop_operation_xyz
x,y,z
-x,-y,-z
loop_
_atom_site_type_symbol
_atom_site_label
_atom_site_fract_x
_atom_site_fract_y
_atom_site_fract_z
Si Si1 0.973172 0.847589 0.794372
Si Si2 0.196465 0.732631 0.982083
Si Si3 0.644377 0.438927 0.642497
Si Si4 0.072587 0.478843 0.312855
Si Si5 0.531986 0.192224 0.978983
Si Si6 0.592964 0.920707 0.525772
Si Si7 0.664865 0.978199 0.206753
Si Si8 0.686727 0.435149 0.255633
O O1 0.953064 0.660631 0.763158
O O2 0.705276 0.812568 0.934449
O O3 0.104204 0.911477 0.832966
O O4 0.126245 0.001582 0.643890
O O5 0.386113 0.722173 0.953139
O O6 0.260468 0.936014 0.932100
O O7 0.201021 0.647516 0.875967
O O8 0.930056 0.632902 0.166337
O O9 0.810625 0.544396 0.653721
O O10 0.526393 0.551437 0.680350
O O11 0.805489 0.439548 0.473075
O O12 0.424255 0.232231 0.766852
O O13 0.248911 0.686390 0.199220
O O14 0.500000 0.000000 0.000000
O O15 0.565672 0.005128 0.642059
O O16 0.433239 0.699118 0.600576
O O17 0.500000 0.000000 0.500000
#
# Coordination Sequence:
#
# PCOD8021471 Si02
#       8
#     2   2   2   2   2   2   2   2
#     4  11  24  44  72  97 130 187 224 275 345 407
#     4  10  24  44  67  98 140 177 224 276 340 409
#     4  11  24  44  70 104 132 181 227 284 337 401
#     4  11  26  45  68  97 145 177 224 277 347 411
#     4  12  28  43  64 102 140 175 224 289 339 398
#     4   9  20  41  66  97 132 169 221 275 334 396
#     4  10  22  43  73  98 134 176 230 278 333 405
#     4  10  23  40  72  99 129 177 231 276 330 404
#
# _framework density 23.796066
#
# number of rings (size 3 to 8) (size 9 to 14) (size 15 to 20)
#    0.000    1.500    1.250    1.875   12.250    0.500 
#    0.000    5.000    0.000    0.000    0.000    0.000 
#    0.000    0.000    0.000    0.000    0.000    0.000 
#
# Total GULP energy -198309.548004 kJ/mol
# GULP energy per Si atom -12394.346750 kJ/mol
# Density = 2.374191 g / cm^3
# Si number density = 23.796066 Si / 1000 Ang^3
#
#
#
# Elastic Constant Matrix: (Units=GPa)
#
#
# Indices 1 2 3 4 5 6 
#
# 1 106.3458 6.4013 37.8963 -3.4872 -6.4416 -12.0868
# 2 6.4013 57.5006 34.3040 -24.1521 0.2422 -17.5021
# 3 37.8963 34.3040 137.9840 -42.3258 1.0434 -23.6366
# 4 -3.4872 -24.1521 -42.3258 35.8259 -6.5566 10.2441
# 5 -6.4416 0.2422 1.0434 -6.5566 33.4932 -5.5926
# 6 -12.0868 -17.5021 -23.6366 10.2441 -5.5926 36.7075
#
#
#
# Elastic Compliance Matrix: (Units=1/GPa)
#
#
# Indices 1 2 3 4 5 6 
#
# 1 0.011028 0.000327 -0.003755 -0.003540 0.001987 0.002660
# 2 0.000327 0.027044 -0.000380 0.016080 0.004523 0.008959
# 3 -0.003755 -0.000380 0.013469 0.014715 0.002327 0.003503
# 4 -0.003540 0.016080 0.014715 0.057214 0.010206 0.001565
# 5 0.001987 0.004523 0.002327 0.010206 0.033221 0.006522
# 6 0.002660 0.008959 0.003503 0.001565 0.006522 0.035202
#
#
# Mechanical properties :
#
#
# Convention : Reuss Voigt Hill
#
# Bulk Modulus (GPa) = 22.76628 51.00372 36.88500
# Shear Modulus (GPa) = 25.07056 36.08724 30.57890
#
# Velocity S-wave (km/s) = 3.24938 3.89848 3.58863
# Velocity P-wave (km/s) = 4.86477 6.46099 5.71884
#
# Compressibility (1/GPa) = 0.04392460
#
# Stress axis : x y z
#
# Youngs Moduli (GPa) = 90.67515 36.97744 74.24186
#
# Poissons Ratio (x) = -0.01210 0.27880
# Poissons Ratio (y) = -0.02966 0.02822
# Poissons Ratio (z) = 0.34052 0.01406
#
# Static dielectric constant tensor:
#      x y z
#    x 4.500640 0.003160 0.157680 
#    y 0.003160 4.256230 -0.396340 
#    z 0.157680 -0.396340 5.315050 
# 
# 
# High freq. dielectric constant tensor:
#      x y z
#    x 1.935890 0.001110 0.005630 
#    y 0.001110 1.931420 -0.017310 
#    z 0.005630 -0.017310 1.958690 
# 
# From -- ./inp_files/494817.got.cif
#   From: 2010.06.25/outbox.cif.g09.slc.cpg/sg2_248_cif.got.tgz:494817.got - 2010.06.27 13:26:56.
