data_PCOD8021550
_publ_section_title
;
Structure prediction by ZEFSAII (Michael W. Deem and Ramdas Pophale) SiO2 
 PCOD8021550
Probable space group: P -1
;
_chemical_formula_sum "Si O2"
_cell_formula_units_Z 16
_cell_length_a 15.206983
_cell_length_b 8.462973
_cell_length_c 11.864139
_cell_angle_alpha 83.578516
_cell_angle_beta 150.565799
_cell_angle_gamma 86.521115
_cell_volume 705.482580
_symmetry_space_group_name_H-M "P -1"
_symmetry_group_IT_number 2
_symmetry_cell_setting 'triclinic'
loop_
_space_group_symop_operation_xyz
x,y,z
-x,-y,-z
loop_
_atom_site_type_symbol
_atom_site_label
_atom_site_fract_x
_atom_site_fract_y
_atom_site_fract_z
Si Si1 0.473347 0.355222 0.407388
Si Si2 0.459317 0.551189 0.170825
Si Si3 0.599366 0.019908 0.322604
Si Si4 0.273213 0.331159 0.873251
Si Si5 0.955218 0.076996 0.821394
Si Si6 0.780785 0.675692 0.434816
Si Si7 0.666322 0.137955 0.830869
Si Si8 0.080627 0.373271 0.882420
O O1 0.500000 0.500000 0.500000
O O2 0.539488 0.381705 0.352145
O O3 0.600728 0.185834 0.623853
O O4 0.255351 0.361275 0.160721
O O5 0.618341 0.590547 0.273550
O O6 0.349800 0.705508 0.117511
O O7 0.315187 0.507094 0.927296
O O8 0.709403 0.869111 0.374680
O O9 0.465472 0.966134 0.264671
O O10 0.750820 0.076014 0.556874
O O11 0.469447 0.175788 0.092039
O O12 0.159470 0.342601 0.628464
O O13 0.148434 0.299194 0.839356
O O14 0.957686 0.268675 0.809312
O O15 0.000000 0.000000 0.000000
O O16 0.114837 0.973228 0.919100
O O17 0.955501 0.570019 0.716169
#
# Coordination Sequence:
#
# PCOD8021550 Si02
#       8
#     2   2   2   2   2   2   2   2
#     4   9  20  38  65  90 126 173 204 261 336 383
#     4   9  21  39  67  93 129 169 219 272 324 395
#     4  11  25  44  67  99 136 174 220 277 328 395
#     4  11  22  44  69  91 134 178 218 280 336 378
#     4  12  27  41  69 100 136 176 223 265 333 403
#     4  11  24  42  67  98 128 176 228 273 330 391
#     4  10  22  44  63  99 137 174 212 274 335 390
#     4  11  24  42  65  99 134 167 228 276 320 401
#
# _framework density 22.679510000000001
#
# number of rings (size 3 to 8) (size 9 to 14) (size 15 to 20)
#    0.000    1.500    1.250    2.625   10.500    1.000 
#    0.000    3.125    0.000    0.000    0.000    0.000 
#    0.000    0.000    0.000    0.000    0.000    0.000 
#
# Total GULP energy -198369.371944 kJ/mol
# GULP energy per Si atom -12398.085747 kJ/mol
# Density = 2.262789 g / cm^3
# Si number density = 22.679510 Si / 1000 Ang^3
#
#
#
# Elastic Constant Matrix: (Units=GPa)
#
#
# Indices 1 2 3 4 5 6 
#
# 1 62.3925 21.8873 -0.7412 7.6378 1.7380 -1.9841
# 2 21.8873 99.8158 41.2907 9.6788 6.8499 9.6557
# 3 -0.7412 41.2907 69.6038 -5.2684 -3.4792 -0.7107
# 4 7.6378 9.6788 -5.2684 35.1644 -4.0544 8.5172
# 5 1.7380 6.8499 -3.4792 -4.0544 32.5247 -1.9755
# 6 -1.9841 9.6557 -0.7107 8.5172 -1.9755 31.5083
#
#
#
# Elastic Compliance Matrix: (Units=1/GPa)
#
#
# Indices 1 2 3 4 5 6 
#
# 1 0.018465 -0.005537 0.003324 -0.002845 0.000407 0.003729
# 2 -0.005537 0.016966 -0.010779 -0.004504 -0.005290 -0.004905
# 3 0.003324 -0.010779 0.021494 0.005373 0.005236 0.002873
# 4 -0.002845 -0.004504 0.005373 0.033516 0.005404 -0.007399
# 5 0.000407 -0.005290 0.005236 0.005404 0.033217 0.002387
# 6 0.003729 -0.004905 0.002873 -0.007399 0.002387 0.035690
#
#
# Mechanical properties :
#
#
# Convention : Reuss Voigt Hill
#
# Bulk Modulus (GPa) = 32.31825 39.63173 35.97499
# Shear Modulus (GPa) = 25.55660 31.13116 28.34388
#
# Velocity S-wave (km/s) = 3.36051 3.70896 3.53903
# Velocity P-wave (km/s) = 5.41648 5.98786 5.70932
#
# Compressibility (1/GPa) = 0.03094227
#
# Stress axis : x y z
#
# Youngs Moduli (GPa) = 54.15679 58.94272 46.52370
#
# Poissons Ratio (x) = 0.32636 -0.15466
# Poissons Ratio (y) = 0.29986 0.50147
# Poissons Ratio (z) = -0.18003 0.63533
#
# Static dielectric constant tensor:
#      x y z
#    x 4.332260 -0.067460 -0.201490 
#    y -0.067460 4.369290 -0.096610 
#    z -0.201490 -0.096610 4.282570 
# 
# 
# High freq. dielectric constant tensor:
#      x y z
#    x 1.889500 0.003100 0.004380 
#    y 0.003100 1.904310 -0.004170 
#    z 0.004380 -0.004170 1.889580 
# 
# From -- ./inp_files/447396.got.cif
#   From: 2010.06.25/outbox.cif.g09.slc.cpg/sg2_224_cif.got.tgz:447396.got - 2010.06.27 13:26:56.
