data_PCOD8021385
_publ_section_title
;
Structure prediction by ZEFSAII (Michael W. Deem and Ramdas Pophale) SiO2 
 PCOD8021385
Probable space group: P -1
;
_chemical_formula_sum "Si O2"
_cell_formula_units_Z 16
_cell_length_a 8.454869
_cell_length_b 9.207194
_cell_length_c 11.844369
_cell_angle_alpha 80.537497
_cell_angle_beta 83.408540
_cell_angle_gamma 128.127562
_cell_volume 687.079081
_symmetry_space_group_name_H-M "P -1"
_symmetry_group_IT_number 2
_symmetry_cell_setting 'triclinic'
loop_
_space_group_symop_operation_xyz
x,y,z
-x,-y,-z
loop_
_atom_site_type_symbol
_atom_site_label
_atom_site_fract_x
_atom_site_fract_y
_atom_site_fract_z
Si Si1 0.821780 0.014744 0.499813
Si Si2 0.553126 0.425380 0.404376
Si Si3 0.569062 0.569557 0.825073
Si Si4 0.025464 0.646585 0.392049
Si Si5 0.053761 0.780016 0.769353
Si Si6 0.889926 0.089298 0.010574
Si Si7 0.084783 0.615753 0.149285
Si Si8 0.493943 0.741687 0.989370
O O1 0.827781 0.098897 0.368239
O O2 0.860745 0.150500 0.581614
O O3 0.590154 0.807193 0.553802
O O4 0.000000 0.000000 0.500000
O O5 0.500000 0.500000 0.500000
O O6 0.506584 0.488947 0.288360
O O7 0.797069 0.539571 0.374374
O O8 0.450760 0.369536 0.926683
O O9 0.816163 0.691317 0.794579
O O10 0.508969 0.694345 0.864727
O O11 0.000000 0.500000 0.500000
O O12 0.161360 0.691055 0.262995
O O13 0.158864 0.915417 0.853134
O O14 0.076928 0.617330 0.800885
O O15 0.674462 0.967119 0.973285
O O16 0.019840 0.303755 0.914570
O O17 0.000000 0.000000 0.000000
O O18 0.273179 0.680215 0.043968
#
# Coordination Sequence:
#
# PCOD8021385 Si02
#       8
#     2   2   2   2   2   2   2   2
#     4  12  25  47  77 110 146 194 250 306 368 448
#     4  12  27  44  80 109 147 196 251 300 382 437
#     4  10  22  43  71 105 142 191 240 301 360 439
#     4  12  28  51  74 110 152 193 248 313 375 440
#     4  11  23  46  71 105 150 188 240 306 370 440
#     4  12  26  41  74 110 138 190 251 301 366 439
#     4  11  27  48  70 100 154 193 235 310 374 442
#     4  10  24  45  70 101 148 190 243 298 370 434
#
# _framework density 23.286984
#
# number of rings (size 3 to 8) (size 9 to 14) (size 15 to 20)
#    0.000    0.750    5.000    0.750    8.750    1.500 
#    2.250    0.000    0.000    0.000    0.000    0.000 
#    0.000    0.000    0.000    0.000    0.000    0.000 
#
# Total GULP energy -198402.381706 kJ/mol
# GULP energy per Si atom -12400.148857 kJ/mol
# Density = 2.323398 g / cm^3
# Si number density = 23.286984 Si / 1000 Ang^3
#
#
#
# Elastic Constant Matrix: (Units=GPa)
#
#
# Indices 1 2 3 4 5 6 
#
# 1 62.3276 22.7181 21.8899 0.8267 8.9929 -20.4355
# 2 22.7181 134.9060 33.2652 16.5178 -1.3191 -14.0211
# 3 21.8899 33.2652 124.0877 22.7082 6.9926 -16.3983
# 4 0.8267 16.5178 22.7082 50.3963 -8.7564 -4.1172
# 5 8.9929 -1.3191 6.9926 -8.7564 33.6472 -1.3319
# 6 -20.4355 -14.0211 -16.3983 -4.1172 -1.3319 39.9223
#
#
#
# Elastic Compliance Matrix: (Units=1/GPa)
#
#
# Indices 1 2 3 4 5 6 
#
# 1 0.021250 -0.002353 -0.001847 0.001193 -0.004711 0.009258
# 2 -0.002353 0.008507 -0.001431 -0.001880 0.000811 0.001029
# 3 -0.001847 -0.001431 0.009984 -0.004290 -0.002670 0.002121
# 4 0.001193 -0.001880 -0.004290 0.023601 0.006674 0.000845
# 5 -0.004711 0.000811 -0.002670 0.006674 0.033246 -0.001426
# 6 0.009258 0.001029 0.002121 0.000845 -0.001426 0.031060
#
#
# Mechanical properties :
#
#
# Convention : Reuss Voigt Hill
#
# Bulk Modulus (GPa) = 35.11441 53.00751 44.06096
# Shear Modulus (GPa) = 33.69186 41.02302 37.35744
#
# Velocity S-wave (km/s) = 3.80782 4.20173 4.00962
# Velocity P-wave (km/s) = 5.86894 6.80819 6.35594
#
# Compressibility (1/GPa) = 0.02847834
#
# Stress axis : x y z
#
# Youngs Moduli (GPa) = 47.05869 117.55471 100.15807
#
# Poissons Ratio (x) = 0.27659 0.18501
# Poissons Ratio (y) = 0.11072 0.14335
# Poissons Ratio (z) = 0.08693 0.16824
#
# Static dielectric constant tensor:
#      x y z
#    x 3.921630 -0.326830 -0.087840 
#    y -0.326830 4.597610 0.120930 
#    z -0.087840 0.120930 4.302590 
# 
# 
# High freq. dielectric constant tensor:
#      x y z
#    x 1.908120 -0.014790 0.001180 
#    y -0.014790 1.932040 0.009440 
#    z 0.001180 0.009440 1.937460 
# 
# From -- ./inp_files/328540.got.cif
#   From: 2010.06.25/outbox.cif.g09.slc.cpg/sg2_165_cif.got.tgz:328540.got - 2010.06.27 13:26:56.
