data_PCOD8021889
_publ_section_title
;
Structure prediction by ZEFSAII (Michael W. Deem and Ramdas Pophale) SiO2 
 PCOD8021889
Probable space group: P -1
;
_chemical_formula_sum "Si O2"
_cell_formula_units_Z 16
_cell_length_a 14.952380
_cell_length_b 8.339988
_cell_length_c 12.282892
_cell_angle_alpha 73.059251
_cell_angle_beta 66.979838
_cell_angle_gamma 31.327242
_cell_volume 730.038450
_symmetry_space_group_name_H-M "P -1"
_symmetry_group_IT_number 2
_symmetry_cell_setting 'triclinic'
loop_
_space_group_symop_operation_xyz
x,y,z
-x,-y,-z
loop_
_atom_site_type_symbol
_atom_site_label
_atom_site_fract_x
_atom_site_fract_y
_atom_site_fract_z
Si Si1 0.314131 0.866552 0.000947
Si Si2 0.057056 0.773421 0.865222
Si Si3 0.240869 0.426589 0.624972
Si Si4 0.328705 0.948202 0.733864
Si Si5 0.006214 0.765696 0.237512
Si Si6 0.995349 0.823779 0.483407
Si Si7 0.294336 0.244997 0.037099
Si Si8 0.388659 0.563169 0.454610
O O1 0.308803 0.958939 0.868303
O O2 0.290101 0.051087 0.061802
O O3 0.500000 0.500000 0.000000
O O4 0.147772 0.982533 0.065356
O O5 0.104175 0.662109 0.741091
O O6 0.197163 0.482374 0.937245
O O7 0.064934 0.962247 0.841341
O O8 0.355757 0.424668 0.544709
O O9 0.130354 0.520437 0.552668
O O10 0.366626 0.088935 0.663158
O O11 0.504596 0.595362 0.678464
O O12 0.149240 0.146535 0.718953
O O13 0.052597 0.733993 0.347890
O O14 0.189649 0.436746 0.160301
O O15 0.789607 0.066549 0.548591
O O16 0.000000 0.000000 0.500000
O O17 0.500000 0.000000 0.000000
O O18 0.500000 0.500000 0.500000
#
# Coordination Sequence:
#
# PCOD8021889 Si02
#       8
#     2   2   2   2   2   2   2   2
#     4  12  28  47  73 106 144 195 237 297 368 434
#     4  12  23  48  74 101 149 187 236 298 366 423
#     4  11  24  44  71 100 142 195 227 296 359 422
#     4  12  25  45  70 102 147 185 242 292 362 424
#     4  12  24  46  74 105 145 190 235 304 359 425
#     4  10  22  44  70 100 136 186 236 285 359 425
#     4  12  27  46  71 109 141 184 248 297 355 433
#     4  11  22  45  68 103 137 182 245 290 348 426
#
# _framework density 21.916653
#
# number of rings (size 3 to 8) (size 9 to 14) (size 15 to 20)
#    0.000    0.500    6.250    2.625    3.500    2.500 
#    2.250    0.000    0.000    0.000    0.000    0.000 
#    0.000    0.000    0.000    0.000    0.000    0.000 
#
# Total GULP energy -198387.180305 kJ/mol
# GULP energy per Si atom -12399.198769 kJ/mol
# Density = 2.186677 g / cm^3
# Si number density = 21.916653 Si / 1000 Ang^3
#
#
#
# Elastic Constant Matrix: (Units=GPa)
#
#
# Indices 1 2 3 4 5 6 
#
# 1 105.0938 46.8385 35.0235 -1.5585 3.0682 -8.0380
# 2 46.8385 105.1167 43.6455 18.6507 6.8037 -6.5556
# 3 35.0235 43.6455 126.3081 22.5547 16.8817 -6.3566
# 4 -1.5585 18.6507 22.5547 40.0648 1.5550 -1.4664
# 5 3.0682 6.8037 16.8817 1.5550 39.4635 4.9299
# 6 -8.0380 -6.5556 -6.3566 -1.4664 4.9299 44.9564
#
#
#
# Elastic Compliance Matrix: (Units=1/GPa)
#
#
# Indices 1 2 3 4 5 6 
#
# 1 0.012942 -0.005483 -0.002527 0.004497 0.000690 0.001228
# 2 -0.005483 0.013917 -0.002166 -0.005413 -0.000916 0.000667
# 3 -0.002527 -0.002166 0.010847 -0.005003 -0.004003 0.001042
# 4 0.004497 -0.005413 -0.005003 0.030417 0.001508 0.000134
# 5 0.000690 -0.000916 -0.004003 0.001508 0.027540 -0.003547
# 6 0.001228 0.000667 0.001042 0.000134 -0.003547 0.023101
#
#
# Mechanical properties :
#
#
# Convention : Reuss Voigt Hill
#
# Bulk Modulus (GPa) = 57.62652 65.28150 61.45401
# Shear Modulus (GPa) = 34.50600 38.96434 36.73517
#
# Velocity S-wave (km/s) = 3.97220 4.22102 4.09850
# Velocity P-wave (km/s) = 6.88392 7.32168 7.10617
#
# Compressibility (1/GPa) = 0.01735312
#
# Stress axis : x y z
#
# Youngs Moduli (GPa) = 77.26890 71.85405 92.18919
#
# Poissons Ratio (x) = 0.39400 0.23298
# Poissons Ratio (y) = 0.42369 0.19968
# Poissons Ratio (z) = 0.19528 0.15564
#
# Static dielectric constant tensor:
#      x y z
#    x 4.065810 0.012690 0.202100 
#    y 0.012690 4.133180 -0.158430 
#    z 0.202100 -0.158430 4.167530 
# 
# 
# High freq. dielectric constant tensor:
#      x y z
#    x 1.868790 0.001230 0.007900 
#    y 0.001230 1.863790 0.011240 
#    z 0.007900 0.011240 1.873880 
# 
# From -- ./inp_files/328586.got.cif
#   From: 2010.06.25/outbox.cif.g09.slc.cpg/sg2_165_cif.got.tgz:328586.got - 2010.06.27 13:26:56.
