data_PCOD8021879
_publ_section_title
;
Structure prediction by ZEFSAII (Michael W. Deem and Ramdas Pophale) SiO2 
 PCOD8021879
Probable space group: P -1
;
_chemical_formula_sum "Si O2"
_cell_formula_units_Z 16
_cell_length_a 14.557074
_cell_length_b 9.235750
_cell_length_c 22.781417
_cell_angle_alpha 46.673300
_cell_angle_beta 149.806553
_cell_angle_gamma 150.881438
_cell_volume 719.223835
_symmetry_space_group_name_H-M "P -1"
_symmetry_group_IT_number 2
_symmetry_cell_setting 'triclinic'
loop_
_space_group_symop_operation_xyz
x,y,z
-x,-y,-z
loop_
_atom_site_type_symbol
_atom_site_label
_atom_site_fract_x
_atom_site_fract_y
_atom_site_fract_z
Si Si1 0.298006 0.345280 0.487888
Si Si2 0.846115 0.667405 0.264441
Si Si3 0.796281 0.358332 0.063434
Si Si4 0.216694 0.356266 0.631971
Si Si5 0.811039 0.639782 0.753315
Si Si6 0.822918 0.661600 0.883456
Si Si7 0.789145 0.751184 0.002996
Si Si8 0.780585 0.360983 0.556042
O O1 0.500000 0.500000 0.500000
O O2 0.474245 0.375864 0.627381
O O3 0.226855 0.507010 0.426918
O O4 0.997564 0.997956 0.405173
O O5 0.862484 0.618122 0.355649
O O6 0.529917 0.446419 0.129605
O O7 0.955512 0.571782 0.313337
O O8 0.046555 0.026019 0.267365
O O9 0.042870 0.400129 0.197797
O O10 0.841542 0.506541 0.985379
O O11 0.803302 0.521969 0.075495
O O12 0.500000 0.000000 0.000000
O O13 0.529458 0.531758 0.763738
O O14 0.200495 0.505472 0.531390
O O15 0.847381 0.585560 0.854067
O O16 0.084704 0.041273 0.926583
O O17 0.000000 0.000000 0.000000
O O18 0.500000 0.000000 0.500000
#
# Coordination Sequence:
#
# PCOD8021879 Si02
#       8
#     2   2   2   2   2   2   2   2
#     4  12  26  47  72 101 140 185 234 288 352 416
#     4  12  23  46  71 101 143 181 230 291 344 415
#     4  11  22  44  71  99 134 184 230 280 349 407
#     4  12  23  46  72  98 143 181 227 294 342 414
#     4  12  24  46  68 100 144 178 233 290 342 416
#     4  11  24  45  69  99 143 179 230 290 341 412
#     4  10  22  44  69  98 136 177 235 279 346 409
#     4  12  25  46  70 106 140 183 233 285 357 416
#
# _framework density 22.246205
#
# number of rings (size 3 to 8) (size 9 to 14) (size 15 to 20)
#    0.000    0.500    7.500    1.125    0.000    2.500 
#    9.000    0.000    0.000    0.000    0.000    0.000 
#    0.000    0.000    0.000    0.000    0.000    0.000 
#
# Total GULP energy -198374.172642 kJ/mol
# GULP energy per Si atom -12398.385790 kJ/mol
# Density = 2.219557 g / cm^3
# Si number density = 22.246205 Si / 1000 Ang^3
#
#
#
# Elastic Constant Matrix: (Units=GPa)
#
#
# Indices 1 2 3 4 5 6 
#
# 1 123.1095 42.9612 39.1244 -4.3100 12.6886 -26.6129
# 2 42.9612 116.7488 34.8488 8.0136 7.2869 -20.4818
# 3 39.1244 34.8488 102.4055 12.1921 21.4175 -28.1298
# 4 -4.3100 8.0136 12.1921 43.2764 -7.2126 -1.3857
# 5 12.6886 7.2869 21.4175 -7.2126 47.3288 -10.1477
# 6 -26.6129 -20.4818 -28.1298 -1.3857 -10.1477 40.2621
#
#
#
# Elastic Compliance Matrix: (Units=1/GPa)
#
#
# Indices 1 2 3 4 5 6 
#
# 1 0.010802 -0.002702 -0.002292 0.002325 -0.000189 0.004197
# 2 -0.002702 0.010603 -0.001765 -0.001636 0.000146 0.002355
# 3 -0.002292 -0.001765 0.014600 -0.004656 -0.005069 0.006350
# 4 0.002325 -0.001636 -0.004656 0.025884 0.005629 -0.000239
# 5 -0.000189 0.000146 -0.005069 0.005629 0.024927 0.002885
# 6 0.004197 0.002355 0.006350 -0.000239 0.002885 0.033965
#
#
# Mechanical properties :
#
#
# Convention : Reuss Voigt Hill
#
# Bulk Modulus (GPa) = 44.46992 64.01473 54.24233
# Shear Modulus (GPa) = 35.26226 41.19544 38.22885
#
# Velocity S-wave (km/s) = 3.98564 4.30792 4.14991
# Velocity P-wave (km/s) = 6.41979 7.31999 6.88462
#
# Compressibility (1/GPa) = 0.02248711
#
# Stress axis : x y z
#
# Youngs Moduli (GPa) = 92.57245 94.31377 68.49301
#
# Poissons Ratio (x) = 0.25488 0.15699
# Poissons Ratio (y) = 0.25018 0.12086
# Poissons Ratio (z) = 0.21218 0.16643
#
# Static dielectric constant tensor:
#      x y z
#    x 3.927090 -1.230380 -2.150710 
#    y -1.230380 3.326760 -2.306380 
#    z -2.150710 -2.306380 -1.319530 
# 
# 
# High freq. dielectric constant tensor:
#      x y z
#    x 1.887130 -0.002750 0.009740 
#    y -0.002750 1.878300 0.008390 
#    z 0.009740 0.008390 1.879400 
# 
# From -- ./inp_files/240952.got.cif
#   From: 2010.06.25/outbox.cif.g09.slc.cpg/sg2_121_cif.got.tgz:240952.got - 2010.06.27 13:26:56.
