data_PCOD8021016
_publ_section_title
;
Structure prediction by ZEFSAII (Michael W. Deem and Ramdas Pophale) SiO2 
 PCOD8021016
Probable space group: P -1
;
_chemical_formula_sum "Si O2"
_cell_formula_units_Z 16
_cell_length_a 9.221442
_cell_length_b 11.961773
_cell_length_c 13.400091
_cell_angle_alpha 86.788665
_cell_angle_beta 58.510475
_cell_angle_gamma 129.991508
_cell_volume 772.831764
_symmetry_space_group_name_H-M "P -1"
_symmetry_group_IT_number 2
_symmetry_cell_setting 'triclinic'
loop_
_space_group_symop_operation_xyz
x,y,z
-x,-y,-z
loop_
_atom_site_type_symbol
_atom_site_label
_atom_site_fract_x
_atom_site_fract_y
_atom_site_fract_z
Si Si1 0.474170 0.822089 0.071833
Si Si2 0.875435 0.219077 0.939639
Si Si3 0.177270 0.325147 0.631508
Si Si4 0.003486 0.527889 0.383172
Si Si5 0.898187 0.639374 0.929300
Si Si6 0.898911 0.950753 0.428150
Si Si7 0.705597 0.754365 0.884477
Si Si8 0.366278 0.815991 0.598197
O O1 0.254274 0.738500 0.067414
O O2 0.309783 0.664724 0.221805
O O3 0.721210 0.877500 0.934279
O O4 0.614738 0.002010 0.064885
O O5 0.089699 0.274922 0.781682
O O6 0.029686 0.329398 0.981009
O O7 0.500000 0.500000 0.500000
O O8 0.055679 0.371831 0.619584
O O9 0.079976 0.162335 0.619344
O O10 0.792395 0.328369 0.425575
O O11 0.000000 0.500000 0.500000
O O12 0.832825 0.730633 0.914752
O O13 0.159170 0.727883 0.769545
O O14 0.615511 0.425598 0.021828
O O15 0.595000 0.845264 0.547212
O O16 0.000000 0.000000 0.500000
O O17 0.100432 0.139571 0.286891
O O18 0.500000 0.000000 0.500000
#
# Coordination Sequence:
#
# PCOD8021016 Si02
#       8
#     2   2   2   2   2   2   2   2
#     4  10  22  43  66  97 133 166 234 277 328 409
#     4  10  24  42  70  97 130 180 218 281 340 402
#     4  11  24  46  65  99 136 172 235 278 334 413
#     4  11  26  43  71  98 135 187 223 283 344 405
#     4  11  26  43  71  96 141 182 223 282 342 402
#     4  12  28  44  72 101 141 184 224 290 343 403
#     4  11  24  46  62 103 137 174 233 281 329 410
#     4  12  26  47  65 104 143 177 232 279 340 417
#
# _framework density 20.703082999999999
#
# number of rings (size 3 to 8) (size 9 to 14) (size 15 to 20)
#    0.000    1.000    5.000    0.000    7.000    2.000 
#    0.000    0.000    0.000    0.000    0.000    0.000 
#    0.000    0.000    0.000    0.000    0.000    0.000 
#
# Total GULP energy -198371.585108 kJ/mol
# GULP energy per Si atom -12398.224069 kJ/mol
# Density = 2.065596 g / cm^3
# Si number density = 20.703083 Si / 1000 Ang^3
#
#
#
# Elastic Constant Matrix: (Units=GPa)
#
#
# Indices 1 2 3 4 5 6 
#
# 1 71.9960 40.3187 58.8798 15.9630 3.3968 -1.1970
# 2 40.3187 93.9059 55.1249 10.0791 9.0776 -3.9358
# 3 58.8798 55.1249 149.7647 5.0770 0.2033 15.7729
# 4 15.9630 10.0791 5.0770 41.9696 0.1694 1.2499
# 5 3.3968 9.0776 0.2033 0.1694 41.8965 6.0215
# 6 -1.1970 -3.9358 15.7729 1.2499 6.0215 30.8969
#
#
#
# Elastic Compliance Matrix: (Units=1/GPa)
#
#
# Indices 1 2 3 4 5 6 
#
# 1 0.025372 -0.004641 -0.008576 -0.007653 -0.001758 0.005422
# 2 -0.004641 0.016073 -0.004556 -0.001677 -0.003796 0.005001
# 3 -0.008576 -0.004556 0.012453 0.003075 0.002749 -0.007930
# 4 -0.007653 -0.001677 0.003075 0.026865 0.001353 -0.003430
# 5 -0.001758 -0.003796 0.002749 0.001353 0.025827 -0.007043
# 6 0.005422 0.005001 -0.007930 -0.003430 -0.007043 0.038773
#
#
# Mechanical properties :
#
#
# Convention : Reuss Voigt Hill
#
# Bulk Modulus (GPa) = 54.49034 69.36817 61.92925
# Shear Modulus (GPa) = 26.73432 33.70879 30.22156
#
# Velocity S-wave (km/s) = 3.59739 4.03948 3.82483
# Velocity P-wave (km/s) = 6.60546 7.43878 7.03447
#
# Compressibility (1/GPa) = 0.01835188
#
# Stress axis : x y z
#
# Youngs Moduli (GPa) = 39.41351 62.21769 80.30124
#
# Poissons Ratio (x) = 0.28872 0.68867
# Poissons Ratio (y) = 0.18290 0.36587
# Poissons Ratio (z) = 0.33802 0.28348
#
# Static dielectric constant tensor:
#      x y z
#    x 3.494700 0.044110 -0.043170 
#    y 0.044110 3.510700 -0.191790 
#    z -0.043170 -0.191790 3.871240 
# 
# 
# High freq. dielectric constant tensor:
#      x y z
#    x 1.807130 -0.011020 -0.008760 
#    y -0.011020 1.817250 -0.007950 
#    z -0.008760 -0.007950 1.829160 
# 
# From -- ./inp_files/184205.got.cif
#   From: 2010.06.25/outbox.cif.g09.slc.cpg/sg2_93_cif.got.tgz:184205.got - 2010.06.27 13:26:56.
