data_PCOD8021116
_publ_section_title
;
Structure prediction by ZEFSAII (Michael W. Deem and Ramdas Pophale) SiO2 
 PCOD8021116
Probable space group: P -1
;
_chemical_formula_sum "Si O2"
_cell_formula_units_Z 16
_cell_length_a 12.210259
_cell_length_b 12.479347
_cell_length_c 8.874489
_cell_angle_alpha 46.481048
_cell_angle_beta 46.826964
_cell_angle_gamma 65.494254
_cell_volume 711.060725
_symmetry_space_group_name_H-M "P -1"
_symmetry_group_IT_number 2
_symmetry_cell_setting 'triclinic'
loop_
_space_group_symop_operation_xyz
x,y,z
-x,-y,-z
loop_
_atom_site_type_symbol
_atom_site_label
_atom_site_fract_x
_atom_site_fract_y
_atom_site_fract_z
Si Si1 0.879461 0.574963 0.403256
Si Si2 0.876787 0.821036 0.389335
Si Si3 0.856768 0.565071 0.873104
Si Si4 0.814332 0.713739 0.059071
Si Si5 0.543035 0.850623 0.678073
Si Si6 0.376146 0.072671 0.143339
Si Si7 0.890267 0.110199 0.254262
Si Si8 0.275800 0.651327 0.994470
O O1 0.951066 0.724108 0.284905
O O2 0.824604 0.440143 0.693080
O O3 0.011024 0.529700 0.214874
O O4 0.755419 0.629242 0.351255
O O5 0.874138 0.733355 0.634685
O O6 0.707355 0.828779 0.483360
O O7 0.952960 0.985876 0.202839
O O8 0.849367 0.579932 0.044224
O O9 0.705683 0.469806 0.038705
O O10 0.685207 0.804107 0.026194
O O11 0.970163 0.815583 0.852363
O O12 0.538503 0.855105 0.859895
O O13 0.500000 0.000000 0.500000
O O14 0.434377 0.708642 0.862448
O O15 0.234991 0.958985 0.441078
O O16 0.500000 0.000000 0.000000
O O17 0.805989 0.213768 0.123375
#
# Coordination Sequence:
#
# PCOD8021116 Si02
#       8
#     2   2   2   2   2   2   2   2
#     4  11  26  42  67 105 138 182 229 288 338 413
#     4  10  22  43  68 100 136 173 239 288 337 408
#     4  11  23  46  64  97 148 176 226 278 350 414
#     4  12  25  46  72 101 147 186 222 287 354 419
#     4  11  22  45  71  95 135 183 228 289 343 403
#     4  11  26  47  68 107 140 175 232 291 346 414
#     4  11  23  44  77 102 135 186 230 289 358 390
#     4  11  23  43  72 101 133 185 236 280 342 407
#
# _framework density 22.501594999999998
#
# number of rings (size 3 to 8) (size 9 to 14) (size 15 to 20)
#    0.000    1.000    6.250    2.250    1.750    3.500 
#    2.250    0.625    0.000    0.000    0.000    0.000 
#    0.000    0.000    0.000    0.000    0.000    0.000 
#
# Total GULP energy -198222.981554 kJ/mol
# GULP energy per Si atom -12388.936347 kJ/mol
# Density = 2.245038 g / cm^3
# Si number density = 22.501595 Si / 1000 Ang^3
#
#
#
# Elastic Constant Matrix: (Units=GPa)
#
#
# Indices 1 2 3 4 5 6 
#
# 1 145.2336 56.5497 32.8660 -8.8403 14.7269 20.6677
# 2 56.5497 138.3409 42.7885 -5.3822 2.5051 18.8387
# 3 32.8660 42.7885 35.7703 -8.6985 16.6560 6.2288
# 4 -8.8403 -5.3822 -8.6985 38.8522 -2.2241 -1.9462
# 5 14.7269 2.5051 16.6560 -2.2241 55.6901 -12.7689
# 6 20.6677 18.8387 6.2288 -1.9462 -12.7689 50.2926
#
#
#
# Elastic Compliance Matrix: (Units=1/GPa)
#
#
# Indices 1 2 3 4 5 6 
#
# 1 0.009334 -0.001798 -0.005099 0.000502 -0.001506 -0.002894
# 2 -0.001798 0.012970 -0.016234 -0.002047 0.004421 -0.001066
# 3 -0.005099 -0.016234 0.063032 0.009535 -0.017226 -0.003635
# 4 0.000502 -0.002047 0.009535 0.027601 -0.001792 -0.000007
# 5 -0.001506 0.004421 -0.017226 -0.001792 0.024923 0.007355
# 6 -0.002894 -0.001066 -0.003635 -0.000007 0.007355 0.023789
#
#
# Mechanical properties :
#
#
# Convention : Reuss Voigt Hill
#
# Bulk Modulus (GPa) = 25.59088 64.86147 45.22617
# Shear Modulus (GPa) = 22.63106 41.44302 32.03704
#
# Velocity S-wave (km/s) = 3.17480 4.29625 3.77738
# Velocity P-wave (km/s) = 4.98365 7.31425 6.25839
#
# Compressibility (1/GPa) = 0.03907642
#
# Stress axis : x y z
#
# Youngs Moduli (GPa) = 107.13078 77.10215 15.86487
#
# Poissons Ratio (x) = 0.13861 0.08089
# Poissons Ratio (y) = 0.19259 0.25754
# Poissons Ratio (z) = 0.54623 1.25165
#
# Static dielectric constant tensor:
#      x y z
#    x 4.537400 0.025820 0.133340 
#    y 0.025820 4.590770 -0.250240 
#    z 0.133340 -0.250240 4.126860 
# 
# 
# High freq. dielectric constant tensor:
#      x y z
#    x 1.899910 0.002440 0.025460 
#    y 0.002440 1.902330 -0.015760 
#    z 0.025460 -0.015760 1.872560 
# 
# From -- ./inp_files/184237.got.cif
#   From: 2010.06.25/outbox.cif.g09.slc.cpg/sg2_93_cif.got.tgz:184237.got - 2010.06.27 13:26:56.
