data_PCOD8021169
_publ_section_title
;
Structure prediction by ZEFSAII (Michael W. Deem and Ramdas Pophale) SiO2 
 PCOD8021169
Probable space group: P -1
;
_chemical_formula_sum "Si O2"
_cell_formula_units_Z 16
_cell_length_a 11.403574
_cell_length_b 9.430927
_cell_length_c 16.299694
_cell_angle_alpha 130.546136
_cell_angle_beta 146.325025
_cell_angle_gamma 66.370399
_cell_volume 696.537299
_symmetry_space_group_name_H-M "P -1"
_symmetry_group_IT_number 2
_symmetry_cell_setting 'triclinic'
loop_
_space_group_symop_operation_xyz
x,y,z
-x,-y,-z
loop_
_atom_site_type_symbol
_atom_site_label
_atom_site_fract_x
_atom_site_fract_y
_atom_site_fract_z
Si Si1 0.448018 0.888593 0.513955
Si Si2 0.341093 0.197230 0.675383
Si Si3 0.680699 0.713256 0.698707
Si Si4 0.939025 0.453822 0.786573
Si Si5 0.615998 0.573569 0.913804
Si Si6 0.405311 0.740816 0.988370
Si Si7 0.005993 0.645640 0.397379
Si Si8 0.507773 0.815497 0.801755
O O1 0.673417 0.856625 0.671240
O O2 0.262939 0.670536 0.317306
O O3 0.500000 0.000000 0.500000
O O4 0.330695 0.996208 0.549911
O O5 0.408965 0.368272 0.709693
O O6 0.106709 0.191794 0.578108
O O7 0.536397 0.254597 0.879942
O O8 0.500000 0.500000 0.500000
O O9 0.914792 0.669046 0.829900
O O10 0.619878 0.817387 0.780478
O O11 0.935432 0.328782 0.654827
O O12 0.162633 0.487857 0.980701
O O13 0.592773 0.679487 0.025276
O O14 0.623006 0.710792 0.892734
O O15 0.158906 0.579969 0.766857
O O16 0.423079 0.955777 0.045664
O O17 0.240243 0.699576 0.603103
#
# Coordination Sequence:
#
# PCOD8021169 Si02
#       8
#     2   2   2   2   2   2   2   2
#     4  11  25  44  69 106 140 179 241 292 334 426
#     4  11  22  42  73 101 138 181 233 287 352 413
#     4  10  22  43  68  95 136 191 232 281 344 416
#     4  11  22  45  71  93 140 190 224 288 351 403
#     4  11  25  43  67 104 143 175 231 303 338 414
#     4  11  22  45  69 107 140 177 236 291 346 424
#     4  11  22  43  77 100 136 189 228 284 359 415
#     4  12  25  44  70 101 145 186 230 291 355 407
#
# _framework density 22.970772
#
# number of rings (size 3 to 8) (size 9 to 14) (size 15 to 20)
#    0.000    1.000    6.250    1.125    5.250    3.500 
#    4.500    1.250    0.000    0.000    0.000    0.000 
#    0.000    0.000    0.000    0.000    0.000    0.000 
#
# Total GULP energy -198310.313871 kJ/mol
# GULP energy per Si atom -12394.394617 kJ/mol
# Density = 2.291849 g / cm^3
# Si number density = 22.970772 Si / 1000 Ang^3
#
#
#
# Elastic Constant Matrix: (Units=GPa)
#
#
# Indices 1 2 3 4 5 6 
#
# 1 83.8971 54.4692 29.0633 -15.1997 9.7572 6.1775
# 2 54.4692 171.1141 45.7537 -27.1916 13.3768 6.3402
# 3 29.0633 45.7537 80.4833 -12.4839 10.6007 -3.0118
# 4 -15.1997 -27.1916 -12.4839 36.6602 -5.0686 0.3370
# 5 9.7572 13.3768 10.6007 -5.0686 21.5724 -0.4538
# 6 6.1775 6.3402 -3.0118 0.3370 -0.4538 48.8375
#
#
#
# Elastic Compliance Matrix: (Units=1/GPa)
#
#
# Indices 1 2 3 4 5 6 
#
# 1 0.016316 -0.003651 -0.003082 0.002605 -0.003028 -0.001826
# 2 -0.003651 0.008468 -0.002779 0.003635 -0.001397 -0.000847
# 3 -0.003082 -0.002779 0.015985 0.001487 -0.004353 0.001686
# 4 0.002605 0.003635 0.001487 0.032031 0.003344 -0.000900
# 5 -0.003028 -0.001397 -0.004353 0.003344 0.051532 0.000752
# 6 -0.001826 -0.000847 0.001686 -0.000900 0.000752 0.020934
#
#
# Mechanical properties :
#
#
# Convention : Reuss Voigt Hill
#
# Bulk Modulus (GPa) = 45.98888 66.00743 55.99816
# Shear Modulus (GPa) = 29.14815 35.16124 32.15469
#
# Velocity S-wave (km/s) = 3.56606 3.91665 3.74546
# Velocity P-wave (km/s) = 6.08439 7.01793 6.56777
#
# Compressibility (1/GPa) = 0.02174438
#
# Stress axis : x y z
#
# Youngs Moduli (GPa) = 61.28927 118.09582 62.56005
#
# Poissons Ratio (x) = 0.43122 0.19278
# Poissons Ratio (y) = 0.22379 0.17386
# Poissons Ratio (z) = 0.18887 0.32819
#
# Static dielectric constant tensor:
#      x y z
#    x 5.355130 -2.140210 0.321120 
#    y -2.140210 7.305620 -0.431550 
#    z 0.321120 -0.431550 3.928340 
# 
# 
# High freq. dielectric constant tensor:
#      x y z
#    x 1.900830 -0.009060 0.003650 
#    y -0.009060 1.924420 0.001290 
#    z 0.003650 0.001290 1.880730 
# 
# From -- ./inp_files/282770.got.cif
#   From: 2010.06.25/outbox.cif.g09.slc.cpg/sg2_142_cif.got.tgz:282770.got - 2010.06.27 13:26:56.
