data_PCOD8021965
_publ_section_title
;
Structure prediction by ZEFSAII (Michael W. Deem and Ramdas Pophale) SiO2 
 PCOD8021965
Probable space group: P -1
;
_chemical_formula_sum "Si O2"
_cell_formula_units_Z 14
_cell_length_a 10.985771
_cell_length_b 9.141106
_cell_length_c 9.322578
_cell_angle_alpha 134.504272
_cell_angle_beta 98.654617
_cell_angle_gamma 62.466772
_cell_volume 569.340256
_symmetry_space_group_name_H-M "P -1"
_symmetry_group_IT_number 2
_symmetry_cell_setting 'triclinic'
loop_
_space_group_symop_operation_xyz
x,y,z
-x,-y,-z
loop_
_atom_site_type_symbol
_atom_site_label
_atom_site_fract_x
_atom_site_fract_y
_atom_site_fract_z
Si Si1 0.360306 0.959250 0.583134
Si Si2 0.870062 0.376499 0.431012
Si Si3 0.189962 0.520744 0.949445
Si Si4 0.930577 0.736486 0.847379
Si Si5 0.393913 0.898029 0.877428
Si Si6 0.374117 0.487002 0.724787
Si Si7 0.155978 0.793478 0.403244
O O1 0.395868 0.865697 0.687381
O O2 0.509649 0.789980 0.411481
O O3 0.257345 0.888270 0.436005
O O4 0.284082 0.239519 0.750201
O O5 0.931508 0.510825 0.625560
O O6 0.728528 0.539177 0.426682
O O7 0.821475 0.253516 0.455309
O O8 0.992658 0.189252 0.213120
O O9 0.280902 0.612030 0.937676
O O10 0.027513 0.644223 0.945428
O O11 0.184768 0.573028 0.154028
O O12 0.770232 0.938241 0.989061
O O13 0.444409 0.643533 0.789551
O O14 0.500000 0.000000 0.000000
O O15 0.000000 0.000000 0.500000
#
# Coordination Sequence:
#
# PCOD8021965 Si02
#       7
#     2   2   2   2   2   2   2
#     4  12  26  47  71 106 149 194 244 300 362 432
#     4  10  22  44  71 104 140 188 240 298 356 432
#     4  11  27  48  74 110 149 192 241 302 365 431
#     4  10  23  44  74 104 142 186 245 296 364 425
#     4  12  26  44  77 107 143 191 246 303 363 433
#     4  11  26  48  73 106 146 195 247 295 365 434
#     4  12  26  43  74 106 148 189 243 296 369 428
#
# _framework density 24.589863999999999
#
# number of rings (size 3 to 8) (size 9 to 14) (size 15 to 20)
#    0.000    0.857    1.429    4.286    6.000    3.429 
#    2.571    0.000    0.000    0.000    0.000    0.000 
#    0.000    0.000    0.000    0.000    0.000    0.000 
#
# Total GULP energy -173459.688070 kJ/mol
# GULP energy per Si atom -12389.977719 kJ/mol
# Density = 2.453390 g / cm^3
# Si number density = 24.589864 Si / 1000 Ang^3
#
#
#
# Elastic Constant Matrix: (Units=GPa)
#
#
# Indices 1 2 3 4 5 6 
#
# 1 131.5647 27.7900 48.0727 -2.0568 -7.5665 -23.1903
# 2 27.7900 79.6416 25.8507 6.0329 -9.7831 -10.0800
# 3 48.0727 25.8507 95.1669 13.7210 -6.5469 -16.9268
# 4 -2.0568 6.0329 13.7210 32.9773 -5.1365 -3.7110
# 5 -7.5665 -9.7831 -6.5469 -5.1365 41.0727 7.5587
# 6 -23.1903 -10.0800 -16.9268 -3.7110 7.5587 35.5845
#
#
#
# Elastic Compliance Matrix: (Units=1/GPa)
#
#
# Indices 1 2 3 4 5 6 
#
# 1 0.010486 -0.001857 -0.004465 0.003413 0.000384 0.004458
# 2 -0.001857 0.014531 -0.002470 -0.001254 0.002366 0.001098
# 3 -0.004465 -0.002470 0.014745 -0.005685 -0.000301 0.002875
# 4 0.003413 -0.001254 -0.005685 0.033869 0.003292 0.001998
# 5 0.000384 0.002366 -0.000301 0.003292 0.026162 -0.004436
# 6 0.004458 0.001098 0.002875 0.001998 -0.004436 0.033837
#
#
# Mechanical properties :
#
#
# Convention : Reuss Voigt Hill
#
# Bulk Modulus (GPa) = 45.09236 56.64446 50.86841
# Shear Modulus (GPa) = 31.52489 35.57089 33.54789
#
# Velocity S-wave (km/s) = 3.58443 3.80750 3.69765
# Velocity P-wave (km/s) = 5.95889 6.51269 6.24194
#
# Compressibility (1/GPa) = 0.02217670
#
# Stress axis : x y z
#
# Youngs Moduli (GPa) = 95.36730 68.82058 67.82084
#
# Poissons Ratio (x) = 0.12778 0.30283
# Poissons Ratio (y) = 0.17706 0.16754
# Poissons Ratio (z) = 0.42583 0.17001
#
# Static dielectric constant tensor:
#      x y z
#    x 4.858950 0.105980 -0.211530 
#    y 0.105980 3.774010 0.364270 
#    z -0.211530 0.364270 3.889650 
# 
# 
# High freq. dielectric constant tensor:
#      x y z
#    x 2.000610 -0.003580 -0.011040 
#    y -0.003580 1.969490 -0.007180 
#    z -0.011040 -0.007180 1.982330 
# 
# From -- ./inp_files/246027.got.cif
#   From: 2010.06.25/outbox.cif.g09.slc.cpg/sg2_124_cif.got.tgz:246027.got - 2010.06.27 13:26:56.
