data_PCOD8021710
_publ_section_title
;
Structure prediction by ZEFSAII (Michael W. Deem and Ramdas Pophale) SiO2 
 PCOD8021710
Probable space group: P -1
;
_chemical_formula_sum "Si O2"
_cell_formula_units_Z 14
_cell_length_a 12.644841
_cell_length_b 6.634058
_cell_length_c 11.355780
_cell_angle_alpha 95.844053
_cell_angle_beta 90.964957
_cell_angle_gamma 133.244712
_cell_volume 685.351371
_symmetry_space_group_name_H-M "P -1"
_symmetry_group_IT_number 2
_symmetry_cell_setting 'triclinic'
loop_
_space_group_symop_operation_xyz
x,y,z
-x,-y,-z
loop_
_atom_site_type_symbol
_atom_site_label
_atom_site_fract_x
_atom_site_fract_y
_atom_site_fract_z
Si Si1 0.677778 0.701333 0.821421
Si Si2 0.622274 0.531880 0.249302
Si Si3 0.163057 0.425611 0.604023
Si Si4 0.832808 0.251841 0.005920
Si Si5 0.373096 0.673572 0.006268
Si Si6 0.915771 0.819799 0.664827
Si Si7 0.845201 0.162923 0.266193
O O1 0.549847 0.650067 0.745011
O O2 0.596948 0.428105 0.886130
O O3 0.787503 0.739516 0.736901
O O4 0.767684 0.976962 0.918291
O O5 0.678403 0.431247 0.332932
O O6 0.717012 0.855463 0.298413
O O7 0.652915 0.507344 0.114635
O O8 0.159585 0.368186 0.463795
O O9 0.141338 0.635577 0.630429
O O10 0.031264 0.147167 0.656243
O O11 0.768063 0.379952 0.970431
O O12 0.800232 0.181308 0.138445
O O13 0.000000 0.500000 0.000000
O O14 0.500000 0.000000 0.000000
O O15 0.000690 0.753202 0.731061
#
# Coordination Sequence:
#
# PCOD8021710 Si02
#       7
#     2   2   2   2   2   2   2
#     4  12  25  40  60  99 132 155 208 258 311 370
#     4  11  23  39  64  90 122 168 207 254 305 374
#     4  10  22  44  67  88 120 168 215 245 313 367
#     4  12  24  36  63  96 127 162 200 258 315 370
#     4  12  23  41  62  90 129 171 203 247 315 375
#     4  10  24  42  64  92 125 162 205 266 301 366
#     4  11  21  40  64  89 120 165 209 250 310 370
#
# _framework density 20.427478000000001
#
# number of rings (size 3 to 8) (size 9 to 14) (size 15 to 20)
#    0.000    0.857    4.286    3.429    2.000    1.714 
#    0.000    0.714    0.000    0.000    0.000    0.000 
#    0.000    0.000    0.000    0.000    0.000    0.000 
#
# Total GULP energy -173649.992408 kJ/mol
# GULP energy per Si atom -12403.570886 kJ/mol
# Density = 2.038098 g / cm^3
# Si number density = 20.427478 Si / 1000 Ang^3
#
#
#
# Elastic Constant Matrix: (Units=GPa)
#
#
# Indices 1 2 3 4 5 6 
#
# 1 145.4119 52.4203 43.9337 18.1593 -13.5240 11.2001
# 2 52.4203 84.2983 28.5494 17.1213 -6.5560 -1.7520
# 3 43.9337 28.5494 98.2732 16.0682 -11.3776 0.4101
# 4 18.1593 17.1213 16.0682 22.4947 -3.9228 -1.1499
# 5 -13.5240 -6.5560 -11.3776 -3.9228 28.6104 9.4837
# 6 11.2001 -1.7520 0.4101 -1.1499 9.4837 34.7774
#
#
#
# Elastic Compliance Matrix: (Units=1/GPa)
#
#
# Indices 1 2 3 4 5 6 
#
# 1 0.010434 -0.004975 -0.002312 -0.002512 0.004116 -0.004789
# 2 -0.004975 0.017067 -0.001565 -0.007898 -0.000969 0.002483
# 3 -0.002312 -0.001565 0.012953 -0.005682 0.003092 -0.000518
# 4 -0.002512 -0.007898 -0.005682 0.056987 0.001950 0.001831
# 5 0.004116 -0.000969 0.003092 0.001950 0.042457 -0.012924
# 6 -0.004789 0.002483 -0.000518 0.001831 -0.012924 0.034013
#
#
# Mechanical properties :
#
#
# Convention : Reuss Voigt Hill
#
# Bulk Modulus (GPa) = 43.95631 64.19890 54.07760
# Shear Modulus (GPa) = 25.10062 30.71517 27.90790
#
# Velocity S-wave (km/s) = 3.50918 3.88186 3.70022
# Velocity P-wave (km/s) = 6.16312 7.18246 6.69223
#
# Compressibility (1/GPa) = 0.02274986
#
# Stress axis : x y z
#
# Youngs Moduli (GPa) = 95.83698 58.59429 77.20007
#
# Poissons Ratio (x) = 0.29148 0.17851
# Poissons Ratio (y) = 0.47675 0.12084
# Poissons Ratio (z) = 0.22160 0.09172
#
# Static dielectric constant tensor:
#      x y z
#    x 3.157690 0.325090 -0.085420 
#    y 0.325090 3.359630 0.306700 
#    z -0.085420 0.306700 3.576970 
# 
# 
# High freq. dielectric constant tensor:
#      x y z
#    x 1.818690 -0.010200 0.006700 
#    y -0.010200 1.794280 0.018290 
#    z 0.006700 0.018290 1.790770 
# 
# From -- ./inp_files/26709.got.cif
#   From: 2010.06.25/outbox.cif.g09.slc.cpg/sg2_14_cif.got.tgz:26709.got - 2010.06.27 13:26:56.
