data_PCOD8021049
_publ_section_title
;
Structure prediction by ZEFSAII (Michael W. Deem and Ramdas Pophale) SiO2 
 PCOD8021049
Probable space group: P -1
;
_chemical_formula_sum "Si O2"
_cell_formula_units_Z 16
_cell_length_a 7.826272
_cell_length_b 23.770190
_cell_length_c 6.584244
_cell_angle_alpha 82.152417
_cell_angle_beta 121.566084
_cell_angle_gamma 133.435404
_cell_volume 706.726807
_symmetry_space_group_name_H-M "P -1"
_symmetry_group_IT_number 2
_symmetry_cell_setting 'triclinic'
loop_
_space_group_symop_operation_xyz
x,y,z
-x,-y,-z
loop_
_atom_site_type_symbol
_atom_site_label
_atom_site_fract_x
_atom_site_fract_y
_atom_site_fract_z
Si Si1 0.692268 0.660488 0.216752
Si Si2 0.211206 0.052775 0.297112
Si Si3 0.208175 0.631302 0.709432
Si Si4 0.224691 0.498099 0.194093
Si Si5 0.599768 0.229770 0.978519
Si Si6 0.992739 0.086271 0.486921
Si Si7 0.029372 0.637382 0.193753
Si Si8 0.798046 0.168984 0.362404
O O1 0.548635 0.593176 0.344490
O O2 0.892362 0.662064 0.207298
O O3 0.884910 0.750781 0.384791
O O4 0.438771 0.632457 0.928265
O O5 0.107336 0.087388 0.339274
O O6 0.542973 0.128177 0.388227
O O7 0.214313 0.001874 0.485439
O O8 0.000000 0.000000 0.000000
O O9 0.320182 0.717040 0.799363
O O10 0.878879 0.550346 0.632525
O O11 0.181662 0.625183 0.453058
O O12 0.215289 0.446892 0.043205
O O13 0.000000 0.500000 0.000000
O O14 0.741087 0.196552 0.115629
O O15 0.254280 0.151499 0.775684
O O16 0.715388 0.286824 0.827443
O O17 0.806112 0.105260 0.326455
#
# Coordination Sequence:
#
# PCOD8021049 Si02
#       8
#     2   2   2   2   2   2   2   2
#     4  11  22  41  66 100 127 178 229 278 341 397
#     4  11  25  49  73 102 140 175 222 278 341 415
#     4  10  22  43  67  89 139 178 218 283 335 390
#     4   9  22  42  62  93 134 176 230 276 336 399
#     4  11  23  44  63 102 136 174 223 280 332 404
#     4  11  25  46  75 100 138 180 219 278 347 406
#     4  11  23  41  65  95 134 179 230 277 336 396
#     4  12  24  46  72 102 141 177 229 282 341 407
#
# _framework density 22.639582999999998
#
# number of rings (size 3 to 8) (size 9 to 14) (size 15 to 20)
#    0.000    1.250    3.750    1.500    0.000    4.000 
#    6.750    0.000    0.000    0.000    0.000    0.000 
#    0.000    0.000    0.000    0.000    0.000    0.000 
#
# Total GULP energy -198394.891217 kJ/mol
# GULP energy per Si atom -12399.680701 kJ/mol
# Density = 2.258805 g / cm^3
# Si number density = 22.639583 Si / 1000 Ang^3
#
#
#
# Elastic Constant Matrix: (Units=GPa)
#
#
# Indices 1 2 3 4 5 6 
#
# 1 76.1122 21.5711 17.7717 -1.5026 -2.5647 -6.6302
# 2 21.5711 117.7502 42.9036 1.4493 -3.5623 11.2121
# 3 17.7717 42.9036 72.9482 -19.1694 4.6359 15.8179
# 4 -1.5026 1.4493 -19.1694 33.3660 -3.0277 5.8939
# 5 -2.5647 -3.5623 4.6359 -3.0277 28.1882 -7.6157
# 6 -6.6302 11.2121 15.8179 5.8939 -7.6157 38.5049
#
#
#
# Elastic Compliance Matrix: (Units=1/GPa)
#
#
# Indices 1 2 3 4 5 6 
#
# 1 0.015400 -0.001303 -0.005452 -0.003203 0.003534 0.006460
# 2 -0.001303 0.011858 -0.008486 -0.005422 0.002499 0.001133
# 3 -0.005452 -0.008486 0.028552 0.018364 -0.008247 -0.014639
# 4 -0.003203 -0.005422 0.018364 0.042746 -0.003099 -0.013673
# 5 0.003534 0.002499 -0.008247 -0.003099 0.040301 0.011714
# 6 0.006460 0.001133 -0.014639 -0.013673 0.011714 0.037177
#
#
# Mechanical properties :
#
#
# Convention : Reuss Voigt Hill
#
# Bulk Modulus (GPa) = 39.48500 47.92260 43.70380
# Shear Modulus (GPa) = 23.26034 32.31610 27.78822
#
# Velocity S-wave (km/s) = 3.20882 3.78221 3.50725
# Velocity P-wave (km/s) = 5.58634 6.34721 5.97889
#
# Compressibility (1/GPa) = 0.02532607
#
# Stress axis : x y z
#
# Youngs Moduli (GPa) = 64.93692 84.33339 35.02431
#
# Poissons Ratio (x) = 0.10992 0.19096
# Poissons Ratio (y) = 0.08463 0.29721
# Poissons Ratio (z) = 0.35405 0.71564
#
# Static dielectric constant tensor:
#      x y z
#    x 4.397930 0.468730 0.188470 
#    y 0.468730 5.637360 0.588790 
#    z 0.188470 0.588790 4.413410 
# 
# 
# High freq. dielectric constant tensor:
#      x y z
#    x 1.890630 -0.006600 0.003790 
#    y -0.006600 1.914990 -0.003260 
#    z 0.003790 -0.003260 1.878520 
# 
# From -- ./inp_files/56409.got.cif
#   From: 2010.06.25/outbox.cif.g09.slc.cpg/sg2_29_cif.got.tgz:56409.got - 2010.06.27 13:26:56.
