data_PCOD8021192
_publ_section_title
;
Structure prediction by ZEFSAII (Michael W. Deem and Ramdas Pophale) SiO2 
 PCOD8021192
Probable space group: P -1
;
_chemical_formula_sum "Si O2"
_cell_formula_units_Z 16
_cell_length_a 6.487728
_cell_length_b 8.939557
_cell_length_c 17.787292
_cell_angle_alpha 118.495282
_cell_angle_beta 53.478835
_cell_angle_gamma 97.690134
_cell_volume 711.966145
_symmetry_space_group_name_H-M "P -1"
_symmetry_group_IT_number 2
_symmetry_cell_setting 'triclinic'
loop_
_space_group_symop_operation_xyz
x,y,z
-x,-y,-z
loop_
_atom_site_type_symbol
_atom_site_label
_atom_site_fract_x
_atom_site_fract_y
_atom_site_fract_z
Si Si1 0.073293 0.298479 0.680553
Si Si2 0.000863 0.813963 0.488034
Si Si3 0.492293 0.478843 0.677524
Si Si4 0.307231 0.992300 0.937899
Si Si5 0.180406 0.132246 0.769407
Si Si6 0.623215 0.229410 0.985591
Si Si7 0.543655 0.834092 0.695911
Si Si8 0.526177 0.575654 0.167317
O O1 0.135032 0.267044 0.571232
O O2 0.204049 0.459949 0.710093
O O3 0.196206 0.150189 0.679749
O O4 0.765035 0.331178 0.770683
O O5 0.834643 0.840968 0.607008
O O6 0.287306 0.700637 0.420309
O O7 0.000000 0.000000 0.500000
O O8 0.551122 0.629236 0.647780
O O9 0.476286 0.533954 0.781612
O O10 0.472583 0.921052 0.811954
O O11 0.375471 0.184537 0.982079
O O12 0.409070 0.859426 0.949753
O O13 0.000000 0.000000 0.000000
O O14 0.301835 0.277834 0.823395
O O15 0.887907 0.144065 0.864832
O O16 0.338419 0.937226 0.704770
O O17 0.621132 0.434881 0.046634
#
# Coordination Sequence:
#
# PCOD8021192 Si02
#       8
#     2   2   2   2   2   2   2   2
#     4  10  24  44  65 100 135 177 226 272 344 405
#     4  11  25  46  71  99 134 176 224 283 342 399
#     4  10  23  44  69 100 133 173 225 282 337 403
#     4  11  25  43  65 102 140 174 230 281 334 404
#     4  11  25  41  67 103 135 183 227 274 344 401
#     4  11  24  41  69  99 132 186 229 274 345 396
#     4  12  24  45  71  95 141 177 220 290 335 396
#     4  10  22  43  68  97 142 176 226 286 333 398
#
# _framework density 22.47298
#
# number of rings (size 3 to 8) (size 9 to 14) (size 15 to 20)
#    0.000    1.250    2.500    3.000    5.250    3.000 
#    0.000    0.000    0.000    0.000    0.000    0.000 
#    0.000    0.000    0.000    0.000    0.000    0.000 
#
# Total GULP energy -198252.016329 kJ/mol
# GULP energy per Si atom -12390.751021 kJ/mol
# Density = 2.242183 g / cm^3
# Si number density = 22.472980 Si / 1000 Ang^3
#
#
#
# Elastic Constant Matrix: (Units=GPa)
#
#
# Indices 1 2 3 4 5 6 
#
# 1 125.3471 37.2372 27.8667 4.5436 -5.9382 19.0622
# 2 37.2372 115.0241 7.6584 3.8511 -10.7850 -0.3780
# 3 27.8667 7.6584 93.3881 -8.4721 -10.4416 6.4573
# 4 4.5436 3.8511 -8.4721 41.1748 -1.5524 -0.8399
# 5 -5.9382 -10.7850 -10.4416 -1.5524 22.8788 -9.2143
# 6 19.0622 -0.3780 6.4573 -0.8399 -9.2143 30.2672
#
#
#
# Elastic Compliance Matrix: (Units=1/GPa)
#
#
# Indices 1 2 3 4 5 6 
#
# 1 0.010676 -0.003531 -0.002917 -0.001716 -0.003232 -0.007177
# 2 -0.003531 0.010364 0.000564 -0.000162 0.005828 0.004003
# 3 -0.002917 0.000564 0.012384 0.003057 0.005791 0.001050
# 4 -0.001716 -0.000162 0.003057 0.025296 0.003470 0.002185
# 5 -0.003232 0.005828 0.005791 0.003470 0.055717 0.017931
# 6 -0.007177 0.004003 0.001050 0.002185 0.017931 0.042905
#
#
# Mechanical properties :
#
#
# Convention : Reuss Voigt Hill
#
# Bulk Modulus (GPa) = 46.17573 53.25378 49.71476
# Shear Modulus (GPa) = 28.35613 36.26395 32.31004
#
# Velocity S-wave (km/s) = 3.55602 4.02141 3.79585
# Velocity P-wave (km/s) = 6.11982 6.73131 6.43283
#
# Compressibility (1/GPa) = 0.02165640
#
# Stress axis : x y z
#
# Youngs Moduli (GPa) = 93.66955 96.48382 80.74689
#
# Poissons Ratio (x) = 0.34069 0.23553
# Poissons Ratio (y) = 0.33075 -0.04552
# Poissons Ratio (z) = 0.27322 -0.05440
#
# Static dielectric constant tensor:
#      x y z
#    x 3.896120 0.072150 -0.427030 
#    y 0.072150 4.164990 0.058240 
#    z -0.427030 0.058240 2.917590 
# 
# 
# High freq. dielectric constant tensor:
#      x y z
#    x 1.889580 -0.000070 0.003300 
#    y -0.000070 1.890980 -0.011940 
#    z 0.003300 -0.011940 1.880860 
# 
# From -- ./inp_files/323725.got.cif
#   From: 2010.06.25/outbox.cif.g09.slc.cpg/sg2_162_cif.got.tgz:323725.got - 2010.06.27 13:26:56.
