data_PCOD8021606
_publ_section_title
;
Structure prediction by ZEFSAII (Michael W. Deem and Ramdas Pophale) SiO2 
 PCOD8021606
Probable space group: P -1
;
_chemical_formula_sum "Si O2"
_cell_formula_units_Z 14
_cell_length_a 6.764185
_cell_length_b 20.700156
_cell_length_c 9.950053
_cell_angle_alpha 43.498652
_cell_angle_beta 133.411976
_cell_angle_gamma 128.677278
_cell_volume 674.011949
_symmetry_space_group_name_H-M "P -1"
_symmetry_group_IT_number 2
_symmetry_cell_setting 'triclinic'
loop_
_space_group_symop_operation_xyz
x,y,z
-x,-y,-z
loop_
_atom_site_type_symbol
_atom_site_label
_atom_site_fract_x
_atom_site_fract_y
_atom_site_fract_z
Si Si1 0.753193 0.216440 0.529236
Si Si2 0.592708 0.524096 0.854662
Si Si3 0.151385 0.098445 0.492836
Si Si4 0.249727 0.774483 0.975753
Si Si5 0.781377 0.353149 0.084614
Si Si6 0.680320 0.321216 0.595507
Si Si7 0.239952 0.152548 0.737674
O O1 0.824687 0.281998 0.596500
O O2 0.977531 0.152986 0.708893
O O3 0.460978 0.135942 0.521549
O O4 0.769559 0.290464 0.305676
O O5 0.597067 0.429921 0.910671
O O6 0.354847 0.570482 0.606007
O O7 0.500000 0.500000 0.000000
O O8 0.902294 0.595767 0.890044
O O9 0.155276 0.076567 0.689007
O O10 0.992878 0.181380 0.260951
O O11 0.000000 0.000000 0.500000
O O12 0.365630 0.718322 0.995567
O O13 0.141611 0.693586 0.165996
O O14 0.505746 0.861399 0.025090
O O15 0.358111 0.255860 0.560788
#
# Coordination Sequence:
#
# PCOD8021606 Si02
#       7
#     2   2   2   2   2   2   2
#     4  11  19  41  69  87 127 178 200 256 324 373
#     4  11  21  36  61  93 130 168 214 265 298 365
#     4  11  24  42  67  98 126 161 209 265 322 384
#     4  10  22  44  65  90 132 166 208 262 320 384
#     4  11  21  36  65  91 124 174 215 248 317 373
#     4   9  20  38  59  89 129 163 206 253 312 358
#     4   9  21  42  63  88 129 160 211 253 315 376
#
# _framework density 20.771146999999999
#
# number of rings (size 3 to 8) (size 9 to 14) (size 15 to 20)
#    0.857    0.857    4.286    0.857    0.000    2.857 
#    0.000    1.429    0.000    0.000    0.000    0.000 
#    0.000    0.000    0.000    0.000    0.000    0.000 
#
# Total GULP energy -173473.338873 kJ/mol
# GULP energy per Si atom -12390.952777 kJ/mol
# Density = 2.072387 g / cm^3
# Si number density = 20.771147 Si / 1000 Ang^3
#
#
#
# Elastic Constant Matrix: (Units=GPa)
#
#
# Indices 1 2 3 4 5 6 
#
# 1 130.3347 25.6785 20.3891 11.4363 -18.7914 -5.3199
# 2 25.6785 43.6610 12.6022 11.8685 -12.8691 -15.6666
# 3 20.3891 12.6022 54.3919 16.0801 -12.8208 -5.0160
# 4 11.4363 11.8685 16.0801 27.5404 0.2285 -6.6290
# 5 -18.7914 -12.8691 -12.8208 0.2285 21.4639 8.4187
# 6 -5.3199 -15.6666 -5.0160 -6.6290 8.4187 33.1892
#
#
#
# Elastic Compliance Matrix: (Units=1/GPa)
#
#
# Indices 1 2 3 4 5 6 
#
# 1 0.009613 -0.003604 -0.000532 -0.002804 0.006975 -0.002570
# 2 -0.003604 0.036333 0.001225 -0.012515 0.015437 0.010343
# 3 -0.000532 0.001225 0.027362 -0.017257 0.018137 -0.003419
# 4 -0.002804 -0.012515 -0.017257 0.055103 -0.024046 0.008140
# 5 0.006975 0.015437 0.018137 -0.024046 0.078349 -0.013530
# 6 -0.002570 0.010343 -0.003419 0.008140 -0.013530 0.039142
#
#
# Mechanical properties :
#
#
# Convention : Reuss Voigt Hill
#
# Bulk Modulus (GPa) = 14.81783 38.41414 26.61599
# Shear Modulus (GPa) = 18.23361 27.75319 22.99340
#
# Velocity S-wave (km/s) = 2.96604 3.65929 3.33075
# Velocity P-wave (km/s) = 4.34502 6.03225 5.25677
#
# Compressibility (1/GPa) = 0.06748626
#
# Stress axis : x y z
#
# Youngs Moduli (GPa) = 104.02924 27.52314 36.54677
#
# Poissons Ratio (x) = 0.09919 0.01945
# Poissons Ratio (y) = 0.37492 -0.04478
# Poissons Ratio (z) = 0.05536 -0.03373
#
# Static dielectric constant tensor:
#      x y z
#    x 3.976360 -0.161390 -0.139790 
#    y -0.161390 3.553640 0.086020 
#    z -0.139790 0.086020 3.623320 
# 
# 
# High freq. dielectric constant tensor:
#      x y z
#    x 1.824930 -0.012640 -0.008120 
#    y -0.012640 1.789840 0.007200 
#    z -0.008120 0.007200 1.805100 
# 
# From -- ./inp_files/29991.got.cif
#   From: 2010.06.25/outbox.cif.g09.slc.cpg/sg2_15_cif.got.tgz:29991.got - 2010.06.27 13:26:56.
