data_PCOD8021389
_publ_section_title
;
Structure prediction by ZEFSAII (Michael W. Deem and Ramdas Pophale) SiO2 
 PCOD8021389
Probable space group: P -1
;
_chemical_formula_sum "Si O2"
_cell_formula_units_Z 16
_cell_length_a 18.010914
_cell_length_b 5.407356
_cell_length_c 14.291916
_cell_angle_alpha 80.268720
_cell_angle_beta 151.361332
_cell_angle_gamma 89.810693
_cell_volume 622.717476
_symmetry_space_group_name_H-M "P -1"
_symmetry_group_IT_number 2
_symmetry_cell_setting 'triclinic'
loop_
_space_group_symop_operation_xyz
x,y,z
-x,-y,-z
loop_
_atom_site_type_symbol
_atom_site_label
_atom_site_fract_x
_atom_site_fract_y
_atom_site_fract_z
Si Si1 0.685321 0.471452 0.225565
Si Si2 0.368111 0.999386 0.080158
Si Si3 0.330689 0.884745 0.611612
Si Si4 0.874988 0.832508 0.041912
Si Si5 0.874984 0.213332 0.285627
Si Si6 0.749251 0.450325 0.817382
Si Si7 0.877936 0.625241 0.572987
Si Si8 0.574538 0.479444 0.436444
O O1 0.749382 0.222299 0.383022
O O2 0.785381 0.452409 0.241341
O O3 0.737650 0.686081 0.332126
O O4 0.500000 0.500000 0.000000
O O5 0.479218 0.155250 0.144353
O O6 0.512356 0.761743 0.301057
O O7 0.254961 0.180224 0.021908
O O8 0.263673 0.901478 0.896548
O O9 0.339932 0.741971 0.531396
O O10 0.208579 0.186993 0.448482
O O11 0.056153 0.678913 0.294762
O O12 0.851122 0.649941 0.940984
O O13 0.850291 0.140016 0.971605
O O14 0.960023 0.314491 0.288370
O O15 0.000000 0.000000 0.500000
O O16 0.713576 0.470442 0.666617
O O17 0.580705 0.566079 0.681272
#
# Coordination Sequence:
#
# PCOD8021389 Si02
#       8
#     2   2   2   2   2   2   2   2
#     4  12  28  45  70 104 142 195 257 305 367 436
#     4  11  25  44  75 104 146 193 250 306 370 437
#     4  12  25  45  70 104 152 192 242 304 381 437
#     4  11  24  45  75 111 145 196 247 311 375 444
#     4  12  25  47  71 105 141 195 252 301 367 437
#     4  10  23  42  78 111 144 187 262 304 366 451
#     4  12  27  46  72 103 152 197 241 311 374 449
#     4  10  22  43  71 108 145 189 244 310 369 434
#
# _framework density 25.693835
#
# number of rings (size 3 to 8) (size 9 to 14) (size 15 to 20)
#    0.000    0.750    2.500    4.875    7.000    2.500 
#    0.000    1.250    0.000    0.000    0.000    0.000 
#    0.000    0.000    0.000    0.000    0.000    0.000 
#
# Total GULP energy -198269.263420 kJ/mol
# GULP energy per Si atom -12391.828964 kJ/mol
# Density = 2.563535 g / cm^3
# Si number density = 25.693835 Si / 1000 Ang^3
#
#
#
# Elastic Constant Matrix: (Units=GPa)
#
#
# Indices 1 2 3 4 5 6 
#
# 1 94.8899 27.0418 34.4301 -0.4949 7.7070 -28.5000
# 2 27.0418 102.1745 34.8424 -4.9178 4.4407 -40.9350
# 3 34.4301 34.8424 119.2175 -2.2831 -6.2102 -26.6080
# 4 -0.4949 -4.9178 -2.2831 53.5381 -6.5842 3.8843
# 5 7.7070 4.4407 -6.2102 -6.5842 29.0532 1.4353
# 6 -28.5000 -40.9350 -26.6080 3.8843 1.4353 48.2819
#
#
#
# Elastic Compliance Matrix: (Units=1/GPa)
#
#
# Indices 1 2 3 4 5 6 
#
# 1 0.014043 0.000303 -0.002810 -0.001099 -0.004979 0.007235
# 2 0.000303 0.015475 -0.002053 0.000018 -0.003487 0.012270
# 3 -0.002810 -0.002053 0.010480 0.000475 0.003297 0.002240
# 4 -0.001099 0.000018 0.000475 0.019444 0.004900 -0.002082
# 5 -0.004979 -0.003487 0.003297 0.004900 0.038366 -0.005613
# 6 0.007235 0.012270 0.002240 -0.002082 -0.005613 0.036954
#
#
# Mechanical properties :
#
#
# Convention : Reuss Voigt Hill
#
# Bulk Modulus (GPa) = 32.38399 56.54561 44.46480
# Shear Modulus (GPa) = 32.43059 40.83914 36.63486
#
# Velocity S-wave (km/s) = 3.55659 3.99112 3.78010
# Velocity P-wave (km/s) = 5.43111 6.57981 6.03286
#
# Compressibility (1/GPa) = 0.03087945
#
# Stress axis : x y z
#
# Youngs Moduli (GPa) = 71.20875 64.61860 95.41614
#
# Poissons Ratio (x) = -0.01961 0.26813
# Poissons Ratio (y) = -0.02161 0.19590
# Poissons Ratio (z) = 0.20011 0.13267
#
# Static dielectric constant tensor:
#      x y z
#    x 4.954980 -0.007640 0.064150 
#    y -0.007640 4.557920 0.067550 
#    z 0.064150 0.067550 4.783160 
# 
# 
# High freq. dielectric constant tensor:
#      x y z
#    x 2.021460 -0.008840 0.005420 
#    y -0.008840 2.026650 0.005650 
#    z 0.005420 0.005650 2.040640 
# 
# From -- ./inp_files/536319.got.cif
#   From: 2010.06.25/outbox.cif.g09.slc.cpg/sg2_269_cif.got.tgz:536319.got - 2010.06.27 13:26:56.
