data_PCOD8021935
_publ_section_title
;
Structure prediction by ZEFSAII (Michael W. Deem and Ramdas Pophale) SiO2 
 PCOD8021935
Probable space group: P -1
;
_chemical_formula_sum "Si O2"
_cell_formula_units_Z 14
_cell_length_a 25.270021
_cell_length_b 13.459628
_cell_length_c 14.950438
_cell_angle_alpha 150.772734
_cell_angle_beta 21.507577
_cell_angle_gamma 160.713195
_cell_volume 615.142682
_symmetry_space_group_name_H-M "P -1"
_symmetry_group_IT_number 2
_symmetry_cell_setting 'triclinic'
loop_
_space_group_symop_operation_xyz
x,y,z
-x,-y,-z
loop_
_atom_site_type_symbol
_atom_site_label
_atom_site_fract_x
_atom_site_fract_y
_atom_site_fract_z
Si Si1 0.187378 0.715499 0.485431
Si Si2 0.266448 0.668702 0.128026
Si Si3 0.069718 0.401694 0.881878
Si Si4 0.386254 0.361499 0.664682
Si Si5 0.647020 0.640760 0.653210
Si Si6 0.587006 0.941626 0.105704
Si Si7 0.383972 0.093221 0.766766
O O1 0.232032 0.646213 0.269295
O O2 0.338353 0.753054 0.347523
O O3 0.934662 0.427683 0.681080
O O4 0.246116 0.013645 0.618461
O O5 0.237455 0.404090 0.939145
O O6 0.500000 0.000000 0.000000
O O7 0.130523 0.253111 0.619633
O O8 0.862034 0.157748 0.079817
O O9 0.000000 0.500000 0.000000
O O10 0.278830 0.708586 0.843570
O O11 0.500000 0.500000 0.500000
O O12 0.557927 0.554098 0.625444
O O13 0.494140 0.377215 0.758546
O O14 0.671785 0.892599 0.851606
O O15 0.621707 0.861695 0.082654
O O16 0.500000 0.000000 0.500000
#
# Coordination Sequence:
#
# PCOD8021935 Si02
#       7
#     2   2   2   2   2   2   2
#     4  11  23  46  69  99 138 176 220 287 338 401
#     4  11  24  46  70  98 136 174 230 281 339 402
#     4  10  22  44  70  98 139 179 222 275 341 401
#     4  12  24  46  71  97 135 184 227 281 343 399
#     4  12  24  46  67 100 139 174 233 277 333 408
#     4  11  23  45  71 103 136 179 224 278 339 402
#     4  11  22  46  70  99 139 178 221 278 341 402
#
# _framework density 22.758948
#
# number of rings (size 3 to 8) (size 9 to 14) (size 15 to 20)
#    0.000    0.857    7.143    0.857    0.000    2.286 
#   18.000    0.000    0.000    0.000    0.000    0.000 
#    0.000    0.000    0.000    0.000    0.000    0.000 
#
# Total GULP energy -173500.778783 kJ/mol
# GULP energy per Si atom -12392.912770 kJ/mol
# Density = 2.270715 g / cm^3
# Si number density = 22.758948 Si / 1000 Ang^3
#
#
#
# Elastic Constant Matrix: (Units=GPa)
#
#
# Indices 1 2 3 4 5 6 
#
# 1 88.4222 20.8782 32.8926 -6.7776 3.6778 14.0193
# 2 20.8782 86.0090 63.2262 -8.0384 0.4532 9.6212
# 3 32.8926 63.2262 176.6431 -3.1552 -11.6263 12.6916
# 4 -6.7776 -8.0384 -3.1552 54.4329 10.6322 -3.0720
# 5 3.6778 0.4532 -11.6263 10.6322 38.3919 -2.0141
# 6 14.0193 9.6212 12.6916 -3.0720 -2.0141 29.5618
#
#
#
# Elastic Compliance Matrix: (Units=1/GPa)
#
#
# Indices 1 2 3 4 5 6 
#
# 1 0.013306 -0.001142 -0.001837 0.001584 -0.002527 -0.005158
# 2 -0.001142 0.016574 -0.005679 0.002348 -0.002579 -0.002346
# 3 -0.001837 -0.005679 0.008268 -0.001226 0.003047 -0.000750
# 4 0.001584 0.002348 -0.001226 0.020069 -0.006073 0.000683
# 5 -0.002527 -0.002579 0.003047 -0.006073 0.029033 0.002077
# 6 -0.005158 -0.002346 -0.000750 0.000683 0.002077 0.037572
#
#
# Mechanical properties :
#
#
# Convention : Reuss Voigt Hill
#
# Bulk Modulus (GPa) = 47.99763 65.00759 56.50261
# Shear Modulus (GPa) = 33.53868 40.08247 36.81058
#
# Velocity S-wave (km/s) = 3.84298 4.20119 4.02607
# Velocity P-wave (km/s) = 6.38957 7.22211 6.81856
#
# Compressibility (1/GPa) = 0.02083436
#
# Stress axis : x y z
#
# Youngs Moduli (GPa) = 75.15156 60.33542 120.94260
#
# Poissons Ratio (x) = 0.06888 0.22212
# Poissons Ratio (y) = 0.08580 0.68684
# Poissons Ratio (z) = 0.13802 0.34265
#
# Static dielectric constant tensor:
#      x y z
#    x 4.307710 -0.129880 0.068460 
#    y -0.129880 5.498990 -0.723180 
#    z 0.068460 -0.723180 5.141120 
# 
# 
# High freq. dielectric constant tensor:
#      x y z
#    x 1.884380 0.012110 -0.007740 
#    y 0.012110 1.890260 0.004790 
#    z -0.007740 0.004790 1.922390 
# 
# From -- ./inp_files/40066.got.cif
#   From: 2010.06.25/outbox.cif.g09.slc.cpg/sg2_21_cif.got.tgz:40066.got - 2010.06.27 13:26:56.
