data_PCOD8021716
_publ_section_title
;
Structure prediction by ZEFSAII (Michael W. Deem and Ramdas Pophale) SiO2 
 PCOD8021716
Probable space group: P -1
;
_chemical_formula_sum "Si O2"
_cell_formula_units_Z 16
_cell_length_a 8.336928
_cell_length_b 20.705606
_cell_length_c 8.759030
_cell_angle_alpha 140.795166
_cell_angle_beta 124.074179
_cell_angle_gamma 47.198993
_cell_volume 699.370641
_symmetry_space_group_name_H-M "P -1"
_symmetry_group_IT_number 2
_symmetry_cell_setting 'triclinic'
loop_
_space_group_symop_operation_xyz
x,y,z
-x,-y,-z
loop_
_atom_site_type_symbol
_atom_site_label
_atom_site_fract_x
_atom_site_fract_y
_atom_site_fract_z
Si Si1 0.928560 0.434780 0.718148
Si Si2 0.909887 0.924682 0.231147
Si Si3 0.234712 0.479610 0.525289
Si Si4 0.721634 0.316461 0.930979
Si Si5 0.703594 0.094593 0.179483
Si Si6 0.699805 0.318341 0.575421
Si Si7 0.528554 0.988652 0.672193
Si Si8 0.621673 0.765065 0.471920
O O1 0.774259 0.524284 0.671152
O O2 0.798673 0.374463 0.615245
O O3 0.136051 0.338003 0.559127
O O4 0.000000 0.500000 0.000000
O O5 0.697566 0.939969 0.232047
O O6 0.074553 0.790353 0.079025
O O7 0.862343 0.972904 0.121979
O O8 0.000000 0.000000 0.500000
O O9 0.438805 0.362709 0.484388
O O10 0.000000 0.500000 0.500000
O O11 0.306835 0.575444 0.788143
O O12 0.750879 0.343896 0.820822
O O13 0.514203 0.292519 0.786371
O O14 0.814000 0.178177 0.362969
O O15 0.490754 0.166037 0.306651
O O16 0.661815 0.055059 0.920412
O O17 0.500000 0.000000 0.500000
O O18 0.641442 0.853403 0.525669
#
# Coordination Sequence:
#
# PCOD8021716 Si02
#       8
#     2   2   2   2   2   2   2   2
#     4  12  27  45  68  97 136 177 222 284 337 386
#     4  11  20  42  69  98 132 177 221 267 329 400
#     4  12  26  43  70 100 128 182 226 270 337 401
#     4  11  23  42  72  97 131 175 229 273 322 410
#     4  10  23  44  69  97 138 176 223 269 324 414
#     4  11  24  45  66 100 138 166 222 288 332 388
#     4  11  25  39  65 100 140 171 217 275 332 392
#     4  10  22  44  67  93 132 180 222 269 330 393
#
# _framework density 22.877711999999999
#
# number of rings (size 3 to 8) (size 9 to 14) (size 15 to 20)
#    0.000    1.000    3.750    5.250    7.000    2.000 
#    0.000    1.250    0.000    0.000    0.000    0.000 
#    0.000    0.000    0.000    0.000    0.000    0.000 
#
# Total GULP energy -198355.578612 kJ/mol
# GULP energy per Si atom -12397.223663 kJ/mol
# Density = 2.282564 g / cm^3
# Si number density = 22.877712 Si / 1000 Ang^3
#
#
#
# Elastic Constant Matrix: (Units=GPa)
#
#
# Indices 1 2 3 4 5 6 
#
# 1 67.7811 24.1820 13.1245 -1.8636 14.6388 12.1603
# 2 24.1820 137.0446 33.4805 -11.6393 -10.5342 10.6679
# 3 13.1245 33.4805 128.9508 -32.2124 8.7128 20.6793
# 4 -1.8636 -11.6393 -32.2124 38.4475 2.7608 -3.6318
# 5 14.6388 -10.5342 8.7128 2.7608 21.8630 0.4598
# 6 12.1603 10.6679 20.6793 -3.6318 0.4598 43.4205
#
#
#
# Elastic Compliance Matrix: (Units=1/GPa)
#
#
# Indices 1 2 3 4 5 6 
#
# 1 0.020775 -0.004800 0.001457 0.001512 -0.016889 -0.005027
# 2 -0.004800 0.009436 -0.002637 -0.000203 0.008834 0.000171
# 3 0.001457 -0.002637 0.011920 0.009409 -0.008088 -0.004565
# 4 0.001512 -0.000203 0.009409 0.034385 -0.009163 -0.001882
# 5 -0.016889 0.008834 -0.008088 -0.009163 0.065580 0.004951
# 6 -0.005027 0.000171 -0.004565 -0.001882 0.004951 0.026361
#
#
# Mechanical properties :
#
#
# Convention : Reuss Voigt Hill
#
# Bulk Modulus (GPa) = 33.14323 52.81669 42.97996
# Shear Modulus (GPa) = 26.25036 38.27883 32.26459
#
# Velocity S-wave (km/s) = 3.39103 4.09491 3.75948
# Velocity P-wave (km/s) = 5.46358 6.74495 6.13779
#
# Compressibility (1/GPa) = 0.03017207
#
# Stress axis : x y z
#
# Youngs Moduli (GPa) = 48.13520 105.97204 83.89210
#
# Poissons Ratio (x) = 0.50868 -0.12223
# Poissons Ratio (y) = 0.23106 0.22118
# Poissons Ratio (z) = -0.07013 0.27940
#
# Static dielectric constant tensor:
#      x y z
#    x 3.966880 0.095270 0.225260 
#    y 0.095270 4.382540 0.082300 
#    z 0.225260 0.082300 4.048380 
# 
# 
# High freq. dielectric constant tensor:
#      x y z
#    x 1.890800 0.007090 0.017780 
#    y 0.007090 1.921380 -0.000220 
#    z 0.017780 -0.000220 1.904330 
# 
# From -- ./inp_files/222646.got.cif
#   From: 2010.06.25/outbox.cif.g09.slc.cpg/sg2_112_cif.got.tgz:222646.got - 2010.06.27 13:26:56.
