data_PCOD8021289
_publ_section_title
;
Structure prediction by ZEFSAII (Michael W. Deem and Ramdas Pophale) SiO2 
 PCOD8021289
Probable space group: P -1
;
_chemical_formula_sum "Si O2"
_cell_formula_units_Z 16
_cell_length_a 14.231989
_cell_length_b 8.825836
_cell_length_c 9.056897
_cell_angle_alpha 117.950641
_cell_angle_beta 54.112735
_cell_angle_gamma 83.068674
_cell_volume 678.594574
_symmetry_space_group_name_H-M "P -1"
_symmetry_group_IT_number 2
_symmetry_cell_setting 'triclinic'
loop_
_space_group_symop_operation_xyz
x,y,z
-x,-y,-z
loop_
_atom_site_type_symbol
_atom_site_label
_atom_site_fract_x
_atom_site_fract_y
_atom_site_fract_z
Si Si1 0.087037 0.771754 0.866968
Si Si2 0.935440 0.562667 0.928726
Si Si3 0.358155 0.071682 0.240048
Si Si4 0.917643 0.702656 0.567230
Si Si5 0.658245 0.316004 0.589078
Si Si6 0.641439 0.925865 0.424193
Si Si7 0.101309 0.899861 0.223264
Si Si8 0.644009 0.328883 0.938918
O O1 0.243230 0.663541 0.607623
O O2 0.015571 0.657962 0.821479
O O3 0.071061 0.791729 0.069873
O O4 0.000000 0.000000 0.000000
O O5 0.980983 0.358584 0.698473
O O6 0.769849 0.719202 0.138616
O O7 0.000000 0.500000 0.000000
O O8 0.230431 0.247784 0.338530
O O9 0.363651 0.140755 0.433574
O O10 0.347385 0.879748 0.180173
O O11 0.500000 0.000000 0.000000
O O12 0.000000 0.500000 0.500000
O O13 0.891761 0.909325 0.761220
O O14 0.681291 0.369864 0.759368
O O15 0.680006 0.094654 0.456211
O O16 0.499180 0.487457 0.776300
O O17 0.500000 0.000000 0.500000
O O18 0.245177 0.704110 0.058564
O O19 0.000000 0.000000 0.500000
#
# Coordination Sequence:
#
# PCOD8021289 Si02
#       8
#     2   2   2   2   2   2   2   2
#     4  12  24  41  72  98 134 178 225 287 333 408
#     4  12  25  45  68 102 140 178 227 285 352 400
#     4  10  23  43  64  95 136 175 217 278 344 401
#     4  11  25  43  67  99 134 177 225 278 331 413
#     4  10  22  43  69  99 132 175 233 273 348 400
#     4  11  25  43  69  96 140 181 224 285 341 407
#     4  11  24  43  66  97 135 175 225 278 341 400
#     4   9  22  43  66  94 134 173 218 285 331 409
#
# _framework density 23.578143000000001
#
# number of rings (size 3 to 8) (size 9 to 14) (size 15 to 20)
#    0.000    1.250    2.500    2.250    5.250    3.500 
#    2.250    0.000    0.000    0.000    0.000    0.000 
#    0.000    0.000    0.000    0.000    0.000    0.000 
#
# Total GULP energy -198272.965354 kJ/mol
# GULP energy per Si atom -12392.060335 kJ/mol
# Density = 2.352448 g / cm^3
# Si number density = 23.578143 Si / 1000 Ang^3
#
#
#
# Elastic Constant Matrix: (Units=GPa)
#
#
# Indices 1 2 3 4 5 6 
#
# 1 89.1065 16.1375 31.5164 3.6559 -11.2025 -19.3432
# 2 16.1375 56.6284 15.9153 4.3142 -14.9590 -23.7589
# 3 31.5164 15.9153 157.2477 0.7223 -19.4928 -10.3078
# 4 3.6559 4.3142 0.7223 46.9675 -5.1156 -6.7770
# 5 -11.2025 -14.9590 -19.4928 -5.1156 39.8131 6.2060
# 6 -19.3432 -23.7589 -10.3078 -6.7770 6.2060 37.8346
#
#
#
# Elastic Compliance Matrix: (Units=1/GPa)
#
#
# Indices 1 2 3 4 5 6 
#
# 1 0.013505 -0.000360 -0.002071 0.000046 0.001747 0.005836
# 2 -0.000360 0.026050 -0.000711 0.000571 0.007086 0.014921
# 3 -0.002071 -0.000711 0.007186 0.000423 0.002710 0.000084
# 4 0.000046 0.000571 0.000423 0.022097 0.002647 0.004021
# 5 0.001747 0.007086 0.002710 0.002647 0.029675 0.001688
# 6 0.005836 0.014921 0.000084 0.004021 0.001688 0.039251
#
#
# Mechanical properties :
#
#
# Convention : Reuss Voigt Hill
#
# Bulk Modulus (GPa) = 24.71773 47.79123 36.25448
# Shear Modulus (GPa) = 31.73939 40.88394 36.31166
#
# Velocity S-wave (km/s) = 3.67295 4.16862 3.92861
# Velocity P-wave (km/s) = 5.33793 6.59418 5.99903
#
# Compressibility (1/GPa) = 0.04045679
#
# Stress axis : x y z
#
# Youngs Moduli (GPa) = 74.04710 38.38812 139.16073
#
# Poissons Ratio (x) = 0.01382 0.28826
# Poissons Ratio (y) = 0.02665 0.09888
# Poissons Ratio (z) = 0.15338 0.02728
#
# Static dielectric constant tensor:
#      x y z
#    x 4.004980 -0.146840 -0.074070 
#    y -0.146840 4.152660 0.509410 
#    z -0.074070 0.509410 3.990280 
# 
# 
# High freq. dielectric constant tensor:
#      x y z
#    x 1.930510 -0.009470 0.001410 
#    y -0.009470 1.942210 0.010130 
#    z 0.001410 0.010130 1.944790 
# 
# From -- ./inp_files/299102.got.cif
#   From: 2010.06.25/outbox.cif.g09.slc.cpg/sg2_150_cif.got.tgz:299102.got - 2010.06.27 13:26:56.
