data_PCOD8021277
_publ_section_title
;
Structure prediction by ZEFSAII (Michael W. Deem and Ramdas Pophale) SiO2 
 PCOD8021277
Probable space group: P -1
;
_chemical_formula_sum "Si O2"
_cell_formula_units_Z 16
_cell_length_a 7.888218
_cell_length_b 15.842712
_cell_length_c 15.678920
_cell_angle_alpha 28.888229
_cell_angle_beta 69.311356
_cell_angle_gamma 86.411672
_cell_volume 741.933248
_symmetry_space_group_name_H-M "P -1"
_symmetry_group_IT_number 2
_symmetry_cell_setting 'triclinic'
loop_
_space_group_symop_operation_xyz
x,y,z
-x,-y,-z
loop_
_atom_site_type_symbol
_atom_site_label
_atom_site_fract_x
_atom_site_fract_y
_atom_site_fract_z
Si Si1 0.143825 0.530588 0.117037
Si Si2 0.351566 0.607713 0.506920
Si Si3 0.800524 0.831103 0.130054
Si Si4 0.463148 0.218735 0.058432
Si Si5 0.665092 0.234466 0.290167
Si Si6 0.698353 0.486167 0.214990
Si Si7 0.899940 0.109793 0.467641
Si Si8 0.646008 0.027910 0.869096
O O1 0.952297 0.573882 0.108254
O O2 0.057361 0.284366 0.354272
O O3 0.292420 0.630511 0.085371
O O4 0.288753 0.621832 0.926055
O O5 0.575369 0.728871 0.309523
O O6 0.184895 0.364913 0.726058
O O7 0.421264 0.627007 0.575970
O O8 0.233191 0.731184 0.398243
O O9 0.807775 0.960112 0.931104
O O10 0.000000 0.000000 0.000000
O O11 0.326386 0.048737 0.306186
O O12 0.489938 0.118242 0.057204
O O13 0.334844 0.328635 0.963508
O O14 0.585529 0.317245 0.308307
O O15 0.875614 0.244060 0.279469
O O16 0.500000 0.000000 0.500000
O O17 0.000000 0.000000 0.500000
O O18 0.500000 0.000000 0.000000
#
# Coordination Sequence:
#
# PCOD8021277 Si02
#       8
#     2   2   2   2   2   2   2   2
#     4  11  25  43  66  96 132 183 228 274 357 398
#     4  10  22  44  66  95 142 169 218 293 328 401
#     4  10  22  44  69 101 131 176 221 272 354 411
#     4  12  24  45  68  97 139 176 230 289 339 413
#     4  11  22  41  63  93 136 179 220 284 341 394
#     4  11  24  44  66  98 139 176 232 284 334 414
#     4  11  23  41  65  98 133 174 233 281 336 416
#     4  10  22  43  69  97 136 176 220 285 342 404
#
# _framework density 21.565280000000001
#
# number of rings (size 3 to 8) (size 9 to 14) (size 15 to 20)
#    0.000    1.250    2.500    4.500    1.750    3.500 
#    4.500    0.000    0.000    0.000    0.000    0.000 
#    0.000    0.000    0.000    0.000    0.000    0.000 
#
# Total GULP energy -198295.475751 kJ/mol
# GULP energy per Si atom -12393.467234 kJ/mol
# Density = 2.151620 g / cm^3
# Si number density = 21.565280 Si / 1000 Ang^3
#
#
#
# Elastic Constant Matrix: (Units=GPa)
#
#
# Indices 1 2 3 4 5 6 
#
# 1 87.7003 43.6683 48.5438 -22.8736 14.5232 14.0489
# 2 43.6683 142.1037 42.1739 -27.8112 6.6126 9.5075
# 3 48.5438 42.1739 113.4989 -32.8082 20.5563 11.1276
# 4 -22.8736 -27.8112 -32.8082 42.2653 2.8487 0.9235
# 5 14.5232 6.6126 20.5563 2.8487 41.4924 -3.8126
# 6 14.0489 9.5075 11.1276 0.9235 -3.8126 35.4351
#
#
#
# Elastic Compliance Matrix: (Units=1/GPa)
#
#
# Indices 1 2 3 4 5 6 
#
# 1 0.017995 -0.002736 -0.003545 0.005657 -0.005044 -0.005977
# 2 -0.002736 0.008981 -0.000877 0.003802 -0.000410 -0.001193
# 3 -0.003545 -0.000877 0.015238 0.009912 -0.007233 -0.004181
# 4 0.005657 0.003802 0.009912 0.037837 -0.010878 -0.008532
# 5 -0.005044 -0.000410 -0.007233 -0.010878 0.030997 0.008000
# 6 -0.005977 -0.001193 -0.004181 -0.008532 0.008000 0.033307
#
#
# Mechanical properties :
#
#
# Convention : Reuss Voigt Hill
#
# Bulk Modulus (GPa) = 35.84434 68.00831 51.92632
# Shear Modulus (GPa) = 29.76720 37.76637 33.76679
#
# Velocity S-wave (km/s) = 3.71931 4.18934 3.96130
# Velocity P-wave (km/s) = 5.92467 7.41655 6.71219
#
# Compressibility (1/GPa) = 0.02789841
#
# Stress axis : x y z
#
# Youngs Moduli (GPa) = 55.56964 111.34513 65.62674
#
# Poissons Ratio (x) = 0.30464 0.23266
# Poissons Ratio (y) = 0.15204 0.05754
# Poissons Ratio (z) = 0.19700 0.09762
#
# Static dielectric constant tensor:
#      x y z
#    x 3.955490 0.100670 0.483980 
#    y 0.100670 4.332370 -0.203490 
#    z 0.483980 -0.203490 4.384670 
# 
# 
# High freq. dielectric constant tensor:
#      x y z
#    x 1.823570 0.004050 0.026960 
#    y 0.004050 1.866190 -0.006800 
#    z 0.026960 -0.006800 1.853830 
# 
# From -- ./inp_files/504979.got.cif
#   From: 2010.06.25/outbox.cif.g09.slc.cpg/sg2_253_cif.got.tgz:504979.got - 2010.06.27 13:26:56.
