data_PCOD8021687
_publ_section_title
;
Structure prediction by ZEFSAII (Michael W. Deem and Ramdas Pophale) SiO2 
 PCOD8021687
Probable space group: P -1
;
_chemical_formula_sum "Si O2"
_cell_formula_units_Z 16
_cell_length_a 13.077059
_cell_length_b 9.021248
_cell_length_c 9.629355
_cell_angle_alpha 127.374195
_cell_angle_beta 110.223290
_cell_angle_gamma 100.609762
_cell_volume 719.239748
_symmetry_space_group_name_H-M "P -1"
_symmetry_group_IT_number 2
_symmetry_cell_setting 'triclinic'
loop_
_space_group_symop_operation_xyz
x,y,z
-x,-y,-z
loop_
_atom_site_type_symbol
_atom_site_label
_atom_site_fract_x
_atom_site_fract_y
_atom_site_fract_z
Si Si1 0.387810 0.267695 0.991456
Si Si2 0.645833 0.194025 0.707206
Si Si3 0.338626 0.514778 0.881186
Si Si4 0.188201 0.424056 0.487837
Si Si5 0.174005 0.812977 0.610537
Si Si6 0.026568 0.015668 0.791776
Si Si7 0.720960 0.584164 0.758166
Si Si8 0.893580 0.253930 0.767025
O O1 0.315871 0.330074 0.876867
O O2 0.324634 0.006309 0.803257
O O3 0.536185 0.399323 0.104196
O O4 0.368916 0.331698 0.175554
O O5 0.685611 0.369939 0.705044
O O6 0.758169 0.138285 0.724931
O O7 0.500000 0.000000 0.500000
O O8 0.651377 0.284064 0.915247
O O9 0.226183 0.413056 0.658126
O O10 0.151273 0.609533 0.577705
O O11 0.295455 0.473142 0.447298
O O12 0.066323 0.182040 0.260353
O O13 0.138870 0.718058 0.387541
O O14 0.091148 0.917928 0.670373
O O15 0.945717 0.091185 0.706963
O O16 0.130987 0.226571 0.045083
O O17 0.000000 0.500000 0.000000
#
# Coordination Sequence:
#
# PCOD8021687 Si02
#       8
#     2   2   2   2   2   2   2   2
#     4   9  21  45  68  91 132 181 230 276 332 407
#     4  11  23  44  70  98 135 179 224 281 336 405
#     4  10  23  41  69  98 133 175 231 277 339 409
#     4  12  24  41  65 101 141 176 223 279 354 401
#     4  11  23  41  66  95 136 180 222 285 343 394
#     4  11  24  42  66  97 139 179 226 279 339 409
#     4  10  22  44  66  97 135 177 219 285 340 401
#     4  12  23  41  71 101 131 179 239 281 329 405
#
# _framework density 22.245712000000001
#
# number of rings (size 3 to 8) (size 9 to 14) (size 15 to 20)
#    0.000    1.250    2.500    2.625    1.750    3.000 
#    6.750    0.000    0.000    0.000    0.000    0.000 
#    0.000    0.000    0.000    0.000    0.000    0.000 
#
# Total GULP energy -198309.794978 kJ/mol
# GULP energy per Si atom -12394.362186 kJ/mol
# Density = 2.219508 g / cm^3
# Si number density = 22.245712 Si / 1000 Ang^3
#
#
#
# Elastic Constant Matrix: (Units=GPa)
#
#
# Indices 1 2 3 4 5 6 
#
# 1 99.0698 31.1182 37.6709 5.7546 4.0067 9.4618
# 2 31.1182 87.2358 38.8997 23.1347 -3.7974 4.6621
# 3 37.6709 38.8997 104.2216 8.5410 -8.3866 11.4897
# 4 5.7546 23.1347 8.5410 43.7235 11.5761 -5.7146
# 5 4.0067 -3.7974 -8.3866 11.5761 25.7432 0.2990
# 6 9.4618 4.6621 11.4897 -5.7146 0.2990 34.0594
#
#
#
# Elastic Compliance Matrix: (Units=1/GPa)
#
#
# Indices 1 2 3 4 5 6 
#
# 1 0.012823 -0.003574 -0.003665 0.001937 -0.004571 -0.001471
# 2 -0.003574 0.017393 -0.003658 -0.009968 0.006434 -0.001883
# 3 -0.003665 -0.003658 0.013242 -0.002003 0.005284 -0.003331
# 4 0.001937 -0.009968 -0.002003 0.033949 -0.017776 0.007354
# 5 -0.004571 0.006434 0.005284 -0.017776 0.050277 -0.004817
# 6 -0.001471 -0.001883 -0.003331 0.007354 -0.004817 0.032427
#
#
# Mechanical properties :
#
#
# Convention : Reuss Voigt Hill
#
# Bulk Modulus (GPa) = 46.16000 56.21163 51.18582
# Shear Modulus (GPa) = 26.43747 32.89444 29.66596
#
# Velocity S-wave (km/s) = 3.45110 3.84954 3.65575
# Velocity P-wave (km/s) = 6.05601 6.71431 6.39364
#
# Compressibility (1/GPa) = 0.02166378
#
# Stress axis : x y z
#
# Youngs Moduli (GPa) = 77.98451 57.49356 75.51953
#
# Poissons Ratio (x) = 0.20547 0.27681
# Poissons Ratio (y) = 0.27870 0.27624
# Poissons Ratio (z) = 0.28584 0.21031
#
# Static dielectric constant tensor:
#      x y z
#    x 4.294750 0.217530 -0.144110 
#    y 0.217530 3.971970 0.193630 
#    z -0.144110 0.193630 3.995480 
# 
# 
# High freq. dielectric constant tensor:
#      x y z
#    x 1.878620 0.017110 -0.012490 
#    y 0.017110 1.866510 0.013650 
#    z -0.012490 0.013650 1.882170 
# 
# From -- ./inp_files/299738.got.cif
#   From: 2010.06.25/outbox.cif.g09.slc.cpg/sg2_150_cif.got.tgz:299738.got - 2010.06.27 13:26:56.
