data_PCOD8021768
_publ_section_title
;
Structure prediction by ZEFSAII (Michael W. Deem and Ramdas Pophale) SiO2 
 PCOD8021768
Probable space group: P -1
;
_chemical_formula_sum "Si O2"
_cell_formula_units_Z 16
_cell_length_a 17.374315
_cell_length_b 8.524741
_cell_length_c 11.977413
_cell_angle_alpha 51.554235
_cell_angle_beta 127.148820
_cell_angle_gamma 147.915608
_cell_volume 725.218912
_symmetry_space_group_name_H-M "P -1"
_symmetry_group_IT_number 2
_symmetry_cell_setting 'triclinic'
loop_
_space_group_symop_operation_xyz
x,y,z
-x,-y,-z
loop_
_atom_site_type_symbol
_atom_site_label
_atom_site_fract_x
_atom_site_fract_y
_atom_site_fract_z
Si Si1 0.367650 0.256803 0.910022
Si Si2 0.130381 0.728822 0.426652
Si Si3 0.450529 0.145784 0.615181
Si Si4 0.893558 0.854889 0.863389
Si Si5 0.045482 0.844405 0.603522
Si Si6 0.602827 0.147935 0.919626
Si Si7 0.938846 0.189514 0.115430
Si Si8 0.629272 0.647644 0.382652
O O1 0.396718 0.411740 0.747083
O O2 0.231458 0.119776 0.928797
O O3 0.500000 0.500000 0.000000
O O4 0.331563 0.969732 0.978831
O O5 0.000000 0.500000 0.500000
O O6 0.091912 0.506115 0.397820
O O7 0.284006 0.892390 0.538497
O O8 0.131625 0.953792 0.277085
O O9 0.505515 0.028627 0.774242
O O10 0.564486 0.352302 0.520551
O O11 0.464742 0.323960 0.652644
O O12 0.734022 0.510842 0.896250
O O13 0.964665 0.844770 0.827194
O O14 0.000000 0.000000 0.000000
O O15 0.081627 0.827165 0.764069
O O16 0.195438 0.054096 0.567870
O O17 0.000000 0.000000 0.500000
O O18 0.500000 0.000000 0.000000
O O19 0.000000 0.500000 0.000000
#
# Coordination Sequence:
#
# PCOD8021768 Si02
#       8
#     2   2   2   2   2   2   2   2
#     4  11  26  45  70 104 147 191 238 294 365 438
#     4  12  26  44  73 107 141 186 247 294 350 440
#     4  11  24  43  75 102 144 182 246 297 358 422
#     4  12  28  46  77 110 139 191 252 294 360 439
#     4  11  25  44  69  99 146 186 231 293 366 423
#     4  12  27  47  75 104 147 193 239 305 363 425
#     4  11  24  45  68 100 147 187 231 303 363 420
#     4  10  22  44  68 101 140 184 233 297 358 419
#
# _framework density 22.062303
#
# number of rings (size 3 to 8) (size 9 to 14) (size 15 to 20)
#    0.000    0.750    3.750    3.000    7.000    3.000 
#    0.000    1.250    0.000    0.000    0.000    0.000 
#    0.000    0.000    0.000    0.000    0.000    0.000 
#
# Total GULP energy -198285.945889 kJ/mol
# GULP energy per Si atom -12392.871618 kJ/mol
# Density = 2.201209 g / cm^3
# Si number density = 22.062303 Si / 1000 Ang^3
#
#
#
# Elastic Constant Matrix: (Units=GPa)
#
#
# Indices 1 2 3 4 5 6 
#
# 1 92.5530 46.7967 31.5985 -13.3386 -1.5894 14.7517
# 2 46.7967 161.8196 66.2417 3.6462 -7.0117 19.5142
# 3 31.5985 66.2417 134.8744 -5.7747 1.7683 20.2860
# 4 -13.3386 3.6462 -5.7747 43.5655 2.7047 2.4464
# 5 -1.5894 -7.0117 1.7683 2.7047 34.4770 -10.3604
# 6 14.7517 19.5142 20.2860 2.4464 -10.3604 42.7269
#
#
#
# Elastic Compliance Matrix: (Units=1/GPa)
#
#
# Indices 1 2 3 4 5 6 
#
# 1 0.014067 -0.003472 -0.000842 0.004772 -0.001439 -0.003493
# 2 -0.003472 0.008847 -0.003572 -0.002359 0.001838 -0.000565
# 3 -0.000842 -0.003572 0.010002 0.001718 -0.002472 -0.003525
# 4 0.004772 -0.002359 0.001718 0.025259 -0.003430 -0.003664
# 5 -0.001439 0.001838 -0.002472 -0.003430 0.032376 0.008878
# 6 -0.003493 -0.000565 -0.003525 -0.003664 0.008878 0.028905
#
#
# Mechanical properties :
#
#
# Convention : Reuss Voigt Hill
#
# Bulk Modulus (GPa) = 58.32657 75.39120 66.85889
# Shear Modulus (GPa) = 35.47568 40.46123 37.96846
#
# Velocity S-wave (km/s) = 4.01431 4.28711 4.15295
# Velocity P-wave (km/s) = 6.92682 7.66498 7.30523
#
# Compressibility (1/GPa) = 0.01714485
#
# Stress axis : x y z
#
# Youngs Moduli (GPa) = 71.08653 113.03469 99.98200
#
# Poissons Ratio (x) = 0.39247 0.08417
# Poissons Ratio (y) = 0.24682 0.35710
# Poissons Ratio (z) = 0.05984 0.40372
#
# Static dielectric constant tensor:
#      x y z
#    x 4.147910 -0.002590 0.091520 
#    y -0.002590 4.577050 0.062090 
#    z 0.091520 0.062090 4.586010 
# 
# 
# High freq. dielectric constant tensor:
#      x y z
#    x 1.869560 0.017770 -0.002230 
#    y 0.017770 1.875230 0.001680 
#    z -0.002230 0.001680 1.882710 
# 
# From -- ./inp_files/383554.got.cif
#   From: 2010.06.25/outbox.cif.g09.slc.cpg/sg2_192_cif.got.tgz:383554.got - 2010.06.27 13:26:56.
