data_PCOD8021838
_publ_section_title
;
Structure prediction by ZEFSAII (Michael W. Deem and Ramdas Pophale) SiO2 
 PCOD8021838
Probable space group: P -1
;
_chemical_formula_sum "Si O2"
_cell_formula_units_Z 16
_cell_length_a 11.434499
_cell_length_b 16.963938
_cell_length_c 13.925782
_cell_angle_alpha 146.779412
_cell_angle_beta 149.192926
_cell_angle_gamma 53.085440
_cell_volume 687.776428
_symmetry_space_group_name_H-M "P -1"
_symmetry_group_IT_number 2
_symmetry_cell_setting 'triclinic'
loop_
_space_group_symop_operation_xyz
x,y,z
-x,-y,-z
loop_
_atom_site_type_symbol
_atom_site_label
_atom_site_fract_x
_atom_site_fract_y
_atom_site_fract_z
Si Si1 0.708695 0.959275 0.054505
Si Si2 0.729320 0.080104 0.813823
Si Si3 0.080041 0.568030 0.748564
Si Si4 0.273825 0.123195 0.225434
Si Si5 0.369104 0.464324 0.715514
Si Si6 0.883762 0.724677 0.288542
Si Si7 0.141050 0.513645 0.294086
Si Si8 0.707529 0.705219 0.937143
O O1 0.607673 0.874184 0.793648
O O2 0.777545 0.846723 0.056593
O O3 0.967661 0.116793 0.383289
O O4 0.500000 0.000000 0.000000
O O5 0.500000 0.000000 0.500000
O O6 0.658969 0.998046 0.785614
O O7 0.785812 0.264488 0.041806
O O8 0.975000 0.057812 0.929941
O O9 0.232015 0.462092 0.719160
O O10 0.791905 0.489787 0.429875
O O11 0.070004 0.578286 0.867088
O O12 0.379974 0.296918 0.527401
O O13 0.645732 0.604209 0.056818
O O14 0.076961 0.644058 0.327715
O O15 0.802646 0.770507 0.176442
O O16 0.411701 0.594479 0.618170
O O17 0.136588 0.392269 0.086001
#
# Coordination Sequence:
#
# PCOD8021838 Si02
#       8
#     2   2   2   2   2   2   2   2
#     4  12  27  49  72 104 147 191 234 303 363 417
#     4  10  23  44  72 106 138 189 231 285 357 428
#     4  10  22  44  69 105 145 181 230 295 359 416
#     4  10  25  48  69  99 147 182 233 294 352 418
#     4  10  23  44  73 101 139 188 233 293 354 425
#     4  12  26  43  72 105 137 192 247 290 355 428
#     4  11  24  43  74 103 141 188 238 297 356 421
#     4  11  24  48  70 102 146 187 244 294 356 423
#
# _framework density 23.263373000000001
#
# number of rings (size 3 to 8) (size 9 to 14) (size 15 to 20)
#    0.000    1.250    2.500    2.250    5.250    6.500 
#    2.250    0.000    0.000    0.000    0.000    0.000 
#    0.000    0.000    0.000    0.000    0.000    0.000 
#
# Total GULP energy -198361.897779 kJ/mol
# GULP energy per Si atom -12397.618611 kJ/mol
# Density = 2.321042 g / cm^3
# Si number density = 23.263373 Si / 1000 Ang^3
#
#
#
# Elastic Constant Matrix: (Units=GPa)
#
#
# Indices 1 2 3 4 5 6 
#
# 1 96.8826 39.2256 35.1535 -1.5029 6.1399 1.3777
# 2 39.2256 108.2927 26.7474 13.2420 -5.4674 10.4930
# 3 35.1535 26.7474 107.3995 15.6991 3.4741 -4.4002
# 4 -1.5029 13.2420 15.6991 33.5887 7.4792 -1.8519
# 5 6.1399 -5.4674 3.4741 7.4792 18.6247 4.5364
# 6 1.3777 10.4930 -4.4002 -1.8519 4.5364 34.6710
#
#
#
# Elastic Compliance Matrix: (Units=1/GPa)
#
#
# Indices 1 2 3 4 5 6 
#
# 1 0.014855 -0.005945 -0.004023 0.007085 -0.009295 0.002293
# 2 -0.005945 0.013693 -0.000887 -0.007971 0.010772 -0.005856
# 3 -0.004023 -0.000887 0.011672 -0.005348 0.000662 0.001538
# 4 0.007085 -0.007971 -0.005348 0.040917 -0.021686 0.006475
# 5 -0.009295 0.010772 0.000662 -0.021686 0.071756 -0.013354
# 6 0.002293 -0.005856 0.001538 0.006475 -0.013354 0.032812
#
#
# Mechanical properties :
#
#
# Convention : Reuss Voigt Hill
#
# Bulk Modulus (GPa) = 54.02625 57.20310 55.61468
# Shear Modulus (GPa) = 23.40995 31.47344 27.44169
#
# Velocity S-wave (km/s) = 3.17567 3.68219 3.43827
# Velocity P-wave (km/s) = 6.05975 6.53611 6.30244
#
# Compressibility (1/GPa) = 0.01850952
#
# Stress axis : x y z
#
# Youngs Moduli (GPa) = 67.31871 73.03160 85.67467
#
# Poissons Ratio (x) = 0.43417 0.34464
# Poissons Ratio (y) = 0.40020 0.07603
# Poissons Ratio (z) = 0.27080 0.06481
#
# Static dielectric constant tensor:
#      x y z
#    x 4.112330 0.031890 0.015850 
#    y 0.031890 4.410060 0.001550 
#    z 0.015850 0.001550 4.464820 
# 
# 
# High freq. dielectric constant tensor:
#      x y z
#    x 1.914710 -0.000150 0.002360 
#    y -0.000150 1.926830 -0.003140 
#    z 0.002360 -0.003140 1.916590 
# 
# From -- ./inp_files/523498.got.cif
#   From: 2010.06.25/outbox.cif.g09.slc.cpg/sg2_262_cif.got.tgz:523498.got - 2010.06.27 13:26:56.
