data_PCOD8021153
_publ_section_title
;
Structure prediction by ZEFSAII (Michael W. Deem and Ramdas Pophale) SiO2 
 PCOD8021153
Probable space group: P -1
;
_chemical_formula_sum "Si O2"
_cell_formula_units_Z 16
_cell_length_a 8.548640
_cell_length_b 15.096542
_cell_length_c 6.574471
_cell_angle_alpha 111.032541
_cell_angle_beta 77.512414
_cell_angle_gamma 108.324199
_cell_volume 746.647067
_symmetry_space_group_name_H-M "P -1"
_symmetry_group_IT_number 2
_symmetry_cell_setting 'triclinic'
loop_
_space_group_symop_operation_xyz
x,y,z
-x,-y,-z
loop_
_atom_site_type_symbol
_atom_site_label
_atom_site_fract_x
_atom_site_fract_y
_atom_site_fract_z
Si Si1 0.457731 0.894236 0.021097
Si Si2 0.667954 0.261340 0.399895
Si Si3 0.976163 0.766331 0.814783
Si Si4 0.145999 0.136654 0.437268
Si Si5 0.427408 0.200473 0.747427
Si Si6 0.124288 0.922983 0.213086
Si Si7 0.470769 0.556526 0.359814
Si Si8 0.689561 0.626639 0.003458
O O1 0.588674 0.886902 0.156061
O O2 0.278498 0.876656 0.159959
O O3 0.449914 0.809820 0.787992
O O4 0.500000 0.000000 0.000000
O O5 0.605420 0.217848 0.602975
O O6 0.634032 0.368075 0.480293
O O7 0.861179 0.266357 0.327202
O O8 0.866971 0.782347 0.662804
O O9 0.877156 0.681693 0.928635
O O10 0.018146 0.869922 0.006882
O O11 0.281065 0.181104 0.607358
O O12 0.969238 0.098444 0.564534
O O13 0.185847 0.040331 0.245415
O O14 0.422218 0.298015 0.959262
O O15 0.500000 0.500000 0.500000
O O16 0.648464 0.607391 0.242240
O O17 0.357562 0.478152 0.175864
#
# Coordination Sequence:
#
# PCOD8021153 Si02
#       8
#     2   2   2   2   2   2   2   2
#     4  11  24  39  62  90 131 169 211 265 311 367
#     4  10  24  42  64  93 127 169 204 261 321 371
#     4  11  23  41  63  92 130 162 213 259 316 372
#     4  11  23  37  65  87 128 175 210 262 309 370
#     4  11  23  40  63  94 125 165 221 252 313 378
#     4  10  23  39  55  92 128 169 215 254 315 363
#     4  10  22  43  68  94 123 162 208 263 323 377
#     4  10  23  39  67  93 122 160 211 265 306 382
#
# _framework density 21.429134000000001
#
# number of rings (size 3 to 8) (size 9 to 14) (size 15 to 20)
#    0.000    1.500    1.250    2.625    7.000    6.500 
#    0.000    0.625    0.000    0.000    0.000    0.000 
#    0.000    0.000    0.000    0.000    0.000    0.000 
#
# Total GULP energy -198268.839026 kJ/mol
# GULP energy per Si atom -12391.802439 kJ/mol
# Density = 2.138036 g / cm^3
# Si number density = 21.429134 Si / 1000 Ang^3
#
#
#
# Elastic Constant Matrix: (Units=GPa)
#
#
# Indices 1 2 3 4 5 6 
#
# 1 75.2115 49.5240 51.9530 -5.7664 2.2543 -4.4761
# 2 49.5240 152.4610 66.5532 -1.8946 5.2985 -11.6691
# 3 51.9530 66.5532 99.5829 12.8289 -9.7244 -16.6572
# 4 -5.7664 -1.8946 12.8289 49.3197 -2.6403 1.4306
# 5 2.2543 5.2985 -9.7244 -2.6403 40.4351 -7.7847
# 6 -4.4761 -11.6691 -16.6572 1.4306 -7.7847 32.8832
#
#
#
# Elastic Compliance Matrix: (Units=1/GPa)
#
#
# Indices 1 2 3 4 5 6 
#
# 1 0.024330 -0.002220 -0.013452 0.006157 -0.005004 -0.005743
# 2 -0.002220 0.010005 -0.006078 0.001579 -0.002647 -0.000526
# 3 -0.013452 -0.006078 0.024930 -0.008124 0.009161 0.011163
# 4 0.006157 0.001579 -0.008124 0.023194 -0.001788 -0.004149
# 5 -0.005004 -0.002647 0.009161 -0.001788 0.029378 0.010053
# 6 -0.005743 -0.000526 0.011163 -0.004149 0.010053 0.037657
#
#
# Mechanical properties :
#
#
# Convention : Reuss Voigt Hill
#
# Bulk Modulus (GPa) = 63.43172 73.70176 68.56674
# Shear Modulus (GPa) = 25.22073 35.14262 30.18167
#
# Velocity S-wave (km/s) = 3.43437 4.05402 3.75699
# Velocity P-wave (km/s) = 6.73732 7.50875 7.13347
#
# Compressibility (1/GPa) = 0.01576498
#
# Stress axis : x y z
#
# Youngs Moduli (GPa) = 41.10176 99.95152 40.11208
#
# Poissons Ratio (x) = 0.22191 0.53957
# Poissons Ratio (y) = 0.09125 0.24381
# Poissons Ratio (z) = 0.55289 0.60752
#
# Static dielectric constant tensor:
#      x y z
#    x 3.770450 -0.024550 -0.514370 
#    y -0.024550 3.735860 -0.321920 
#    z -0.514370 -0.321920 3.600790 
# 
# 
# High freq. dielectric constant tensor:
#      x y z
#    x 1.822930 0.003850 -0.024930 
#    y 0.003850 1.843230 0.000770 
#    z -0.024930 0.000770 1.859200 
# 
# From -- ./inp_files/39777.got.cif
#   From: 2010.06.25/outbox.cif.g09.slc.cpg/sg2_20_cif.got.tgz:39777.got - 2010.06.27 13:26:56.
