data_PCOD8021434
_publ_section_title
;
Structure prediction by ZEFSAII (Michael W. Deem and Ramdas Pophale) SiO2 
 PCOD8021434
Probable space group: P -1
;
_chemical_formula_sum "Si O2"
_cell_formula_units_Z 14
_cell_length_a 9.252423
_cell_length_b 8.431254
_cell_length_c 18.312351
_cell_angle_alpha 109.393579
_cell_angle_beta 31.182036
_cell_angle_gamma 121.860413
_cell_volume 604.547695
_symmetry_space_group_name_H-M "P -1"
_symmetry_group_IT_number 2
_symmetry_cell_setting 'triclinic'
loop_
_space_group_symop_operation_xyz
x,y,z
-x,-y,-z
loop_
_atom_site_type_symbol
_atom_site_label
_atom_site_fract_x
_atom_site_fract_y
_atom_site_fract_z
Si Si1 0.845676 0.596949 0.324414
Si Si2 0.957091 0.823154 0.537931
Si Si3 0.772470 0.397659 0.186437
Si Si4 0.797782 0.399868 0.693651
Si Si5 0.133443 0.949268 0.145911
Si Si6 0.867358 0.149598 0.377871
Si Si7 0.905531 0.726478 0.073883
O O1 0.500000 0.500000 0.500000
O O2 0.859695 0.436471 0.240779
O O3 0.140277 0.672718 0.266318
O O4 0.901540 0.773604 0.274297
O O5 0.592021 0.656900 0.673758
O O6 0.149124 0.718763 0.411168
O O7 0.072002 0.917009 0.580994
O O8 0.000000 0.000000 0.500000
O O9 0.962682 0.591694 0.085968
O O10 0.853362 0.237125 0.093455
O O11 0.439042 0.359426 0.829386
O O12 0.053889 0.628997 0.616405
O O13 0.012098 0.914318 0.107822
O O14 0.098348 0.131953 0.214960
O O15 0.500000 0.000000 0.000000
O O16 0.500000 0.000000 0.500000
#
# Coordination Sequence:
#
# PCOD8021434 Si02
#       7
#     2   2   2   2   2   2   2
#     4  11  23  43  72 102 139 187 235 291 355 423
#     4  12  25  43  69 100 137 185 232 284 352 423
#     4  10  22  43  72  94 135 184 231 273 357 420
#     4  12  25  43  70 104 140 177 241 295 347 416
#     4  11  25  47  72  99 142 189 236 287 359 429
#     4  12  26  41  67 103 141 180 233 297 351 412
#     4  10  23  45  70 100 133 185 231 287 345 422
#
# _framework density 23.157806999999998
#
# number of rings (size 3 to 8) (size 9 to 14) (size 15 to 20)
#    0.000    0.857    2.857    3.857    8.000    0.571 
#    0.000    1.429    0.000    0.000    0.000    0.000 
#    0.000    0.000    0.000    0.000    0.000    0.000 
#
# Total GULP energy -173524.036824 kJ/mol
# GULP energy per Si atom -12394.574059 kJ/mol
# Density = 2.310510 g / cm^3
# Si number density = 23.157807 Si / 1000 Ang^3
#
#
#
# Elastic Constant Matrix: (Units=GPa)
#
#
# Indices 1 2 3 4 5 6 
#
# 1 112.6604 12.1771 23.7497 15.7382 3.9821 37.8050
# 2 12.1771 84.7235 23.1434 22.5689 12.1631 13.0965
# 3 23.7497 23.1434 114.9011 27.9109 7.7279 16.7859
# 4 15.7382 22.5689 27.9109 44.2431 12.7014 7.6713
# 5 3.9821 12.1631 7.7279 12.7014 41.1715 3.1042
# 6 37.8050 13.0965 16.7859 7.6713 3.1042 44.4638
#
#
#
# Elastic Compliance Matrix: (Units=1/GPa)
#
#
# Indices 1 2 3 4 5 6 
#
# 1 0.012796 0.000624 -0.000599 -0.002788 0.000333 -0.010379
# 2 0.000624 0.014314 -0.001008 -0.005728 -0.002089 -0.003232
# 3 -0.000599 -0.001008 0.010736 -0.005731 0.000280 -0.002277
# 4 -0.002788 -0.005728 -0.005731 0.031903 -0.006895 0.001198
# 5 0.000333 -0.002089 0.000280 -0.006895 0.026983 -0.000468
# 6 -0.010379 -0.003232 -0.002277 0.001198 -0.000468 0.032953
#
#
# Mechanical properties :
#
#
# Convention : Reuss Voigt Hill
#
# Bulk Modulus (GPa) = 27.87191 47.82504 37.84847
# Shear Modulus (GPa) = 34.81611 42.85666 38.83639
#
# Velocity S-wave (km/s) = 3.88161 4.30657 4.09960
# Velocity P-wave (km/s) = 5.67019 6.73983 6.22802
#
# Compressibility (1/GPa) = 0.03587842
#
# Stress axis : x y z
#
# Youngs Moduli (GPa) = 78.15106 69.86138 93.14401
#
# Poissons Ratio (x) = -0.04358 0.05583
# Poissons Ratio (y) = -0.04875 0.09390
# Poissons Ratio (z) = 0.04685 0.07043
#
# Static dielectric constant tensor:
#      x y z
#    x 4.384930 0.341080 0.327200 
#    y 0.341080 4.177060 0.418130 
#    z 0.327200 0.418130 4.216180 
# 
# 
# High freq. dielectric constant tensor:
#      x y z
#    x 1.924060 0.025680 0.006170 
#    y 0.025680 1.906850 0.017950 
#    z 0.006170 0.017950 1.918450 
# 
# From -- ./inp_files/199870.got.cif
#   From: 2010.06.25/outbox.cif.g09.slc.cpg/sg2_100_cif.got.tgz:199870.got - 2010.06.27 13:26:56.
