data_PCOD8021079
_publ_section_title
;
Structure prediction by ZEFSAII (Michael W. Deem and Ramdas Pophale) SiO2 
 PCOD8021079
Probable space group: P -1
;
_chemical_formula_sum "Si O2"
_cell_formula_units_Z 16
_cell_length_a 18.819289
_cell_length_b 24.564112
_cell_length_c 30.138025
_cell_angle_alpha 10.064225
_cell_angle_beta 17.524364
_cell_angle_gamma 18.184889
_cell_volume 716.494933
_symmetry_space_group_name_H-M "P -1"
_symmetry_group_IT_number 2
_symmetry_cell_setting 'triclinic'
loop_
_space_group_symop_operation_xyz
x,y,z
-x,-y,-z
loop_
_atom_site_type_symbol
_atom_site_label
_atom_site_fract_x
_atom_site_fract_y
_atom_site_fract_z
Si Si1 0.482213 0.696210 0.545994
Si Si2 0.203980 0.871457 0.016978
Si Si3 0.366163 0.406499 0.612449
Si Si4 0.174279 0.220299 0.365679
Si Si5 0.641287 0.264308 0.874475
Si Si6 0.417644 0.669925 0.812232
Si Si7 0.644925 0.658348 0.172777
Si Si8 0.186151 0.674784 0.858094
O O1 0.655972 0.545587 0.604858
O O2 0.389750 0.420081 0.795544
O O3 0.255032 0.968312 0.479504
O O4 0.638645 0.859779 0.288285
O O5 0.152217 0.795242 0.161197
O O6 0.338198 0.549163 0.173693
O O7 0.000000 0.000000 0.000000
O O8 0.500000 0.500000 0.500000
O O9 0.537321 0.411668 0.464108
O O10 0.111476 0.654248 0.563571
O O11 0.328820 0.047064 0.924210
O O12 0.241587 0.012361 0.537135
O O13 0.317689 0.514465 0.040494
O O14 0.379970 0.371275 0.967850
O O15 0.199569 0.688228 0.892423
O O16 0.500000 0.000000 0.500000
O O17 0.927072 0.623812 0.039464
O O18 0.500000 0.000000 0.000000
#
# Coordination Sequence:
#
# PCOD8021079 Si02
#       8
#     2   2   2   2   2   2   2   2
#     4  10  23  43  66  92 135 177 221 264 338 396
#     4  10  22  43  67  95 128 171 222 275 335 393
#     4  12  24  38  62 100 136 169 229 269 322 387
#     4  10  23  43  63  94 132 172 213 273 333 390
#     4  10  23  41  62  96 130 170 221 276 326 392
#     4  10  23  43  67  97 126 170 223 276 334 394
#     4  12  23  39  66  98 134 180 221 267 325 397
#     4  10  23  42  65  93 136 175 221 265 336 393
#
# _framework density 22.330933000000002
#
# number of rings (size 3 to 8) (size 9 to 14) (size 15 to 20)
#    0.000    1.500    2.500    1.500    1.750    5.500 
#    0.000    2.500    0.000    0.000    0.000    0.000 
#    0.000    0.000    0.000    0.000    0.000    0.000 
#
# Total GULP energy -198217.616944 kJ/mol
# GULP energy per Si atom -12388.601059 kJ/mol
# Density = 2.228011 g / cm^3
# Si number density = 22.330933 Si / 1000 Ang^3
#
#
#
# Elastic Constant Matrix: (Units=GPa)
#
#
# Indices 1 2 3 4 5 6 
#
# 1 117.7749 42.0906 40.8391 -8.2160 5.8224 -20.2780
# 2 42.0906 65.4007 32.6797 -17.3565 -5.3795 -9.8197
# 3 40.8391 32.6797 111.0877 -14.2406 7.0888 -4.1191
# 4 -8.2160 -17.3565 -14.2406 26.0720 3.8846 7.9859
# 5 5.8224 -5.3795 7.0888 3.8846 34.2935 3.1266
# 6 -20.2780 -9.8197 -4.1191 7.9859 3.1266 30.0510
#
#
#
# Elastic Compliance Matrix: (Units=1/GPa)
#
#
# Indices 1 2 3 4 5 6 
#
# 1 0.013238 -0.007343 -0.002754 -0.004081 -0.003057 0.007558
# 2 -0.007343 0.025236 -0.003494 0.012163 0.004632 -0.000902
# 3 -0.002754 -0.003494 0.011686 0.004292 -0.002777 -0.002250
# 4 -0.004081 0.012163 0.004292 0.051509 -0.003067 -0.011560
# 5 -0.003057 0.004632 -0.002777 -0.003067 0.031638 -0.003406
# 6 0.007558 -0.000902 -0.002250 -0.011560 -0.003406 0.041200
#
#
# Mechanical properties :
#
#
# Convention : Reuss Voigt Hill
#
# Bulk Modulus (GPa) = 43.52132 58.38690 50.95411
# Shear Modulus (GPa) = 23.88365 29.99356 26.93860
#
# Velocity S-wave (km/s) = 3.27392 3.66886 3.47700
# Velocity P-wave (km/s) = 5.81575 6.64457 6.24393
#
# Compressibility (1/GPa) = 0.02297725
#
# Stress axis : x y z
#
# Youngs Moduli (GPa) = 75.54095 39.62654 85.56997
#
# Poissons Ratio (x) = 0.29097 0.23568
# Poissons Ratio (y) = 0.55469 0.29899
# Poissons Ratio (z) = 0.20806 0.13846
#
# Static dielectric constant tensor:
#      x y z
#    x 4.289740 0.051840 0.463580 
#    y 0.051840 4.141690 -0.165640 
#    z 0.463580 -0.165640 4.296470 
# 
# 
# High freq. dielectric constant tensor:
#      x y z
#    x 1.881060 -0.000720 0.020370 
#    y -0.000720 1.872550 -0.017710 
#    z 0.020370 -0.017710 1.883990 
# 
# From -- ./inp_files/297391.got.cif
#   From: 2010.06.25/outbox.cif.g09.slc.cpg/sg2_149_cif.got.tgz:297391.got - 2010.06.27 13:26:56.
