data_PCOD8021600
_publ_section_title
;
Structure prediction by ZEFSAII (Michael W. Deem and Ramdas Pophale) SiO2 
 PCOD8021600
Probable space group: P -1
;
_chemical_formula_sum "Si O2"
_cell_formula_units_Z 16
_cell_length_a 9.231785
_cell_length_b 9.109866
_cell_length_c 11.740304
_cell_angle_alpha 81.981639
_cell_angle_beta 123.189582
_cell_angle_gamma 118.380435
_cell_volume 717.141907
_symmetry_space_group_name_H-M "P -1"
_symmetry_group_IT_number 2
_symmetry_cell_setting 'triclinic'
loop_
_space_group_symop_operation_xyz
x,y,z
-x,-y,-z
loop_
_atom_site_type_symbol
_atom_site_label
_atom_site_fract_x
_atom_site_fract_y
_atom_site_fract_z
Si Si1 0.302919 0.512511 0.904273
Si Si2 0.099848 0.645866 0.939031
Si Si3 0.106376 0.190432 0.737966
Si Si4 0.403023 0.421253 0.641734
Si Si5 0.545945 0.266787 0.249619
Si Si6 0.299067 0.848194 0.474178
Si Si7 0.754124 0.472497 0.643729
Si Si8 0.837883 0.994929 0.017233
O O1 0.289934 0.623339 0.990021
O O2 0.127889 0.320906 0.835044
O O3 0.284789 0.602957 0.773358
O O4 0.500000 0.500000 0.000000
O O5 0.958479 0.605289 0.774099
O O6 0.159892 0.826403 0.998633
O O7 0.000000 0.500000 0.000000
O O8 0.267693 0.282682 0.695113
O O9 0.136686 0.049145 0.835528
O O10 0.881178 0.107443 0.603399
O O11 0.516468 0.616768 0.713410
O O12 0.577956 0.390744 0.671019
O O13 0.271427 0.414908 0.477766
O O14 0.649045 0.178996 0.372990
O O15 0.369208 0.137373 0.109820
O O16 0.229346 0.683149 0.385355
O O17 0.500000 0.000000 0.500000
O O18 0.000000 0.000000 0.000000
#
# Coordination Sequence:
#
# PCOD8021600 Si02
#       8
#     2   2   2   2   2   2   2   2
#     4  11  23  45  70 100 137 179 232 289 351 415
#     4  12  28  42  72  98 138 187 235 283 356 421
#     4  11  23  43  73 103 135 185 234 287 357 415
#     4   9  22  41  72  96 138 182 226 289 349 417
#     4  10  23  40  69  97 137 180 227 285 350 410
#     4  11  24  43  68  98 135 186 235 286 346 415
#     4  10  22  44  65 101 134 180 236 284 346 422
#     4  12  25  44  69 104 143 179 236 294 352 414
#
# _framework density 22.310786
#
# number of rings (size 3 to 8) (size 9 to 14) (size 15 to 20)
#    0.000    1.250    2.500    2.250    7.000    4.000 
#    2.250    1.250    0.000    0.000    0.000    0.000 
#    0.000    0.000    0.000    0.000    0.000    0.000 
#
# Total GULP energy -198252.287573 kJ/mol
# GULP energy per Si atom -12390.767973 kJ/mol
# Density = 2.226001 g / cm^3
# Si number density = 22.310786 Si / 1000 Ang^3
#
#
#
# Elastic Constant Matrix: (Units=GPa)
#
#
# Indices 1 2 3 4 5 6 
#
# 1 119.1586 25.7108 34.2952 -15.8174 1.6011 -5.5453
# 2 25.7108 90.1198 31.4692 -19.9800 1.6751 1.6708
# 3 34.2952 31.4692 119.3070 -16.9614 9.0723 5.5382
# 4 -15.8174 -19.9800 -16.9614 37.8050 9.0660 -2.7918
# 5 1.6011 1.6751 9.0723 9.0660 36.6902 -0.0435
# 6 -5.5453 1.6708 5.5382 -2.7918 -0.0435 30.4356
#
#
#
# Elastic Compliance Matrix: (Units=1/GPa)
#
#
# Indices 1 2 3 4 5 6 
#
# 1 0.009803 -0.001504 -0.002122 0.002656 -0.000488 0.002498
# 2 -0.001504 0.013641 -0.002205 0.005940 -0.001480 -0.000079
# 3 -0.002122 -0.002205 0.010358 0.003215 -0.003164 -0.001860
# 4 0.002656 0.005940 0.003215 0.034685 -0.009749 0.002740
# 5 -0.000488 -0.001480 -0.003164 -0.009749 0.030535 -0.000282
# 6 0.002498 -0.000079 -0.001860 0.002740 -0.000282 0.033905
#
#
# Mechanical properties :
#
#
# Convention : Reuss Voigt Hill
#
# Bulk Modulus (GPa) = 45.17041 56.83731 51.00386
# Shear Modulus (GPa) = 32.90137 36.79351 34.84744
#
# Velocity S-wave (km/s) = 3.84433 4.06536 3.95639
# Velocity P-wave (km/s) = 6.32417 6.89687 6.61672
#
# Compressibility (1/GPa) = 0.02213838
#
# Stress axis : x y z
#
# Youngs Moduli (GPa) = 102.01077 73.30671 96.54816
#
# Poissons Ratio (x) = 0.11026 0.20492
# Poissons Ratio (y) = 0.15343 0.21290
# Poissons Ratio (z) = 0.21652 0.16165
#
# Static dielectric constant tensor:
#      x y z
#    x 4.060540 -0.404290 0.099720 
#    y -0.404290 4.796050 -0.611350 
#    z 0.099720 -0.611350 4.591290 
# 
# 
# High freq. dielectric constant tensor:
#      x y z
#    x 1.873850 0.005400 -0.000910 
#    y 0.005400 1.871320 -0.009820 
#    z -0.000910 -0.009820 1.896050 
# 
# From -- ./inp_files/382072.got.cif
#   From: 2010.06.25/outbox.cif.g09.slc.cpg/sg2_192_cif.got.tgz:382072.got - 2010.06.27 13:26:56.
