data_PCOD8021823
_publ_section_title
;
Structure prediction by ZEFSAII (Michael W. Deem and Ramdas Pophale) SiO2 
 PCOD8021823
Probable space group: P -1
;
_chemical_formula_sum "Si O2"
_cell_formula_units_Z 14
_cell_length_a 11.209060
_cell_length_b 9.380649
_cell_length_c 9.413276
_cell_angle_alpha 45.410424
_cell_angle_beta 66.491122
_cell_angle_gamma 84.952575
_cell_volume 617.792622
_symmetry_space_group_name_H-M "P -1"
_symmetry_group_IT_number 2
_symmetry_cell_setting 'triclinic'
loop_
_space_group_symop_operation_xyz
x,y,z
-x,-y,-z
loop_
_atom_site_type_symbol
_atom_site_label
_atom_site_fract_x
_atom_site_fract_y
_atom_site_fract_z
Si Si1 0.865132 0.214838 0.420358
Si Si2 0.429456 0.380832 0.978759
Si Si3 0.377892 0.032029 0.439928
Si Si4 0.852698 0.362239 0.626651
Si Si5 0.866675 0.767587 0.844254
Si Si6 0.676326 0.650261 0.546480
Si Si7 0.857557 0.927967 0.037062
O O1 0.840023 0.350755 0.469457
O O2 0.012142 0.324128 0.201937
O O3 0.739734 0.184687 0.388314
O O4 0.873049 0.989049 0.620192
O O5 0.428695 0.140769 0.184794
O O6 0.278084 0.396580 0.012915
O O7 0.500000 0.500000 0.000000
O O8 0.519959 0.497036 0.719660
O O9 0.305064 0.182442 0.452025
O O10 0.500000 0.000000 0.500000
O O11 0.758717 0.486506 0.655363
O O12 0.000000 0.500000 0.500000
O O13 0.813631 0.130247 0.871635
O O14 0.879286 0.790373 0.991474
O O15 0.730857 0.781420 0.287550
O O16 0.000000 0.000000 0.000000
#
# Coordination Sequence:
#
# PCOD8021823 Si02
#       7
#     2   2   2   2   2   2   2
#     4   9  20  40  69  97 133 173 224 273 338 389
#     4   9  21  40  63  94 130 177 221 266 336 391
#     4  10  22  44  69 100 134 179 226 272 336 404
#     4  11  24  41  67 102 136 175 221 280 337 394
#     4   9  19  39  68  93 129 179 221 273 325 401
#     4  11  24  43  67  95 139 174 223 273 336 399
#     4  11  22  41  66 100 134 174 221 274 341 388
#
# _framework density 22.661327
#
# number of rings (size 3 to 8) (size 9 to 14) (size 15 to 20)
#    0.000    2.000    1.429    0.857   10.000    0.571 
#    7.714    2.857    0.000    0.000    0.000    0.000 
#    0.000    0.000    0.000    0.000    0.000    0.000 
#
# Total GULP energy -173439.400924 kJ/mol
# GULP energy per Si atom -12388.528637 kJ/mol
# Density = 2.260975 g / cm^3
# Si number density = 22.661327 Si / 1000 Ang^3
#
#
#
# Elastic Constant Matrix: (Units=GPa)
#
#
# Indices 1 2 3 4 5 6 
#
# 1 175.1475 60.7465 60.1840 9.6393 -31.5973 25.8236
# 2 60.7465 101.4014 23.0499 15.2914 -0.5727 0.8281
# 3 60.1840 23.0499 151.2420 8.7962 -19.5067 -7.2377
# 4 9.6393 15.2914 8.7962 26.6561 -3.8229 4.4188
# 5 -31.5973 -0.5727 -19.5067 -3.8229 42.4394 -3.2322
# 6 25.8236 0.8281 -7.2377 4.4188 -3.2322 37.9697
#
#
#
# Elastic Compliance Matrix: (Units=1/GPa)
#
#
# Indices 1 2 3 4 5 6 
#
# 1 0.011133 -0.006273 -0.003189 0.002840 0.006398 -0.007829
# 2 -0.006273 0.014637 0.000323 -0.007651 -0.004670 0.004501
# 3 -0.003189 0.000323 0.008366 -0.002254 0.001589 0.004154
# 4 0.002840 -0.007651 -0.002254 0.043385 0.004360 -0.006872
# 5 0.006398 -0.004670 0.001589 0.004360 0.029237 -0.001965
# 6 -0.007829 0.004501 0.004154 -0.006872 -0.001965 0.032987
#
#
# Mechanical properties :
#
#
# Convention : Reuss Voigt Hill
#
# Bulk Modulus (GPa) = 63.05239 79.52796 71.29017
# Shear Modulus (GPa) = 30.61702 40.33377 35.47539
#
# Velocity S-wave (km/s) = 3.67968 4.22340 3.96088
# Velocity P-wave (km/s) = 6.77772 7.67810 7.24192
#
# Compressibility (1/GPa) = 0.01585983
#
# Stress axis : x y z
#
# Youngs Moduli (GPa) = 89.82352 68.32140 119.52616
#
# Poissons Ratio (x) = 0.42856 0.38114
# Poissons Ratio (y) = 0.56344 -0.03866
# Poissons Ratio (z) = 0.28643 -0.02210
#
# Static dielectric constant tensor:
#      x y z
#    x 3.940340 0.256170 -0.330350 
#    y 0.256170 3.914430 -0.053530 
#    z -0.330350 -0.053530 4.924150 
# 
# 
# High freq. dielectric constant tensor:
#      x y z
#    x 1.890630 0.007530 -0.011660 
#    y 0.007530 1.877570 -0.005480 
#    z -0.011660 -0.005480 1.905480 
# 
# From -- ./inp_files/241904.got.cif
#   From: 2010.06.25/outbox.cif.g09.slc.cpg/sg2_121_cif.got.tgz:241904.got - 2010.06.27 13:26:56.
