data_PCOD8021206
_publ_section_title
;
Structure prediction by ZEFSAII (Michael W. Deem and Ramdas Pophale) SiO2 
 PCOD8021206
Probable space group: P -1
;
_chemical_formula_sum "Si O2"
_cell_formula_units_Z 16
_cell_length_a 20.833297
_cell_length_b 8.426618
_cell_length_c 11.471740
_cell_angle_alpha 66.372330
_cell_angle_beta 28.457763
_cell_angle_gamma 60.085322
_cell_volume 828.331104
_symmetry_space_group_name_H-M "P -1"
_symmetry_group_IT_number 2
_symmetry_cell_setting 'triclinic'
loop_
_space_group_symop_operation_xyz
x,y,z
-x,-y,-z
loop_
_atom_site_type_symbol
_atom_site_label
_atom_site_fract_x
_atom_site_fract_y
_atom_site_fract_z
Si Si1 0.039911 0.711067 0.898352
Si Si2 0.281864 0.023128 0.901819
Si Si3 0.203496 0.395726 0.592913
Si Si4 0.258130 0.570677 0.787183
Si Si5 0.901204 0.643036 0.475824
Si Si6 0.906792 0.100138 0.929763
Si Si7 0.172502 0.325870 0.165359
Si Si8 0.574472 0.729316 0.543930
O O1 0.131902 0.616782 0.664168
O O2 0.116364 0.604737 0.924005
O O3 0.014792 0.928274 0.878566
O O4 0.883992 0.691800 0.153639
O O5 0.343084 0.148348 0.685791
O O6 0.406174 0.832220 0.789564
O O7 0.220970 0.125067 0.089557
O O8 0.149027 0.979130 0.069948
O O9 0.198108 0.333451 0.486782
O O10 0.365812 0.319540 0.404918
O O11 0.396135 0.463147 0.519514
O O12 0.238448 0.777929 0.802696
O O13 0.261454 0.443573 0.930781
O O14 0.795936 0.694802 0.740322
O O15 0.001253 0.769721 0.283417
O O16 0.003038 0.430571 0.384515
#
# Coordination Sequence:
#
# PCOD8021206 Si02
#       8
#     2   2   2   2   2   2   2   2
#     4  10  17  28  50  77 101 120 154 202 255 286
#     4  10  19  32  50  68  98 134 166 198 231 288
#     4  10  17  31  50  71  97 129 159 197 239 295
#     4   9  18  31  50  75 103 124 155 204 249 285
#     4  10  20  31  51  76 100 126 159 200 250 285
#     4  11  19  27  48  80 104 121 149 208 253 285
#     4   9  18  35  49  70 100 132 166 191 234 300
#     4   9  19  33  49  70  95 134 169 191 237 293
#
# _framework density 19.315946
#
# number of rings (size 3 to 8) (size 9 to 14) (size 15 to 20)
#    0.000    2.250    3.750    1.125    0.000    1.000 
#    0.000    1.875    0.000    0.000    0.000   11.375 
#    0.000    0.000    0.000    0.000    0.000    0.000 
#
# Total GULP energy -198209.456941 kJ/mol
# GULP energy per Si atom -12388.091059 kJ/mol
# Density = 1.927198 g / cm^3
# Si number density = 19.315946 Si / 1000 Ang^3
#
#
#
# Elastic Constant Matrix: (Units=GPa)
#
#
# Indices 1 2 3 4 5 6 
#
# 1 106.5276 36.0898 36.1984 11.5534 26.4910 1.5245
# 2 36.0898 108.9240 33.6611 29.7311 11.4571 5.6715
# 3 36.1984 33.6611 47.5036 19.2773 13.6479 -0.3860
# 4 11.5534 29.7311 19.2773 26.8509 5.1536 2.2482
# 5 26.4910 11.4571 13.6479 5.1536 21.3253 7.6771
# 6 1.5245 5.6715 -0.3860 2.2482 7.6771 24.9967
#
#
#
# Elastic Compliance Matrix: (Units=1/GPa)
#
#
# Indices 1 2 3 4 5 6 
#
# 1 0.016530 -0.002764 -0.007462 0.004176 -0.016830 0.004297
# 2 -0.002764 0.014581 -0.003792 -0.012390 0.001991 -0.002696
# 3 -0.007462 -0.003792 0.041644 -0.020615 -0.013195 0.007865
# 4 0.004176 -0.012390 -0.020615 0.064182 0.000477 -0.003681
# 5 -0.016830 0.001991 -0.013195 0.000477 0.084256 -0.025549
# 6 0.004297 -0.002696 0.007865 -0.003681 -0.025549 0.048654
#
#
# Mechanical properties :
#
#
# Convention : Reuss Voigt Hill
#
# Bulk Modulus (GPa) = 22.36146 52.76151 37.56149
# Shear Modulus (GPa) = 15.98515 25.10164 20.54339
#
# Velocity S-wave (km/s) = 2.87986 3.60881 3.26474
# Velocity P-wave (km/s) = 4.76025 6.68872 5.80512
#
# Compressibility (1/GPa) = 0.04471979
#
# Stress axis : x y z
#
# Youngs Moduli (GPa) = 60.49578 68.58143 24.01281
#
# Poissons Ratio (x) = 0.18958 0.17918
# Poissons Ratio (y) = 0.16723 0.09106
# Poissons Ratio (z) = 0.45140 0.26006
#
# Static dielectric constant tensor:
#      x y z
#    x 3.516510 0.124710 0.203460 
#    y 0.124710 3.782780 0.456640 
#    z 0.203460 0.456640 3.111220 
# 
# 
# High freq. dielectric constant tensor:
#      x y z
#    x 1.753170 0.006870 0.012030 
#    y 0.006870 1.751690 0.036940 
#    z 0.012030 0.036940 1.692660 
# 
# From -- ./inp_files/252873.got.cif
#   From: 2010.06.25/outbox.cif.g09.slc.cpg/sg2_127_cif.got.tgz:252873.got - 2010.06.27 13:26:56.
