data_PCOD8021503
_publ_section_title
;
Structure prediction by ZEFSAII (Michael W. Deem and Ramdas Pophale) SiO2 
 PCOD8021503
Probable space group: P -1
;
_chemical_formula_sum "Si O2"
_cell_formula_units_Z 14
_cell_length_a 7.430876
_cell_length_b 11.577087
_cell_length_c 7.620449
_cell_angle_alpha 97.848591
_cell_angle_beta 72.637806
_cell_angle_gamma 126.501741
_cell_volume 502.246232
_symmetry_space_group_name_H-M "P -1"
_symmetry_group_IT_number 2
_symmetry_cell_setting 'triclinic'
loop_
_space_group_symop_operation_xyz
x,y,z
-x,-y,-z
loop_
_atom_site_type_symbol
_atom_site_label
_atom_site_fract_x
_atom_site_fract_y
_atom_site_fract_z
Si Si1 0.298967 0.786556 0.781065
Si Si2 0.211218 0.107957 0.837875
Si Si3 0.595673 0.688615 0.635299
Si Si4 0.076008 0.521724 0.281661
Si Si5 0.137507 0.896593 0.547820
Si Si6 0.308142 0.829010 0.170353
Si Si7 0.460189 0.411790 0.751880
O O1 0.543378 0.804814 0.713019
O O2 0.268791 0.858869 0.638544
O O3 0.108121 0.615270 0.809373
O O4 0.299008 0.864328 0.975451
O O5 0.447523 0.140706 0.849183
O O6 0.231796 0.257568 0.855764
O O7 0.165074 0.039615 0.639870
O O8 0.000000 0.000000 0.000000
O O9 0.452383 0.549813 0.781396
O O10 0.492576 0.620945 0.462269
O O11 0.869143 0.762284 0.589801
O O12 0.099421 0.662535 0.234355
O O13 0.319079 0.543588 0.186776
O O14 0.000000 0.500000 0.500000
O O15 0.263507 0.926134 0.327739
#
# Coordination Sequence:
#
# PCOD8021503 Si02
#       7
#     2   2   2   2   2   2   2
#     4  12  24  44  77 114 152 190 253 314 379 452
#     4  11  26  51  75 108 157 206 256 307 373 462
#     4  11  23  44  80 115 146 192 253 321 383 444
#     4  11  18  43  71 107 155 187 243 317 379 443
#     4  12  26  49  79 110 157 199 247 319 381 449
#     4  11  25  44  73 110 147 200 253 305 382 450
#     4  10  22  43  76 111 151 194 252 314 382 448
#
# _framework density 27.874773000000001
#
# number of rings (size 3 to 8) (size 9 to 14) (size 15 to 20)
#    0.000    0.857    4.286    2.571    2.000    2.286 
#    2.571    5.000    0.000    0.000    0.000    0.000 
#    0.000    0.000    0.000    0.000    0.000    0.000 
#
# Total GULP energy -173597.627867 kJ/mol
# GULP energy per Si atom -12399.830562 kJ/mol
# Density = 2.781133 g / cm^3
# Si number density = 27.874773 Si / 1000 Ang^3
#
#
#
# Elastic Constant Matrix: (Units=GPa)
#
#
# Indices 1 2 3 4 5 6 
#
# 1 81.3712 34.7155 37.6551 3.9856 -1.7422 -1.5560
# 2 34.7155 85.4507 20.6339 12.6593 -8.7921 -0.6257
# 3 37.6551 20.6339 147.1712 15.5092 8.3517 8.1649
# 4 3.9856 12.6593 15.5092 46.4478 12.5216 9.8056
# 5 -1.7422 -8.7921 8.3517 12.5216 27.2375 0.7118
# 6 -1.5560 -0.6257 8.1649 9.8056 0.7118 36.5328
#
#
#
# Elastic Compliance Matrix: (Units=1/GPa)
#
#
# Indices 1 2 3 4 5 6 
#
# 1 0.016458 -0.006070 -0.003531 0.001326 -0.000461 0.001039
# 2 -0.006070 0.016013 -0.000580 -0.006070 0.007706 0.001624
# 3 -0.003531 -0.000580 0.008134 -0.001311 -0.002263 -0.001582
# 4 0.001326 -0.006070 -0.001311 0.028975 -0.014604 -0.007247
# 5 -0.000461 0.007706 -0.002263 -0.014604 0.046485 0.003632
# 6 0.001039 0.001624 -0.001582 -0.007247 0.003632 0.029673
#
#
# Mechanical properties :
#
#
# Convention : Reuss Voigt Hill
#
# Bulk Modulus (GPa) = 49.39944 55.55580 52.47762
# Shear Modulus (GPa) = 28.92743 36.77619 32.85181
#
# Velocity S-wave (km/s) = 3.22493 3.63621 3.43673
# Velocity P-wave (km/s) = 5.62381 6.13214 5.88347
#
# Compressibility (1/GPa) = 0.02024315
#
# Stress axis : x y z
#
# Youngs Moduli (GPa) = 60.76042 62.45035 122.94185
#
# Poissons Ratio (x) = 0.37906 0.43413
# Poissons Ratio (y) = 0.36881 0.07128
# Poissons Ratio (z) = 0.21456 0.03621
#
# Static dielectric constant tensor:
#      x y z
#    x 5.006310 0.047170 0.104690 
#    y 0.047170 5.905540 -0.022680 
#    z 0.104690 -0.022680 4.889890 
# 
# 
# High freq. dielectric constant tensor:
#      x y z
#    x 2.125540 0.010060 0.004500 
#    y 0.010060 2.153100 -0.009950 
#    z 0.004500 -0.009950 2.108170 
# 
# From -- ./inp_files/277796.got.cif
#   From: 2010.06.25/outbox.cif.g09.slc.cpg/sg2_139_cif.got.tgz:277796.got - 2010.06.27 13:26:56.
