data_PCOD8021817
_publ_section_title
;
Structure prediction by ZEFSAII (Michael W. Deem and Ramdas Pophale) SiO2 
 PCOD8021817
Probable space group: P -1
;
_chemical_formula_sum "Si O2"
_cell_formula_units_Z 16
_cell_length_a 11.515135
_cell_length_b 15.040012
_cell_length_c 14.522526
_cell_angle_alpha 42.637595
_cell_angle_beta 58.582710
_cell_angle_gamma 28.613254
_cell_volume 753.337722
_symmetry_space_group_name_H-M "P -1"
_symmetry_group_IT_number 2
_symmetry_cell_setting 'triclinic'
loop_
_space_group_symop_operation_xyz
x,y,z
-x,-y,-z
loop_
_atom_site_type_symbol
_atom_site_label
_atom_site_fract_x
_atom_site_fract_y
_atom_site_fract_z
Si Si1 0.987683 0.086470 0.105535
Si Si2 0.003998 0.430081 0.151633
Si Si3 0.133962 0.514689 0.390045
Si Si4 0.304178 0.907805 0.849694
Si Si5 0.547711 0.634199 0.140747
Si Si6 0.297838 0.928305 0.433910
Si Si7 0.790997 0.539988 0.811636
Si Si8 0.928946 0.093613 0.334606
O O1 0.805117 0.149991 0.066586
O O2 0.927068 0.088354 0.230870
O O3 0.912788 0.297172 0.960062
O O4 0.291601 0.810655 0.170036
O O5 0.731015 0.578761 0.167278
O O6 0.031979 0.510368 0.161155
O O7 0.239894 0.130221 0.289988
O O8 0.000000 0.500000 0.000000
O O9 0.393646 0.339953 0.471820
O O10 0.199808 0.427040 0.323673
O O11 0.000000 0.500000 0.500000
O O12 0.940391 0.795497 0.265767
O O13 0.486817 0.795921 0.773164
O O14 0.482399 0.768345 0.972812
O O15 0.695434 0.378240 0.251189
O O16 0.127882 0.006347 0.528909
O O17 0.209479 0.918993 0.386740
#
# Coordination Sequence:
#
# PCOD8021817 Si02
#       8
#     2   2   2   2   2   2   2   2
#     4  12  24  39  71 105 129 170 226 278 335 394
#     4  11  23  45  72  96 134 177 227 278 323 401
#     4  12  28  44  64  99 139 181 221 274 329 399
#     4  12  24  43  68  99 138 167 223 279 330 396
#     4  11  23  41  69 101 131 169 220 280 331 386
#     4  10  23  44  68  92 140 177 216 275 337 390
#     4  12  25  43  70  99 133 184 224 266 340 395
#     4  10  22  44  68  99 130 175 219 277 338 391
#
# _framework density 21.238814000000001
#
# number of rings (size 3 to 8) (size 9 to 14) (size 15 to 20)
#    0.000    0.750    3.750    3.750    1.750    4.500 
#    0.000   10.000    0.000    0.000    0.000    0.000 
#    0.000    0.000    0.000    0.000    0.000    0.000 
#
# Total GULP energy -198463.679607 kJ/mol
# GULP energy per Si atom -12403.979975 kJ/mol
# Density = 2.119047 g / cm^3
# Si number density = 21.238814 Si / 1000 Ang^3
#
#
#
# Elastic Constant Matrix: (Units=GPa)
#
#
# Indices 1 2 3 4 5 6 
#
# 1 98.2393 122.2048 56.8041 16.3672 42.4804 11.5611
# 2 122.2048 -109.1084 -26.6431 -102.8167 -119.4847 -65.7415
# 3 56.8041 -26.6431 103.5817 -27.8546 -32.0073 -11.2253
# 4 16.3672 -102.8167 -27.8546 -9.9609 -63.2915 -24.7225
# 5 42.4804 -119.4847 -32.0073 -63.2915 -32.9275 -38.7614
# 6 11.5611 -65.7415 -11.2253 -24.7225 -38.7614 10.9279
#
#
#
# Elastic Compliance Matrix: (Units=1/GPa)
#
#
# Indices 1 2 3 4 5 6 
#
# 1 0.010734 -0.002296 -0.002547 0.007423 0.004507 0.004995
# 2 -0.002296 0.006997 -0.001888 -0.007054 -0.008560 -0.003737
# 3 -0.002547 -0.001888 0.009797 -0.000984 -0.000597 -0.002946
# 4 0.007423 -0.007054 -0.000984 0.024653 -0.003192 -0.006850
# 5 0.004507 -0.008560 -0.000597 -0.003192 0.017135 -0.003323
# 6 0.004995 -0.003737 -0.002946 -0.006850 -0.003323 0.033434
#
#
# Mechanical properties :
#
#
# Convention : Reuss Voigt Hill
#
# Bulk Modulus (GPa) = 71.09183 44.16046 57.62614
# Shear Modulus (GPa) = 41.35605 -10.36898 15.49353
#
# Velocity S-wave (km/s) = 4.41749 -2.21194 2.70384
# Velocity P-wave (km/s) = 7.71778 3.78337 6.07775
#
# Compressibility (1/GPa) = 0.01406631
#
# Stress axis : x y z
#
# Youngs Moduli (GPa) = 93.15770 142.91238 102.07442
#
# Poissons Ratio (x) = 0.32813 0.25999
# Poissons Ratio (y) = 0.21389 0.19272
# Poissons Ratio (z) = 0.23728 0.26983
#
# Static dielectric constant tensor:
#      x y z
#    x 4.111800 -0.093910 0.106140 
#    y -0.093910 3.854230 0.026550 
#    z 0.106140 0.026550 4.098200 
# 
# 
# High freq. dielectric constant tensor:
#      x y z
#    x 1.848970 -0.011570 0.002590 
#    y -0.011570 1.824320 0.000950 
#    z 0.002590 0.000950 1.845350 
# 
# From -- ./inp_files/432327.got.cif
#   From: 2010.06.25/outbox.cif.g09.slc.cpg/sg2_217_cif.got.tgz:432327.got - 2010.06.27 13:26:56.
