data_PCOD8021666
_publ_section_title
;
Structure prediction by ZEFSAII (Michael W. Deem and Ramdas Pophale) SiO2 
 PCOD8021666
Probable space group: P -1
;
_chemical_formula_sum "Si O2"
_cell_formula_units_Z 10
_cell_length_a 7.703062
_cell_length_b 5.211419
_cell_length_c 12.823203
_cell_angle_alpha 79.072508
_cell_angle_beta 120.439236
_cell_angle_gamma 73.659021
_cell_volume 390.072744
_symmetry_space_group_name_H-M "P -1"
_symmetry_group_IT_number 2
_symmetry_cell_setting 'triclinic'
loop_
_space_group_symop_operation_xyz
x,y,z
-x,-y,-z
loop_
_atom_site_type_symbol
_atom_site_label
_atom_site_fract_x
_atom_site_fract_y
_atom_site_fract_z
Si Si1 0.958252 0.050626 0.826339
Si Si2 0.806203 0.665760 0.236778
Si Si3 0.747622 0.157609 0.330975
Si Si4 0.644058 0.315013 0.901697
Si Si5 0.349680 0.833233 0.462854
O O1 0.787101 0.129023 0.862425
O O2 0.844049 0.002262 0.692840
O O3 0.044017 0.300801 0.814135
O O4 0.184797 0.746593 0.943595
O O5 0.892033 0.328102 0.323182
O O6 0.541401 0.797722 0.115980
O O7 0.839952 0.840999 0.332326
O O8 0.485719 0.346028 0.199189
O O9 0.767474 0.144582 0.462884
O O10 0.500000 0.500000 0.500000
O O11 0.500000 0.000000 0.500000
#
# Coordination Sequence:
#
# PCOD8021666 Si02
#       5
#     2   2   2   2   2
#     4  11  22  43  72  97 129 183 215 265 339 382
#     4  10  23  44  67 100 134 168 218 276 320 389
#     4  10  22  44  66  92 144 163 214 279 318 381
#     4   9  22  45  65 102 132 170 222 271 318 400
#     4  12  24  44  67  99 131 174 220 273 321 391
#
# _framework density 25.636244999999999
#
# number of rings (size 3 to 8) (size 9 to 14) (size 15 to 20)
#    1.200    0.400    2.000    3.000    0.000    4.000 
#    7.200    3.000    0.000    0.000    0.000    0.000 
#    0.000    0.000    0.000    0.000    0.000    0.000 
#
# Total GULP energy -123917.671986 kJ/mol
# GULP energy per Si atom -12391.767199 kJ/mol
# Density = 2.557790 g / cm^3
# Si number density = 25.636245 Si / 1000 Ang^3
#
#
#
# Elastic Constant Matrix: (Units=GPa)
#
#
# Indices 1 2 3 4 5 6 
#
# 1 114.8736 2.8448 21.1181 7.9370 3.3794 30.7052
# 2 2.8448 103.0161 20.7922 6.9421 13.2719 11.1574
# 3 21.1181 20.7922 188.3099 -6.2145 23.4072 12.7149
# 4 7.9370 6.9421 -6.2145 21.1716 7.5510 -4.2778
# 5 3.3794 13.2719 23.4072 7.5510 33.3662 5.7647
# 6 30.7052 11.1574 12.7149 -4.2778 5.7647 35.2972
#
#
#
# Elastic Compliance Matrix: (Units=1/GPa)
#
#
# Indices 1 2 3 4 5 6 
#
# 1 0.012989 0.001550 -0.001516 -0.009727 0.003580 -0.013007
# 2 0.001550 0.010940 -0.000978 -0.004714 -0.001942 -0.004708
# 3 -0.001516 -0.000978 0.006326 0.004714 -0.005092 0.000752
# 4 -0.009727 -0.004714 0.004714 0.064160 -0.018251 0.019010
# 5 0.003580 -0.001942 -0.005092 -0.018251 0.039700 -0.009361
# 6 -0.013007 -0.004708 0.000752 0.019010 -0.009361 0.044696
#
#
# Mechanical properties :
#
#
# Convention : Reuss Voigt Hill
#
# Bulk Modulus (GPa) = 35.25096 55.07884 45.16490
# Shear Modulus (GPa) = 26.29466 42.06329 34.17898
#
# Velocity S-wave (km/s) = 3.20610 4.05504 3.65530
# Velocity P-wave (km/s) = 5.24269 6.59211 5.95574
#
# Compressibility (1/GPa) = 0.02836803
#
# Stress axis : x y z
#
# Youngs Moduli (GPa) = 76.98907 91.41071 158.07531
#
# Poissons Ratio (x) = -0.14171 0.23957
# Poissons Ratio (y) = -0.11935 0.15460
# Poissons Ratio (z) = 0.11668 0.08940
#
# Static dielectric constant tensor:
#      x y z
#    x 4.887820 0.013320 0.110050 
#    y 0.013320 4.146800 -0.205250 
#    z 0.110050 -0.205250 4.942480 
# 
# 
# High freq. dielectric constant tensor:
#      x y z
#    x 2.043080 -0.007800 0.004600 
#    y -0.007800 2.002130 -0.005380 
#    z 0.004600 -0.005380 2.035000 
# 
# From -- ./inp_files/18184.got.cif
#   From: 2010.06.25/outbox.cif.g09.slc.cpg/sg2_10_cif.got.tgz:18184.got - 2010.06.27 13:26:56.
