data_PCOD8021141
_publ_section_title
;
Structure prediction by ZEFSAII (Michael W. Deem and Ramdas Pophale) SiO2 
 PCOD8021141
Probable space group: P -1
;
_chemical_formula_sum "Si O2"
_cell_formula_units_Z 16
_cell_length_a 8.417947
_cell_length_b 13.412775
_cell_length_c 13.023861
_cell_angle_alpha 83.146774
_cell_angle_beta 82.489551
_cell_angle_gamma 146.360277
_cell_volume 734.644026
_symmetry_space_group_name_H-M "P -1"
_symmetry_group_IT_number 2
_symmetry_cell_setting 'triclinic'
loop_
_space_group_symop_operation_xyz
x,y,z
-x,-y,-z
loop_
_atom_site_type_symbol
_atom_site_label
_atom_site_fract_x
_atom_site_fract_y
_atom_site_fract_z
Si Si1 0.901606 0.132986 0.020769
Si Si2 0.232880 0.260152 0.176705
Si Si3 0.400105 0.531820 0.431382
Si Si4 0.468320 0.385986 0.813690
Si Si5 0.307624 0.720741 0.194313
Si Si6 0.187774 0.060844 0.576288
Si Si7 0.098685 0.460181 0.927769
Si Si8 0.778631 0.286952 0.561193
O O1 0.998147 0.128567 0.117998
O O2 0.536266 0.904980 0.073965
O O3 0.102754 0.192178 0.903614
O O4 0.930413 0.268191 0.005569
O O5 0.334107 0.431899 0.153602
O O6 0.528736 0.349993 0.115521
O O7 0.075656 0.128265 0.306229
O O8 0.500000 0.500000 0.500000
O O9 0.499498 0.549086 0.308955
O O10 0.604294 0.741022 0.412062
O O11 0.015781 0.327247 0.499647
O O12 0.613304 0.354015 0.803966
O O13 0.308942 0.767489 0.303234
O O14 0.973829 0.557141 0.184914
O O15 0.463458 0.122977 0.534775
O O16 0.000000 0.000000 0.500000
O O17 0.000000 0.500000 0.000000
O O18 0.000000 0.500000 0.500000
#
# Coordination Sequence:
#
# PCOD8021141 Si02
#       8
#     2   2   2   2   2   2   2   2
#     4  11  23  43  65  95 130 170 218 263 329 389
#     4  11  23  43  64  94 133 169 213 270 329 393
#     4  11  24  43  67  96 128 174 225 267 328 390
#     4  11  22  39  68  93 129 171 212 265 332 388
#     4  12  22  42  68  95 129 169 216 273 323 391
#     4  11  23  43  67  95 128 173 218 275 325 386
#     4  11  25  41  63  96 132 170 213 268 327 394
#     4  10  22  43  68  91 131 169 219 265 331 381
#
# _framework density 21.779257000000001
#
# number of rings (size 3 to 8) (size 9 to 14) (size 15 to 20)
#    0.000    1.000    3.750    4.500    7.000    1.000 
#    2.250    2.500    0.000    0.000    0.000    0.000 
#    0.000    0.000    0.000    0.000    0.000    0.000 
#
# Total GULP energy -198265.181457 kJ/mol
# GULP energy per Si atom -12391.573841 kJ/mol
# Density = 2.172969 g / cm^3
# Si number density = 21.779257 Si / 1000 Ang^3
#
#
#
# Elastic Constant Matrix: (Units=GPa)
#
#
# Indices 1 2 3 4 5 6 
#
# 1 92.0807 19.2072 41.2675 -2.8380 11.8864 14.1975
# 2 19.2072 55.8687 15.9039 -5.6331 -2.5538 15.7041
# 3 41.2675 15.9039 131.9547 -7.4054 2.5024 13.9321
# 4 -2.8380 -5.6331 -7.4054 39.6895 2.1474 11.8846
# 5 11.8864 -2.5538 2.5024 2.1474 33.6322 4.1995
# 6 14.1975 15.7041 13.9321 11.8846 4.1995 34.3954
#
#
#
# Elastic Compliance Matrix: (Units=1/GPa)
#
#
# Indices 1 2 3 4 5 6 
#
# 1 0.014210 -0.003222 -0.003632 0.000936 -0.004723 -0.002670
# 2 -0.003222 0.023237 -0.000260 0.006353 0.003998 -0.011857
# 3 -0.003632 -0.000260 0.009171 0.002262 0.000809 -0.002978
# 4 0.000936 0.006353 0.002262 0.031061 -0.000137 -0.014919
# 5 -0.004723 0.003998 0.000809 -0.000137 0.032165 -0.004083
# 6 -0.002670 -0.011857 -0.002978 -0.014919 -0.004083 0.042449
#
#
# Mechanical properties :
#
#
# Convention : Reuss Voigt Hill
#
# Bulk Modulus (GPa) = 30.87354 48.07349 39.47352
# Shear Modulus (GPa) = 28.19772 35.11179 31.65476
#
# Velocity S-wave (km/s) = 3.60211 4.01954 3.81653
# Velocity P-wave (km/s) = 5.61308 6.60781 6.13065
#
# Compressibility (1/GPa) = 0.03239019
#
# Stress axis : x y z
#
# Youngs Moduli (GPa) = 70.37302 43.03420 109.03347
#
# Poissons Ratio (x) = 0.13868 0.39597
# Poissons Ratio (y) = 0.22677 0.02837
# Poissons Ratio (z) = 0.25557 0.01120
#
# Static dielectric constant tensor:
#      x y z
#    x 4.155900 0.495180 0.097480 
#    y 0.495180 4.083840 -0.135210 
#    z 0.097480 -0.135210 3.747720 
# 
# 
# High freq. dielectric constant tensor:
#      x y z
#    x 1.866720 0.015010 0.010760 
#    y 0.015010 1.850910 -0.011280 
#    z 0.010760 -0.011280 1.860460 
# 
# From -- ./inp_files/343793.got.cif
#   From: 2010.06.25/outbox.cif.g09.slc.cpg/sg2_172_cif.got.tgz:343793.got - 2010.06.27 13:26:56.
