data_PCOD8021916
_publ_section_title
;
Structure prediction by ZEFSAII (Michael W. Deem and Ramdas Pophale) SiO2 
 PCOD8021916
Probable space group: P -1
;
_chemical_formula_sum "Si O2"
_cell_formula_units_Z 16
_cell_length_a 8.312308
_cell_length_b 6.598581
_cell_length_c 14.999544
_cell_angle_alpha 79.547094
_cell_angle_beta 85.550760
_cell_angle_gamma 64.552926
_cell_volume 730.569769
_symmetry_space_group_name_H-M "P -1"
_symmetry_group_IT_number 2
_symmetry_cell_setting 'triclinic'
loop_
_space_group_symop_operation_xyz
x,y,z
-x,-y,-z
loop_
_atom_site_type_symbol
_atom_site_label
_atom_site_fract_x
_atom_site_fract_y
_atom_site_fract_z
Si Si1 0.029954 0.758177 0.207298
Si Si2 0.164877 0.343315 0.619063
Si Si3 0.620411 0.705592 0.771503
Si Si4 0.918848 0.832060 0.546321
Si Si5 0.546667 0.528892 0.095990
Si Si6 0.152531 0.320840 0.950676
Si Si7 0.461165 0.980512 0.401366
Si Si8 0.259065 0.995040 0.132778
O O1 0.207319 0.528509 0.228210
O O2 0.907726 0.784749 0.296808
O O3 0.919003 0.755721 0.125833
O O4 0.079108 0.974378 0.175446
O O5 0.136257 0.271518 0.527775
O O6 0.062893 0.617828 0.613416
O O7 0.381778 0.252346 0.627418
O O8 0.458647 0.684502 0.833724
O O9 0.538296 0.805859 0.670891
O O10 0.679414 0.880551 0.805094
O O11 0.743713 0.989394 0.600006
O O12 0.000000 0.000000 0.500000
O O13 0.731720 0.546378 0.095014
O O14 0.403797 0.743098 0.134932
O O15 0.500000 0.500000 0.000000
O O16 0.250632 0.105898 0.027273
O O17 0.000000 0.500000 0.000000
O O18 0.500000 0.000000 0.500000
#
# Coordination Sequence:
#
# PCOD8021916 Si02
#       8
#     2   2   2   2   2   2   2   2
#     4  11  24  41  65  98 134 173 225 276 331 402
#     4  10  23  42  66  98 131 171 220 276 335 401
#     4  11  23  45  66  93 138 173 224 279 337 401
#     4  10  22  44  70  94 131 173 216 279 340 400
#     4  11  24  43  67  95 132 178 222 280 332 399
#     4  12  23  43  63  94 134 175 223 273 333 399
#     4  10  23  44  67  97 136 174 222 282 337 406
#     4  11  24  42  67  93 131 182 216 271 341 391
#
# _framework density 21.900715000000002
#
# number of rings (size 3 to 8) (size 9 to 14) (size 15 to 20)
#    0.000    1.250    3.750    1.500    3.500    1.500 
#    4.500    0.000    0.000    0.000    0.000    0.000 
#    0.000    0.000    0.000    0.000    0.000    0.000 
#
# Total GULP energy -198292.882543 kJ/mol
# GULP energy per Si atom -12393.305159 kJ/mol
# Density = 2.185087 g / cm^3
# Si number density = 21.900715 Si / 1000 Ang^3
#
#
#
# Elastic Constant Matrix: (Units=GPa)
#
#
# Indices 1 2 3 4 5 6 
#
# 1 147.4694 65.8675 53.7134 -16.5436 -38.6969 2.3132
# 2 65.8675 83.2898 30.0604 -11.6777 -13.4855 6.2730
# 3 53.7134 30.0604 136.4605 -28.3143 -16.5955 6.1830
# 4 -16.5436 -11.6777 -28.3143 31.4310 -0.1965 -10.3356
# 5 -38.6969 -13.4855 -16.5955 -0.1965 47.5999 -1.7918
# 6 2.3132 6.2730 6.1830 -10.3356 -1.7918 39.7361
#
#
#
# Elastic Compliance Matrix: (Units=1/GPa)
#
#
# Indices 1 2 3 4 5 6 
#
# 1 0.013802 -0.008599 -0.002022 0.002959 0.008167 0.002007
# 2 -0.008599 0.019084 -0.000703 0.001204 -0.001906 -0.002176
# 3 -0.002022 -0.000703 0.010133 0.008088 0.001754 0.000835
# 4 0.002959 0.001204 0.008088 0.044510 0.006135 0.010233
# 5 0.008167 -0.001906 0.001754 0.006135 0.027835 0.002403
# 6 0.002007 -0.002176 0.000835 0.010233 0.002403 0.028033
#
#
# Mechanical properties :
#
#
# Convention : Reuss Voigt Hill
#
# Bulk Modulus (GPa) = 49.08906 74.05582 61.57244
# Shear Modulus (GPa) = 28.92936 38.25864 33.59400
#
# Velocity S-wave (km/s) = 3.63841 4.18414 3.92078
# Velocity P-wave (km/s) = 6.33354 7.56508 6.97654
#
# Compressibility (1/GPa) = 0.02037114
#
# Stress axis : x y z
#
# Youngs Moduli (GPa) = 72.45370 52.39924 98.69157
#
# Poissons Ratio (x) = 0.45058 0.19957
# Poissons Ratio (y) = 0.62303 0.06934
# Poissons Ratio (z) = 0.14651 0.03682
#
# Static dielectric constant tensor:
#      x y z
#    x 4.498680 -0.170860 -0.228840 
#    y -0.170860 4.051030 -0.063780 
#    z -0.228840 -0.063780 3.964080 
# 
# 
# High freq. dielectric constant tensor:
#      x y z
#    x 1.864020 -0.011270 -0.018190 
#    y -0.011270 1.851670 -0.010960 
#    z -0.018190 -0.010960 1.876700 
# 
# From -- ./inp_files/48576.got.cif
#   From: 2010.06.25/outbox.cif.g09.slc.cpg/sg2_25_cif.got.tgz:48576.got - 2010.06.27 13:26:56.
