data_PCOD8021679
_publ_section_title
;
Structure prediction by ZEFSAII (Michael W. Deem and Ramdas Pophale) SiO2 
 PCOD8021679
Probable space group: P -1
;
_chemical_formula_sum "Si O2"
_cell_formula_units_Z 16
_cell_length_a 8.199591
_cell_length_b 22.297830
_cell_length_c 6.836412
_cell_angle_alpha 119.709330
_cell_angle_beta 130.882433
_cell_angle_gamma 47.914435
_cell_volume 697.715197
_symmetry_space_group_name_H-M "P -1"
_symmetry_group_IT_number 2
_symmetry_cell_setting 'triclinic'
loop_
_space_group_symop_operation_xyz
x,y,z
-x,-y,-z
loop_
_atom_site_type_symbol
_atom_site_label
_atom_site_fract_x
_atom_site_fract_y
_atom_site_fract_z
Si Si1 0.097887 0.176917 0.087549
Si Si2 0.955329 0.044754 0.738004
Si Si3 0.483875 0.401372 0.447811
Si Si4 0.584665 0.862824 0.362492
Si Si5 0.869270 0.419047 0.514055
Si Si6 0.270246 0.305977 0.939124
Si Si7 0.491930 0.934218 0.023306
Si Si8 0.849450 0.344721 0.986482
O O1 0.170812 0.171775 0.363556
O O2 0.885832 0.267849 0.011021
O O3 0.361657 0.147190 0.126195
O O4 0.977905 0.123213 0.859660
O O5 0.680290 0.070316 0.639578
O O6 0.000000 0.000000 0.500000
O O7 0.199914 0.971560 0.927293
O O8 0.670027 0.404416 0.443833
O O9 0.214601 0.486988 0.375479
O O10 0.585038 0.386562 0.727731
O O11 0.450649 0.329169 0.229720
O O12 0.561849 0.788276 0.144548
O O13 0.640482 0.908277 0.304825
O O14 0.866005 0.403008 0.253342
O O15 0.145169 0.361723 0.736618
O O16 0.059640 0.317231 0.942673
O O17 0.500000 0.000000 0.000000
#
# Coordination Sequence:
#
# PCOD8021679 Si02
#       8
#     2   2   2   2   2   2   2   2
#     4  11  24  44  67  93 134 173 213 277 335 392
#     4  11  25  43  67  97 126 169 222 272 331 400
#     4  10  24  41  66 101 134 175 224 275 324 394
#     4  12  24  43  68  94 132 173 220 276 335 393
#     4  10  22  44  66  95 140 177 219 272 335 390
#     4  11  24  40  67 101 132 175 228 270 330 396
#     4  10  23  46  65  94 128 167 214 272 334 395
#     4  11  23  41  66  97 135 177 221 270 331 394
#
# _framework density 22.931992999999999
#
# number of rings (size 3 to 8) (size 9 to 14) (size 15 to 20)
#    0.000    1.250    3.750    1.125    1.750    5.500 
#    4.500    0.000    0.000    0.000    0.000    0.000 
#    0.000    0.000    0.000    0.000    0.000    0.000 
#
# Total GULP energy -198256.134669 kJ/mol
# GULP energy per Si atom -12391.008417 kJ/mol
# Density = 2.287980 g / cm^3
# Si number density = 22.931993 Si / 1000 Ang^3
#
#
#
# Elastic Constant Matrix: (Units=GPa)
#
#
# Indices 1 2 3 4 5 6 
#
# 1 37.5289 22.9302 24.7658 -7.1962 -14.1840 3.7997
# 2 22.9302 96.5989 34.3776 -4.2875 -16.1717 3.4854
# 3 24.7658 34.3776 142.2390 -3.4020 -21.5855 15.3673
# 4 -7.1962 -4.2875 -3.4020 51.9213 5.3068 -3.1285
# 5 -14.1840 -16.1717 -21.5855 5.3068 34.1585 2.7394
# 6 3.7997 3.4854 15.3673 -3.1285 2.7394 31.2798
#
#
#
# Elastic Compliance Matrix: (Units=1/GPa)
#
#
# Indices 1 2 3 4 5 6 
#
# 1 0.037032 -0.005690 -0.003089 0.003213 0.010468 -0.002942
# 2 -0.005690 0.012741 -0.001674 -0.000125 0.002643 -0.000150
# 3 -0.003089 -0.001674 0.009042 -0.000651 0.004085 -0.004303
# 4 0.003213 -0.000125 -0.000651 0.020030 -0.002421 0.002159
# 5 0.010468 0.002643 0.004085 -0.002421 0.038406 -0.007178
# 6 -0.002942 -0.000150 -0.004303 0.002159 -0.007178 0.035302
#
#
# Mechanical properties :
#
#
# Convention : Reuss Voigt Hill
#
# Bulk Modulus (GPa) = 26.37994 48.94601 37.66297
# Shear Modulus (GPa) = 26.86790 36.42480 31.64635
#
# Velocity S-wave (km/s) = 3.42663 3.98978 3.71888
# Velocity P-wave (km/s) = 5.21385 6.52800 5.90758
#
# Compressibility (1/GPa) = 0.03790759
#
# Stress axis : x y z
#
# Youngs Moduli (GPa) = 27.00402 78.48767 110.59232
#
# Poissons Ratio (x) = 0.44658 0.34165
# Poissons Ratio (y) = 0.15365 0.18518
# Poissons Ratio (z) = 0.08342 0.13142
#
# Static dielectric constant tensor:
#      x y z
#    x 3.788700 0.095560 -0.485570 
#    y 0.095560 4.127910 0.301980 
#    z -0.485570 0.301980 3.860200 
# 
# 
# High freq. dielectric constant tensor:
#      x y z
#    x 1.882890 -0.010310 -0.021920 
#    y -0.010310 1.919780 -0.005680 
#    z -0.021920 -0.005680 1.913140 
# 
# From -- ./inp_files/55669.got.cif
#   From: 2010.06.25/outbox.cif.g09.slc.cpg/sg2_28_cif.got.tgz:55669.got - 2010.06.27 13:26:56.
