data_PCOD8021496
_publ_section_title
;
Structure prediction by ZEFSAII (Michael W. Deem and Ramdas Pophale) SiO2 
 PCOD8021496
Probable space group: P -1
;
_chemical_formula_sum "Si O2"
_cell_formula_units_Z 12
_cell_length_a 9.493783
_cell_length_b 11.278913
_cell_length_c 8.765130
_cell_angle_alpha 139.137966
_cell_angle_beta 58.456058
_cell_angle_gamma 129.208000
_cell_volume 473.913894
_symmetry_space_group_name_H-M "P -1"
_symmetry_group_IT_number 2
_symmetry_cell_setting 'triclinic'
loop_
_space_group_symop_operation_xyz
x,y,z
-x,-y,-z
loop_
_atom_site_type_symbol
_atom_site_label
_atom_site_fract_x
_atom_site_fract_y
_atom_site_fract_z
Si Si1 0.237930 0.143215 0.214088
Si Si2 0.121894 0.721714 0.004949
Si Si3 0.173654 0.210399 0.635087
Si Si4 0.449625 0.834302 0.149184
Si Si5 0.473899 0.745876 0.376861
Si Si6 0.850000 0.534280 0.523068
O O1 0.287059 0.262777 0.464470
O O2 0.106958 0.229965 0.287343
O O3 0.428487 0.214873 0.089120
O O4 0.141637 0.903894 0.056107
O O5 0.152378 0.553135 0.729945
O O6 0.263942 0.806535 0.145199
O O7 0.916694 0.638162 0.114320
O O8 0.313608 0.212128 0.688319
O O9 0.000000 0.000000 0.500000
O O10 0.415471 0.694570 0.182435
O O11 0.556729 0.061961 0.365874
O O12 0.344397 0.564866 0.379471
O O13 0.000000 0.500000 0.500000
#
# Coordination Sequence:
#
# PCOD8021496 Si02
#       6
#     2   2   2   2   2   2
#     4  11  24  46  73 102 141 193 237 287 365 415
#     4  11  24  49  75 103 146 188 243 293 358 425
#     4  10  22  43  75 107 138 189 241 285 360 427
#     4  11  23  44  79 104 142 194 231 302 357 420
#     4  11  24  45  72 110 146 183 245 293 354 428
#     4  12  30  47  71 109 146 188 246 296 356 431
#
# _framework density 25.321057
#
# number of rings (size 3 to 8) (size 9 to 14) (size 15 to 20)
#    0.000    1.000    5.000    1.500    4.667    6.000 
#    0.000    0.000    0.000    0.000    0.000    0.000 
#    0.000    0.000    0.000    0.000    0.000    0.000 
#
# Total GULP energy -148772.602242 kJ/mol
# GULP energy per Si atom -12397.716854 kJ/mol
# Density = 2.526343 g / cm^3
# Si number density = 25.321057 Si / 1000 Ang^3
#
#
#
# Elastic Constant Matrix: (Units=GPa)
#
#
# Indices 1 2 3 4 5 6 
#
# 1 161.8913 30.4811 39.3582 -14.4559 -14.3241 -8.2834
# 2 30.4811 61.3042 55.1141 -30.7374 -2.4448 -1.4446
# 3 39.3582 55.1141 122.0202 -39.9870 -18.9856 -1.0873
# 4 -14.4559 -30.7374 -39.9870 49.0609 0.3724 0.0896
# 5 -14.3241 -2.4448 -18.9856 0.3724 41.3250 -4.3588
# 6 -8.2834 -1.4446 -1.0873 0.0896 -4.3588 27.6214
#
#
#
# Elastic Compliance Matrix: (Units=1/GPa)
#
#
# Indices 1 2 3 4 5 6 
#
# 1 0.007196 -0.002946 -0.000736 -0.000347 0.002230 0.002328
# 2 -0.002946 0.032964 -0.011072 0.010794 -0.004287 -0.000307
# 3 -0.000736 -0.011072 0.016547 0.006280 0.006729 0.000893
# 4 -0.000347 0.010794 0.006280 0.032135 0.003232 0.001113
# 5 0.002230 -0.004287 0.006729 0.003232 0.028326 0.005169
# 6 0.002328 -0.000307 0.000893 0.001113 0.005169 0.037733
#
#
# Mechanical properties :
#
#
# Convention : Reuss Voigt Hill
#
# Bulk Modulus (GPa) = 36.76574 66.12472 51.44523
# Shear Modulus (GPa) = 25.84303 38.28560 32.06432
#
# Velocity S-wave (km/s) = 3.19817 3.89267 3.56239
# Velocity P-wave (km/s) = 5.30934 6.80992 6.10590
#
# Compressibility (1/GPa) = 0.02719924
#
# Stress axis : x y z
#
# Youngs Moduli (GPa) = 138.96229 30.33588 60.43484
#
# Poissons Ratio (x) = 0.08937 0.04450
# Poissons Ratio (y) = 0.40940 0.66911
# Poissons Ratio (z) = 0.10232 0.33587
#
# Static dielectric constant tensor:
#      x y z
#    x 4.379150 -0.267570 -0.230760 
#    y -0.267570 4.570660 -0.395490 
#    z -0.230760 -0.395490 5.149020 
# 
# 
# High freq. dielectric constant tensor:
#      x y z
#    x 2.005460 -0.018090 -0.018220 
#    y -0.018090 2.000630 -0.015970 
#    z -0.018220 -0.015970 2.025460 
# 
# From -- ./inp_files/191034.got.cif
#   From: 2010.06.25/outbox.cif.g09.slc.cpg/sg2_96_cif.got.tgz:191034.got - 2010.06.27 13:26:56.
