data_PCOD8021511
_publ_section_title
;
Structure prediction by ZEFSAII (Michael W. Deem and Ramdas Pophale) SiO2 
 PCOD8021511
Probable space group: P -1
;
_chemical_formula_sum "Si O2"
_cell_formula_units_Z 14
_cell_length_a 11.550328
_cell_length_b 7.972860
_cell_length_c 7.861781
_cell_angle_alpha 122.911129
_cell_angle_beta 98.688761
_cell_angle_gamma 71.905551
_cell_volume 577.595629
_symmetry_space_group_name_H-M "P -1"
_symmetry_group_IT_number 2
_symmetry_cell_setting 'triclinic'
loop_
_space_group_symop_operation_xyz
x,y,z
-x,-y,-z
loop_
_atom_site_type_symbol
_atom_site_label
_atom_site_fract_x
_atom_site_fract_y
_atom_site_fract_z
Si Si1 0.428479 0.255094 0.715990
Si Si2 0.285717 0.025531 0.762665
Si Si3 0.474224 0.279647 0.363818
Si Si4 0.347234 0.712800 0.047283
Si Si5 0.204648 0.332884 0.202550
Si Si6 0.815926 0.229178 0.653010
Si Si7 0.107131 0.020442 0.154383
O O1 0.319685 0.160998 0.692278
O O2 0.475436 0.175428 0.494396
O O3 0.534384 0.201685 0.855037
O O4 0.377598 0.505110 0.828741
O O5 0.410641 0.877299 0.794494
O O6 0.208157 0.882233 0.584900
O O7 0.199700 0.187674 0.959908
O O8 0.500000 0.500000 0.500000
O O9 0.345355 0.303295 0.261329
O O10 0.307262 0.672648 0.210533
O O11 0.235691 0.880108 0.023389
O O12 0.135499 0.574228 0.282478
O O13 0.125729 0.253446 0.286987
O O14 0.910655 0.061741 0.704195
O O15 0.000000 0.000000 0.000000
#
# Coordination Sequence:
#
# PCOD8021511 Si02
#       7
#     2   2   2   2   2   2   2
#     4  11  20  36  64  90 132 174 199 253 327 379
#     4  12  22  38  62  90 134 172 207 253 326 386
#     4  12  23  34  58  98 132 171 205 253 315 389
#     4   9  20  38  62  92 127 165 212 257 312 384
#     4  12  24  41  63  95 129 167 215 264 315 380
#     4  10  22  44  59  93 128 164 212 262 313 377
#     4  10  23  44  69  90 122 172 220 268 321 368
#
# _framework density 24.238413000000001
#
# number of rings (size 3 to 8) (size 9 to 14) (size 15 to 20)
#    0.857    0.286    4.286    2.571    4.000    0.571 
#    0.000    0.714    0.000   10.286    0.000    0.000 
#    0.000    0.000    0.000    0.000    0.000    0.000 
#
# Total GULP energy -173550.711461 kJ/mol
# GULP energy per Si atom -12396.479390 kJ/mol
# Density = 2.418324 g / cm^3
# Si number density = 24.238413 Si / 1000 Ang^3
#
#
#
# Elastic Constant Matrix: (Units=GPa)
#
#
# Indices 1 2 3 4 5 6 
#
# 1 35.8217 33.4245 15.4606 2.3801 22.2071 3.0688
# 2 33.4245 150.8192 44.8679 3.5307 29.9701 18.7848
# 3 15.4606 44.8679 110.6340 15.6528 17.8071 -2.5073
# 4 2.3801 3.5307 15.6528 34.9411 -0.8423 10.5019
# 5 22.2071 29.9701 17.8071 -0.8423 33.3623 1.3596
# 6 3.0688 18.7848 -2.5073 10.5019 1.3596 23.5001
#
#
#
# Elastic Compliance Matrix: (Units=1/GPa)
#
#
# Indices 1 2 3 4 5 6 
#
# 1 0.051608 -0.005831 0.000577 -0.004397 -0.029601 0.001661
# 2 -0.005831 0.010864 -0.003832 0.003907 -0.003332 -0.009885
# 3 0.000577 -0.003832 0.012449 -0.007736 -0.004109 0.008011
# 4 -0.004397 0.003907 -0.007736 0.038382 0.005365 -0.020837
# 5 -0.029601 -0.003332 -0.004109 0.005365 0.054978 0.000512
# 6 0.001661 -0.009885 0.008011 -0.020837 0.000512 0.060374
#
#
# Mechanical properties :
#
#
# Convention : Reuss Voigt Hill
#
# Bulk Modulus (GPa) = 17.62084 53.86453 35.74269
# Shear Modulus (GPa) = 18.81507 31.92884 25.37196
#
# Velocity S-wave (km/s) = 2.78915 3.63338 3.23889
# Velocity P-wave (km/s) = 4.20215 6.31450 5.36335
#
# Compressibility (1/GPa) = 0.05675097
#
# Stress axis : x y z
#
# Youngs Moduli (GPa) = 19.37677 92.04373 80.32465
#
# Poissons Ratio (x) = 0.53668 -0.04634
# Poissons Ratio (y) = 0.11298 0.30778
# Poissons Ratio (z) = -0.01118 0.35268
#
# Static dielectric constant tensor:
#      x y z
#    x 3.893820 0.254610 -0.000400 
#    y 0.254610 4.579070 0.160760 
#    z -0.000400 0.160760 4.124910 
# 
# 
# High freq. dielectric constant tensor:
#      x y z
#    x 1.924650 0.019810 0.005720 
#    y 0.019810 1.979830 0.012050 
#    z 0.005720 0.012050 1.953090 
# 
# From -- ./inp_files/293561.got.cif
#   From: 2010.06.25/outbox.cif.g09.slc.cpg/sg2_147_cif.got.tgz:293561.got - 2010.06.27 13:26:56.
