data_PCOD8021125
_publ_section_title
;
Structure prediction by ZEFSAII (Michael W. Deem and Ramdas Pophale) SiO2 
 PCOD8021125
Probable space group: P -1
;
_chemical_formula_sum "Si O2"
_cell_formula_units_Z 16
_cell_length_a 8.678285
_cell_length_b 15.057824
_cell_length_c 8.892184
_cell_angle_alpha 139.300458
_cell_angle_beta 95.120302
_cell_angle_gamma 74.426174
_cell_volume 717.723756
_symmetry_space_group_name_H-M "P -1"
_symmetry_group_IT_number 2
_symmetry_cell_setting 'triclinic'
loop_
_space_group_symop_operation_xyz
x,y,z
-x,-y,-z
loop_
_atom_site_type_symbol
_atom_site_label
_atom_site_fract_x
_atom_site_fract_y
_atom_site_fract_z
Si Si1 0.848044 0.639617 0.630116
Si Si2 0.183125 0.354301 0.697314
Si Si3 0.440170 0.066986 0.419500
Si Si4 0.759573 0.113839 0.488941
Si Si5 0.184782 0.600988 0.235092
Si Si6 0.695395 0.165146 0.889646
Si Si7 0.013947 0.099228 0.988744
Si Si8 0.411841 0.425726 0.279957
O O1 0.768747 0.626314 0.444874
O O2 0.704064 0.654663 0.755304
O O3 0.000000 0.500000 0.500000
O O4 0.893377 0.786863 0.820313
O O5 0.296301 0.215204 0.612128
O O6 0.001520 0.343860 0.659234
O O7 0.202304 0.488090 0.959666
O O8 0.592961 0.093680 0.382531
O O9 0.500000 0.000000 0.500000
O O10 0.371458 0.952408 0.181150
O O11 0.758423 0.272475 0.660989
O O12 0.768771 0.097512 0.649038
O O13 0.907267 0.998161 0.271953
O O14 0.299091 0.543081 0.311797
O O15 0.833500 0.192464 0.041703
O O16 0.548543 0.311753 0.047110
O O17 0.000000 0.000000 0.000000
O O18 0.500000 0.500000 0.500000
#
# Coordination Sequence:
#
# PCOD8021125 Si02
#       8
#     2   2   2   2   2   2   2   2
#     4  12  26  48  73 107 148 199 243 300 378 434
#     4  11  25  45  73 103 145 188 245 305 353 446
#     4  10  22  43  68 102 141 181 242 299 366 423
#     4  11  25  43  73 101 144 189 245 296 365 438
#     4  11  25  45  70 107 143 192 246 295 367 434
#     4  11  25  45  69 102 142 192 240 301 364 434
#     4  12  27  46  75 106 150 188 246 304 366 441
#     4  12  28  46  72 107 152 191 245 305 370 439
#
# _framework density 22.292698999999999
#
# number of rings (size 3 to 8) (size 9 to 14) (size 15 to 20)
#    0.000    0.750    1.250    5.625    7.000    3.000 
#    0.000    2.500    0.000    0.000    0.000    0.000 
#    0.000    0.000    0.000    0.000    0.000    0.000 
#
# Total GULP energy -198416.360393 kJ/mol
# GULP energy per Si atom -12401.022525 kJ/mol
# Density = 2.224196 g / cm^3
# Si number density = 22.292699 Si / 1000 Ang^3
#
#
#
# Elastic Constant Matrix: (Units=GPa)
#
#
# Indices 1 2 3 4 5 6 
#
# 1 120.3912 48.6685 43.1281 9.4375 12.9801 -8.3567
# 2 48.6685 116.1970 37.6053 9.8925 1.7124 -14.4873
# 3 43.1281 37.6053 79.7905 1.6218 -2.7581 4.6340
# 4 9.4375 9.8925 1.6218 40.9075 0.2215 5.5355
# 5 12.9801 1.7124 -2.7581 0.2215 44.3453 13.1175
# 6 -8.3567 -14.4873 4.6340 5.5355 13.1175 40.3309
#
#
#
# Elastic Compliance Matrix: (Units=1/GPa)
#
#
# Indices 1 2 3 4 5 6 
#
# 1 0.012533 -0.002442 -0.006012 -0.002641 -0.005261 0.004484
# 2 -0.002442 0.012066 -0.004670 -0.002875 -0.001588 0.005276
# 3 -0.006012 -0.004670 0.018520 0.002716 0.005181 -0.007109
# 4 -0.002641 -0.002875 0.002716 0.026499 0.002828 -0.006449
# 5 -0.005261 -0.001588 0.005181 0.002828 0.027929 -0.011728
# 6 0.004484 0.005276 -0.007109 -0.006449 -0.011728 0.033135
#
#
# Mechanical properties :
#
#
# Convention : Reuss Voigt Hill
#
# Bulk Modulus (GPa) = 59.27135 63.90918 61.59026
# Shear Modulus (GPa) = 30.75930 37.58187 34.17058
#
# Velocity S-wave (km/s) = 3.71859 4.11035 3.91937
# Velocity P-wave (km/s) = 6.71436 7.15940 6.94045
#
# Compressibility (1/GPa) = 0.01687156
#
# Stress axis : x y z
#
# Youngs Moduli (GPa) = 79.79213 82.87659 53.99655
#
# Poissons Ratio (x) = 0.20241 0.32461
# Poissons Ratio (y) = 0.19487 0.25214
# Poissons Ratio (z) = 0.47968 0.38700
#
# Static dielectric constant tensor:
#      x y z
#    x 4.575730 0.089100 0.158140 
#    y 0.089100 3.980760 0.054280 
#    z 0.158140 0.054280 4.117130 
# 
# 
# High freq. dielectric constant tensor:
#      x y z
#    x 1.897960 -0.001520 0.008920 
#    y -0.001520 1.879040 0.007970 
#    z 0.008920 0.007970 1.882910 
# 
# From -- ./inp_files/209451.got.cif
#   From: 2010.06.25/outbox.cif.g09.slc.cpg/sg2_105_cif.got.tgz:209451.got - 2010.06.27 13:26:56.
