data_PCOD8021930
_publ_section_title
;
Structure prediction by ZEFSAII (Michael W. Deem and Ramdas Pophale) SiO2 
 PCOD8021930
Probable space group: P -1
;
_chemical_formula_sum "Si O2"
_cell_formula_units_Z 16
_cell_length_a 11.544677
_cell_length_b 18.921519
_cell_length_c 10.826111
_cell_angle_alpha 150.668425
_cell_angle_beta 123.219378
_cell_angle_gamma 39.306116
_cell_volume 669.861748
_symmetry_space_group_name_H-M "P -1"
_symmetry_group_IT_number 2
_symmetry_cell_setting 'triclinic'
loop_
_space_group_symop_operation_xyz
x,y,z
-x,-y,-z
loop_
_atom_site_type_symbol
_atom_site_label
_atom_site_fract_x
_atom_site_fract_y
_atom_site_fract_z
Si Si1 0.301137 0.376535 0.634160
Si Si2 0.252482 0.845409 0.841068
Si Si3 0.724554 0.881312 0.423274
Si Si4 0.649823 0.641275 0.651170
Si Si5 0.930259 0.706182 0.524555
Si Si6 0.855373 0.091561 0.867998
Si Si7 0.052835 0.817325 0.175995
Si Si8 0.688590 0.917355 0.187223
O O1 0.313961 0.408345 0.546956
O O2 0.136829 0.375392 0.552698
O O3 0.511800 0.165102 0.490308
O O4 0.224629 0.580898 0.971841
O O5 0.462257 0.684436 0.648469
O O6 0.266754 0.761904 0.858853
O O7 0.085978 0.881120 0.721475
O O8 0.183819 0.062575 0.152818
O O9 0.876647 0.707570 0.351900
O O10 0.500000 0.000000 0.500000
O O11 0.741484 0.041146 0.669115
O O12 0.781489 0.789854 0.177602
O O13 0.834166 0.452822 0.557445
O O14 0.600413 0.847796 0.956859
O O15 0.866440 0.207647 0.950533
O O16 0.000000 0.000000 0.500000
O O17 0.851708 0.874579 0.132988
#
# Coordination Sequence:
#
# PCOD8021930 Si02
#       8
#     2   2   2   2   2   2   2   2
#     4  12  25  43  71 108 144 185 241 295 351 427
#     4  10  22  44  71 102 145 185 237 299 358 411
#     4  11  22  45  71  98 143 191 241 292 347 425
#     4  12  24  42  74 114 140 182 241 296 359 423
#     4  11  23  41  71 108 143 186 240 297 353 416
#     4  10  22  44  70  97 143 195 229 297 356 416
#     4  12  26  46  67  98 146 190 237 291 353 426
#     4  12  24  43  71 105 145 190 235 287 363 421
#
# _framework density 23.885525999999999
#
# number of rings (size 3 to 8) (size 9 to 14) (size 15 to 20)
#    0.000    0.750    5.000    3.000    1.750    1.000 
#    0.000   12.500    0.000    0.000    0.000    0.000 
#    0.000    0.000    0.000    0.000    0.000    0.000 
#
# Total GULP energy -198331.576344 kJ/mol
# GULP energy per Si atom -12395.723521 kJ/mol
# Density = 2.383116 g / cm^3
# Si number density = 23.885526 Si / 1000 Ang^3
#
#
#
# Elastic Constant Matrix: (Units=GPa)
#
#
# Indices 1 2 3 4 5 6 
#
# 1 160.5701 32.2246 22.6332 -5.6296 -19.4269 -12.0282
# 2 32.2246 99.2837 25.4340 2.9659 -4.7591 -0.5933
# 3 22.6332 25.4340 103.2352 12.5808 7.8012 4.2937
# 4 -5.6296 2.9659 12.5808 36.4582 -2.4249 -0.6440
# 5 -19.4269 -4.7591 7.8012 -2.4249 13.0297 -4.2592
# 6 -12.0282 -0.5933 4.2937 -0.6440 -4.2592 39.4503
#
#
#
# Elastic Compliance Matrix: (Units=1/GPa)
#
#
# Indices 1 2 3 4 5 6 
#
# 1 0.010045 -0.001359 -0.004137 0.004497 0.019655 0.005688
# 2 -0.001359 0.011441 -0.002864 0.000127 0.004058 0.000510
# 3 -0.004137 -0.002864 0.013656 -0.006413 -0.018172 -0.004857
# 4 0.004497 0.000127 -0.006413 0.031599 0.017951 0.004525
# 5 0.019655 0.004058 -0.018172 0.017951 0.129030 0.022255
# 6 0.005688 0.000510 -0.004857 0.004525 0.022255 0.030095
#
#
# Mechanical properties :
#
#
# Convention : Reuss Voigt Hill
#
# Bulk Modulus (GPa) = 54.28383 58.18584 56.23483
# Shear Modulus (GPa) = 20.10231 36.64080 28.37155
#
# Velocity S-wave (km/s) = 2.90420 3.92090 3.45021
# Velocity P-wave (km/s) = 5.83282 6.70158 6.28224
#
# Compressibility (1/GPa) = 0.01842169
#
# Stress axis : x y z
#
# Youngs Moduli (GPa) = 99.54820 87.40791 73.22763
#
# Poissons Ratio (x) = 0.11877 0.30297
# Poissons Ratio (y) = 0.13526 0.20972
# Poissons Ratio (z) = 0.41187 0.25034
#
# Static dielectric constant tensor:
#      x y z
#    x 4.715160 0.116290 -0.026160 
#    y 0.116290 4.255720 -0.032270 
#    z -0.026160 -0.032270 4.131800 
# 
# 
# High freq. dielectric constant tensor:
#      x y z
#    x 1.976210 0.001850 0.003590 
#    y 0.001850 1.934390 0.000710 
#    z 0.003590 0.000710 1.930890 
# 
# From -- ./inp_files/438534.got.cif
#   From: 2010.06.25/outbox.cif.g09.slc.cpg/sg2_220_cif.got.tgz:438534.got - 2010.06.27 13:26:56.
