data_PCOD8021763
_publ_section_title
;
Structure prediction by ZEFSAII (Michael W. Deem and Ramdas Pophale) SiO2 
 PCOD8021763
Probable space group: P -1
;
_chemical_formula_sum "Si O2"
_cell_formula_units_Z 14
_cell_length_a 12.519595
_cell_length_b 7.883190
_cell_length_c 9.049078
_cell_angle_alpha 44.902103
_cell_angle_beta 59.450593
_cell_angle_gamma 73.471569
_cell_volume 538.715577
_symmetry_space_group_name_H-M "P -1"
_symmetry_group_IT_number 2
_symmetry_cell_setting 'triclinic'
loop_
_space_group_symop_operation_xyz
x,y,z
-x,-y,-z
loop_
_atom_site_type_symbol
_atom_site_label
_atom_site_fract_x
_atom_site_fract_y
_atom_site_fract_z
Si Si1 0.784868 0.707718 0.587034
Si Si2 0.512977 0.203377 0.742875
Si Si3 0.220644 0.907925 0.402395
Si Si4 0.177748 0.675932 0.964272
Si Si5 0.276480 0.355143 0.866681
Si Si6 0.100673 0.413918 0.706464
Si Si7 0.613672 0.904389 0.400176
O O1 0.770570 0.500635 0.845409
O O2 0.894246 0.658970 0.425177
O O3 0.811513 0.969168 0.494371
O O4 0.651675 0.674070 0.609745
O O5 0.658660 0.250179 0.565927
O O6 0.432776 0.426263 0.711545
O O7 0.417767 0.108933 0.739420
O O8 0.500000 0.000000 0.000000
O O9 0.110909 0.707695 0.543083
O O10 0.248607 0.114472 0.133256
O O11 0.031985 0.698241 0.066623
O O12 0.209601 0.576360 0.841533
O O13 0.251967 0.935710 0.776890
O O14 0.211988 0.301211 0.784751
O O15 0.500000 0.000000 0.500000
#
# Coordination Sequence:
#
# PCOD8021763 Si02
#       7
#     2   2   2   2   2   2   2
#     4  11  25  45  71 107 134 188 227 280 351 402
#     4  10  22  44  68 100 135 178 223 284 349 399
#     4  10  24  45  68 103 146 173 229 293 339 405
#     4  11  28  46  66 105 140 179 236 285 338 412
#     4  10  23  44  69 101 136 187 227 282 347 402
#     4  12  25  45  72 102 138 189 234 276 339 418
#     4  12  25  47  71  98 140 177 228 292 343 410
#
# _framework density 25.987742999999998
#
# number of rings (size 3 to 8) (size 9 to 14) (size 15 to 20)
#    0.000    1.143    2.857    1.714    4.000    6.286 
#    2.571    0.000    0.000    0.000    0.000    0.000 
#    0.000    0.000    0.000    0.000    0.000    0.000 
#
# Total GULP energy -173511.600346 kJ/mol
# GULP energy per Si atom -12393.685739 kJ/mol
# Density = 2.592859 g / cm^3
# Si number density = 25.987743 Si / 1000 Ang^3
#
#
#
# Elastic Constant Matrix: (Units=GPa)
#
#
# Indices 1 2 3 4 5 6 
#
# 1 99.0272 11.8558 33.1291 2.4706 -1.7903 -4.1807
# 2 11.8558 111.2478 32.2773 25.0559 5.0471 4.5609
# 3 33.1291 32.2773 64.4916 25.7364 -22.9926 12.1690
# 4 2.4706 25.0559 25.7364 38.9859 -5.2647 -0.4647
# 5 -1.7903 5.0471 -22.9926 -5.2647 49.9284 6.5205
# 6 -4.1807 4.5609 12.1690 -0.4647 6.5205 42.4042
#
#
#
# Elastic Compliance Matrix: (Units=1/GPa)
#
#
# Indices 1 2 3 4 5 6 
#
# 1 0.014804 0.001025 -0.014485 0.007187 -0.006342 0.006560
# 2 0.001025 0.011946 -0.007135 -0.003696 -0.005055 0.001600
# 3 -0.014485 -0.007135 0.046475 -0.022480 0.021526 -0.017554
# 4 0.007187 -0.003696 -0.022480 0.041639 -0.006507 0.009014
# 5 -0.006342 -0.005055 0.021526 -0.006507 0.030988 -0.011095
# 6 0.006560 0.001600 -0.017554 0.009014 -0.011095 0.030900
#
#
# Mechanical properties :
#
#
# Convention : Reuss Voigt Hill
#
# Bulk Modulus (GPa) = 31.21432 47.69898 39.45665
# Shear Modulus (GPa) = 21.87028 39.43067 30.65047
#
# Velocity S-wave (km/s) = 2.90411 3.89945 3.43799
# Velocity P-wave (km/s) = 4.82519 6.21841 5.56556
#
# Compressibility (1/GPa) = 0.03203657
#
# Stress axis : x y z
#
# Youngs Moduli (GPa) = 67.54744 83.71048 21.51677
#
# Poissons Ratio (x) = -0.08580 0.31167
# Poissons Ratio (y) = -0.06924 0.15351
# Poissons Ratio (z) = 0.97843 0.59724
#
# Static dielectric constant tensor:
#      x y z
#    x 4.793980 -0.283950 0.292980 
#    y -0.283950 3.196440 -0.048640 
#    z 0.292980 -0.048640 4.880600 
# 
# 
# High freq. dielectric constant tensor:
#      x y z
#    x 2.050550 -0.019910 0.030120 
#    y -0.019910 2.048700 0.014320 
#    z 0.030120 0.014320 2.061700 
# 
# From -- ./inp_files/241898.got.cif
#   From: 2010.06.25/outbox.cif.g09.slc.cpg/sg2_121_cif.got.tgz:241898.got - 2010.06.27 13:26:56.
