data_PCOD8021841
_publ_section_title
;
Structure prediction by ZEFSAII (Michael W. Deem and Ramdas Pophale) SiO2 
 PCOD8021841
Probable space group: P -1
;
_chemical_formula_sum "Si O2"
_cell_formula_units_Z 16
_cell_length_a 9.281173
_cell_length_b 8.607531
_cell_length_c 14.048347
_cell_angle_alpha 47.387434
_cell_angle_beta 72.457847
_cell_angle_gamma 92.859896
_cell_volume 734.156633
_symmetry_space_group_name_H-M "P -1"
_symmetry_group_IT_number 2
_symmetry_cell_setting 'triclinic'
loop_
_space_group_symop_operation_xyz
x,y,z
-x,-y,-z
loop_
_atom_site_type_symbol
_atom_site_label
_atom_site_fract_x
_atom_site_fract_y
_atom_site_fract_z
Si Si1 0.659550 0.004500 0.909704
Si Si2 0.842371 0.298426 0.088793
Si Si3 0.766043 0.478474 0.374224
Si Si4 0.939295 0.202411 0.913017
Si Si5 0.428989 0.506169 0.907036
Si Si6 0.167108 0.149737 0.629034
Si Si7 0.534921 0.765896 0.591323
Si Si8 0.870111 0.252317 0.602827
O O1 0.822502 0.149473 0.869576
O O2 0.703106 0.142480 0.743943
O O3 0.500000 0.000000 0.000000
O O4 0.650823 0.749533 0.007016
O O5 0.696282 0.372544 0.109785
O O6 0.829482 0.086500 0.241548
O O7 0.835044 0.235669 0.006377
O O8 0.000000 0.500000 0.000000
O O9 0.775898 0.670205 0.370823
O O10 0.599193 0.406474 0.379726
O O11 0.794746 0.267027 0.508201
O O12 0.907364 0.571103 0.229787
O O13 0.000000 0.000000 0.000000
O O14 0.544378 0.660357 0.737676
O O15 0.500000 0.500000 0.000000
O O16 0.292305 0.221664 0.487733
O O17 0.983159 0.101266 0.648038
O O18 0.500000 0.000000 0.500000
O O19 0.000000 0.500000 0.500000
#
# Coordination Sequence:
#
# PCOD8021841 Si02
#       8
#     2   2   2   2   2   2   2   2
#     4  12  26  45  74 105 140 186 247 310 359 436
#     4  12  24  43  70 101 149 193 236 301 374 435
#     4  11  24  44  75 104 145 190 246 306 360 440
#     4  12  22  42  70 106 138 187 248 298 362 433
#     4  12  29  49  67 105 148 190 243 303 373 439
#     4  11  23  45  74 103 147 191 243 302 362 441
#     4  12  27  47  72 107 146 193 249 298 377 442
#     4  10  22  44  69 106 145 178 237 301 368 419
#
# _framework density 21.793714999999999
#
# number of rings (size 3 to 8) (size 9 to 14) (size 15 to 20)
#    0.000    0.500    5.000    4.125    5.250    2.000 
#    0.000    0.625    0.000    0.000    0.000    0.000 
#    0.000    0.000    0.000    0.000    0.000    0.000 
#
# Total GULP energy -198282.967715 kJ/mol
# GULP energy per Si atom -12392.685482 kJ/mol
# Density = 2.174411 g / cm^3
# Si number density = 21.793715 Si / 1000 Ang^3
#
#
#
# Elastic Constant Matrix: (Units=GPa)
#
#
# Indices 1 2 3 4 5 6 
#
# 1 99.3563 28.1794 53.5002 10.9348 6.7809 -12.4670
# 2 28.1794 92.0665 44.6953 -0.2051 -2.0501 -19.6059
# 3 53.5002 44.6953 182.1312 16.8445 0.8364 -15.2613
# 4 10.9348 -0.2051 16.8445 40.9880 -6.7144 -2.3286
# 5 6.7809 -2.0501 0.8364 -6.7144 44.1865 6.9337
# 6 -12.4670 -19.6059 -15.2613 -2.3286 6.9337 40.7534
#
#
#
# Elastic Compliance Matrix: (Units=1/GPa)
#
#
# Indices 1 2 3 4 5 6 
#
# 1 0.012965 -0.002200 -0.002830 -0.002639 -0.002780 0.002170
# 2 -0.002200 0.013857 -0.002523 0.002071 0.000547 0.005074
# 3 -0.002830 -0.002523 0.007192 -0.002223 -0.000239 0.000527
# 4 -0.002639 0.002071 -0.002223 0.026784 0.004597 0.000105
# 5 -0.002780 0.000547 -0.000239 0.004597 0.024506 -0.004584
# 6 0.002170 0.005074 0.000527 0.000105 -0.004584 0.028626
#
#
# Mechanical properties :
#
#
# Convention : Reuss Voigt Hill
#
# Bulk Modulus (GPa) = 52.88814 69.58934 61.23874
# Shear Modulus (GPa) = 36.94428 41.66418 39.30423
#
# Velocity S-wave (km/s) = 4.12172 4.37710 4.25133
# Velocity P-wave (km/s) = 6.85360 7.58588 7.22902
#
# Compressibility (1/GPa) = 0.01890783
#
# Stress axis : x y z
#
# Youngs Moduli (GPa) = 77.13072 72.16371 139.04644
#
# Poissons Ratio (x) = 0.15877 0.39348
# Poissons Ratio (y) = 0.16970 0.35085
# Poissons Ratio (z) = 0.21827 0.18209
#
# Static dielectric constant tensor:
#      x y z
#    x 3.824770 -0.095530 0.082640 
#    y -0.095530 4.057300 0.015230 
#    z 0.082640 0.015230 4.257220 
# 
# 
# High freq. dielectric constant tensor:
#      x y z
#    x 1.855080 -0.007980 0.000430 
#    y -0.007980 1.854860 0.005520 
#    z 0.000430 0.005520 1.885060 
# 
# From -- ./inp_files/494225.got.cif
#   From: 2010.06.25/outbox.cif.g09.slc.cpg/sg2_248_cif.got.tgz:494225.got - 2010.06.27 13:26:56.
