data_PCOD8021960
_publ_section_title
;
Structure prediction by ZEFSAII (Michael W. Deem and Ramdas Pophale) SiO2 
 PCOD8021960
Probable space group: P -1
;
_chemical_formula_sum "Si O2"
_cell_formula_units_Z 12
_cell_length_a 4.983496
_cell_length_b 12.068744
_cell_length_c 9.305757
_cell_angle_alpha 105.642045
_cell_angle_beta 94.253441
_cell_angle_gamma 65.724967
_cell_volume 490.879508
_symmetry_space_group_name_H-M "P -1"
_symmetry_group_IT_number 2
_symmetry_cell_setting 'triclinic'
loop_
_space_group_symop_operation_xyz
x,y,z
-x,-y,-z
loop_
_atom_site_type_symbol
_atom_site_label
_atom_site_fract_x
_atom_site_fract_y
_atom_site_fract_z
Si Si1 0.558085 0.171168 0.223779
Si Si2 0.970287 0.243987 0.086583
Si Si3 0.340854 0.063235 0.659688
Si Si4 0.294266 0.440675 0.402105
Si Si5 0.716037 0.217188 0.762179
Si Si6 0.475530 0.494344 0.827369
O O1 0.856113 0.164392 0.160674
O O2 0.425700 0.288705 0.370304
O O3 0.321196 0.188021 0.093706
O O4 0.636830 0.041066 0.260500
O O5 0.837414 0.391240 0.185798
O O6 0.875284 0.232283 0.918139
O O7 0.504008 0.146999 0.757240
O O8 0.992382 0.144172 0.641256
O O9 0.500000 0.000000 0.500000
O O10 0.500000 0.500000 0.500000
O O11 0.275481 0.476729 0.242156
O O12 0.000000 0.500000 0.500000
O O13 0.506970 0.354597 0.737058
O O14 0.500000 0.500000 0.000000
#
# Coordination Sequence:
#
# PCOD8021960 Si02
#       6
#     2   2   2   2   2   2
#     4  11  24  43  66  95 140 167 224 283 324 402
#     4  10  22  44  71 102 128 168 223 286 340 385
#     4  12  28  44  63  95 138 184 223 269 324 403
#     4  11  24  40  68  98 129 179 224 277 340 395
#     4  11  25  43  71  97 132 181 220 271 340 402
#     4   9  22  44  70 103 138 171 226 287 342 405
#
# _framework density 24.445917000000001
#
# number of rings (size 3 to 8) (size 9 to 14) (size 15 to 20)
#    0.000    1.333    0.000    4.500    4.667    6.667 
#    0.000   14.167    0.000    0.000    0.000    0.000 
#    0.000    0.000    0.000    0.000    0.000    0.000 
#
# Total GULP energy -148754.043846 kJ/mol
# GULP energy per Si atom -12396.170321 kJ/mol
# Density = 2.439028 g / cm^3
# Si number density = 24.445917 Si / 1000 Ang^3
#
#
#
# Elastic Constant Matrix: (Units=GPa)
#
#
# Indices 1 2 3 4 5 6 
#
# 1 109.5073 38.6352 10.7151 4.1016 -9.3928 14.9671
# 2 38.6352 169.6387 15.2680 6.0152 -5.0953 18.0487
# 3 10.7151 15.2680 70.5792 -3.4889 -26.9913 7.6038
# 4 4.1016 6.0152 -3.4889 30.0477 2.3850 1.2008
# 5 -9.3928 -5.0953 -26.9913 2.3850 45.1132 4.2811
# 6 14.9671 18.0487 7.6038 1.2008 4.2811 33.9582
#
#
#
# Elastic Compliance Matrix: (Units=1/GPa)
#
#
# Indices 1 2 3 4 5 6 
#
# 1 0.010582 -0.001886 0.000133 -0.001092 0.002504 -0.003969
# 2 -0.001886 0.006716 -0.000904 -0.001101 0.000122 -0.002512
# 3 0.000133 -0.000904 0.019668 0.001706 0.012131 -0.005572
# 4 -0.001092 -0.001101 0.001706 0.033950 -0.001090 -0.000379
# 5 0.002504 0.000122 0.012131 -0.001090 0.030750 -0.007723
# 6 -0.003969 -0.002512 -0.005572 -0.000379 -0.007723 0.034767
#
#
# Mechanical properties :
#
#
# Convention : Reuss Voigt Hill
#
# Bulk Modulus (GPa) = 31.59380 53.21799 42.40589
# Shear Modulus (GPa) = 32.83053 40.83095 36.83074
#
# Velocity S-wave (km/s) = 3.66865 4.09131 3.88573
# Velocity P-wave (km/s) = 5.55854 6.64345 6.12506
#
# Compressibility (1/GPa) = 0.03165178
#
# Stress axis : x y z
#
# Youngs Moduli (GPa) = 94.49766 148.90435 50.84448
#
# Poissons Ratio (x) = 0.28082 -0.00674
# Poissons Ratio (y) = 0.17821 0.04595
# Poissons Ratio (z) = -0.01253 0.13456
#
# Static dielectric constant tensor:
#      x y z
#    x 4.427790 0.053500 -0.375210 
#    y 0.053500 4.979540 0.051540 
#    z -0.375210 0.051540 4.265850 
# 
# 
# High freq. dielectric constant tensor:
#      x y z
#    x 1.970790 0.009290 -0.016270 
#    y 0.009290 1.986730 0.012710 
#    z -0.016270 0.012710 1.972530 
# 
# From -- ./inp_files/131010.got.cif
#   From: 2010.06.25/outbox.cif.g09.slc.cpg/sg2_66_cif.got.tgz:131010.got - 2010.06.27 13:26:56.
