data_PCOD8021126
_publ_section_title
;
Structure prediction by ZEFSAII (Michael W. Deem and Ramdas Pophale) SiO2 
 PCOD8021126
Probable space group: P -1
;
_chemical_formula_sum "Si O2"
_cell_formula_units_Z 12
_cell_length_a 11.726227
_cell_length_b 5.353856
_cell_length_c 12.003860
_cell_angle_alpha 75.547462
_cell_angle_beta 42.596353
_cell_angle_gamma 67.610903
_cell_volume 471.042873
_symmetry_space_group_name_H-M "P -1"
_symmetry_group_IT_number 2
_symmetry_cell_setting 'triclinic'
loop_
_space_group_symop_operation_xyz
x,y,z
-x,-y,-z
loop_
_atom_site_type_symbol
_atom_site_label
_atom_site_fract_x
_atom_site_fract_y
_atom_site_fract_z
Si Si1 0.182231 0.917331 0.741164
Si Si2 0.854623 0.805621 0.722838
Si Si3 0.226439 0.861836 0.468542
Si Si4 0.310774 0.664832 0.071472
Si Si5 0.143625 0.220185 0.947009
Si Si6 0.608390 0.501713 0.203485
O O1 0.239503 0.976606 0.570179
O O2 0.309386 0.626162 0.723631
O O3 0.219988 0.122140 0.780618
O O4 0.969179 0.956496 0.891337
O O5 0.816882 0.523311 0.803194
O O6 0.064709 0.736614 0.591944
O O7 0.796229 0.894338 0.628667
O O8 0.757803 0.051225 0.847686
O O9 0.398740 0.616303 0.343467
O O10 0.500000 0.500000 0.000000
O O11 0.333239 0.715582 0.916423
O O12 0.302869 0.254648 0.907011
O O13 0.000000 0.500000 0.000000
#
# Coordination Sequence:
#
# PCOD8021126 Si02
#       6
#     2   2   2   2   2   2
#     4  10  22  43  68 102 142 189 237 298 368 430
#     4  11  28  51  73 110 145 198 240 301 364 428
#     4  11  25  46  69 107 151 187 238 303 370 431
#     4  12  26  50  79 104 143 193 254 295 354 437
#     4   9  21  40  65 100 136 189 240 290 357 429
#     4  11  24  42  71 106 140 189 242 302 358 432
#
# _framework density 25.475384999999999
#
# number of rings (size 3 to 8) (size 9 to 14) (size 15 to 20)
#    0.000    1.333    1.667    2.000    9.333    3.333 
#    9.000    0.000    0.000    0.000    0.000    0.000 
#    0.000    0.000    0.000    0.000    0.000    0.000 
#
# Total GULP energy -148771.106166 kJ/mol
# GULP energy per Si atom -12397.592181 kJ/mol
# Density = 2.541740 g / cm^3
# Si number density = 25.475385 Si / 1000 Ang^3
#
#
#
# Elastic Constant Matrix: (Units=GPa)
#
#
# Indices 1 2 3 4 5 6 
#
# 1 117.5820 14.1802 58.8954 -0.0883 12.5220 -12.4768
# 2 14.1802 70.7333 30.9204 0.8133 2.4050 11.6748
# 3 58.8954 30.9204 129.0756 14.0955 13.9916 -8.8171
# 4 -0.0883 0.8133 14.0955 24.1341 -15.4843 -2.4886
# 5 12.5220 2.4050 13.9916 -15.4843 72.6726 2.1704
# 6 -12.4768 11.6748 -8.8171 -2.4886 2.1704 39.5407
#
#
#
# Elastic Compliance Matrix: (Units=1/GPa)
#
#
# Indices 1 2 3 4 5 6 
#
# 1 0.011543 -0.000508 -0.005260 0.003191 -0.000364 0.002840
# 2 -0.000508 0.017251 -0.004682 0.002198 0.001072 -0.006218
# 3 -0.005260 -0.004682 0.012813 -0.009341 -0.003461 0.002182
# 4 0.003191 0.002198 -0.009341 0.055219 0.012910 0.001042
# 5 -0.000364 0.001072 -0.003461 0.012910 0.017245 -0.001337
# 6 0.002840 -0.006218 0.002182 0.001042 -0.001337 0.028648
#
#
# Mechanical properties :
#
#
# Convention : Reuss Voigt Hill
#
# Bulk Modulus (GPa) = 48.29113 58.37587 53.33350
# Shear Modulus (GPa) = 29.32192 41.49581 35.40887
#
# Velocity S-wave (km/s) = 3.39631 4.04029 3.73221
# Velocity P-wave (km/s) = 5.86319 6.68802 6.28914
#
# Compressibility (1/GPa) = 0.02070774
#
# Stress axis : x y z
#
# Youngs Moduli (GPa) = 86.62981 57.96913 78.04321
#
# Poissons Ratio (x) = 0.02943 0.41054
# Poissons Ratio (y) = 0.04398 0.36538
# Poissons Ratio (z) = 0.45571 0.27139
#
# Static dielectric constant tensor:
#      x y z
#    x 5.082490 -0.241270 0.156300 
#    y -0.241270 19.269460 -9.117830 
#    z 0.156300 -9.117830 10.405310 
# 
# 
# High freq. dielectric constant tensor:
#      x y z
#    x 2.037620 -0.009710 0.003480 
#    y -0.009710 2.011380 0.013660 
#    z 0.003480 0.013660 2.015250 
# 
# From -- ./inp_files/59647.got.cif
#   From: 2010.06.25/outbox.cif.g09.slc.cpg/sg2_30_cif.got.tgz:59647.got - 2010.06.27 13:26:56.
