data_PCOD8021708
_publ_section_title
;
Structure prediction by ZEFSAII (Michael W. Deem and Ramdas Pophale) SiO2 
 PCOD8021708
Probable space group: P -1
;
_chemical_formula_sum "Si O2"
_cell_formula_units_Z 14
_cell_length_a 13.687368
_cell_length_b 22.572560
_cell_length_c 6.376108
_cell_angle_alpha 57.311811
_cell_angle_beta 62.143421
_cell_angle_gamma 20.957971
_cell_volume 588.508128
_symmetry_space_group_name_H-M "P -1"
_symmetry_group_IT_number 2
_symmetry_cell_setting 'triclinic'
loop_
_space_group_symop_operation_xyz
x,y,z
-x,-y,-z
loop_
_atom_site_type_symbol
_atom_site_label
_atom_site_fract_x
_atom_site_fract_y
_atom_site_fract_z
Si Si1 0.494626 0.330951 0.108245
Si Si2 0.072763 0.136403 0.237650
Si Si3 0.680874 0.688585 0.978207
Si Si4 0.319513 0.719784 0.380199
Si Si5 0.285908 0.872583 0.342781
Si Si6 0.567185 0.895804 0.483001
Si Si7 0.133871 0.609934 0.261273
O O1 0.431290 0.300185 0.097090
O O2 0.707730 0.180614 0.357131
O O3 0.218222 0.521653 0.129795
O O4 0.631281 0.311652 0.860513
O O5 0.873200 0.232565 0.448548
O O6 0.112395 0.043516 0.234544
O O7 0.346879 0.012578 0.293610
O O8 0.928189 0.273441 0.959360
O O9 0.557193 0.835948 0.762883
O O10 0.585280 0.724157 0.241920
O O11 0.000000 0.500000 0.000000
O O12 0.174620 0.880793 0.267189
O O13 0.617366 0.539806 0.537217
O O14 0.866377 0.728724 0.398710
O O15 0.500000 0.000000 0.500000
#
# Coordination Sequence:
#
# PCOD8021708 Si02
#       7
#     2   2   2   2   2   2   2
#     4  10  22  44  68 101 132 179 228 275 337 405
#     4  12  25  45  71 101 139 184 220 283 351 392
#     4  11  23  40  70  96 138 180 226 276 338 407
#     4  10  24  47  72 100 137 178 229 280 333 414
#     4  10  22  44  67 104 132 174 227 285 335 403
#     4  12  27  46  67 103 140 180 226 285 339 399
#     4  11  26  46  71  98 141 179 231 276 336 412
#
# _framework density 23.788965999999999
#
# number of rings (size 3 to 8) (size 9 to 14) (size 15 to 20)
#    0.000    1.143    1.429    4.714    6.000    2.286 
#   10.286    0.000    0.000    0.000    0.000    0.000 
#    0.000    0.000    0.000    0.000    0.000    0.000 
#
# Total GULP energy -173534.816740 kJ/mol
# GULP energy per Si atom -12395.344053 kJ/mol
# Density = 2.373482 g / cm^3
# Si number density = 23.788966 Si / 1000 Ang^3
#
#
#
# Elastic Constant Matrix: (Units=GPa)
#
#
# Indices 1 2 3 4 5 6 
#
# 1 69.5618 32.8147 21.7104 0.3356 -6.0183 6.8675
# 2 32.8147 96.6452 38.8264 15.8349 -9.1618 17.1413
# 3 21.7104 38.8264 144.5978 20.0881 -12.9042 12.8385
# 4 0.3356 15.8349 20.0881 51.7507 -2.1998 -14.4854
# 5 -6.0183 -9.1618 -12.9042 -2.1998 35.4896 5.3783
# 6 6.8675 17.1413 12.8385 -14.4854 5.3783 32.1178
#
#
#
# Elastic Compliance Matrix: (Units=1/GPa)
#
#
# Indices 1 2 3 4 5 6 
#
# 1 0.017573 -0.005891 -0.001405 0.002536 0.000964 0.000930
# 2 -0.005891 0.016367 -0.001133 -0.007454 0.004028 -0.011059
# 3 -0.001405 -0.001133 0.008767 -0.004336 0.003158 -0.005083
# 4 0.002536 -0.007454 -0.004336 0.028310 -0.004139 0.018630
# 5 0.000964 0.004028 0.003158 -0.004139 0.031914 -0.010829
# 6 0.000930 -0.011059 -0.005083 0.018630 -0.010829 0.049086
#
#
# Mechanical properties :
#
#
# Convention : Reuss Voigt Hill
#
# Bulk Modulus (GPa) = 38.68932 55.27865 46.98398
# Shear Modulus (GPa) = 28.17035 38.36850 33.26942
#
# Velocity S-wave (km/s) = 3.44492 4.02041 3.74374
# Velocity P-wave (km/s) = 5.66764 6.69620 6.20328
#
# Compressibility (1/GPa) = 0.02584693
#
# Stress axis : x y z
#
# Youngs Moduli (GPa) = 56.90656 61.09722 114.06991
#
# Poissons Ratio (x) = 0.35993 0.16032
# Poissons Ratio (y) = 0.33524 0.12928
# Poissons Ratio (z) = 0.07998 0.06925
#
# Static dielectric constant tensor:
#      x y z
#    x 4.179360 0.138480 -0.186020 
#    y 0.138480 4.646020 0.377050 
#    z -0.186020 0.377050 4.931080 
# 
# 
# High freq. dielectric constant tensor:
#      x y z
#    x 1.935170 0.006800 -0.016050 
#    y 0.006800 1.956000 0.014110 
#    z -0.016050 0.014110 1.960700 
# 
# From -- ./inp_files/72029.got.cif
#   From: 2010.06.25/outbox.cif.g09.slc.cpg/sg2_37_cif.got.tgz:72029.got - 2010.06.27 13:26:56.
