data_PCOD8021815
_publ_section_title
;
Structure prediction by ZEFSAII (Michael W. Deem and Ramdas Pophale) SiO2 
 PCOD8021815
Probable space group: P -1
;
_chemical_formula_sum "Si O2"
_cell_formula_units_Z 16
_cell_length_a 22.727057
_cell_length_b 7.712883
_cell_length_c 6.535160
_cell_angle_alpha 89.099034
_cell_angle_beta 120.662233
_cell_angle_gamma 126.925729
_cell_volume 713.908841
_symmetry_space_group_name_H-M "P -1"
_symmetry_group_IT_number 2
_symmetry_cell_setting 'triclinic'
loop_
_space_group_symop_operation_xyz
x,y,z
-x,-y,-z
loop_
_atom_site_type_symbol
_atom_site_label
_atom_site_fract_x
_atom_site_fract_y
_atom_site_fract_z
Si Si1 0.235222 0.328327 0.751615
Si Si2 0.426859 0.995824 0.481305
Si Si3 0.777283 0.403868 0.938303
Si Si4 0.980840 0.559163 0.756070
Si Si5 0.099703 0.255578 0.216102
Si Si6 0.465439 0.331364 0.247858
Si Si7 0.565322 0.398441 0.043440
Si Si8 0.151207 0.840114 0.786198
O O1 0.165190 0.224292 0.437080
O O2 0.340635 0.540737 0.845548
O O3 0.222844 0.119650 0.843266
O O4 0.215724 0.450919 0.866781
O O5 0.398186 0.077362 0.243744
O O6 0.500000 0.000000 0.500000
O O7 0.323539 0.742021 0.355920
O O8 0.474857 0.160618 0.766632
O O9 0.858406 0.594890 0.920672
O O10 0.791446 0.230647 0.041996
O O11 0.915796 0.614567 0.656722
O O12 0.922059 0.322170 0.521967
O O13 0.084159 0.791539 0.849749
O O14 0.000000 0.500000 0.000000
O O15 0.000000 0.000000 0.000000
O O16 0.500000 0.500000 0.500000
O O17 0.545494 0.366255 0.254238
O O18 0.414621 0.367921 0.995597
#
# Coordination Sequence:
#
# PCOD8021815 Si02
#       8
#     2   2   2   2   2   2   2   2
#     4  12  26  44  71 106 138 188 236 292 359 424
#     4  11  23  41  67  99 142 181 230 291 349 417
#     4  12  26  47  69 106 142 188 238 291 355 434
#     4  11  22  45  68  99 138 181 230 299 353 415
#     4  12  27  45  70 105 143 180 239 298 359 428
#     4   9  21  42  67  97 135 180 231 289 351 420
#     4  10  22  44  68  98 139 182 234 290 356 418
#     4  11  25  44  73  98 140 186 239 287 357 426
#
# _framework density 22.411826000000001
#
# number of rings (size 3 to 8) (size 9 to 14) (size 15 to 20)
#    0.000    1.000    3.750    2.250    3.500    2.500 
#    6.750    0.000    0.000    0.000    0.000    0.000 
#    0.000    0.000    0.000    0.000    0.000    0.000 
#
# Total GULP energy -198286.811569 kJ/mol
# GULP energy per Si atom -12392.925723 kJ/mol
# Density = 2.236082 g / cm^3
# Si number density = 22.411826 Si / 1000 Ang^3
#
#
#
# Elastic Constant Matrix: (Units=GPa)
#
#
# Indices 1 2 3 4 5 6 
#
# 1 126.7418 34.2788 38.8640 -0.0574 -10.9898 13.6509
# 2 34.2788 91.6977 45.5836 -3.9262 3.6015 7.5316
# 3 38.8640 45.5836 109.0708 1.0469 4.6858 14.9597
# 4 -0.0574 -3.9262 1.0469 31.2847 7.2823 5.3478
# 5 -10.9898 3.6015 4.6858 7.2823 40.6317 -2.5222
# 6 13.6509 7.5316 14.9597 5.3478 -2.5222 38.0326
#
#
#
# Elastic Compliance Matrix: (Units=1/GPa)
#
#
# Indices 1 2 3 4 5 6 
#
# 1 0.009737 -0.002495 -0.002309 -0.000638 0.003124 -0.001796
# 2 -0.002495 0.014586 -0.005087 0.002509 -0.001860 -0.000468
# 3 -0.002309 -0.005087 0.012641 -0.000088 -0.001817 -0.003244
# 4 -0.000638 0.002509 -0.000088 0.034863 -0.006981 -0.005598
# 5 0.003124 -0.001860 -0.001817 -0.006981 0.027253 0.002751
# 6 -0.001796 -0.000468 -0.003244 -0.005598 0.002751 0.029276
#
#
# Mechanical properties :
#
#
# Convention : Reuss Voigt Hill
#
# Bulk Modulus (GPa) = 58.19727 62.77368 60.48547
# Shear Modulus (GPa) = 32.49658 35.90872 34.20265
#
# Velocity S-wave (km/s) = 3.81198 4.00712 3.91077
# Velocity P-wave (km/s) = 6.73784 7.03415 6.88759
#
# Compressibility (1/GPa) = 0.01718294
#
# Stress axis : x y z
#
# Youngs Moduli (GPa) = 102.70467 68.56085 79.10965
#
# Poissons Ratio (x) = 0.17104 0.18263
# Poissons Ratio (y) = 0.25622 0.40241
# Poissons Ratio (z) = 0.23709 0.34875
#
# Static dielectric constant tensor:
#      x y z
#    x 3.693580 -0.196460 0.081980 
#    y -0.196460 4.770900 -0.360040 
#    z 0.081980 -0.360040 3.920790 
# 
# 
# High freq. dielectric constant tensor:
#      x y z
#    x 1.899910 0.001230 -0.001480 
#    y 0.001230 1.887420 -0.010360 
#    z -0.001480 -0.010360 1.876390 
# 
# From -- ./inp_files/122932.got.cif
#   From: 2010.06.25/outbox.cif.g09.slc.cpg/sg2_62_cif.got.tgz:122932.got - 2010.06.27 13:26:56.
