data_PCOD8021188
_publ_section_title
;
Structure prediction by ZEFSAII (Michael W. Deem and Ramdas Pophale) SiO2 
 PCOD8021188
Probable space group: P -1
;
_chemical_formula_sum "Si O2"
_cell_formula_units_Z 16
_cell_length_a 8.773032
_cell_length_b 9.836339
_cell_length_c 15.770831
_cell_angle_alpha 110.493855
_cell_angle_beta 36.879883
_cell_angle_gamma 112.297540
_cell_volume 753.012252
_symmetry_space_group_name_H-M "P -1"
_symmetry_group_IT_number 2
_symmetry_cell_setting 'triclinic'
loop_
_space_group_symop_operation_xyz
x,y,z
-x,-y,-z
loop_
_atom_site_type_symbol
_atom_site_label
_atom_site_fract_x
_atom_site_fract_y
_atom_site_fract_z
Si Si1 0.721427 0.905062 0.371117
Si Si2 0.809965 0.864991 0.519202
Si Si3 0.575381 0.393919 0.640394
Si Si4 0.150319 0.584770 0.876672
Si Si5 0.094141 0.085191 0.111635
Si Si6 0.691053 0.094921 0.148098
Si Si7 0.209682 0.422921 0.123529
Si Si8 0.965164 0.422828 0.613186
O O1 0.802222 0.862858 0.419953
O O2 0.596555 0.760090 0.343132
O O3 0.500000 0.000000 0.500000
O O4 0.972737 0.993154 0.228557
O O5 0.550786 0.887029 0.684164
O O6 0.897195 0.717613 0.480907
O O7 0.000000 0.000000 0.500000
O O8 0.405273 0.519450 0.727475
O O9 0.680052 0.387889 0.688816
O O10 0.843067 0.436119 0.479518
O O11 0.224466 0.753756 0.907474
O O12 0.948205 0.578573 0.890994
O O13 0.000000 0.500000 0.000000
O O14 0.189126 0.255907 0.132420
O O15 0.882810 0.059697 0.127076
O O16 0.334078 0.023942 0.944697
O O17 0.076465 0.528652 0.263609
O O18 0.500000 0.500000 0.000000
#
# Coordination Sequence:
#
# PCOD8021188 Si02
#       8
#     2   2   2   2   2   2   2   2
#     4  12  23  42  70 101 133 179 231 276 340 414
#     4  12  26  43  68 102 141 179 224 284 344 404
#     4  11  24  42  70  96 133 178 226 284 334 403
#     4  11  22  42  67  99 130 177 229 272 341 408
#     4  10  23  43  69 101 133 180 228 273 339 413
#     4  10  22  43  68  97 137 178 222 279 337 406
#     4  11  25  43  69  98 140 179 221 284 343 406
#     4  11  25  43  66 102 135 175 229 286 341 395
#
# _framework density 21.247995
#
# number of rings (size 3 to 8) (size 9 to 14) (size 15 to 20)
#    0.000    1.000    2.500    3.750    3.500    3.000 
#    2.250    0.625    0.000    0.000    0.000    0.000 
#    0.000    0.000    0.000    0.000    0.000    0.000 
#
# Total GULP energy -198279.982344 kJ/mol
# GULP energy per Si atom -12392.498897 kJ/mol
# Density = 2.119963 g / cm^3
# Si number density = 21.247995 Si / 1000 Ang^3
#
#
#
# Elastic Constant Matrix: (Units=GPa)
#
#
# Indices 1 2 3 4 5 6 
#
# 1 55.3171 51.4990 15.9197 -7.7181 -11.1129 3.8512
# 2 51.4990 118.8912 48.4412 -1.9097 7.7360 5.2010
# 3 15.9197 48.4412 118.4907 1.7997 5.2157 3.0945
# 4 -7.7181 -1.9097 1.7997 43.5977 -7.1120 -0.5634
# 5 -11.1129 7.7360 5.2157 -7.1120 27.6681 1.7756
# 6 3.8512 5.2010 3.0945 -0.5634 1.7756 34.4370
#
#
#
# Elastic Compliance Matrix: (Units=1/GPa)
#
#
# Indices 1 2 3 4 5 6 
#
# 1 0.044750 -0.021409 0.001472 0.011251 0.026773 -0.003100
# 2 -0.021409 0.020496 -0.004786 -0.005098 -0.014764 0.000407
# 3 0.001472 -0.004786 0.010217 -0.000387 -0.000073 -0.000362
# 4 0.011251 -0.005098 -0.000387 0.026826 0.012957 -0.000683
# 5 0.026773 -0.014764 -0.000073 0.012957 0.054584 -0.003360
# 6 -0.003100 0.000407 -0.000362 -0.000683 -0.003360 0.029518
#
#
# Mechanical properties :
#
#
# Convention : Reuss Voigt Hill
#
# Bulk Modulus (GPa) = 38.43855 58.26874 48.35365
# Shear Modulus (GPa) = 20.44905 32.92985 26.68945
#
# Velocity S-wave (km/s) = 3.10562 3.94100 3.54798
# Velocity P-wave (km/s) = 5.56683 6.94200 6.29210
#
# Compressibility (1/GPa) = 0.02601555
#
# Stress axis : x y z
#
# Youngs Moduli (GPa) = 22.34639 48.79069 97.87725
#
# Poissons Ratio (x) = 1.04458 -0.14405
# Poissons Ratio (y) = 0.47842 0.46843
# Poissons Ratio (z) = -0.03289 0.23351
#
# Static dielectric constant tensor:
#      x y z
#    x 3.870240 0.024640 0.163820 
#    y 0.024640 4.037990 -0.002120 
#    z 0.163820 -0.002120 3.568680 
# 
# 
# High freq. dielectric constant tensor:
#      x y z
#    x 1.826440 -0.003140 0.000820 
#    y -0.003140 1.848990 0.004240 
#    z 0.000820 0.004240 1.849260 
# 
# From -- ./inp_files/403217.got.cif
#   From: 2010.06.25/outbox.cif.g09.slc.cpg/sg2_202_cif.got.tgz:403217.got - 2010.06.27 13:26:56.
