data_PCOD8021835
_publ_section_title
;
Structure prediction by ZEFSAII (Michael W. Deem and Ramdas Pophale) SiO2 
 PCOD8021835
Probable space group: P -1
;
_chemical_formula_sum "Si O2"
_cell_formula_units_Z 14
_cell_length_a 12.694588
_cell_length_b 8.849401
_cell_length_c 24.971706
_cell_angle_alpha 29.403155
_cell_angle_beta 26.763991
_cell_angle_gamma 35.762182
_cell_volume 613.006040
_symmetry_space_group_name_H-M "P -1"
_symmetry_group_IT_number 2
_symmetry_cell_setting 'triclinic'
loop_
_space_group_symop_operation_xyz
x,y,z
-x,-y,-z
loop_
_atom_site_type_symbol
_atom_site_label
_atom_site_fract_x
_atom_site_fract_y
_atom_site_fract_z
Si Si1 0.313069 0.651269 0.581019
Si Si2 0.833193 0.795409 0.461740
Si Si3 0.874817 0.828511 0.656118
Si Si4 0.189007 0.186388 0.126611
Si Si5 0.904107 0.672079 0.043454
Si Si6 0.297990 0.788247 0.093876
Si Si7 0.483978 0.598071 0.326545
O O1 0.500000 0.500000 0.500000
O O2 0.361720 0.443058 0.676681
O O3 0.055503 0.652451 0.671833
O O4 0.330572 0.014720 0.476070
O O5 0.671689 0.682895 0.522890
O O6 0.000000 0.500000 0.500000
O O7 0.988273 0.053620 0.292273
O O8 0.743710 0.564614 0.770653
O O9 0.686116 0.073872 0.696841
O O10 0.000000 0.000000 0.500000
O O11 0.094214 0.547884 0.041414
O O12 0.235196 0.962803 0.123821
O O13 0.426628 0.197300 0.049098
O O14 0.650356 0.584253 0.203271
O O15 0.000000 0.500000 0.000000
O O16 0.862155 0.041702 0.934858
#
# Coordination Sequence:
#
# PCOD8021835 Si02
#       7
#     2   2   2   2   2   2   2
#     4  12  27  44  71 111 151 190 238 302 383 433
#     4  12  24  44  77 107 147 189 248 303 362 441
#     4  12  26  48  70 108 148 189 244 309 374 440
#     4  10  22  44  69 103 137 190 242 293 362 438
#     4  10  23  44  68 101 139 186 246 295 358 432
#     4  10  24  43  70  99 143 186 239 300 363 430
#     4  12  25  46  74 107 146 196 248 303 366 438
#
# _framework density 22.838273000000001
#
# number of rings (size 3 to 8) (size 9 to 14) (size 15 to 20)
#    0.000    0.857    4.286    2.143    0.000    2.857 
#    0.000    1.429    0.000    0.000    0.000    0.000 
#    0.000    0.000    0.000    0.000    0.000    0.000 
#
# Total GULP energy -173488.256000 kJ/mol
# GULP energy per Si atom -12392.018286 kJ/mol
# Density = 2.278629 g / cm^3
# Si number density = 22.838273 Si / 1000 Ang^3
#
#
#
# Elastic Constant Matrix: (Units=GPa)
#
#
# Indices 1 2 3 4 5 6 
#
# 1 105.7225 54.9161 46.2805 0.6863 0.2828 -13.0455
# 2 54.9161 181.2176 57.7939 3.6311 1.5713 -8.7405
# 3 46.2805 57.7939 121.2155 -3.1668 2.3164 6.6818
# 4 0.6863 3.6311 -3.1668 42.0973 4.9456 2.0786
# 5 0.2828 1.5713 2.3164 4.9456 33.1848 -4.3370
# 6 -13.0455 -8.7405 6.6818 2.0786 -4.3370 33.5126
#
#
#
# Elastic Compliance Matrix: (Units=1/GPa)
#
#
# Indices 1 2 3 4 5 6 
#
# 1 0.013258 -0.002379 -0.004277 -0.000742 0.001139 0.005586
# 2 -0.002379 0.007165 -0.002620 -0.000876 0.000196 0.001545
# 3 -0.004277 -0.002620 0.011474 0.001581 -0.001520 -0.004930
# 4 -0.000742 -0.000876 0.001581 0.024586 -0.004104 -0.002889
# 5 0.001139 0.000196 -0.001520 -0.004104 0.031503 0.005129
# 6 0.005586 0.001545 -0.004930 -0.002889 0.005129 0.034243
#
#
# Mechanical properties :
#
#
# Convention : Reuss Voigt Hill
#
# Bulk Modulus (GPa) = 74.93041 80.68182 77.80612
# Shear Modulus (GPa) = 34.42865 38.36996 36.39930
#
# Velocity S-wave (km/s) = 3.88686 4.10332 3.99656
# Velocity P-wave (km/s) = 7.28176 7.60617 7.44573
#
# Compressibility (1/GPa) = 0.01334572
#
# Stress axis : x y z
#
# Youngs Moduli (GPa) = 75.42732 139.56719 87.15630
#
# Poissons Ratio (x) = 0.33208 0.37273
# Poissons Ratio (y) = 0.17947 0.22831
# Poissons Ratio (z) = 0.32257 0.36560
#
# Static dielectric constant tensor:
#      x y z
#    x 3.670110 0.021470 0.016290 
#    y 0.021470 4.652060 0.089530 
#    z 0.016290 0.089530 3.996540 
# 
# 
# High freq. dielectric constant tensor:
#      x y z
#    x 1.897770 -0.016800 0.013560 
#    y -0.016800 1.933410 0.008600 
#    z 0.013560 0.008600 1.877830 
# 
# From -- ./inp_files/609977.got.cif
#   From: 2010.06.25/outbox.cif.g09.slc.cpg/sg2_305_cif.got.tgz:609977.got - 2010.06.27 13:26:56.
