data_PCOD8021112
_publ_section_title
;
Structure prediction by ZEFSAII (Michael W. Deem and Ramdas Pophale) SiO2 
 PCOD8021112
Probable space group: P -1
;
_chemical_formula_sum "Si O2"
_cell_formula_units_Z 14
_cell_length_a 8.912785
_cell_length_b 13.314194
_cell_length_c 19.426916
_cell_angle_alpha 30.086930
_cell_angle_beta 134.405593
_cell_angle_gamma 147.285455
_cell_volume 621.185881
_symmetry_space_group_name_H-M "P -1"
_symmetry_group_IT_number 2
_symmetry_cell_setting 'triclinic'
loop_
_space_group_symop_operation_xyz
x,y,z
-x,-y,-z
loop_
_atom_site_type_symbol
_atom_site_label
_atom_site_fract_x
_atom_site_fract_y
_atom_site_fract_z
Si Si1 0.357539 0.765343 0.385785
Si Si2 0.234997 0.304536 0.415700
Si Si3 0.073339 0.696889 0.565302
Si Si4 0.748702 0.251797 0.888242
Si Si5 0.608291 0.086912 0.143426
Si Si6 0.128003 0.347076 0.066538
Si Si7 0.404064 0.109623 0.313352
O O1 0.469169 0.623251 0.535016
O O2 0.055304 0.542261 0.387485
O O3 0.583852 0.985896 0.272299
O O4 0.307962 0.890617 0.355822
O O5 0.252108 0.506156 0.250653
O O6 0.173434 0.344225 0.449493
O O7 0.000000 0.000000 0.500000
O O8 0.261994 0.697941 0.681841
O O9 0.257873 0.975907 0.418857
O O10 0.689577 0.139837 0.857070
O O11 0.034830 0.355656 0.954265
O O12 0.500000 0.000000 0.000000
O O13 0.858295 0.132527 0.155354
O O14 0.679180 0.366207 0.004601
O O15 0.320363 0.274693 0.162098
#
# Coordination Sequence:
#
# PCOD8021112 Si02
#       7
#     2   2   2   2   2   2   2
#     4  12  24  42  71  99 130 174 226 278 332 390
#     4  12  23  43  74 102 132 172 231 284 327 394
#     4  11  25  45  64  97 134 171 225 273 336 395
#     4  10  23  41  66 102 131 170 225 275 330 396
#     4  10  22  43  68 100 125 175 228 273 328 395
#     4  10  23  44  68  93 138 174 218 271 340 400
#     4  11  26  45  64  98 137 177 214 280 342 401
#
# _framework density 22.537538000000001
#
# number of rings (size 3 to 8) (size 9 to 14) (size 15 to 20)
#    0.000    1.143    2.857    2.571    4.000    4.000 
#    0.000    1.429    0.000    0.000    0.000    0.000 
#    0.000    0.000    0.000    0.000    0.000    0.000 
#
# Total GULP energy -173616.960994 kJ/mol
# GULP energy per Si atom -12401.211500 kJ/mol
# Density = 2.248624 g / cm^3
# Si number density = 22.537538 Si / 1000 Ang^3
#
#
#
# Elastic Constant Matrix: (Units=GPa)
#
#
# Indices 1 2 3 4 5 6 
#
# 1 65.9469 12.2966 31.1350 4.5428 25.7932 -12.4958
# 2 12.2966 136.9563 38.3174 -7.7127 29.9639 -14.3646
# 3 31.1350 38.3174 139.8392 5.3146 23.9785 -2.5856
# 4 4.5428 -7.7127 5.3146 34.9776 -0.1446 -2.6044
# 5 25.7932 29.9639 23.9785 -0.1446 42.5463 -2.2806
# 6 -12.4958 -14.3646 -2.5856 -2.6044 -2.2806 22.8174
#
#
#
# Elastic Compliance Matrix: (Units=1/GPa)
#
#
# Indices 1 2 3 4 5 6 
#
# 1 0.024547 0.003345 -0.003612 -0.000950 -0.014476 0.013584
# 2 0.003345 0.010220 -0.002210 0.002687 -0.007565 0.007566
# 3 -0.003612 -0.002210 0.008805 -0.001562 -0.001365 -0.002687
# 4 -0.000950 0.002687 -0.001562 0.029870 -0.000099 0.004394
# 5 -0.014476 -0.007565 -0.001365 -0.000099 0.037891 -0.009069
# 6 0.013584 0.007566 -0.002687 0.004394 -0.009069 0.055319
#
#
# Mechanical properties :
#
#
# Convention : Reuss Voigt Hill
#
# Bulk Modulus (GPa) = 25.89563 56.24896 41.07229
# Shear Modulus (GPa) = 27.10362 37.46782 32.28572
#
# Velocity S-wave (km/s) = 3.47161 4.08175 3.78899
# Velocity P-wave (km/s) = 5.25209 6.87214 6.11599
#
# Compressibility (1/GPa) = 0.03861656
#
# Stress axis : x y z
#
# Youngs Moduli (GPa) = 40.73833 97.85178 113.57568
#
# Poissons Ratio (x) = -0.32734 0.41028
# Poissons Ratio (y) = -0.13628 0.25101
# Poissons Ratio (z) = 0.14716 0.21626
#
# Static dielectric constant tensor:
#      x y z
#    x 3.855290 -0.136280 -0.116480 
#    y -0.136280 4.527150 0.200560 
#    z -0.116480 0.200560 4.199900 
# 
# 
# High freq. dielectric constant tensor:
#      x y z
#    x 1.866200 -0.007020 -0.012040 
#    y -0.007020 1.906120 -0.002500 
#    z -0.012040 -0.002500 1.890810 
# 
# From -- ./inp_files/559607.got.cif
#   From: 2010.06.25/outbox.cif.g09.slc.cpg/sg2_280_cif.got.tgz:559607.got - 2010.06.27 13:26:56.
