data_PCOD8021964
_publ_section_title
;
Structure prediction by ZEFSAII (Michael W. Deem and Ramdas Pophale) SiO2 
 PCOD8021964
Probable space group: P -1
;
_chemical_formula_sum "Si O2"
_cell_formula_units_Z 16
_cell_length_a 11.848052
_cell_length_b 8.679463
_cell_length_c 17.341886
_cell_angle_alpha 58.127323
_cell_angle_beta 144.346909
_cell_angle_gamma 97.037111
_cell_volume 693.091983
_symmetry_space_group_name_H-M "P -1"
_symmetry_group_IT_number 2
_symmetry_cell_setting 'triclinic'
loop_
_space_group_symop_operation_xyz
x,y,z
-x,-y,-z
loop_
_atom_site_type_symbol
_atom_site_label
_atom_site_fract_x
_atom_site_fract_y
_atom_site_fract_z
Si Si1 0.902112 0.879415 0.518333
Si Si2 0.208092 0.838252 0.480493
Si Si3 0.678628 0.667924 0.616402
Si Si4 0.169179 0.109833 0.246471
Si Si5 0.671206 0.369257 0.808888
Si Si6 0.914774 0.574694 0.218183
Si Si7 0.487124 0.941663 0.174160
Si Si8 0.856130 0.735436 0.312902
O O1 0.732540 0.847896 0.381397
O O2 0.130400 0.613365 0.739332
O O3 0.752097 0.022407 0.473609
O O4 0.000000 0.000000 0.500000
O O5 0.456220 0.575042 0.689058
O O6 0.972959 0.858523 0.372053
O O7 0.140661 0.959588 0.328678
O O8 0.815263 0.708309 0.747569
O O9 0.653064 0.478729 0.686828
O O10 0.823762 0.563582 0.644302
O O11 0.418720 0.919456 0.387338
O O12 0.937984 0.251660 0.024131
O O13 0.628042 0.178817 0.827431
O O14 0.905741 0.694687 0.260137
O O15 0.705749 0.782515 0.992762
O O16 0.570738 0.887621 0.143634
O O17 0.000000 0.500000 0.500000
#
# Coordination Sequence:
#
# PCOD8021964 Si02
#       8
#     2   2   2   2   2   2   2   2
#     4  12  25  46  70 103 143 182 231 290 339 411
#     4  11  22  42  73 101 136 186 231 281 351 407
#     4  10  24  45  70 103 140 180 230 290 348 407
#     4  10  22  44  71 104 137 179 230 291 350 410
#     4  11  24  44  73 102 137 187 231 279 352 412
#     4  12  26  45  72 105 138 181 234 289 342 412
#     4  12  27  45  70 105 144 185 230 283 344 416
#     4  12  22  48  69  97 147 185 223 281 352 411
#
# _framework density 23.084958
#
# number of rings (size 3 to 8) (size 9 to 14) (size 15 to 20)
#    0.000    0.750    5.000    1.500    1.750    3.000 
#    0.000    8.750    0.000    0.000    0.000    0.000 
#    0.000    0.000    0.000    0.000    0.000    0.000 
#
# Total GULP energy -198357.055860 kJ/mol
# GULP energy per Si atom -12397.315991 kJ/mol
# Density = 2.303242 g / cm^3
# Si number density = 23.084958 Si / 1000 Ang^3
#
#
#
# Elastic Constant Matrix: (Units=GPa)
#
#
# Indices 1 2 3 4 5 6 
#
# 1 112.3586 37.0258 26.5169 -12.0048 6.7561 2.6703
# 2 37.0258 101.3773 35.4268 -21.6803 -0.9684 14.7912
# 3 26.5169 35.4268 107.6561 -27.9112 3.3063 9.0097
# 4 -12.0048 -21.6803 -27.9112 40.9305 3.9681 -3.3757
# 5 6.7561 -0.9684 3.3063 3.9681 29.6489 -5.3117
# 6 2.6703 14.7912 9.0097 -3.3757 -5.3117 46.2474
#
#
#
# Elastic Compliance Matrix: (Units=1/GPa)
#
#
# Indices 1 2 3 4 5 6 
#
# 1 0.010506 -0.003333 -0.001273 0.000718 -0.002370 0.000487
# 2 -0.003333 0.013228 -0.002163 0.004258 0.000276 -0.003274
# 3 -0.001273 -0.002163 0.012315 0.006991 -0.002339 -0.001392
# 4 0.000718 0.004258 0.006991 0.032092 -0.005284 -0.001029
# 5 -0.002370 0.000276 -0.002339 -0.005284 0.036007 0.004254
# 6 0.000487 -0.003274 -0.001392 -0.001029 0.004254 0.023327
#
#
# Mechanical properties :
#
#
# Convention : Reuss Voigt Hill
#
# Bulk Modulus (GPa) = 44.41955 57.70344 51.06150
# Shear Modulus (GPa) = 33.66651 38.19354 35.93002
#
# Velocity S-wave (km/s) = 3.82301 4.07194 3.94944
# Velocity P-wave (km/s) = 6.22662 6.86717 6.55472
#
# Compressibility (1/GPa) = 0.02251261
#
# Stress axis : x y z
#
# Youngs Moduli (GPa) = 95.18082 75.59752 81.20260
#
# Poissons Ratio (x) = 0.25193 0.10337
# Poissons Ratio (y) = 0.31719 0.17562
# Poissons Ratio (z) = 0.12117 0.16350
#
# Static dielectric constant tensor:
#      x y z
#    x 4.837200 0.061700 0.292790 
#    y 0.061700 4.174410 -0.242280 
#    z 0.292790 -0.242280 4.373610 
# 
# 
# High freq. dielectric constant tensor:
#      x y z
#    x 1.924190 0.005560 -0.006190 
#    y 0.005560 1.908950 -0.025680 
#    z -0.006190 -0.025680 1.908610 
# 
# From -- ./inp_files/353347.got.cif
#   From: 2010.06.25/outbox.cif.g09.slc.cpg/sg2_177_cif.got.tgz:353347.got - 2010.06.27 13:26:56.
