data_PCOD8021295
_publ_section_title
;
Structure prediction by ZEFSAII (Michael W. Deem and Ramdas Pophale) SiO2 
 PCOD8021295
Probable space group: P -1
;
_chemical_formula_sum "Si O2"
_cell_formula_units_Z 16
_cell_length_a 11.835682
_cell_length_b 21.187009
_cell_length_c 8.233444
_cell_angle_alpha 112.832741
_cell_angle_beta 138.385983
_cell_angle_gamma 36.601036
_cell_volume 690.272289
_symmetry_space_group_name_H-M "P -1"
_symmetry_group_IT_number 2
_symmetry_cell_setting 'triclinic'
loop_
_space_group_symop_operation_xyz
x,y,z
-x,-y,-z
loop_
_atom_site_type_symbol
_atom_site_label
_atom_site_fract_x
_atom_site_fract_y
_atom_site_fract_z
Si Si1 0.204841 0.813720 0.934473
Si Si2 0.315250 0.388319 0.510100
Si Si3 0.281515 0.901328 0.838732
Si Si4 0.723498 0.963268 0.828142
Si Si5 0.872621 0.425724 0.973250
Si Si6 0.783454 0.316917 0.381751
Si Si7 0.962247 0.630690 0.265025
Si Si8 0.134782 0.725689 0.200774
O O1 0.187836 0.882858 0.864894
O O2 0.068941 0.792341 0.678276
O O3 0.003832 0.901180 0.962528
O O4 0.547399 0.674521 0.226909
O O5 0.571382 0.330433 0.602760
O O6 0.191924 0.357004 0.284456
O O7 0.034045 0.539358 0.360637
O O8 0.594835 0.762685 0.958537
O O9 0.000000 0.000000 0.500000
O O10 0.383114 0.939402 0.068219
O O11 0.500000 0.000000 0.500000
O O12 0.822923 0.868341 0.955745
O O13 0.591426 0.558469 0.895054
O O14 0.874100 0.347205 0.958681
O O15 0.828566 0.443320 0.748226
O O16 0.898654 0.266129 0.635784
O O17 0.914985 0.344258 0.480340
#
# Coordination Sequence:
#
# PCOD8021295 Si02
#       8
#     2   2   2   2   2   2   2   2
#     4  11  27  43  70 101 142 175 235 293 351 420
#     4  11  23  41  69 106 138 181 217 292 366 408
#     4  12  28  47  72 100 138 191 244 287 338 421
#     4  11  26  48  69  96 139 190 233 293 351 407
#     4  11  22  38  73 105 142 174 227 283 355 428
#     4  11  21  43  67 108 136 178 225 284 351 431
#     4  11  23  42  71 103 139 178 236 282 351 416
#     4  10  22  43  69  99 139 179 231 286 345 417
#
# _framework density 23.179257
#
# number of rings (size 3 to 8) (size 9 to 14) (size 15 to 20)
#    0.000    1.000    2.500    3.750    7.000    4.500 
#    0.000    4.375    0.000    0.000    0.000    0.000 
#    0.000    0.000    0.000    0.000    0.000    0.000 
#
# Total GULP energy -198294.200793 kJ/mol
# GULP energy per Si atom -12393.387550 kJ/mol
# Density = 2.312650 g / cm^3
# Si number density = 23.179257 Si / 1000 Ang^3
#
#
#
# Elastic Constant Matrix: (Units=GPa)
#
#
# Indices 1 2 3 4 5 6 
#
# 1 68.4730 10.0919 21.8434 -5.6833 -7.5314 17.5412
# 2 10.0919 79.8338 40.5137 -3.1173 -13.9759 6.1499
# 3 21.8434 40.5137 122.1958 3.5679 -7.7784 25.8900
# 4 -5.6833 -3.1173 3.5679 46.7220 8.8833 1.1564
# 5 -7.5314 -13.9759 -7.7784 8.8833 39.2759 -3.8073
# 6 17.5412 6.1499 25.8900 1.1564 -3.8073 36.3942
#
#
#
# Elastic Compliance Matrix: (Units=1/GPa)
#
#
# Indices 1 2 3 4 5 6 
#
# 1 0.017310 -0.000584 -0.001329 0.002024 0.001694 -0.007186
# 2 -0.000584 0.015970 -0.005297 0.000482 0.004589 0.001816
# 3 -0.001329 -0.005297 0.011621 -0.001195 -0.000219 -0.006716
# 4 0.002024 0.000482 -0.001195 0.022752 -0.004964 -0.001449
# 5 0.001694 0.004589 -0.000219 -0.004964 0.028665 0.001721
# 6 -0.007186 0.001816 -0.006716 -0.001449 0.001721 0.035637
#
#
# Mechanical properties :
#
#
# Convention : Reuss Voigt Hill
#
# Bulk Modulus (GPa) = 32.80903 46.15563 39.48233
# Shear Modulus (GPa) = 31.94129 37.68199 34.81164
#
# Velocity S-wave (km/s) = 3.71619 4.03634 3.87957
# Velocity P-wave (km/s) = 5.70952 6.45589 6.09414
#
# Compressibility (1/GPa) = 0.03047941
#
# Stress axis : x y z
#
# Youngs Moduli (GPa) = 57.77164 62.61609 86.04793
#
# Poissons Ratio (x) = 0.03660 0.11438
# Poissons Ratio (y) = 0.03377 0.45581
# Poissons Ratio (z) = 0.07679 0.33169
#
# Static dielectric constant tensor:
#      x y z
#    x 4.113910 0.242450 -0.027600 
#    y 0.242450 4.390030 -0.041960 
#    z -0.027600 -0.041960 4.210410 
# 
# 
# High freq. dielectric constant tensor:
#      x y z
#    x 1.914580 0.013400 0.003480 
#    y 0.013400 1.921580 0.000770 
#    z 0.003480 0.000770 1.915350 
# 
# From -- ./inp_files/283146.got.cif
#   From: 2010.06.25/outbox.cif.g09.slc.cpg/sg2_142_cif.got.tgz:283146.got - 2010.06.27 13:26:56.
