data_PCOD8021912
_publ_section_title
;
Structure prediction by ZEFSAII (Michael W. Deem and Ramdas Pophale) SiO2 
 PCOD8021912
Probable space group: P -1
;
_chemical_formula_sum "Si O2"
_cell_formula_units_Z 16
_cell_length_a 8.703863
_cell_length_b 18.561067
_cell_length_c 11.488762
_cell_angle_alpha 28.871856
_cell_angle_beta 57.350398
_cell_angle_gamma 65.521537
_cell_volume 746.840963
_symmetry_space_group_name_H-M "P -1"
_symmetry_group_IT_number 2
_symmetry_cell_setting 'triclinic'
loop_
_space_group_symop_operation_xyz
x,y,z
-x,-y,-z
loop_
_atom_site_type_symbol
_atom_site_label
_atom_site_fract_x
_atom_site_fract_y
_atom_site_fract_z
Si Si1 0.381463 0.717855 0.698982
Si Si2 0.335215 0.192568 0.852856
Si Si3 0.253142 0.742788 0.321327
Si Si4 0.914248 0.772941 0.546568
Si Si5 0.107986 0.933346 0.447966
Si Si6 0.459660 0.435612 0.945229
Si Si7 0.644492 0.486784 0.558643
Si Si8 0.726545 0.924400 0.214301
O O1 0.187528 0.780378 0.671836
O O2 0.387364 0.618170 0.954672
O O3 0.530849 0.866660 0.435543
O O4 0.440540 0.612245 0.719663
O O5 0.555287 0.238336 0.711978
O O6 0.246042 0.347049 0.691313
O O7 0.272822 0.128942 0.843326
O O8 0.268988 0.063626 0.156321
O O9 0.223615 0.621926 0.398632
O O10 0.093820 0.694252 0.551689
O O11 0.233855 0.897545 0.046489
O O12 0.742916 0.653136 0.824206
O O13 0.881016 0.861541 0.316733
O O14 0.962062 0.890411 0.465340
O O15 0.000000 0.000000 0.500000
O O16 0.534011 0.409157 0.824321
O O17 0.500000 0.500000 0.500000
#
# Coordination Sequence:
#
# PCOD8021912 Si02
#       8
#     2   2   2   2   2   2   2   2
#     4  10  22  44  70  92 128 183 220 266 329 411
#     4  11  22  43  68  91 130 177 222 265 328 404
#     4  11  22  40  66  99 130 175 218 272 332 385
#     4  11  26  39  65 102 131 172 219 281 331 387
#     4  12  27  42  65  99 136 174 223 276 335 390
#     4  10  23  44  68  97 134 174 223 268 337 392
#     4  10  24  40  68  97 132 170 223 268 325 396
#     4  11  20  41  70  93 128 171 231 267 323 399
#
# _framework density 21.423570999999999
#
# number of rings (size 3 to 8) (size 9 to 14) (size 15 to 20)
#    0.000    1.250    3.750    1.500    5.250    2.500 
#    0.000    3.125    0.000    0.000    0.000    0.000 
#    0.000    0.000    0.000    0.000    0.000    0.000 
#
# Total GULP energy -198351.128115 kJ/mol
# GULP energy per Si atom -12396.945507 kJ/mol
# Density = 2.137481 g / cm^3
# Si number density = 21.423571 Si / 1000 Ang^3
#
#
#
# Elastic Constant Matrix: (Units=GPa)
#
#
# Indices 1 2 3 4 5 6 
#
# 1 95.0220 48.3968 29.2003 3.9276 9.5293 4.4967
# 2 48.3968 158.4954 38.1064 -3.1993 19.9707 5.9097
# 3 29.2003 38.1064 93.8919 -11.6045 16.0053 -3.9812
# 4 3.9276 -3.1993 -11.6045 36.2290 2.0148 8.3357
# 5 9.5293 19.9707 16.0053 2.0148 23.0113 4.0278
# 6 4.4967 5.9097 -3.9812 8.3357 4.0278 18.9666
#
#
#
# Elastic Compliance Matrix: (Units=1/GPa)
#
#
# Indices 1 2 3 4 5 6 
#
# 1 0.013362 -0.003302 -0.003195 -0.002356 0.000074 -0.001790
# 2 -0.003302 0.008350 -0.001482 0.001271 -0.004663 -0.001698
# 3 -0.003195 -0.001482 0.014412 0.004353 -0.008520 0.004141
# 4 -0.002356 0.001271 0.004353 0.032421 -0.003830 -0.012359
# 5 0.000074 -0.004663 -0.008520 -0.003830 0.055567 -0.010470
# 6 -0.001790 -0.001698 0.004141 -0.012359 -0.010470 0.062202
#
#
# Mechanical properties :
#
#
# Convention : Reuss Voigt Hill
#
# Bulk Modulus (GPa) = 49.59010 64.31292 56.95151
# Shear Modulus (GPa) = 23.92399 31.08844 27.50621
#
# Velocity S-wave (km/s) = 3.34535 3.81351 3.58707
# Velocity P-wave (km/s) = 6.17410 7.03387 6.61796
#
# Compressibility (1/GPa) = 0.02016532
#
# Stress axis : x y z
#
# Youngs Moduli (GPa) = 74.83764 119.75334 69.38747
#
# Poissons Ratio (x) = 0.39544 0.22171
# Poissons Ratio (y) = 0.24712 0.10285
# Poissons Ratio (z) = 0.23912 0.17751
#
# Static dielectric constant tensor:
#      x y z
#    x 3.905910 -0.194590 0.192120 
#    y -0.194590 4.984410 -0.574370 
#    z 0.192120 -0.574370 4.442760 
# 
# 
# High freq. dielectric constant tensor:
#      x y z
#    x 1.834650 0.009970 0.008140 
#    y 0.009970 1.836500 -0.003880 
#    z 0.008140 -0.003880 1.850230 
# 
# From -- ./inp_files/353589.got.cif
#   From: 2010.06.25/outbox.cif.g09.slc.cpg/sg2_177_cif.got.tgz:353589.got - 2010.06.27 13:26:56.
