data_PCOD8021590
_publ_section_title
;
Structure prediction by ZEFSAII (Michael W. Deem and Ramdas Pophale) SiO2 
 PCOD8021590
Probable space group: P -1
;
_chemical_formula_sum "Si O2"
_cell_formula_units_Z 16
_cell_length_a 12.243740
_cell_length_b 11.268021
_cell_length_c 13.020141
_cell_angle_alpha 82.313395
_cell_angle_beta 34.884920
_cell_angle_gamma 108.296348
_cell_volume 676.351110
_symmetry_space_group_name_H-M "P -1"
_symmetry_group_IT_number 2
_symmetry_cell_setting 'triclinic'
loop_
_space_group_symop_operation_xyz
x,y,z
-x,-y,-z
loop_
_atom_site_type_symbol
_atom_site_label
_atom_site_fract_x
_atom_site_fract_y
_atom_site_fract_z
Si Si1 0.487078 0.618085 0.935573
Si Si2 0.873484 0.724269 0.438783
Si Si3 0.128189 0.475325 0.045821
Si Si4 0.658429 0.658414 0.176908
Si Si5 0.181646 0.920457 0.855143
Si Si6 0.680566 0.921486 0.052978
Si Si7 0.254879 0.703497 0.240843
Si Si8 0.391151 0.763126 0.653442
O O1 0.734238 0.719148 0.647794
O O2 0.500000 0.500000 0.000000
O O3 0.189548 0.510915 0.116156
O O4 0.499793 0.737861 0.988435
O O5 0.652008 0.550850 0.553373
O O6 0.125955 0.749122 0.266888
O O7 0.010383 0.897259 0.250764
O O8 0.819059 0.383061 0.260850
O O9 0.120105 0.330148 0.046954
O O10 0.388080 0.660195 0.756859
O O11 0.637413 0.759074 0.104841
O O12 0.829715 0.773688 0.138125
O O13 0.256189 0.816660 0.803405
O O14 0.338550 0.037154 0.822717
O O15 0.301013 0.058975 0.652513
O O16 0.418157 0.844889 0.193268
O O17 0.000000 0.500000 0.500000
#
# Coordination Sequence:
#
# PCOD8021590 Si02
#       8
#     2   2   2   2   2   2   2   2
#     4  11  23  42  73 105 137 190 233 292 366 404
#     4  11  26  47  71 103 141 186 237 295 350 428
#     4   9  20  39  68  98 138 186 237 285 351 429
#     4  10  22  44  64  99 136 180 227 288 351 415
#     4  10  23  40  66 104 139 185 229 293 357 420
#     4  12  26  45  68 101 143 185 238 287 358 421
#     4  12  24  47  71 101 143 184 241 293 347 423
#     4   9  20  41  64 101 142 181 237 288 352 429
#
# _framework density 23.656351999999998
#
# number of rings (size 3 to 8) (size 9 to 14) (size 15 to 20)
#    0.000    1.500    2.500    1.500    7.000    1.000 
#    4.500    0.000    0.000    0.000    0.000    0.000 
#    0.000    0.000    0.000    0.000    0.000    0.000 
#
# Total GULP energy -198208.797562 kJ/mol
# GULP energy per Si atom -12388.049848 kJ/mol
# Density = 2.360251 g / cm^3
# Si number density = 23.656352 Si / 1000 Ang^3
#
#
#
# Elastic Constant Matrix: (Units=GPa)
#
#
# Indices 1 2 3 4 5 6 
#
# 1 112.9481 36.5548 18.6119 -5.4802 -7.6212 28.2142
# 2 36.5548 87.3613 35.1836 -9.3514 -3.1537 5.5765
# 3 18.6119 35.1836 86.7546 -19.4078 0.1319 7.2119
# 4 -5.4802 -9.3514 -19.4078 42.2667 1.0583 -8.6194
# 5 -7.6212 -3.1537 0.1319 1.0583 35.3281 -9.4811
# 6 28.2142 5.5765 7.2119 -8.6194 -9.4811 40.3411
#
#
#
# Elastic Compliance Matrix: (Units=1/GPa)
#
#
# Indices 1 2 3 4 5 6 
#
# 1 0.012421 -0.004653 -0.000379 -0.001273 0.000096 -0.008226
# 2 -0.004653 0.015501 -0.005301 0.000874 0.001042 0.002491
# 3 -0.000379 -0.005301 0.015067 0.005571 -0.000975 -0.000735
# 4 -0.001273 0.000874 0.005571 0.027405 0.000504 0.005747
# 5 0.000096 0.001042 -0.000975 0.000504 0.030341 0.007202
# 6 -0.008226 0.002491 -0.000735 0.005747 0.007202 0.033249
#
#
# Mechanical properties :
#
#
# Convention : Reuss Voigt Hill
#
# Bulk Modulus (GPa) = 44.79668 51.97382 48.38525
# Shear Modulus (GPa) = 30.84682 36.70144 33.77413
#
# Velocity S-wave (km/s) = 3.61495 3.94311 3.78259
# Velocity P-wave (km/s) = 6.03335 6.53826 6.29087
#
# Compressibility (1/GPa) = 0.02232308
#
# Stress axis : x y z
#
# Youngs Moduli (GPa) = 80.50642 64.51313 66.37080
#
# Poissons Ratio (x) = 0.30015 0.02516
# Poissons Ratio (y) = 0.37456 0.35186
# Poissons Ratio (z) = 0.03051 0.34201
#
# Static dielectric constant tensor:
#      x y z
#    x 4.673740 0.114280 -0.168390 
#    y 0.114280 4.387030 -0.217500 
#    z -0.168390 -0.217500 4.032160 
# 
# 
# High freq. dielectric constant tensor:
#      x y z
#    x 1.958240 -0.003690 -0.008290 
#    y -0.003690 1.937310 -0.016220 
#    z -0.008290 -0.016220 1.908870 
# 
# From -- ./inp_files/428084.got.cif
#   From: 2010.06.25/outbox.cif.g09.slc.cpg/sg2_215_cif.got.tgz:428084.got - 2010.06.27 13:26:56.
