data_PCOD8021011
_publ_section_title
;
Structure prediction by ZEFSAII (Michael W. Deem and Ramdas Pophale) SiO2 
 PCOD8021011
Probable space group: P -1
;
_chemical_formula_sum "Si O2"
_cell_formula_units_Z 16
_cell_length_a 9.898962
_cell_length_b 9.101190
_cell_length_c 27.533085
_cell_angle_alpha 46.739114
_cell_angle_beta 153.494253
_cell_angle_gamma 122.756591
_cell_volume 786.027448
_symmetry_space_group_name_H-M "P -1"
_symmetry_group_IT_number 2
_symmetry_cell_setting 'triclinic'
loop_
_space_group_symop_operation_xyz
x,y,z
-x,-y,-z
loop_
_atom_site_type_symbol
_atom_site_label
_atom_site_fract_x
_atom_site_fract_y
_atom_site_fract_z
Si Si1 0.294782 0.222235 0.256579
Si Si2 0.280824 0.846930 0.273921
Si Si3 0.579618 0.328587 0.023887
Si Si4 0.846604 0.522303 0.497305
Si Si5 0.357315 0.959139 0.015478
Si Si6 0.347541 0.495061 0.746968
Si Si7 0.936715 0.494227 0.252001
Si Si8 0.429033 0.229293 0.408184
O O1 0.409169 0.370785 0.221113
O O2 0.456373 0.238578 0.356684
O O3 0.932028 0.296613 0.129536
O O4 0.370017 0.987481 0.314026
O O5 0.601642 0.744682 0.372502
O O6 0.139838 0.662029 0.292686
O O7 0.021194 0.983739 0.123302
O O8 0.478430 0.116670 0.055982
O O9 0.500000 0.500000 0.000000
O O10 0.397292 0.395791 0.900455
O O11 0.668507 0.338675 0.487340
O O12 0.000000 0.500000 0.500000
O O13 0.116910 0.482582 0.632194
O O14 0.469333 0.731281 0.125236
O O15 0.500000 0.000000 0.000000
O O16 0.133460 0.610642 0.696261
O O17 0.088807 0.334441 0.295303
O O18 0.500000 0.000000 0.500000
#
# Coordination Sequence:
#
# PCOD8021011 Si02
#       8
#     2   2   2   2   2   2   2   2
#     4  12  24  41  67 102 132 170 225 279 329 391
#     4  10  23  43  72  91 134 178 227 265 330 406
#     4  11  21  40  70  94 136 171 219 274 326 396
#     4  11  26  48  65  94 143 178 217 284 342 390
#     4  11  21  44  68  97 133 174 222 268 334 403
#     4  12  25  41  72  98 136 176 222 280 337 387
#     4  10  22  43  66  97 128 178 219 268 335 401
#     4  11  26  41  67  95 133 171 231 268 328 402
#
# _framework density 20.355523999999999
#
# number of rings (size 3 to 8) (size 9 to 14) (size 15 to 20)
#    0.000    1.000    6.250    0.000    5.250    4.500 
#    0.000    2.500    0.000    0.000    0.000    0.000 
#    0.000    0.000    0.000    0.000    0.000    0.000 
#
# Total GULP energy -198321.333236 kJ/mol
# GULP energy per Si atom -12395.083327 kJ/mol
# Density = 2.030919 g / cm^3
# Si number density = 20.355524 Si / 1000 Ang^3
#
#
#
# Elastic Constant Matrix: (Units=GPa)
#
#
# Indices 1 2 3 4 5 6 
#
# 1 127.5716 51.6073 39.1031 -14.5734 -0.9810 -13.9649
# 2 51.6073 130.0527 37.0179 -7.5322 0.5113 -16.9869
# 3 39.1031 37.0179 101.4789 -8.3016 7.5754 -1.5765
# 4 -14.5734 -7.5322 -8.3016 33.5101 -2.6674 -1.5182
# 5 -0.9810 0.5113 7.5754 -2.6674 31.8624 -4.5096
# 6 -13.9649 -16.9869 -1.5765 -1.5182 -4.5096 33.1736
#
#
#
# Elastic Compliance Matrix: (Units=1/GPa)
#
#
# Indices 1 2 3 4 5 6 
#
# 1 0.010627 -0.002761 -0.002879 0.003584 0.001828 0.003335
# 2 -0.002761 0.010080 -0.002568 0.000691 0.000994 0.004044
# 3 -0.002879 -0.002568 0.012171 0.000824 -0.003204 -0.002346
# 4 0.003584 0.000691 0.000824 0.032182 0.003135 0.003801
# 5 0.001828 0.000994 -0.003204 0.003135 0.033269 0.005792
# 6 0.003335 0.004044 -0.002346 0.003801 0.005792 0.034469
#
#
# Mechanical properties :
#
#
# Convention : Reuss Voigt Hill
#
# Bulk Modulus (GPa) = 60.74955 68.28443 64.51699
# Shear Modulus (GPa) = 32.32031 35.13423 33.72727
#
# Velocity S-wave (km/s) = 3.98903 4.15906 4.07493
# Velocity P-wave (km/s) = 7.15021 7.52877 7.34193
#
# Compressibility (1/GPa) = 0.01646103
#
# Stress axis : x y z
#
# Youngs Moduli (GPa) = 94.10048 99.20435 82.16569
#
# Poissons Ratio (x) = 0.27395 0.23656
# Poissons Ratio (y) = 0.25985 0.21099
# Poissons Ratio (z) = 0.27092 0.25474
#
# Static dielectric constant tensor:
#      x y z
#    x 3.964520 -0.421150 0.256090 
#    y -0.421150 4.275410 0.026570 
#    z 0.256090 0.026570 4.373410 
# 
# 
# High freq. dielectric constant tensor:
#      x y z
#    x 1.788110 -0.016590 0.015220 
#    y -0.016590 1.805930 0.008420 
#    z 0.015220 0.008420 1.799020 
# 
# From -- ./inp_files/279947.got.cif
#   From: 2010.06.25/outbox.cif.g09.slc.cpg/sg2_140_cif.got.tgz:279947.got - 2010.06.27 13:26:56.
