data_PCOD8021456
_publ_section_title
;
Structure prediction by ZEFSAII (Michael W. Deem and Ramdas Pophale) SiO2 
 PCOD8021456
Probable space group: P -1
;
_chemical_formula_sum "Si O2"
_cell_formula_units_Z 16
_cell_length_a 5.242275
_cell_length_b 12.204420
_cell_length_c 13.400600
_cell_angle_alpha 59.789791
_cell_angle_beta 112.035543
_cell_angle_gamma 82.156071
_cell_volume 627.629806
_symmetry_space_group_name_H-M "P -1"
_symmetry_group_IT_number 2
_symmetry_cell_setting 'triclinic'
loop_
_space_group_symop_operation_xyz
x,y,z
-x,-y,-z
loop_
_atom_site_type_symbol
_atom_site_label
_atom_site_fract_x
_atom_site_fract_y
_atom_site_fract_z
Si Si1 0.108469 0.842681 0.173539
Si Si2 0.799183 0.732035 0.871071
Si Si3 0.394913 0.413385 0.718275
Si Si4 0.406498 0.489027 0.104386
Si Si5 0.380882 0.053318 0.089998
Si Si6 0.158982 0.622246 0.430422
Si Si7 0.152831 0.122240 0.636485
Si Si8 0.693176 0.990842 0.627279
O O1 0.340832 0.741116 0.169505
O O2 0.223398 0.746528 0.332346
O O3 0.156645 0.983675 0.129512
O O4 0.757554 0.883583 0.067312
O O5 0.603283 0.661814 0.816526
O O6 0.619935 0.822558 0.897057
O O7 0.878302 0.829316 0.759557
O O8 0.084099 0.611879 0.017263
O O9 0.385988 0.493498 0.784128
O O10 0.440015 0.494266 0.584219
O O11 0.056172 0.423047 0.650184
O O12 0.500000 0.500000 0.000000
O O13 0.729048 0.937789 0.203410
O O14 0.971419 0.710742 0.459137
O O15 0.460054 0.067597 0.645105
O O16 0.916021 0.061444 0.595511
O O17 0.500000 0.000000 0.500000
#
# Coordination Sequence:
#
# PCOD8021456 Si02
#       8
#     2   2   2   2   2   2   2   2
#     4  11  22  45  70 104 143 194 236 308 377 435
#     4  10  24  44  64 103 135 185 242 302 361 436
#     4  11  25  45  67 104 143 191 250 297 369 447
#     4  11  26  44  70  95 141 192 248 302 362 437
#     4  10  22  43  73 102 143 180 247 305 369 442
#     4  11  25  41  70 104 146 190 241 298 378 443
#     4  11  24  45  70 110 147 192 245 308 371 443
#     4  11  26  45  75 106 148 194 249 306 375 441
#
# _framework density 25.492733999999999
#
# number of rings (size 3 to 8) (size 9 to 14) (size 15 to 20)
#    0.000    1.250    2.500    2.250    7.000    1.500 
#    0.000    0.000    0.000    0.000    0.000    0.000 
#    0.000    0.000    0.000    0.000    0.000    0.000 
#
# Total GULP energy -198218.879305 kJ/mol
# GULP energy per Si atom -12388.679957 kJ/mol
# Density = 2.543471 g / cm^3
# Si number density = 25.492734 Si / 1000 Ang^3
#
#
#
# Elastic Constant Matrix: (Units=GPa)
#
#
# Indices 1 2 3 4 5 6 
#
# 1 30.2273 -0.8096 -0.3250 3.7819 8.3641 21.6339
# 2 -0.8096 142.9943 42.7109 6.4350 8.8942 24.2334
# 3 -0.3250 42.7109 116.7922 8.3487 12.8659 4.4340
# 4 3.7819 6.4350 8.3487 54.6650 0.3561 5.9646
# 5 8.3641 8.8942 12.8659 0.3561 46.8379 5.4832
# 6 21.6339 24.2334 4.4340 5.9646 5.4832 29.2574
#
#
#
# Elastic Compliance Matrix: (Units=1/GPa)
#
#
# Indices 1 2 3 4 5 6 
#
# 1 0.092434 0.014781 -0.001130 0.000692 -0.009792 -0.078726
# 2 0.014781 0.011473 -0.003248 0.000282 -0.001623 -0.019693
# 3 -0.001130 -0.003248 0.009986 -0.001345 -0.002231 0.002705
# 4 0.000692 0.000282 -0.001345 0.018905 0.000576 -0.004503
# 5 -0.009792 -0.001623 -0.002231 0.000576 0.023500 0.004401
# 6 -0.078726 -0.019693 0.002705 -0.004503 0.004401 0.108387
#
#
# Mechanical properties :
#
#
# Convention : Reuss Voigt Hill
#
# Bulk Modulus (GPa) = 7.42401 41.46292 24.44346
# Shear Modulus (GPa) = 17.31420 42.71455 30.01437
#
# Velocity S-wave (km/s) = 2.60894 4.09780 3.43500
# Velocity P-wave (km/s) = 3.46323 6.22006 5.03404
#
# Compressibility (1/GPa) = 0.13469816
#
# Stress axis : x y z
#
# Youngs Moduli (GPa) = 10.81848 87.16245 100.13822
#
# Poissons Ratio (x) = -1.28831 0.11315
# Poissons Ratio (y) = -0.15990 0.32528
# Poissons Ratio (z) = 0.01222 0.28313
#
# Static dielectric constant tensor:
#      x y z
#    x 4.570120 -0.207990 0.097210 
#    y -0.207990 4.958050 -0.458580 
#    z 0.097210 -0.458580 4.159410 
# 
# 
# High freq. dielectric constant tensor:
#      x y z
#    x 2.000930 -0.006730 0.008240 
#    y -0.006730 2.040130 -0.007220 
#    z 0.008240 -0.007220 2.027860 
# 
# From -- ./inp_files/482762.got.cif
#   From: 2010.06.25/outbox.cif.g09.slc.cpg/sg2_242_cif.got.tgz:482762.got - 2010.06.27 13:26:56.
