data_PCOD8021549
_publ_section_title
;
Structure prediction by ZEFSAII (Michael W. Deem and Ramdas Pophale) SiO2 
 PCOD8021549
Probable space group: P -1
;
_chemical_formula_sum "Si O2"
_cell_formula_units_Z 10
_cell_length_a 10.887902
_cell_length_b 6.735346
_cell_length_c 11.986510
_cell_angle_alpha 71.229446
_cell_angle_beta 36.026320
_cell_angle_gamma 88.985444
_cell_volume 440.639580
_symmetry_space_group_name_H-M "P -1"
_symmetry_group_IT_number 2
_symmetry_cell_setting 'triclinic'
loop_
_space_group_symop_operation_xyz
x,y,z
-x,-y,-z
loop_
_atom_site_type_symbol
_atom_site_label
_atom_site_fract_x
_atom_site_fract_y
_atom_site_fract_z
Si Si1 0.799633 0.358123 0.810385
Si Si2 0.042855 0.789591 0.961932
Si Si3 0.879674 0.784842 0.542289
Si Si4 0.499009 0.909754 0.732297
Si Si5 0.143535 0.643713 0.695853
O O1 0.733583 0.530725 0.752576
O O2 0.915943 0.224989 0.678735
O O3 0.967421 0.532339 0.746418
O O4 0.580580 0.151114 0.068931
O O5 0.051225 0.788146 0.821556
O O6 0.283056 0.790430 0.829649
O O7 0.834815 0.555126 0.207056
O O8 0.000000 0.000000 0.000000
O O9 0.700692 0.823997 0.583541
O O10 0.000000 0.000000 0.500000
O O11 0.611881 0.185919 0.571360
#
# Coordination Sequence:
#
# PCOD8021549 Si02
#       5
#     2   2   2   2   2
#     4  10  24  44  65  97 133 168 213 266 319 383
#     4  10  24  44  66  95 134 167 216 268 318 384
#     4  11  23  45  66  95 136 166 216 269 314 386
#     4  11  23  42  69  96 128 174 212 262 328 376
#     4  10  22  44  63  99 127 166 218 264 316 388
#
# _framework density 22.694282000000001
#
# number of rings (size 3 to 8) (size 9 to 14) (size 15 to 20)
#    0.000    1.600    2.000    1.200    5.600    1.600 
#   14.400    0.000    0.000    0.000    0.000    0.000 
#    0.000    0.000    0.000    0.000    0.000    0.000 
#
# Total GULP energy -123913.151789 kJ/mol
# GULP energy per Si atom -12391.315179 kJ/mol
# Density = 2.264263 g / cm^3
# Si number density = 22.694282 Si / 1000 Ang^3
#
#
#
# Elastic Constant Matrix: (Units=GPa)
#
#
# Indices 1 2 3 4 5 6 
#
# 1 74.0799 42.1979 15.1926 5.9433 2.1519 0.6346
# 2 42.1979 156.9538 72.2350 9.2172 9.8127 1.0539
# 3 15.1926 72.2350 141.1887 -39.1517 30.3807 -10.2681
# 4 5.9433 9.2172 -39.1517 44.0046 -6.4705 11.9779
# 5 2.1519 9.8127 30.3807 -6.4705 32.3812 0.0280
# 6 0.6346 1.0539 -10.2681 11.9779 0.0280 29.5752
#
#
#
# Elastic Compliance Matrix: (Units=1/GPa)
#
#
# Indices 1 2 3 4 5 6 
#
# 1 0.016017 -0.004340 0.000246 -0.001167 -0.000214 0.000369
# 2 -0.004340 0.012049 -0.009013 -0.009605 0.003174 0.000421
# 3 0.000246 -0.009013 0.018856 0.016921 -0.011595 0.000021
# 4 -0.001167 -0.009605 0.016921 0.042255 -0.004434 -0.010867
# 5 -0.000214 0.003174 -0.011595 -0.004434 0.039929 -0.002376
# 6 0.000369 0.000421 0.000021 -0.010867 -0.002376 0.038200
#
#
# Mechanical properties :
#
#
# Convention : Reuss Voigt Hill
#
# Bulk Modulus (GPa) = 48.29007 70.16370 59.22689
# Shear Modulus (GPa) = 24.94702 37.36535 31.15618
#
# Velocity S-wave (km/s) = 3.31911 4.06207 3.70924
# Velocity P-wave (km/s) = 6.00112 7.27905 6.67076
#
# Compressibility (1/GPa) = 0.02070819
#
# Stress axis : x y z
#
# Youngs Moduli (GPa) = 62.43190 82.99295 53.03260
#
# Poissons Ratio (x) = 0.36021 -0.01306
# Poissons Ratio (y) = 0.27097 0.47800
# Poissons Ratio (z) = -0.01537 0.74804
#
# Static dielectric constant tensor:
#      x y z
#    x 4.124160 -0.143150 0.456230 
#    y -0.143150 4.077100 -0.357960 
#    z 0.456230 -0.357960 4.628970 
# 
# 
# High freq. dielectric constant tensor:
#      x y z
#    x 1.886370 -0.003840 0.025860 
#    y -0.003840 1.893860 -0.019550 
#    z 0.025860 -0.019550 1.902210 
# 
# From -- ./inp_files/2281.got.cif
#   From: 2010.06.25/outbox.cif.g09.slc.cpg/sg2_2_cif.got.tgz:2281.got - 2010.06.27 13:26:56.
