data_PCOD8021847
_publ_section_title
;
Structure prediction by ZEFSAII (Michael W. Deem and Ramdas Pophale) SiO2 
 PCOD8021847
Probable space group: P -1
;
_chemical_formula_sum "Si O2"
_cell_formula_units_Z 16
_cell_length_a 11.637826
_cell_length_b 6.680375
_cell_length_c 14.481560
_cell_angle_alpha 93.379714
_cell_angle_beta 134.350867
_cell_angle_gamma 103.430849
_cell_volume 742.355905
_symmetry_space_group_name_H-M "P -1"
_symmetry_group_IT_number 2
_symmetry_cell_setting 'triclinic'
loop_
_space_group_symop_operation_xyz
x,y,z
-x,-y,-z
loop_
_atom_site_type_symbol
_atom_site_label
_atom_site_fract_x
_atom_site_fract_y
_atom_site_fract_z
Si Si1 0.487723 0.606173 0.752698
Si Si2 0.843913 0.314430 0.856758
Si Si3 0.506847 0.678303 0.084687
Si Si4 0.889202 0.931760 0.300447
Si Si5 0.688733 0.073493 0.937837
Si Si6 0.973404 0.999737 0.812203
Si Si7 0.661457 0.576192 0.662526
Si Si8 0.098912 0.351095 0.528800
O O1 0.511371 0.429837 0.828484
O O2 0.610949 0.645586 0.734616
O O3 0.288655 0.506863 0.604270
O O4 0.536482 0.833537 0.840526
O O5 0.699266 0.181690 0.846322
O O6 0.745337 0.397215 0.724555
O O7 0.936049 0.166358 0.861367
O O8 0.000000 0.500000 0.000000
O O9 0.685718 0.884811 0.174408
O O10 0.359630 0.782971 0.006460
O O11 0.500000 0.500000 0.000000
O O12 0.903781 0.774493 0.382603
O O13 0.967400 0.879451 0.248921
O O14 0.998004 0.184208 0.388099
O O15 0.873284 0.064297 0.063545
O O16 0.802995 0.783705 0.699259
O O17 0.500000 0.500000 0.500000
O O18 0.000000 0.500000 0.500000
#
# Coordination Sequence:
#
# PCOD8021847 Si02
#       8
#     2   2   2   2   2   2   2   2
#     4  11  23  43  67  98 138 178 232 292 348 413
#     4  12  25  46  72  99 139 192 232 287 355 417
#     4  11  25  42  68 102 137 179 234 293 350 415
#     4  10  24  42  63 100 135 176 227 285 343 419
#     4  12  24  43  73 100 138 183 233 290 354 419
#     4  12  26  43  71 105 142 176 237 288 350 427
#     4  12  26  45  69 105 140 187 235 287 353 421
#     4  10  22  44  69  90 134 184 230 276 350 411
#
# _framework density 21.553003
#
# number of rings (size 3 to 8) (size 9 to 14) (size 15 to 20)
#    0.000    0.750    3.750    3.375    1.750    6.500 
#    2.250    0.000    0.000    0.000    0.000    0.000 
#    0.000    0.000    0.000    0.000    0.000    0.000 
#
# Total GULP energy -198387.822927 kJ/mol
# GULP energy per Si atom -12399.238933 kJ/mol
# Density = 2.150395 g / cm^3
# Si number density = 21.553003 Si / 1000 Ang^3
#
#
#
# Elastic Constant Matrix: (Units=GPa)
#
#
# Indices 1 2 3 4 5 6 
#
# 1 145.7689 57.8934 42.0602 3.5865 1.3216 -18.2987
# 2 57.8934 89.2743 45.7236 22.3215 18.9930 -12.2379
# 3 42.0602 45.7236 125.5497 14.1000 19.2500 -11.4204
# 4 3.5865 22.3215 14.1000 32.9712 2.7837 4.5268
# 5 1.3216 18.9930 19.2500 2.7837 36.5729 -0.9510
# 6 -18.2987 -12.2379 -11.4204 4.5268 -0.9510 55.4147
#
#
#
# Elastic Compliance Matrix: (Units=1/GPa)
#
#
# Indices 1 2 3 4 5 6 
#
# 1 0.010404 -0.007691 -0.001714 0.004300 0.004222 0.001105
# 2 -0.007691 0.023322 -0.002711 -0.013417 -0.009308 0.002989
# 3 -0.001714 -0.002711 0.010474 -0.002286 -0.003840 0.001114
# 4 0.004300 -0.013417 -0.002286 0.040233 0.004818 -0.005218
# 5 0.004222 -0.009308 -0.003840 0.004818 0.033645 -0.001269
# 6 0.001105 0.002989 0.001114 -0.005218 -0.001269 0.019705
#
#
# Mechanical properties :
#
#
# Convention : Reuss Voigt Hill
#
# Bulk Modulus (GPa) = 50.08260 72.43858 61.26059
# Shear Modulus (GPa) = 29.64373 39.31947 34.48160
#
# Velocity S-wave (km/s) = 3.71265 4.27583 4.00415
# Velocity P-wave (km/s) = 6.45490 7.61968 7.06134
#
# Compressibility (1/GPa) = 0.01996702
#
# Stress axis : x y z
#
# Youngs Moduli (GPa) = 96.11865 42.87798 95.47901
#
# Poissons Ratio (x) = 0.32975 0.16367
# Poissons Ratio (y) = 0.73920 0.25888
# Poissons Ratio (z) = 0.16477 0.11626
#
# Static dielectric constant tensor:
#      x y z
#    x 4.074890 0.164650 0.012640 
#    y 0.164650 4.108220 0.035670 
#    z 0.012640 0.035670 4.629050 
# 
# 
# High freq. dielectric constant tensor:
#      x y z
#    x 1.862800 0.008290 0.004980 
#    y 0.008290 1.856890 0.006210 
#    z 0.004980 0.006210 1.840320 
# 
# From -- ./inp_files/511036.got.cif
#   From: 2010.06.25/outbox.cif.g09.slc.cpg/sg2_256_cif.got.tgz:511036.got - 2010.06.27 13:26:56.
