data_PCOD8021142
_publ_section_title
;
Structure prediction by ZEFSAII (Michael W. Deem and Ramdas Pophale) SiO2 
 PCOD8021142
Probable space group: P -1
;
_chemical_formula_sum "Si O2"
_cell_formula_units_Z 14
_cell_length_a 10.292797
_cell_length_b 12.958785
_cell_length_c 8.181755
_cell_angle_alpha 80.336655
_cell_angle_beta 87.501450
_cell_angle_gamma 149.383133
_cell_volume 508.022308
_symmetry_space_group_name_H-M "P -1"
_symmetry_group_IT_number 2
_symmetry_cell_setting 'triclinic'
loop_
_space_group_symop_operation_xyz
x,y,z
-x,-y,-z
loop_
_atom_site_type_symbol
_atom_site_label
_atom_site_fract_x
_atom_site_fract_y
_atom_site_fract_z
Si Si1 0.091244 0.276528 0.319458
Si Si2 0.259247 0.476736 0.830180
Si Si3 0.435099 0.085974 0.733349
Si Si4 0.713552 0.824720 0.461626
Si Si5 0.408176 0.160646 0.053101
Si Si6 0.857449 0.208578 0.655759
Si Si7 0.274927 0.260985 0.855248
O O1 0.056141 0.329843 0.459895
O O2 0.400005 0.503186 0.181162
O O3 0.886964 0.172473 0.213084
O O4 0.001778 0.090955 0.425179
O O5 0.544056 0.657391 0.666828
O O6 0.321540 0.590040 0.955909
O O7 0.144570 0.276941 0.926644
O O8 0.028904 0.369748 0.760853
O O9 0.490417 0.230951 0.590009
O O10 0.630834 0.133812 0.642739
O O11 0.496572 0.147105 0.905077
O O12 0.768541 0.778980 0.327127
O O13 0.283394 0.003929 0.246786
O O14 0.187885 0.094106 0.012992
#
# Coordination Sequence:
#
# PCOD8021142 Si02
#       7
#     2   2   2   2   2   2   2
#     4  10  22  43  68  92 129 166 212 267 310 373
#     4  12  25  40  68  99 127 169 214 261 321 379
#     4   9  23  45  65  93 131 166 214 260 321 377
#     4   9  21  42  62  99 123 163 216 257 318 365
#     4  11  25  46  60  97 132 172 210 260 322 379
#     4  12  24  43  68  95 131 165 214 268 314 377
#     4  11  24  44  65  95 131 167 218 258 317 381
#
# _framework density 27.557842000000001
#
# number of rings (size 3 to 8) (size 9 to 14) (size 15 to 20)
#    0.857    0.571    2.857    1.714    2.000    3.429 
#    5.143    0.000    0.000    0.000    0.000    0.000 
#    0.000    0.000    0.000    0.000    0.000    0.000 
#
# Total GULP energy -173620.122265 kJ/mol
# GULP energy per Si atom -12401.437305 kJ/mol
# Density = 2.749512 g / cm^3
# Si number density = 27.557842 Si / 1000 Ang^3
#
#
#
# Elastic Constant Matrix: (Units=GPa)
#
#
# Indices 1 2 3 4 5 6 
#
# 1 96.4859 17.4491 7.9878 1.3629 -7.7718 -0.3859
# 2 17.4491 102.5145 24.5375 28.7879 3.5542 -8.8491
# 3 7.9878 24.5375 74.9254 16.9135 -2.4104 -14.4503
# 4 1.3629 28.7879 16.9135 57.6185 -5.1268 1.1795
# 5 -7.7718 3.5542 -2.4104 -5.1268 23.2593 0.4540
# 6 -0.3859 -8.8491 -14.4503 1.1795 0.4540 31.5572
#
#
#
# Elastic Compliance Matrix: (Units=1/GPa)
#
#
# Indices 1 2 3 4 5 6 
#
# 1 0.011193 -0.002394 -0.000825 0.001586 0.004390 -0.001035
# 2 -0.002394 0.012805 -0.002133 -0.006165 -0.004393 0.002878
# 3 -0.000825 -0.002133 0.016368 -0.003794 0.000773 0.007018
# 4 0.001586 -0.006165 -0.003794 0.022139 0.006044 -0.004361
# 5 0.004390 -0.004393 0.000773 0.006044 0.046578 -0.001720
# 6 -0.001035 0.002878 0.007018 -0.004361 -0.001720 0.035884
#
#
# Mechanical properties :
#
#
# Convention : Reuss Voigt Hill
#
# Bulk Modulus (GPa) = 33.71526 41.54161 37.62843
# Shear Modulus (GPa) = 30.20096 37.41707 33.80902
#
# Velocity S-wave (km/s) = 3.31405 3.68878 3.50643
# Velocity P-wave (km/s) = 5.18698 5.76627 5.48428
#
# Compressibility (1/GPa) = 0.02966016
#
# Stress axis : x y z
#
# Youngs Moduli (GPa) = 89.34460 78.09651 61.09517
#
# Poissons Ratio (x) = 0.18699 0.05043
# Poissons Ratio (y) = 0.21392 0.13030
# Poissons Ratio (z) = 0.07375 0.16656
#
# Static dielectric constant tensor:
#      x y z
#    x 4.713150 -0.119680 0.322850 
#    y -0.119680 5.300710 0.061280 
#    z 0.322850 0.061280 4.773630 
# 
# 
# High freq. dielectric constant tensor:
#      x y z
#    x 2.094390 0.002050 0.012940 
#    y 0.002050 2.141690 0.007030 
#    z 0.012940 0.007030 2.109700 
# 
# From -- ./inp_files/267872.got.cif
#   From: 2010.06.25/outbox.cif.g09.slc.cpg/sg2_134_cif.got.tgz:267872.got - 2010.06.27 13:26:56.
