data_PCOD8021570
_publ_section_title
;
Structure prediction by ZEFSAII (Michael W. Deem and Ramdas Pophale) SiO2 
 PCOD8021570
Probable space group: P -1
;
_chemical_formula_sum "Si O2"
_cell_formula_units_Z 16
_cell_length_a 6.764017
_cell_length_b 18.821472
_cell_length_c 17.279908
_cell_angle_alpha 160.336019
_cell_angle_beta 73.570568
_cell_angle_gamma 109.041756
_cell_volume 697.700329
_symmetry_space_group_name_H-M "P -1"
_symmetry_group_IT_number 2
_symmetry_cell_setting 'triclinic'
loop_
_space_group_symop_operation_xyz
x,y,z
-x,-y,-z
loop_
_atom_site_type_symbol
_atom_site_label
_atom_site_fract_x
_atom_site_fract_y
_atom_site_fract_z
Si Si1 0.991085 0.235870 0.774002
Si Si2 0.463902 0.093685 0.288417
Si Si3 0.389922 0.416885 0.848618
Si Si4 0.619570 0.721474 0.802696
Si Si5 0.746247 0.673791 0.572077
Si Si6 0.575966 0.037996 0.675706
Si Si7 0.247127 0.289423 0.958166
Si Si8 0.170259 0.519856 0.348626
O O1 0.742173 0.235716 0.817597
O O2 0.131868 0.408791 0.875333
O O3 0.107372 0.278743 0.887306
O O4 0.000000 0.000000 0.500000
O O5 0.286439 0.160057 0.321163
O O6 0.625254 0.304543 0.512415
O O7 0.351098 0.984571 0.266421
O O8 0.589867 0.937601 0.069382
O O9 0.415469 0.171052 0.588735
O O10 0.500000 0.500000 0.000000
O O11 0.523892 0.548682 0.901087
O O12 0.700589 0.780205 0.767540
O O13 0.399556 0.557796 0.659034
O O14 0.794973 0.617569 0.720772
O O15 0.982991 0.643110 0.511590
O O16 0.332550 0.067053 0.732560
O O17 0.119862 0.357537 0.114829
#
# Coordination Sequence:
#
# PCOD8021570 Si02
#       8
#     2   2   2   2   2   2   2   2
#     4   9  22  39  61  90 118 158 210 247 311 376
#     4  11  23  39  63  95 130 165 211 259 314 370
#     4   9  20  41  60  88 123 155 206 254 309 372
#     4  10  22  44  64  93 127 166 208 266 311 370
#     4  10  24  41  66  92 129 165 213 258 312 373
#     4  11  22  40  63  90 127 164 204 258 310 372
#     4  11  22  39  64  87 129 164 202 261 313 367
#     4  11  23  39  63  96 125 170 211 254 317 375
#
# _framework density 22.932480999999999
#
# number of rings (size 3 to 8) (size 9 to 14) (size 15 to 20)
#    0.000    1.750    2.500    0.750    1.750    7.500 
#    0.000    2.500    0.000    0.000    0.000    0.000 
#    0.000    0.000    0.000    0.000    0.000    0.000 
#
# Total GULP energy -198307.130453 kJ/mol
# GULP energy per Si atom -12394.195653 kJ/mol
# Density = 2.288029 g / cm^3
# Si number density = 22.932481 Si / 1000 Ang^3
#
#
#
# Elastic Constant Matrix: (Units=GPa)
#
#
# Indices 1 2 3 4 5 6 
#
# 1 79.1543 4.6701 13.8940 -6.0018 -9.2639 0.4285
# 2 4.6701 73.0444 7.6269 -13.5284 9.2093 -2.4892
# 3 13.8940 7.6269 88.7136 -28.0453 2.7364 4.9705
# 4 -6.0018 -13.5284 -28.0453 25.3376 -6.4057 -1.3640
# 5 -9.2639 9.2093 2.7364 -6.4057 31.5023 -5.0588
# 6 0.4285 -2.4892 4.9705 -1.3640 -5.0588 29.1408
#
#
#
# Elastic Compliance Matrix: (Units=1/GPa)
#
#
# Indices 1 2 3 4 5 6 
#
# 1 0.013725 -0.000873 -0.001512 0.002447 0.005077 0.000977
# 2 -0.000873 0.015721 0.001834 0.009532 -0.002916 0.000983
# 3 -0.001512 0.001834 0.017970 0.020780 0.001416 -0.001668
# 4 0.002447 0.009532 0.020780 0.071043 0.010969 0.002463
# 5 0.005077 -0.002916 0.001416 0.010969 0.037226 0.006411
# 6 0.000977 0.000983 -0.001668 0.002463 0.006411 0.035898
#
#
# Mechanical properties :
#
#
# Convention : Reuss Voigt Hill
#
# Bulk Modulus (GPa) = 21.59222 32.58826 27.09024
# Shear Modulus (GPa) = 24.02402 31.51090 27.76746
#
# Velocity S-wave (km/s) = 3.24017 3.71087 3.48348
# Velocity P-wave (km/s) = 4.84090 5.70983 5.29322
#
# Compressibility (1/GPa) = 0.04631298
#
# Stress axis : x y z
#
# Youngs Moduli (GPa) = 72.85969 63.60806 55.64728
#
# Poissons Ratio (x) = 0.05554 0.08415
# Poissons Ratio (y) = 0.06362 -0.10203
# Poissons Ratio (z) = 0.11018 -0.11663
#
# Static dielectric constant tensor:
#      x y z
#    x 2.742010 -0.657000 0.448130 
#    y -0.657000 3.841010 0.356250 
#    z 0.448130 0.356250 4.022660 
# 
# 
# High freq. dielectric constant tensor:
#      x y z
#    x 1.899530 0.004390 -0.008370 
#    y 0.004390 1.908240 -0.005120 
#    z -0.008370 -0.005120 1.922750 
# 
# From -- ./inp_files/47644.got.cif
#   From: 2010.06.25/outbox.cif.g09.slc.cpg/sg2_24_cif.got.tgz:47644.got - 2010.06.27 13:26:56.
