data_PCOD8021074
_publ_section_title
;
Structure prediction by ZEFSAII (Michael W. Deem and Ramdas Pophale) SiO2 
 PCOD8021074
Probable space group: P -1
;
_chemical_formula_sum "Si O2"
_cell_formula_units_Z 14
_cell_length_a 7.651339
_cell_length_b 16.023171
_cell_length_c 11.451415
_cell_angle_alpha 144.388300
_cell_angle_beta 54.150963
_cell_angle_gamma 127.680944
_cell_volume 634.886511
_symmetry_space_group_name_H-M "P -1"
_symmetry_group_IT_number 2
_symmetry_cell_setting 'triclinic'
loop_
_space_group_symop_operation_xyz
x,y,z
-x,-y,-z
loop_
_atom_site_type_symbol
_atom_site_label
_atom_site_fract_x
_atom_site_fract_y
_atom_site_fract_z
Si Si1 0.145498 0.208401 0.569262
Si Si2 0.563961 0.523370 0.134131
Si Si3 0.591813 0.806706 0.154467
Si Si4 0.425037 0.328233 0.372857
Si Si5 0.317401 0.014742 0.449174
Si Si6 0.786158 0.362452 0.446628
Si Si7 0.905798 0.829998 0.866132
O O1 0.195676 0.352695 0.800561
O O2 0.225001 0.275918 0.487494
O O3 0.884479 0.120082 0.572066
O O4 0.271171 0.086661 0.427152
O O5 0.383630 0.589359 0.346165
O O6 0.500000 0.500000 0.000000
O O7 0.572575 0.361275 0.992324
O O8 0.511205 0.934265 0.262623
O O9 0.617918 0.848857 0.328740
O O10 0.831711 0.806257 0.004172
O O11 0.500000 0.500000 0.500000
O O12 0.650848 0.300435 0.308569
O O13 0.324137 0.235003 0.191918
O O14 0.000000 0.500000 0.500000
O O15 0.888864 0.238187 0.320782
O O16 0.000000 0.000000 0.000000
#
# Coordination Sequence:
#
# PCOD8021074 Si02
#       7
#     2   2   2   2   2   2   2
#     4  10  22  43  67  94 135 175 217 280 343 394
#     4  11  22  40  68  97 128 174 230 268 332 408
#     4  11  23  43  65  99 131 175 228 273 334 413
#     4  11  23  44  70  99 134 180 230 275 335 418
#     4  10  23  43  66  95 139 173 214 285 343 395
#     4  11  23  46  69  94 139 182 217 287 341 393
#     4  12  26  43  69 104 133 178 231 277 343 407
#
# _framework density 22.051186999999999
#
# number of rings (size 3 to 8) (size 9 to 14) (size 15 to 20)
#    0.000    1.143    4.286    1.714    4.000    2.286 
#    7.714    0.000    0.000    0.000    0.000    0.000 
#    0.000    0.000    0.000    0.000    0.000    0.000 
#
# Total GULP energy -173468.960950 kJ/mol
# GULP energy per Si atom -12390.640068 kJ/mol
# Density = 2.200100 g / cm^3
# Si number density = 22.051187 Si / 1000 Ang^3
#
#
#
# Elastic Constant Matrix: (Units=GPa)
#
#
# Indices 1 2 3 4 5 6 
#
# 1 101.5019 12.4883 39.8713 9.4400 2.6483 3.9216
# 2 12.4883 117.6717 32.0504 27.9283 1.4698 -4.5765
# 3 39.8713 32.0504 117.2051 22.4956 -3.9722 -0.3641
# 4 9.4400 27.9283 22.4956 43.7794 3.1749 9.4481
# 5 2.6483 1.4698 -3.9722 3.1749 19.8992 6.5152
# 6 3.9216 -4.5765 -0.3641 9.4481 6.5152 37.9239
#
#
#
# Elastic Compliance Matrix: (Units=1/GPa)
#
#
# Indices 1 2 3 4 5 6 
#
# 1 0.011507 -0.000153 -0.003940 -0.000020 -0.002010 -0.000896
# 2 -0.000153 0.010636 -0.001635 -0.006501 -0.001065 0.003086
# 3 -0.003940 -0.001635 0.011262 -0.004312 0.003312 0.000824
# 4 -0.000020 -0.006501 -0.004312 0.031157 -0.002689 -0.008124
# 5 -0.002010 -0.001065 0.003312 -0.002689 0.054499 -0.008582
# 6 -0.000896 0.003086 0.000824 -0.008124 -0.008582 0.030340
#
#
# Mechanical properties :
#
#
# Convention : Reuss Voigt Hill
#
# Bulk Modulus (GPa) = 45.56018 56.13319 50.84668
# Shear Modulus (GPa) = 29.73103 37.11839 33.42471
#
# Velocity S-wave (km/s) = 3.67587 4.10723 3.89752
# Velocity P-wave (km/s) = 6.22270 6.92846 6.58504
#
# Compressibility (1/GPa) = 0.02194899
#
# Stress axis : x y z
#
# Youngs Moduli (GPa) = 86.90046 94.01990 88.79507
#
# Poissons Ratio (x) = 0.01440 0.34984
# Poissons Ratio (y) = 0.01331 0.14520
# Poissons Ratio (z) = 0.34237 0.15374
#
# Static dielectric constant tensor:
#      x y z
#    x 3.926010 -0.023770 0.489310 
#    y -0.023770 4.057270 0.486510 
#    z 0.489310 0.486510 3.817130 
# 
# 
# High freq. dielectric constant tensor:
#      x y z
#    x 1.859380 -0.000780 0.010570 
#    y -0.000780 1.888220 0.021130 
#    z 0.010570 0.021130 1.857970 
# 
# From -- ./inp_files/402421.got.cif
#   From: 2010.06.25/outbox.cif.g09.slc.cpg/sg2_202_cif.got.tgz:402421.got - 2010.06.27 13:26:56.
