data_PCOD8021891
_publ_section_title
;
Structure prediction by ZEFSAII (Michael W. Deem and Ramdas Pophale) SiO2 
 PCOD8021891
Probable space group: P -1
;
_chemical_formula_sum "Si O2"
_cell_formula_units_Z 16
_cell_length_a 5.359595
_cell_length_b 16.046413
_cell_length_c 10.937318
_cell_angle_alpha 95.586061
_cell_angle_beta 111.456120
_cell_angle_gamma 93.986119
_cell_volume 865.659957
_symmetry_space_group_name_H-M "P -1"
_symmetry_group_IT_number 2
_symmetry_cell_setting 'triclinic'
loop_
_space_group_symop_operation_xyz
x,y,z
-x,-y,-z
loop_
_atom_site_type_symbol
_atom_site_label
_atom_site_fract_x
_atom_site_fract_y
_atom_site_fract_z
Si Si1 0.844804 0.597391 0.774834
Si Si2 0.836030 0.774114 0.683447
Si Si3 0.028467 0.540684 0.379858
Si Si4 0.603869 0.457309 0.131056
Si Si5 0.123256 0.733141 0.397161
Si Si6 0.381277 0.202581 0.624838
Si Si7 0.315273 0.012921 0.584768
Si Si8 0.351302 0.844376 0.682358
O O1 0.808033 0.675206 0.691010
O O2 0.648911 0.597356 0.856626
O O3 0.768830 0.511491 0.670116
O O4 0.162143 0.601852 0.872487
O O5 0.731737 0.792556 0.532340
O O6 0.651828 0.818165 0.754776
O O7 0.149235 0.814660 0.753793
O O8 0.736801 0.529918 0.258003
O O9 0.000000 0.500000 0.500000
O O10 0.142721 0.637772 0.428589
O O11 0.500000 0.500000 0.000000
O O12 0.311251 0.751749 0.313254
O O13 0.233759 0.797834 0.531720
O O14 0.814128 0.749556 0.315152
O O15 0.387596 0.107577 0.660100
O O16 0.500000 0.000000 0.500000
O O17 0.374917 0.945401 0.688383
O O18 0.000000 0.000000 0.500000
#
# Coordination Sequence:
#
# PCOD8021891 Si02
#       8
#     2   2   2   2   2   2   2   2
#     4  10  22  35  57  74 103 139 178 222 263 316
#     4  10  17  29  42  68  91 125 166 210 256 287
#     4  10  23  34  54  80 106 138 181 215 265 317
#     4  10  23  41  56  74 100 144 184 223 268 313
#     4  10  19  29  41  65  95 129 164 211 248 293
#     4  10  19  27  43  60 103 133 168 204 253 306
#     4  12  16  29  39  63  85 148 180 192 243 321
#     4  10  18  27  43  61 101 135 167 206 249 310
#
# _framework density 18.483007000000001
#
# number of rings (size 3 to 8) (size 9 to 14) (size 15 to 20)
#    0.750    1.000    5.000    2.625    5.250    0.500 
#    0.000    0.000    0.000    0.000    0.000    0.000 
#    0.000    0.000    0.000   38.250    0.000    0.000 
#
# Total GULP energy -198209.400779 kJ/mol
# GULP energy per Si atom -12388.087549 kJ/mol
# Density = 1.844094 g / cm^3
# Si number density = 18.483007 Si / 1000 Ang^3
#
#
#
# Elastic Constant Matrix: (Units=GPa)
#
#
# Indices 1 2 3 4 5 6 
#
# 1 193.2626 48.8273 6.8339 -6.9961 -5.3366 7.7344
# 2 48.8273 154.7078 13.2934 -17.9749 -3.5543 -3.1950
# 3 6.8339 13.2934 43.9773 -8.9254 3.0927 3.2311
# 4 -6.9961 -17.9749 -8.9254 8.3703 0.9693 -0.2441
# 5 -5.3366 -3.5543 3.0927 0.9693 11.9358 -7.2045
# 6 7.7344 -3.1950 3.2311 -0.2441 -7.2045 31.2067
#
#
#
# Elastic Compliance Matrix: (Units=1/GPa)
#
#
# Indices 1 2 3 4 5 6 
#
# 1 0.005724 -0.001702 -0.000232 0.000695 0.001292 -0.001265
# 2 -0.001702 0.009238 0.001278 0.019706 0.001042 0.001630
# 3 -0.000232 0.001278 0.031522 0.037683 -0.014674 -0.006168
# 4 0.000695 0.019706 0.037683 0.205137 -0.023838 -0.005955
# 5 0.001292 0.001042 -0.014674 -0.023838 0.105831 0.025552
# 6 -0.001265 0.001630 -0.006168 -0.005955 0.025552 0.039016
#
#
# Mechanical properties :
#
#
# Convention : Reuss Voigt Hill
#
# Bulk Modulus (GPa) = 22.13737 58.87299 40.50518
# Shear Modulus (GPa) = 12.11131 31.83545 21.97338
#
# Velocity S-wave (km/s) = 2.56260 4.15470 3.45170
# Velocity P-wave (km/s) = 4.55621 7.41195 6.15208
#
# Compressibility (1/GPa) = 0.04517248
#
# Stress axis : x y z
#
# Youngs Moduli (GPa) = 174.70082 108.24317 31.72425
#
# Poissons Ratio (x) = 0.18427 0.00735
# Poissons Ratio (y) = 0.29741 -0.04055
# Poissons Ratio (z) = 0.04050 -0.13837
#
# Static dielectric constant tensor:
#      x y z
#    x 5.133950 -0.026390 -0.031710 
#    y -0.026390 3.207070 -0.240340 
#    z -0.031710 -0.240340 2.552770 
# 
# 
# High freq. dielectric constant tensor:
#      x y z
#    x 1.756700 0.000870 -0.000890 
#    y 0.000870 1.724730 -0.024200 
#    z -0.000890 -0.024200 1.613270 
# 
# From -- ./inp_files/366946.got.cif
#   From: 2010.06.25/outbox.cif.g09.slc.cpg/sg2_184_cif.got.tgz:366946.got - 2010.06.27 13:26:56.
