data_PCOD8021839
_publ_section_title
;
Structure prediction by ZEFSAII (Michael W. Deem and Ramdas Pophale) SiO2 
 PCOD8021839
Probable space group: P -1
;
_chemical_formula_sum "Si O2"
_cell_formula_units_Z 14
_cell_length_a 15.915431
_cell_length_b 12.282694
_cell_length_c 9.479880
_cell_angle_alpha 59.302510
_cell_angle_beta 130.092271
_cell_angle_gamma 155.182486
_cell_volume 579.011125
_symmetry_space_group_name_H-M "P -1"
_symmetry_group_IT_number 2
_symmetry_cell_setting 'triclinic'
loop_
_space_group_symop_operation_xyz
x,y,z
-x,-y,-z
loop_
_atom_site_type_symbol
_atom_site_label
_atom_site_fract_x
_atom_site_fract_y
_atom_site_fract_z
Si Si1 0.255642 0.241264 0.825425
Si Si2 0.576981 0.895501 0.242871
Si Si3 0.028652 0.266051 0.635350
Si Si4 0.478606 0.845787 0.656404
Si Si5 0.529005 0.476297 0.704147
Si Si6 0.261897 0.792370 0.052192
Si Si7 0.204192 0.047829 0.154763
O O1 0.109492 0.220081 0.679366
O O2 0.295245 0.247079 0.700325
O O3 0.500000 0.500000 0.000000
O O4 0.124510 0.001779 0.938350
O O5 0.425397 0.628335 0.187338
O O6 0.401914 0.802747 0.205878
O O7 0.769914 0.033409 0.461897
O O8 0.715318 0.122652 0.132059
O O9 0.209986 0.559183 0.598127
O O10 0.011598 0.234049 0.808974
O O11 0.573458 0.821569 0.687174
O O12 0.500000 0.000000 0.500000
O O13 0.634273 0.003683 0.859667
O O14 0.500000 0.500000 0.500000
O O15 0.731348 0.757816 0.817243
O O16 0.000000 0.500000 0.000000
#
# Coordination Sequence:
#
# PCOD8021839 Si02
#       7
#     2   2   2   2   2   2   2
#     4  10  22  44  69 105 156 189 246 300 371 444
#     4  11  26  45  73 109 146 187 257 298 376 440
#     4  12  24  45  76 110 148 196 245 314 374 444
#     4  12  26  46  76 106 151 194 258 307 369 446
#     4  11  22  44  71 106 153 194 241 305 365 447
#     4  11  27  52  72 101 145 199 246 312 368 441
#     4  11  24  46  70 111 147 198 250 299 373 445
#
# _framework density 24.179154
#
# number of rings (size 3 to 8) (size 9 to 14) (size 15 to 20)
#    0.000    0.857    4.286    3.000    2.000    6.286 
#    5.143    0.000    0.000    0.000    0.000    0.000 
#    0.000    0.000    0.000    0.000    0.000    0.000 
#
# Total GULP energy -173556.789484 kJ/mol
# GULP energy per Si atom -12396.913535 kJ/mol
# Density = 2.412412 g / cm^3
# Si number density = 24.179154 Si / 1000 Ang^3
#
#
#
# Elastic Constant Matrix: (Units=GPa)
#
#
# Indices 1 2 3 4 5 6 
#
# 1 122.9857 56.2893 43.1604 -10.2882 1.4809 10.7836
# 2 56.2893 135.1252 35.4505 -21.8287 4.2680 13.6869
# 3 43.1604 35.4505 98.9689 -21.5826 0.2179 8.3620
# 4 -10.2882 -21.8287 -21.5826 47.2649 7.2891 -6.1276
# 5 1.4809 4.2680 0.2179 7.2891 48.3854 -9.7653
# 6 10.7836 13.6869 8.3620 -6.1276 -9.7653 39.3265
#
#
#
# Elastic Compliance Matrix: (Units=1/GPa)
#
#
# Indices 1 2 3 4 5 6 
#
# 1 0.011137 -0.003739 -0.003663 -0.001116 -0.000061 -0.001163
# 2 -0.003739 0.010044 -0.001056 0.003326 -0.001702 -0.002150
# 3 -0.003663 -0.001056 0.013189 0.004738 -0.000745 -0.000879
# 4 -0.001116 0.003326 0.004738 0.025358 -0.003872 0.001131
# 5 -0.000061 -0.001702 -0.000745 -0.003872 0.022570 0.005769
# 6 -0.001163 -0.002150 -0.000879 0.001131 0.005769 0.028291
#
#
# Mechanical properties :
#
#
# Convention : Reuss Voigt Hill
#
# Bulk Modulus (GPa) = 57.29334 69.65336 63.47335
# Shear Modulus (GPa) = 37.50270 41.80732 39.65501
#
# Velocity S-wave (km/s) = 3.94259 4.16271 4.05415
# Velocity P-wave (km/s) = 6.66874 7.20930 6.94428
#
# Compressibility (1/GPa) = 0.01745403
#
# Stress axis : x y z
#
# Youngs Moduli (GPa) = 89.79052 99.56027 75.82022
#
# Poissons Ratio (x) = 0.37227 0.27770
# Poissons Ratio (y) = 0.33574 0.08010
# Poissons Ratio (z) = 0.32887 0.10518
#
# Static dielectric constant tensor:
#      x y z
#    x 4.766280 0.207150 -0.222040 
#    y 0.207150 4.596400 -0.586040 
#    z -0.222040 -0.586040 4.521100 
# 
# 
# High freq. dielectric constant tensor:
#      x y z
#    x 1.971600 0.015930 0.001210 
#    y 0.015930 1.955570 -0.031010 
#    z 0.001210 -0.031010 1.956610 
# 
# From -- ./inp_files/306808.got.cif
#   From: 2010.06.25/outbox.cif.g09.slc.cpg/sg2_154_cif.got.tgz:306808.got - 2010.06.27 13:26:56.
