data_PCOD8021697
_publ_section_title
;
Structure prediction by ZEFSAII (Michael W. Deem and Ramdas Pophale) SiO2 
 PCOD8021697
Probable space group: P -1
;
_chemical_formula_sum "Si O2"
_cell_formula_units_Z 16
_cell_length_a 20.351446
_cell_length_b 5.547928
_cell_length_c 6.288028
_cell_angle_alpha 77.006535
_cell_angle_beta 80.321116
_cell_angle_gamma 83.656689
_cell_volume 679.990031
_symmetry_space_group_name_H-M "P -1"
_symmetry_group_IT_number 2
_symmetry_cell_setting 'triclinic'
loop_
_space_group_symop_operation_xyz
x,y,z
-x,-y,-z
loop_
_atom_site_type_symbol
_atom_site_label
_atom_site_fract_x
_atom_site_fract_y
_atom_site_fract_z
Si Si1 0.973160 0.669798 0.671293
Si Si2 0.627754 0.027122 0.685116
Si Si3 0.672198 0.291918 0.226825
Si Si4 0.576601 0.504521 0.901803
Si Si5 0.207545 0.617571 0.594371
Si Si6 0.756230 0.074830 0.846659
Si Si7 0.872387 0.737547 0.041074
Si Si8 0.086079 0.948035 0.696097
O O1 0.934280 0.907932 0.537816
O O2 0.000000 0.500000 0.500000
O O3 0.918776 0.564844 0.886229
O O4 0.037472 0.723892 0.768296
O O5 0.587280 0.780009 0.752625
O O6 0.629940 0.105604 0.422151
O O7 0.595674 0.268013 0.785626
O O8 0.703322 0.957211 0.739983
O O9 0.719919 0.438459 0.325965
O O10 0.620483 0.483157 0.096506
O O11 0.720700 0.135923 0.074018
O O12 0.500000 0.500000 0.000000
O O13 0.219042 0.672199 0.326410
O O14 0.162760 0.393404 0.716834
O O15 0.164952 0.859672 0.662565
O O16 0.817931 0.879562 0.891846
O O17 0.922792 0.908715 0.102663
#
# Coordination Sequence:
#
# PCOD8021697 Si02
#       8
#     2   2   2   2   2   2   2   2
#     4  11  26  45  66  96 132 176 222 287 350 429
#     4  10  24  43  70 105 145 188 241 288 347 423
#     4  10  23  43  69 101 141 182 228 295 344 414
#     4  11  24  44  71 107 148 192 238 289 346 414
#     4  11  23  41  68 101 124 172 229 276 348 412
#     4  10  22  44  67 100 134 172 229 286 342 416
#     4  12  24  42  73  93 129 179 222 291 355 417
#     4  11  24  44  65  95 132 166 228 281 345 424
#
# _framework density 23.529758000000001
#
# number of rings (size 3 to 8) (size 9 to 14) (size 15 to 20)
#    0.000    1.250    2.500    2.250    0.000   12.000 
#    0.000    0.000    0.000    0.000    0.000    0.000 
#    0.000    0.000    0.000    0.000    0.000    0.000 
#
# Total GULP energy -198256.765741 kJ/mol
# GULP energy per Si atom -12391.047859 kJ/mol
# Density = 2.347620 g / cm^3
# Si number density = 23.529758 Si / 1000 Ang^3
#
#
#
# Elastic Constant Matrix: (Units=GPa)
#
#
# Indices 1 2 3 4 5 6 
#
# 1 127.9791 43.7613 52.9570 -1.8711 -23.1067 -6.5466
# 2 43.7613 115.6921 52.7915 -2.4959 -18.0748 10.0698
# 3 52.9570 52.7915 144.1144 -5.7369 -29.8155 -3.2990
# 4 -1.8711 -2.4959 -5.7369 31.9692 5.4488 -2.9658
# 5 -23.1067 -18.0748 -29.8155 5.4488 30.4498 -10.3784
# 6 -6.5466 10.0698 -3.2990 -2.9658 -10.3784 27.6588
#
#
#
# Elastic Compliance Matrix: (Units=1/GPa)
#
#
# Indices 1 2 3 4 5 6 
#
# 1 0.011052 -0.002974 -0.001266 -0.000525 0.007644 0.006359
# 2 -0.002974 0.011748 -0.003463 -0.000309 -0.000537 -0.005629
# 3 -0.001266 -0.003463 0.010780 0.000524 0.009437 0.005844
# 4 -0.000525 -0.000309 0.000524 0.032371 -0.005345 0.001516
# 5 0.007644 -0.000537 0.009437 -0.005345 0.056634 0.023808
# 6 0.006359 -0.005629 0.005844 0.001516 0.023808 0.049502
#
#
# Mechanical properties :
#
#
# Convention : Reuss Voigt Hill
#
# Bulk Modulus (GPa) = 55.02144 76.31171 65.66657
# Shear Modulus (GPa) = 25.83302 33.90061 29.86681
#
# Velocity S-wave (km/s) = 3.31703 3.79985 3.56662
# Velocity P-wave (km/s) = 6.17291 7.19404 6.70295
#
# Compressibility (1/GPa) = 0.01817473
#
# Stress axis : x y z
#
# Youngs Moduli (GPa) = 90.48079 85.12122 92.76641
#
# Poissons Ratio (x) = 0.25311 0.11744
# Poissons Ratio (y) = 0.26905 0.32126
# Poissons Ratio (z) = 0.11455 0.29478
#
# Static dielectric constant tensor:
#      x y z
#    x 4.435540 -0.138920 0.086340 
#    y -0.138920 3.961150 -0.254420 
#    z 0.086340 -0.254420 4.604630 
# 
# 
# High freq. dielectric constant tensor:
#      x y z
#    x 1.939690 -0.009280 -0.000350 
#    y -0.009280 1.904470 -0.011680 
#    z -0.000350 -0.011680 1.948820 
# 
# From -- ./inp_files/10554.got.cif
#   From: 2010.06.25/outbox.cif.g09.slc.cpg/sg2_6_cif.got.tgz:10554.got - 2010.06.27 13:26:56.
