data_PCOD8021775
_publ_section_title
;
Structure prediction by ZEFSAII (Michael W. Deem and Ramdas Pophale) SiO2 
 PCOD8021775
Probable space group: P -1
;
_chemical_formula_sum "Si O2"
_cell_formula_units_Z 16
_cell_length_a 8.835533
_cell_length_b 6.710151
_cell_length_c 21.577423
_cell_angle_alpha 126.323812
_cell_angle_beta 136.343071
_cell_angle_gamma 74.730937
_cell_volume 679.414338
_symmetry_space_group_name_H-M "P -1"
_symmetry_group_IT_number 2
_symmetry_cell_setting 'triclinic'
loop_
_space_group_symop_operation_xyz
x,y,z
-x,-y,-z
loop_
_atom_site_type_symbol
_atom_site_label
_atom_site_fract_x
_atom_site_fract_y
_atom_site_fract_z
Si Si1 0.039081 0.805532 0.393371
Si Si2 0.255707 0.367182 0.374344
Si Si3 0.960750 0.486159 0.112287
Si Si4 0.670364 0.788661 0.833040
Si Si5 0.736646 0.097626 0.794666
Si Si6 0.478516 0.931742 0.054822
Si Si7 0.069884 0.074568 0.742220
Si Si8 0.654940 0.741776 0.362640
O O1 0.135594 0.578429 0.355411
O O2 0.878106 0.876512 0.306050
O O3 0.879574 0.718095 0.389465
O O4 0.259819 0.051773 0.519137
O O5 0.500000 0.500000 0.500000
O O6 0.251671 0.174973 0.280453
O O7 0.109997 0.207291 0.358253
O O8 0.053270 0.711209 0.232650
O O9 0.084699 0.264095 0.105317
O O10 0.699079 0.344363 0.028708
O O11 0.026774 0.663962 0.101579
O O12 0.697008 0.046032 0.847000
O O13 0.475809 0.542015 0.701369
O O14 0.594952 0.840685 0.889769
O O15 0.520872 0.173915 0.718277
O O16 0.717713 0.912970 0.148006
O O17 0.500000 0.000000 0.000000
#
# Coordination Sequence:
#
# PCOD8021775 Si02
#       8
#     2   2   2   2   2   2   2   2
#     4  11  23  41  67  99 144 183 229 272 346 415
#     4  11  23  41  68 102 140 183 225 282 335 409
#     4  10  25  47  71 101 136 182 234 290 343 404
#     4  11  24  46  73 101 140 181 229 295 340 416
#     4  10  22  44  68 103 140 178 233 278 342 408
#     4  12  28  49  73 102 137 183 236 296 356 405
#     4  11  26  45  69 103 135 186 229 289 342 411
#     4  10  23  40  65 104 140 183 222 279 340 417
#
# _framework density 23.549695
#
# number of rings (size 3 to 8) (size 9 to 14) (size 15 to 20)
#    0.000    1.250    1.250    3.000    8.750    1.000 
#    4.500    3.125    0.000    0.000    0.000    0.000 
#    0.000    0.000    0.000    0.000    0.000    0.000 
#
# Total GULP energy -198287.500151 kJ/mol
# GULP energy per Si atom -12392.968759 kJ/mol
# Density = 2.349609 g / cm^3
# Si number density = 23.549695 Si / 1000 Ang^3
#
#
#
# Elastic Constant Matrix: (Units=GPa)
#
#
# Indices 1 2 3 4 5 6 
#
# 1 104.7064 57.3555 43.0828 1.3172 9.0289 7.4503
# 2 57.3555 129.9143 62.8296 0.9532 5.9334 17.6692
# 3 43.0828 62.8296 79.7479 8.9607 15.3925 12.7498
# 4 1.3172 0.9532 8.9607 43.5908 6.7366 3.7286
# 5 9.0289 5.9334 15.3925 6.7366 35.9620 5.2460
# 6 7.4503 17.6692 12.7498 3.7286 5.2460 42.9917
#
#
#
# Elastic Compliance Matrix: (Units=1/GPa)
#
#
# Indices 1 2 3 4 5 6 
#
# 1 0.013471 -0.004023 -0.004047 0.000646 -0.001196 0.000609
# 2 -0.004023 0.014208 -0.009268 0.001534 0.002763 -0.002864
# 3 -0.004047 -0.009268 0.023970 -0.003417 -0.006861 -0.001465
# 4 0.000646 0.001534 -0.003417 0.024219 -0.003281 -0.001429
# 5 -0.001196 0.002763 -0.006861 -0.003281 0.031562 -0.002460
# 6 0.000609 -0.002864 -0.001465 -0.001429 -0.002460 0.025190
#
#
# Mechanical properties :
#
#
# Convention : Reuss Voigt Hill
#
# Bulk Modulus (GPa) = 58.91877 71.21159 65.06518
# Shear Modulus (GPa) = 28.90933 34.58226 31.74580
#
# Velocity S-wave (km/s) = 3.50750 3.83623 3.67554
# Velocity P-wave (km/s) = 6.44023 7.06589 6.76030
#
# Compressibility (1/GPa) = 0.01697252
#
# Stress axis : x y z
#
# Youngs Moduli (GPa) = 74.23278 70.38387 41.71839
#
# Poissons Ratio (x) = 0.28315 0.16884
# Poissons Ratio (y) = 0.29864 0.38665
# Poissons Ratio (z) = 0.30043 0.65233
#
# Static dielectric constant tensor:
#      x y z
#    x 4.355830 0.111810 0.029170 
#    y 0.111810 4.320630 0.309510 
#    z 0.029170 0.309510 4.207510 
# 
# 
# High freq. dielectric constant tensor:
#      x y z
#    x 1.942230 -0.000660 0.005320 
#    y -0.000660 1.934210 0.022750 
#    z 0.005320 0.022750 1.927580 
# 
# From -- ./inp_files/448455.got.cif
#   From: 2010.06.25/outbox.cif.g09.slc.cpg/sg2_225_cif.got.tgz:448455.got - 2010.06.27 13:26:56.
