data_PCOD8021359
_publ_section_title
;
Structure prediction by ZEFSAII (Michael W. Deem and Ramdas Pophale) SiO2 
 PCOD8021359
Probable space group: P -1
;
_chemical_formula_sum "Si O2"
_cell_formula_units_Z 16
_cell_length_a 14.774066
_cell_length_b 8.604586
_cell_length_c 11.346284
_cell_angle_alpha 102.370792
_cell_angle_beta 31.076230
_cell_angle_gamma 110.458011
_cell_volume 686.683216
_symmetry_space_group_name_H-M "P -1"
_symmetry_group_IT_number 2
_symmetry_cell_setting 'triclinic'
loop_
_space_group_symop_operation_xyz
x,y,z
-x,-y,-z
loop_
_atom_site_type_symbol
_atom_site_label
_atom_site_fract_x
_atom_site_fract_y
_atom_site_fract_z
Si Si1 0.262208 0.846014 0.943568
Si Si2 0.100641 0.301998 0.796982
Si Si3 0.477306 0.807274 0.359393
Si Si4 0.192652 0.967724 0.285677
Si Si5 0.926264 0.375330 0.227555
Si Si6 0.998476 0.333550 0.407351
Si Si7 0.532033 0.689347 0.525623
Si Si8 0.608681 0.681506 0.964891
O O1 0.343028 0.693395 0.802797
O O2 0.437810 0.000939 0.737717
O O3 0.211888 0.854151 0.136094
O O4 0.083825 0.845105 0.064042
O O5 0.121968 0.452442 0.704767
O O6 0.283973 0.244366 0.584188
O O7 0.080884 0.364912 0.961170
O O8 0.260944 0.776411 0.616512
O O9 0.572018 0.784422 0.371858
O O10 0.499062 0.690443 0.207845
O O11 0.177006 0.836433 0.390961
O O12 0.361616 0.151130 0.126936
O O13 0.000000 0.000000 0.500000
O O14 0.998982 0.365539 0.274379
O O15 0.000000 0.500000 0.500000
O O16 0.185579 0.300570 0.225344
O O17 0.500000 0.500000 0.500000
O O18 0.500000 0.500000 0.000000
#
# Coordination Sequence:
#
# PCOD8021359 Si02
#       8
#     2   2   2   2   2   2   2   2
#     4  11  24  45  71 101 143 176 231 295 350 414
#     4  11  23  42  70  99 136 184 227 282 351 414
#     4  11  23  44  66  99 143 174 227 297 345 420
#     4   9  22  46  71  99 138 185 235 291 347 424
#     4  11  22  42  66  97 138 179 228 285 345 417
#     4  11  22  41  69  99 134 187 233 283 357 418
#     4  12  23  43  68 105 138 182 233 279 348 419
#     4  10  22  43  70  99 137 181 235 296 351 414
#
# _framework density 23.300408999999998
#
# number of rings (size 3 to 8) (size 9 to 14) (size 15 to 20)
#    0.000    1.250    2.500    3.375    0.000    2.500 
#    6.750    6.875    0.000    0.000    0.000    0.000 
#    0.000    0.000    0.000    0.000    0.000    0.000 
#
# Total GULP energy -198278.431428 kJ/mol
# GULP energy per Si atom -12392.401964 kJ/mol
# Density = 2.324738 g / cm^3
# Si number density = 23.300409 Si / 1000 Ang^3
#
#
#
# Elastic Constant Matrix: (Units=GPa)
#
#
# Indices 1 2 3 4 5 6 
#
# 1 110.8225 34.0029 32.6313 -8.6881 9.3079 -2.1146
# 2 34.0029 97.5326 30.5910 -8.6888 13.3982 13.9829
# 3 32.6313 30.5910 95.1617 0.1870 2.1378 0.0417
# 4 -8.6881 -8.6888 0.1870 39.2582 -2.2584 -0.5125
# 5 9.3079 13.3982 2.1378 -2.2584 48.8281 -7.8699
# 6 -2.1146 13.9829 0.0417 -0.5125 -7.8699 27.7800
#
#
#
# Elastic Compliance Matrix: (Units=1/GPa)
#
#
# Indices 1 2 3 4 5 6 
#
# 1 0.011014 -0.003023 -0.002793 0.001769 -0.000712 0.002195
# 2 -0.003023 0.014488 -0.003519 0.002178 -0.004558 -0.008768
# 3 -0.002793 -0.003519 0.012573 -0.001365 0.001183 0.001849
# 4 0.001769 0.002178 -0.001365 0.026363 0.000281 -0.000393
# 5 -0.000712 -0.004558 0.001183 0.000281 0.023251 0.008830
# 6 0.002195 -0.008768 0.001849 -0.000393 0.008830 0.043069
#
#
# Mechanical properties :
#
#
# Convention : Reuss Voigt Hill
#
# Bulk Modulus (GPa) = 51.53520 55.32970 53.43245
# Shear Modulus (GPa) = 32.07278 36.92603 34.49941
#
# Velocity S-wave (km/s) = 3.71413 3.98525 3.85208
# Velocity P-wave (km/s) = 6.36858 6.70627 6.53960
#
# Compressibility (1/GPa) = 0.01940421
#
# Stress axis : x y z
#
# Youngs Moduli (GPa) = 90.79484 69.02460 79.53711
#
# Poissons Ratio (x) = 0.20865 0.22218
# Poissons Ratio (y) = 0.27446 0.27987
# Poissons Ratio (z) = 0.25363 0.24288
#
# Static dielectric constant tensor:
#      x y z
#    x 4.030340 0.059970 0.443720 
#    y 0.059970 4.393530 -0.195780 
#    z 0.443720 -0.195780 4.604080 
# 
# 
# High freq. dielectric constant tensor:
#      x y z
#    x 1.907830 -0.001070 0.005750 
#    y -0.001070 1.923380 -0.008290 
#    z 0.005750 -0.008290 1.939420 
# 
# From -- ./inp_files/447613.got.cif
#   From: 2010.06.25/outbox.cif.g09.slc.cpg/sg2_224_cif.got.tgz:447613.got - 2010.06.27 13:26:56.
