data_PCOD8021706
_publ_section_title
;
Structure prediction by ZEFSAII (Michael W. Deem and Ramdas Pophale) SiO2 
 PCOD8021706
Probable space group: P -1
;
_chemical_formula_sum "Si O2"
_cell_formula_units_Z 16
_cell_length_a 4.967047
_cell_length_b 19.133265
_cell_length_c 11.095117
_cell_angle_alpha 135.765104
_cell_angle_beta 88.818837
_cell_angle_gamma 69.744454
_cell_volume 629.256259
_symmetry_space_group_name_H-M "P -1"
_symmetry_group_IT_number 2
_symmetry_cell_setting 'triclinic'
loop_
_space_group_symop_operation_xyz
x,y,z
-x,-y,-z
loop_
_atom_site_type_symbol
_atom_site_label
_atom_site_fract_x
_atom_site_fract_y
_atom_site_fract_z
Si Si1 0.220883 0.765940 0.878494
Si Si2 0.308145 0.586784 0.382823
Si Si3 0.767785 0.952560 0.589215
Si Si4 0.842704 0.437824 0.355579
Si Si5 0.430724 0.849449 0.343175
Si Si6 0.324440 0.367445 0.070513
Si Si7 0.083274 0.980032 0.836384
Si Si8 0.575764 0.738636 0.595887
O O1 0.061056 0.690310 0.752926
O O2 0.411210 0.716134 0.938473
O O3 0.449865 0.755785 0.755412
O O4 0.937608 0.901806 0.068393
O O5 0.945294 0.682428 0.522120
O O6 0.459331 0.526871 0.441386
O O7 0.361155 0.477603 0.165396
O O8 0.480496 0.654571 0.420434
O O9 0.577212 0.885077 0.496451
O O10 0.831277 0.962481 0.741591
O O11 0.088142 0.878582 0.419744
O O12 0.570089 0.081444 0.691324
O O13 0.000000 0.500000 0.500000
O O14 0.979303 0.420059 0.196082
O O15 0.640118 0.710562 0.142512
O O16 0.425444 0.862203 0.679180
O O17 0.000000 0.000000 0.000000
#
# Coordination Sequence:
#
# PCOD8021706 Si02
#       8
#     2   2   2   2   2   2   2   2
#     4  10  23  39  63 102 137 174 233 278 355 410
#     4  11  24  42  62  94 134 182 238 273 346 407
#     4  10  22  44  67 103 135 178 225 277 356 405
#     4  11  23  39  66  99 141 180 222 298 356 407
#     4  10  23  39  71  99 140 172 219 297 345 405
#     4  11  22  38  67 102 137 174 224 300 344 408
#     4  10  23  48  72 103 140 190 228 284 331 427
#     4  11  24  43  63  92 138 190 225 276 333 418
#
# _framework density 25.426842000000001
#
# number of rings (size 3 to 8) (size 9 to 14) (size 15 to 20)
#    0.000    1.500    2.500    1.500    5.250    5.500 
#    2.250    3.750    0.000    4.500    0.000    0.000 
#    0.000    0.000    0.000    0.000    0.000    0.000 
#
# Total GULP energy -198329.720198 kJ/mol
# GULP energy per Si atom -12395.607512 kJ/mol
# Density = 2.536897 g / cm^3
# Si number density = 25.426842 Si / 1000 Ang^3
#
#
#
# Elastic Constant Matrix: (Units=GPa)
#
#
# Indices 1 2 3 4 5 6 
#
# 1 122.6941 34.3747 35.4513 28.9107 13.6775 -18.4272
# 2 34.3747 89.2738 51.3572 30.0123 6.8358 -20.7763
# 3 35.4513 51.3572 150.7082 40.0945 27.1396 -14.3372
# 4 28.9107 30.0123 40.0945 57.8877 -1.0143 0.0608
# 5 13.6775 6.8358 27.1396 -1.0143 26.6032 -2.0499
# 6 -18.4272 -20.7763 -14.3372 0.0608 -2.0499 28.9345
#
#
#
# Elastic Compliance Matrix: (Units=1/GPa)
#
#
# Indices 1 2 3 4 5 6 
#
# 1 0.011193 -0.000881 0.001002 -0.005944 -0.006272 0.006560
# 2 -0.000881 0.018204 -0.002997 -0.006944 -0.000584 0.010998
# 3 0.001002 -0.002997 0.011849 -0.007365 -0.011841 0.003534
# 4 -0.005944 -0.006944 -0.007365 0.029177 0.012573 -0.011591
# 5 -0.006272 -0.000584 -0.011841 0.012573 0.053019 -0.006551
# 6 0.006560 0.010998 0.003534 -0.011591 -0.006551 0.047947
#
#
# Mechanical properties :
#
#
# Convention : Reuss Voigt Hill
#
# Bulk Modulus (GPa) = 28.17469 67.22694 47.70082
# Shear Modulus (GPa) = 26.45918 38.78462 32.62190
#
# Velocity S-wave (km/s) = 3.22933 3.90980 3.58574
# Velocity P-wave (km/s) = 5.00095 6.84681 5.99535
#
# Compressibility (1/GPa) = 0.03549284
#
# Stress axis : x y z
#
# Youngs Moduli (GPa) = 89.34449 54.93445 84.39648
#
# Poissons Ratio (x) = 0.04840 -0.08458
# Poissons Ratio (y) = 0.07871 0.25296
# Poissons Ratio (z) = -0.08954 0.16466
#
# Static dielectric constant tensor:
#      x y z
#    x 4.572320 -0.116360 0.092970 
#    y -0.116360 4.760250 0.583950 
#    z 0.092970 0.583950 5.057750 
# 
# 
# High freq. dielectric constant tensor:
#      x y z
#    x 2.016190 -0.007550 0.008790 
#    y -0.007550 1.987080 0.029170 
#    z 0.008790 0.029170 2.023110 
# 
# From -- ./inp_files/370116.got.cif
#   From: 2010.06.25/outbox.cif.g09.slc.cpg/sg2_186_cif.got.tgz:370116.got - 2010.06.27 13:26:56.
