data_PCOD8021807
_publ_section_title
;
Structure prediction by ZEFSAII (Michael W. Deem and Ramdas Pophale) SiO2 
 PCOD8021807
Probable space group: P -1
;
_chemical_formula_sum "Si O2"
_cell_formula_units_Z 16
_cell_length_a 12.199587
_cell_length_b 13.461215
_cell_length_c 11.579135
_cell_angle_alpha 63.769515
_cell_angle_beta 89.521273
_cell_angle_gamma 34.637655
_cell_volume 695.347340
_symmetry_space_group_name_H-M "P -1"
_symmetry_group_IT_number 2
_symmetry_cell_setting 'triclinic'
loop_
_space_group_symop_operation_xyz
x,y,z
-x,-y,-z
loop_
_atom_site_type_symbol
_atom_site_label
_atom_site_fract_x
_atom_site_fract_y
_atom_site_fract_z
Si Si1 0.050861 0.324239 0.080434
Si Si2 0.551745 0.072783 0.514085
Si Si3 0.795851 0.283308 0.881184
Si Si4 0.623882 0.536909 0.981355
Si Si5 0.627074 0.487157 0.263351
Si Si6 0.780928 0.932883 0.022744
Si Si7 0.979601 0.401872 0.612660
Si Si8 0.135830 0.083625 0.597544
O O1 0.213079 0.139514 0.286193
O O2 0.214544 0.141722 0.056829
O O3 0.000000 0.500000 0.000000
O O4 0.766605 0.524927 0.980415
O O5 0.283069 0.363907 0.426316
O O6 0.500000 0.000000 0.500000
O O7 0.641587 0.071676 0.411685
O O8 0.743792 0.340839 0.988777
O O9 0.527097 0.485733 0.713886
O O10 0.930986 0.272995 0.844413
O O11 0.000000 0.000000 0.000000
O O12 0.304803 0.849879 0.802516
O O13 0.679305 0.428160 0.157658
O O14 0.908886 0.223529 0.461626
O O15 0.459826 0.756230 0.145873
O O16 0.763606 0.863710 0.168084
O O17 0.000000 0.500000 0.500000
O O18 0.969784 0.326849 0.545246
#
# Coordination Sequence:
#
# PCOD8021807 Si02
#       8
#     2   2   2   2   2   2   2   2
#     4  11  23  39  65  95 131 185 226 278 351 407
#     4  12  23  42  62  95 138 178 232 285 335 408
#     4   9  21  42  74  99 132 183 230 288 355 407
#     4  11  22  43  67  98 138 178 227 288 344 415
#     4  11  22  43  69 101 135 179 234 288 351 409
#     4  10  22  44  68  97 141 180 234 289 345 420
#     4  12  25  42  68  98 139 188 229 288 345 411
#     4  12  25  43  69 104 141 179 237 287 344 417
#
# _framework density 23.010083000000002
#
# number of rings (size 3 to 8) (size 9 to 14) (size 15 to 20)
#    0.000    1.000    3.750    4.125    0.000    0.500 
#    0.000    2.500    0.000    0.000    0.000    0.000 
#    0.000    0.000    0.000    0.000    0.000    0.000 
#
# Total GULP energy -198292.845339 kJ/mol
# GULP energy per Si atom -12393.302834 kJ/mol
# Density = 2.295771 g / cm^3
# Si number density = 23.010083 Si / 1000 Ang^3
#
#
#
# Elastic Constant Matrix: (Units=GPa)
#
#
# Indices 1 2 3 4 5 6 
#
# 1 75.8791 26.5555 14.8140 1.5595 27.0840 15.8636
# 2 26.5555 136.9304 16.6311 -3.4379 10.3868 12.6507
# 3 14.8140 16.6311 109.7466 10.9762 28.1429 10.4835
# 4 1.5595 -3.4379 10.9762 32.1792 -1.7844 1.8975
# 5 27.0840 10.3868 28.1429 -1.7844 34.5403 -2.2585
# 6 15.8636 12.6507 10.4835 1.8975 -2.2585 32.0905
#
#
#
# Elastic Compliance Matrix: (Units=1/GPa)
#
#
# Indices 1 2 3 4 5 6 
#
# 1 0.024495 -0.002324 0.004787 -0.003535 -0.023520 -0.014203
# 2 -0.002324 0.008059 -0.000894 0.001390 0.000081 -0.001812
# 3 0.004787 -0.000894 0.013822 -0.005472 -0.015507 -0.007297
# 4 -0.003535 0.001390 -0.005472 0.033647 0.008656 0.001607
# 5 -0.023520 0.000081 -0.015507 0.008656 0.061792 0.020498
# 6 -0.014203 -0.001812 -0.007297 0.001607 0.020498 0.042629
#
#
# Mechanical properties :
#
#
# Convention : Reuss Voigt Hill
#
# Bulk Modulus (GPa) = 20.19660 48.72861 34.46261
# Shear Modulus (GPa) = 25.27676 37.39904 31.33790
#
# Velocity S-wave (km/s) = 3.31797 4.03591 3.69442
# Velocity P-wave (km/s) = 4.84509 6.55295 5.76264
#
# Compressibility (1/GPa) = 0.04951328
#
# Stress axis : x y z
#
# Youngs Moduli (GPa) = 40.82510 124.09222 72.34830
#
# Poissons Ratio (x) = 0.28843 -0.34637
# Poissons Ratio (y) = 0.09489 0.06469
# Poissons Ratio (z) = -0.19545 0.11096
#
# Static dielectric constant tensor:
#      x y z
#    x 4.790090 0.126410 0.397110 
#    y 0.126410 4.297630 0.041450 
#    z 0.397110 0.041450 3.749440 
# 
# 
# High freq. dielectric constant tensor:
#      x y z
#    x 1.908750 0.009870 0.004280 
#    y 0.009870 1.929450 0.002550 
#    z 0.004280 0.002550 1.901110 
# 
# From -- ./inp_files/273075.got.cif
#   From: 2010.06.25/outbox.cif.g09.slc.cpg/sg2_137_cif.got.tgz:273075.got - 2010.06.27 13:26:56.
