data_PCOD8021301
_publ_section_title
;
Structure prediction by ZEFSAII (Michael W. Deem and Ramdas Pophale) SiO2 
 PCOD8021301
Probable space group: P -1
;
_chemical_formula_sum "Si O2"
_cell_formula_units_Z 14
_cell_length_a 5.644874
_cell_length_b 9.178573
_cell_length_c 16.911412
_cell_angle_alpha 103.679990
_cell_angle_beta 64.547023
_cell_angle_gamma 126.448749
_cell_volume 636.190661
_symmetry_space_group_name_H-M "P -1"
_symmetry_group_IT_number 2
_symmetry_cell_setting 'triclinic'
loop_
_space_group_symop_operation_xyz
x,y,z
-x,-y,-z
loop_
_atom_site_type_symbol
_atom_site_label
_atom_site_fract_x
_atom_site_fract_y
_atom_site_fract_z
Si Si1 0.306636 0.689410 0.691343
Si Si2 0.262232 0.385996 0.451331
Si Si3 0.218159 0.636768 0.375098
Si Si4 0.636844 0.396797 0.011311
Si Si5 0.537443 0.802554 0.839118
Si Si6 0.760830 0.988414 0.256590
Si Si7 0.675871 0.948764 0.079219
O O1 0.649286 0.749303 0.613396
O O2 0.308985 0.676020 0.784666
O O3 0.034000 0.489871 0.673064
O O4 0.257563 0.844745 0.691680
O O5 0.500000 0.500000 0.500000
O O6 0.317267 0.516246 0.387737
O O7 0.916472 0.291305 0.529055
O O8 0.528992 0.812072 0.318068
O O9 0.431589 0.313069 0.111227
O O10 0.500000 0.500000 0.000000
O O11 0.599444 0.247258 0.937506
O O12 0.000000 0.500000 0.000000
O O13 0.392159 0.901714 0.916359
O O14 0.880739 0.951911 0.772812
O O15 0.672490 0.938231 0.172196
O O16 0.000000 0.000000 0.000000
#
# Coordination Sequence:
#
# PCOD8021301 Si02
#       7
#     2   2   2   2   2   2   2
#     4  10  23  43  66 100 138 178 225 292 341 423
#     4   9  20  42  69  96 139 176 226 284 343 419
#     4  10  22  43  70 100 134 183 226 282 350 421
#     4  12  28  44  71 103 134 187 243 295 362 424
#     4  11  25  45  66  96 140 181 229 294 352 422
#     4  11  25  41  69 100 138 180 231 287 355 414
#     4  11  24  47  68  93 140 185 231 294 353 423
#
# _framework density 22.005980999999998
#
# number of rings (size 3 to 8) (size 9 to 14) (size 15 to 20)
#    0.000    1.429    1.429    2.143    6.000    6.286 
#    0.000   10.000    0.000    0.000    0.000    0.000 
#    0.000    0.000    0.000    0.000    0.000    0.000 
#
# Total GULP energy -173534.767231 kJ/mol
# GULP energy per Si atom -12395.340516 kJ/mol
# Density = 2.195589 g / cm^3
# Si number density = 22.005981 Si / 1000 Ang^3
#
#
#
# Elastic Constant Matrix: (Units=GPa)
#
#
# Indices 1 2 3 4 5 6 
#
# 1 130.2442 49.7524 49.9131 -2.6379 -10.3655 -8.4951
# 2 49.7524 101.6223 66.8364 -9.1715 -7.2395 4.8218
# 3 49.9131 66.8364 115.1055 -3.5133 -20.8888 -17.0591
# 4 -2.6379 -9.1715 -3.5133 51.0814 -1.9840 -2.0176
# 5 -10.3655 -7.2395 -20.8888 -1.9840 45.3001 -2.1087
# 6 -8.4951 4.8218 -17.0591 -2.0176 -2.1087 27.7565
#
#
#
# Elastic Compliance Matrix: (Units=1/GPa)
#
#
# Indices 1 2 3 4 5 6 
#
# 1 0.010047 -0.004156 -0.001274 -0.000147 0.001185 0.003093
# 2 -0.004156 0.020891 -0.012942 0.001973 -0.004100 -0.013024
# 3 -0.001274 -0.012942 0.020371 -0.000098 0.007726 0.014958
# 4 -0.000147 0.001973 -0.000098 0.020005 0.001164 0.001095
# 5 0.001185 -0.004100 0.007726 0.001164 0.025670 0.007858
# 6 0.003093 -0.013024 0.014958 0.001095 0.007858 0.049107
#
#
# Mechanical properties :
#
#
# Convention : Reuss Voigt Hill
#
# Bulk Modulus (GPa) = 68.66527 75.55284 72.10906
# Shear Modulus (GPa) = 26.63950 36.85894 31.74922
#
# Velocity S-wave (km/s) = 3.48308 4.09706 3.80248
# Velocity P-wave (km/s) = 6.88815 7.53582 7.21925
#
# Compressibility (1/GPa) = 0.01456340
#
# Stress axis : x y z
#
# Youngs Moduli (GPa) = 99.53228 47.86720 49.08895
#
# Poissons Ratio (x) = 0.19895 0.06256
# Poissons Ratio (y) = 0.41368 0.63532
# Poissons Ratio (z) = 0.12685 0.61951
#
# Static dielectric constant tensor:
#      x y z
#    x 4.137040 -0.054670 -0.115650 
#    y -0.054670 3.914740 0.332600 
#    z -0.115650 0.332600 4.569030 
# 
# 
# High freq. dielectric constant tensor:
#      x y z
#    x 1.884060 0.003130 0.001910 
#    y 0.003130 1.840970 0.015300 
#    z 0.001910 0.015300 1.882170 
# 
# From -- ./inp_files/106264.got.cif
#   From: 2010.06.25/outbox.cif.g09.slc.cpg/sg2_54_cif.got.tgz:106264.got - 2010.06.27 13:26:56.
