data_PCOD8021154
_publ_section_title
;
Structure prediction by ZEFSAII (Michael W. Deem and Ramdas Pophale) SiO2 
 PCOD8021154
Probable space group: P -1
;
_chemical_formula_sum "Si O2"
_cell_formula_units_Z 16
_cell_length_a 11.468063
_cell_length_b 14.366811
_cell_length_c 9.044710
_cell_angle_alpha 41.570162
_cell_angle_beta 74.981987
_cell_angle_gamma 54.379494
_cell_volume 759.484259
_symmetry_space_group_name_H-M "P -1"
_symmetry_group_IT_number 2
_symmetry_cell_setting 'triclinic'
loop_
_space_group_symop_operation_xyz
x,y,z
-x,-y,-z
loop_
_atom_site_type_symbol
_atom_site_label
_atom_site_fract_x
_atom_site_fract_y
_atom_site_fract_z
Si Si1 0.776272 0.671140 0.222675
Si Si2 0.349405 0.562213 0.061261
Si Si3 0.959388 0.158835 0.731981
Si Si4 0.654631 0.738877 0.679883
Si Si5 0.094063 0.344053 0.494506
Si Si6 0.121082 0.977499 0.595607
Si Si7 0.339623 0.061828 0.300511
Si Si8 0.641665 0.479443 0.542717
O O1 0.816170 0.649680 0.407921
O O2 0.655500 0.629201 0.300702
O O3 0.942142 0.529001 0.263203
O O4 0.701301 0.860974 0.945371
O O5 0.292483 0.460764 0.115750
O O6 0.371955 0.513367 0.284188
O O7 0.500000 0.500000 0.000000
O O8 0.232126 0.772524 0.845088
O O9 0.780012 0.299557 0.636403
O O10 0.043033 0.227837 0.703845
O O11 0.020645 0.105302 0.610551
O O12 0.000000 0.000000 0.000000
O O13 0.786483 0.747400 0.567804
O O14 0.639690 0.805838 0.772835
O O15 0.499283 0.867720 0.484827
O O16 0.211418 0.045430 0.417874
O O17 0.000000 0.000000 0.500000
O O18 0.500000 0.500000 0.500000
#
# Coordination Sequence:
#
# PCOD8021154 Si02
#       8
#     2   2   2   2   2   2   2   2
#     4  10  24  42  68  99 132 170 227 279 333 401
#     4  12  26  47  69 100 141 180 226 284 344 405
#     4  11  24  45  68  96 136 184 227 281 334 402
#     4  11  24  45  69  94 138 179 224 278 342 401
#     4  10  22  43  68  94 130 178 224 275 336 396
#     4  12  28  44  68 105 140 179 230 281 342 403
#     4  11  26  44  66 103 135 178 227 279 337 404
#     4  11  26  44  70 102 135 180 228 277 347 405
#
# _framework density 21.066928999999998
#
# number of rings (size 3 to 8) (size 9 to 14) (size 15 to 20)
#    0.000    1.000    5.000    0.000    7.000    3.000 
#    0.000    0.000    0.000    0.000    0.000    0.000 
#    0.000    0.000    0.000    0.000    0.000    0.000 
#
# Total GULP energy -198291.969120 kJ/mol
# GULP energy per Si atom -12393.248070 kJ/mol
# Density = 2.101898 g / cm^3
# Si number density = 21.066929 Si / 1000 Ang^3
#
#
#
# Elastic Constant Matrix: (Units=GPa)
#
#
# Indices 1 2 3 4 5 6 
#
# 1 132.7853 30.1068 35.4253 -5.3436 -4.8189 -9.7015
# 2 30.1068 100.0775 18.4322 -3.3562 -6.4597 -17.3173
# 3 35.4253 18.4322 101.1974 1.4048 -13.7472 -4.5341
# 4 -5.3436 -3.3562 1.4048 25.9037 5.7347 -8.8412
# 5 -4.8189 -6.4597 -13.7472 5.7347 22.5394 -1.0041
# 6 -9.7015 -17.3173 -4.5341 -8.8412 -1.0041 39.8361
#
#
#
# Elastic Compliance Matrix: (Units=1/GPa)
#
#
# Indices 1 2 3 4 5 6 
#
# 1 0.008897 -0.001855 -0.002870 0.002493 -0.000944 0.001563
# 2 -0.001855 0.011854 -0.001048 0.002554 0.001943 0.005198
# 3 -0.002870 -0.001048 0.012090 -0.003080 0.007231 -0.000280
# 4 0.002493 0.002554 -0.003080 0.046094 -0.011838 0.011299
# 5 -0.000944 0.001943 0.007231 -0.011838 0.052149 0.000125
# 6 0.001563 0.005198 -0.000280 0.011299 0.000125 0.030222
#
#
# Mechanical properties :
#
#
# Convention : Reuss Voigt Hill
#
# Bulk Modulus (GPa) = 46.95920 55.77657 51.36788
# Shear Modulus (GPa) = 27.78545 34.32890 31.05718
#
# Velocity S-wave (km/s) = 3.63562 4.04111 3.84372
# Velocity P-wave (km/s) = 6.32159 6.95035 6.64342
#
# Compressibility (1/GPa) = 0.02129508
#
# Stress axis : x y z
#
# Youngs Moduli (GPa) = 112.39242 84.36090 82.71532
#
# Poissons Ratio (x) = 0.15648 0.23736
# Poissons Ratio (y) = 0.20848 0.08672
# Poissons Ratio (z) = 0.32252 0.08844
#
# Static dielectric constant tensor:
#      x y z
#    x 3.893310 -0.138350 -0.146150 
#    y -0.138350 4.267550 -0.331680 
#    z -0.146150 -0.331680 3.658510 
# 
# 
# High freq. dielectric constant tensor:
#      x y z
#    x 1.839970 -0.006610 -0.014530 
#    y -0.006610 1.836850 -0.002580 
#    z -0.014530 -0.002580 1.818120 
# 
# From -- ./inp_files/226676.got.cif
#   From: 2010.06.25/outbox.cif.g09.slc.cpg/sg2_114_cif.got.tgz:226676.got - 2010.06.27 13:26:56.
