data_PCOD8021059
_publ_section_title
;
Structure prediction by ZEFSAII (Michael W. Deem and Ramdas Pophale) SiO2 
 PCOD8021059
Probable space group: P -1
;
_chemical_formula_sum "Si O2"
_cell_formula_units_Z 16
_cell_length_a 24.165348
_cell_length_b 9.085666
_cell_length_c 20.403017
_cell_angle_alpha 43.093321
_cell_angle_beta 20.542472
_cell_angle_gamma 31.439212
_cell_volume 759.953418
_symmetry_space_group_name_H-M "P -1"
_symmetry_group_IT_number 2
_symmetry_cell_setting 'triclinic'
loop_
_space_group_symop_operation_xyz
x,y,z
-x,-y,-z
loop_
_atom_site_type_symbol
_atom_site_label
_atom_site_fract_x
_atom_site_fract_y
_atom_site_fract_z
Si Si1 0.334053 0.290024 0.545637
Si Si2 0.835169 0.668132 0.413896
Si Si3 0.342891 0.134697 0.000732
Si Si4 0.462749 0.319562 0.955877
Si Si5 0.620568 0.261073 0.663422
Si Si6 0.523400 0.230793 0.156161
Si Si7 0.027514 0.122098 0.711834
Si Si8 0.943962 0.719876 0.933243
O O1 0.313818 0.181694 0.535149
O O2 0.436291 0.431384 0.379355
O O3 0.090984 0.527662 0.769421
O O4 0.500000 0.000000 0.500000
O O5 0.728654 0.592606 0.604526
O O6 0.828913 0.902381 0.382379
O O7 0.080919 0.358166 0.223159
O O8 0.458724 0.963330 0.997756
O O9 0.419480 0.305952 0.842999
O O10 0.425690 0.889152 0.934632
O O11 0.638742 0.193832 0.742731
O O12 0.452821 0.535667 0.944235
O O13 0.210278 0.525764 0.142476
O O14 0.848056 0.985586 0.461695
O O15 0.689115 0.955496 0.114648
O O16 0.997637 0.906972 0.839120
O O17 0.000000 0.500000 0.000000
#
# Coordination Sequence:
#
# PCOD8021059 Si02
#       8
#     2   2   2   2   2   2   2   2
#     4  11  24  44  69  95 126 170 208 262 334 382
#     4  12  23  42  65  96 129 164 218 264 313 382
#     4  12  25  41  63  99 129 171 221 262 315 375
#     4  11  24  42  66  90 134 177 210 263 323 373
#     4  11  23  44  64  94 134 166 215 265 314 386
#     4  11  23  43  63  92 136 165 214 272 312 381
#     4  10  24  41  66  94 129 170 214 263 317 383
#     4  10  22  43  67  93 128 167 212 266 328 382
#
# _framework density 21.053923999999999
#
# number of rings (size 3 to 8) (size 9 to 14) (size 15 to 20)
#    0.000    1.000    5.000    1.500    1.750    2.000 
#    2.250    3.125    0.000    0.000    0.000    0.000 
#    0.000    0.000    0.000    0.000    0.000    0.000 
#
# Total GULP energy -198409.580090 kJ/mol
# GULP energy per Si atom -12400.598756 kJ/mol
# Density = 2.100600 g / cm^3
# Si number density = 21.053924 Si / 1000 Ang^3
#
#
#
# Elastic Constant Matrix: (Units=GPa)
#
#
# Indices 1 2 3 4 5 6 
#
# 1 124.7553 42.6911 35.6917 -7.6779 6.0163 11.0183
# 2 42.6911 98.9539 43.4974 -11.6096 0.8163 -8.5295
# 3 35.6917 43.4974 130.2860 -3.8054 7.9517 -0.1707
# 4 -7.6779 -11.6096 -3.8054 29.3757 4.3671 -1.0661
# 5 6.0163 0.8163 7.9517 4.3671 34.2827 -2.7387
# 6 11.0183 -8.5295 -0.1707 -1.0661 -2.7387 35.2222
#
#
#
# Elastic Compliance Matrix: (Units=1/GPa)
#
#
# Indices 1 2 3 4 5 6 
#
# 1 0.010342 -0.004122 -0.001317 0.001026 -0.001890 -0.004356
# 2 -0.004122 0.014377 -0.003609 0.004156 0.001085 0.004964
# 3 -0.001317 -0.003609 0.009345 -0.000305 -0.001857 -0.000570
# 4 0.001026 0.004156 -0.000305 0.036673 -0.004766 0.001423
# 5 -0.001890 0.001085 -0.001857 -0.004766 0.030760 0.003093
# 6 -0.004356 0.004964 -0.000570 0.001423 0.003093 0.031237
#
#
# Mechanical properties :
#
#
# Convention : Reuss Voigt Hill
#
# Bulk Modulus (GPa) = 62.62946 66.41731 64.52338
# Shear Modulus (GPa) = 32.01976 35.25045 33.63511
#
# Velocity S-wave (km/s) = 3.90403 4.09625 4.00130
# Velocity P-wave (km/s) = 7.08052 7.34759 7.21529
#
# Compressibility (1/GPa) = 0.01596693
#
# Stress axis : x y z
#
# Youngs Moduli (GPa) = 96.69100 69.55522 107.01009
#
# Poissons Ratio (x) = 0.28673 0.14097
# Poissons Ratio (y) = 0.39859 0.38620
# Poissons Ratio (z) = 0.12738 0.25102
#
# Static dielectric constant tensor:
#      x y z
#    x 3.965990 0.166680 -0.011320 
#    y 0.166680 4.391320 0.423490 
#    z -0.011320 0.423490 4.316390 
# 
# 
# High freq. dielectric constant tensor:
#      x y z
#    x 1.835740 0.029830 0.008820 
#    y 0.029830 1.808900 -0.003510 
#    z 0.008820 -0.003510 1.840640 
# 
# From -- ./inp_files/201804.got.cif
#   From: 2010.06.25/outbox.cif.g09.slc.cpg/sg2_101_cif.got.tgz:201804.got - 2010.06.27 13:26:56.
