data_PCOD8021869
_publ_section_title
;
Structure prediction by ZEFSAII (Michael W. Deem and Ramdas Pophale) SiO2 
 PCOD8021869
Probable space group: P -1
;
_chemical_formula_sum "Si O2"
_cell_formula_units_Z 16
_cell_length_a 13.093714
_cell_length_b 11.136685
_cell_length_c 14.396316
_cell_angle_alpha 71.156111
_cell_angle_beta 146.828774
_cell_angle_gamma 82.918471
_cell_volume 706.257560
_symmetry_space_group_name_H-M "P -1"
_symmetry_group_IT_number 2
_symmetry_cell_setting 'triclinic'
loop_
_space_group_symop_operation_xyz
x,y,z
-x,-y,-z
loop_
_atom_site_type_symbol
_atom_site_label
_atom_site_fract_x
_atom_site_fract_y
_atom_site_fract_z
Si Si1 0.322853 0.179330 0.253474
Si Si2 0.274032 0.631624 0.213897
Si Si3 0.729041 0.106473 0.931834
Si Si4 0.937898 0.589186 0.658337
Si Si5 0.259875 0.172837 0.000325
Si Si6 0.596169 0.600908 0.791144
Si Si7 0.837862 0.889754 0.417509
Si Si8 0.971257 0.047396 0.616760
O O1 0.414358 0.116807 0.230893
O O2 0.403988 0.282594 0.312511
O O3 0.500000 0.000000 0.500000
O O4 0.987295 0.325217 0.971419
O O5 0.500000 0.500000 0.500000
O O6 0.167845 0.832789 0.072061
O O7 0.413911 0.520393 0.248809
O O8 0.398928 0.249887 0.620181
O O9 0.896613 0.885195 0.097212
O O10 0.797469 0.108456 0.089504
O O11 0.995042 0.672528 0.606819
O O12 0.042914 0.397227 0.751133
O O13 0.101747 0.545411 0.887647
O O14 0.496841 0.046774 0.131063
O O15 0.331217 0.747283 0.623880
O O16 0.905547 0.899806 0.362905
O O17 0.945254 0.936274 0.562552
#
# Coordination Sequence:
#
# PCOD8021869 Si02
#       8
#     2   2   2   2   2   2   2   2
#     4  11  24  41  67  94 127 186 221 270 333 399
#     4  12  27  42  66 104 133 175 229 278 328 392
#     4  11  26  42  69  97 142 168 222 287 329 387
#     4  10  22  44  69  96 134 183 215 273 332 402
#     4  10  23  45  67  97 138 176 226 267 339 401
#     4  11  24  44  69  95 139 173 226 270 333 404
#     4  10  22  45  73  97 136 173 228 267 339 404
#     4  11  23  44  71 104 132 174 219 286 333 392
#
# _framework density 22.654627000000001
#
# number of rings (size 3 to 8) (size 9 to 14) (size 15 to 20)
#    0.000    1.250    2.500    3.375    8.750    3.000 
#    2.250    1.250    0.000    0.000    0.000    0.000 
#    0.000    0.000    0.000    0.000    0.000    0.000 
#
# Total GULP energy -198350.894779 kJ/mol
# GULP energy per Si atom -12396.930924 kJ/mol
# Density = 2.260306 g / cm^3
# Si number density = 22.654627 Si / 1000 Ang^3
#
#
#
# Elastic Constant Matrix: (Units=GPa)
#
#
# Indices 1 2 3 4 5 6 
#
# 1 105.7869 29.1870 12.9521 -14.8696 -5.2347 9.7484
# 2 29.1870 110.5190 9.3532 -17.4913 -6.0316 19.8616
# 3 12.9521 9.3532 82.7543 -6.1344 -9.3386 -16.2143
# 4 -14.8696 -17.4913 -6.1344 34.5235 5.5644 -11.4664
# 5 -5.2347 -6.0316 -9.3386 5.5644 33.3288 -10.5549
# 6 9.7484 19.8616 -16.2143 -11.4664 -10.5549 36.1342
#
#
#
# Elastic Compliance Matrix: (Units=1/GPa)
#
#
# Indices 1 2 3 4 5 6 
#
# 1 0.010732 -0.001961 -0.001591 0.002809 -0.000114 -0.001673
# 2 -0.001961 0.011186 -0.002095 0.002628 -0.001237 -0.006087
# 3 -0.001591 -0.002095 0.016026 0.003984 0.007025 0.012088
# 4 0.002809 0.002628 0.003984 0.035895 -0.000533 0.010820
# 5 -0.000114 -0.001237 0.007025 -0.000533 0.036352 0.014312
# 6 -0.001673 -0.006087 0.012088 0.010820 0.014312 0.044510
#
#
# Mechanical properties :
#
#
# Convention : Reuss Voigt Hill
#
# Bulk Modulus (GPa) = 37.52056 44.67164 41.09610
# Shear Modulus (GPa) = 28.59171 37.30183 32.94677
#
# Velocity S-wave (km/s) = 3.55642 4.06216 3.81767
# Velocity P-wave (km/s) = 5.78464 6.46242 6.13290
#
# Compressibility (1/GPa) = 0.02665206
#
# Stress axis : x y z
#
# Youngs Moduli (GPa) = 93.17894 89.40107 62.39823
#
# Poissons Ratio (x) = 0.17528 0.09925
# Poissons Ratio (y) = 0.18268 0.13071
# Poissons Ratio (z) = 0.14821 0.18727
#
# Static dielectric constant tensor:
#      x y z
#    x 3.752700 0.171610 -0.493510 
#    y 0.171610 4.370950 -0.283430 
#    z -0.493510 -0.283430 3.527440 
# 
# 
# High freq. dielectric constant tensor:
#      x y z
#    x 1.888680 0.026300 -0.003590 
#    y 0.026300 1.901340 0.000580 
#    z -0.003590 0.000580 1.891320 
# 
# From -- ./inp_files/428039.got.cif
#   From: 2010.06.25/outbox.cif.g09.slc.cpg/sg2_215_cif.got.tgz:428039.got - 2010.06.27 13:26:56.
