data_PCOD8021171
_publ_section_title
;
Structure prediction by ZEFSAII (Michael W. Deem and Ramdas Pophale) SiO2 
 PCOD8021171
Probable space group: P -1
;
_chemical_formula_sum "Si O2"
_cell_formula_units_Z 16
_cell_length_a 15.659162
_cell_length_b 9.016394
_cell_length_c 9.230837
_cell_angle_alpha 45.492216
_cell_angle_beta 103.791831
_cell_angle_gamma 76.296702
_cell_volume 733.167189
_symmetry_space_group_name_H-M "P -1"
_symmetry_group_IT_number 2
_symmetry_cell_setting 'triclinic'
loop_
_space_group_symop_operation_xyz
x,y,z
-x,-y,-z
loop_
_atom_site_type_symbol
_atom_site_label
_atom_site_fract_x
_atom_site_fract_y
_atom_site_fract_z
Si Si1 0.080620 0.002908 0.131923
Si Si2 0.183954 0.263763 0.246930
Si Si3 0.602937 0.358256 0.737894
Si Si4 0.992400 0.807962 0.724514
Si Si5 0.650502 0.759519 0.459955
Si Si6 0.284066 0.451610 0.679947
Si Si7 0.768562 0.870475 0.948550
Si Si8 0.503502 0.669962 0.008932
O O1 0.192750 0.730340 0.393640
O O2 0.112490 0.185615 0.955121
O O3 0.006283 0.122717 0.158372
O O4 0.000000 0.000000 0.000000
O O5 0.245429 0.292911 0.380442
O O6 0.263238 0.082319 0.270152
O O7 0.119758 0.163357 0.368210
O O8 0.098909 0.521575 0.944955
O O9 0.500000 0.500000 0.500000
O O10 0.637212 0.545558 0.659839
O O11 0.579578 0.282250 0.932402
O O12 0.690963 0.115161 0.848025
O O13 0.000000 0.000000 0.500000
O O14 0.664869 0.739499 0.305448
O O15 0.544848 0.043244 0.263887
O O16 0.375379 0.460299 0.794250
O O17 0.229978 0.365008 0.828725
O O18 0.500000 0.500000 0.000000
#
# Coordination Sequence:
#
# PCOD8021171 Si02
#       8
#     2   2   2   2   2   2   2   2
#     4  11  24  42  71 100 134 178 230 275 344 406
#     4  10  25  42  65 104 133 178 231 279 338 406
#     4  12  24  45  70  95 139 182 224 282 340 396
#     4  10  22  43  68  95 139 176 224 286 340 395
#     4  12  25  42  70  98 136 177 227 276 337 407
#     4  12  24  46  68 101 140 176 228 284 336 407
#     4  11  24  43  69  98 140 179 223 281 342 396
#     4  12  29  45  69 105 136 181 232 278 340 408
#
# _framework density 21.823125999999998
#
# number of rings (size 3 to 8) (size 9 to 14) (size 15 to 20)
#    0.000    0.750    3.750    2.625    7.000    3.000 
#    0.000    0.000    0.000    0.000    0.000    0.000 
#    0.000    0.000    0.000    0.000    0.000    0.000 
#
# Total GULP energy -198342.510022 kJ/mol
# GULP energy per Si atom -12396.406876 kJ/mol
# Density = 2.177346 g / cm^3
# Si number density = 21.823126 Si / 1000 Ang^3
#
#
#
# Elastic Constant Matrix: (Units=GPa)
#
#
# Indices 1 2 3 4 5 6 
#
# 1 164.0950 60.6077 63.2446 21.9218 -14.6104 21.3357
# 2 60.6077 139.4617 31.5210 8.8435 7.1973 14.5700
# 3 63.2446 31.5210 77.9230 -0.5511 1.3117 12.4359
# 4 21.9218 8.8435 -0.5511 35.2363 7.5909 7.7696
# 5 -14.6104 7.1973 1.3117 7.5909 44.6419 11.1785
# 6 21.3357 14.5700 12.4359 7.7696 11.1785 47.6597
#
#
#
# Elastic Compliance Matrix: (Units=1/GPa)
#
#
# Indices 1 2 3 4 5 6 
#
# 1 0.012689 -0.003084 -0.008787 -0.008155 0.006985 -0.002754
# 2 -0.003084 0.008889 -0.000957 0.000303 -0.002317 -0.000593
# 3 -0.008787 -0.000957 0.020692 0.007240 -0.004219 -0.001364
# 4 -0.008155 0.000303 0.007240 0.035796 -0.008472 -0.002180
# 5 0.006985 -0.002317 -0.004219 -0.008472 0.028269 -0.006567
# 6 -0.002754 -0.000593 -0.001364 -0.002180 -0.006567 0.024647
#
#
# Mechanical properties :
#
#
# Convention : Reuss Voigt Hill
#
# Bulk Modulus (GPa) = 60.18946 76.91405 68.55176
# Shear Modulus (GPa) = 30.83030 40.58132 35.70581
#
# Velocity S-wave (km/s) = 3.76271 4.31694 4.04932
# Velocity P-wave (km/s) = 6.82040 7.75685 7.30365
#
# Compressibility (1/GPa) = 0.01661420
#
# Stress axis : x y z
#
# Youngs Moduli (GPa) = 78.80686 112.49395 48.32761
#
# Poissons Ratio (x) = 0.34694 0.42467
# Poissons Ratio (y) = 0.24305 0.04625
# Poissons Ratio (z) = 0.69249 0.10765
#
# Static dielectric constant tensor:
#      x y z
#    x 4.166520 -0.157280 -0.105630 
#    y -0.157280 4.202210 -0.015580 
#    z -0.105630 -0.015580 3.785460 
# 
# 
# High freq. dielectric constant tensor:
#      x y z
#    x 1.871830 0.003120 -0.009670 
#    y 0.003120 1.880260 -0.008210 
#    z -0.009670 -0.008210 1.841810 
# 
# From -- ./inp_files/297476.got.cif
#   From: 2010.06.25/outbox.cif.g09.slc.cpg/sg2_149_cif.got.tgz:297476.got - 2010.06.27 13:26:56.
