data_PCOD8021475
_publ_section_title
;
Structure prediction by ZEFSAII (Michael W. Deem and Ramdas Pophale) SiO2 
 PCOD8021475
Probable space group: P -1
;
_chemical_formula_sum "Si O2"
_cell_formula_units_Z 16
_cell_length_a 11.295352
_cell_length_b 8.501798
_cell_length_c 9.233464
_cell_angle_alpha 93.972766
_cell_angle_beta 63.310203
_cell_angle_gamma 115.145880
_cell_volume 708.992186
_symmetry_space_group_name_H-M "P -1"
_symmetry_group_IT_number 2
_symmetry_cell_setting 'triclinic'
loop_
_space_group_symop_operation_xyz
x,y,z
-x,-y,-z
loop_
_atom_site_type_symbol
_atom_site_label
_atom_site_fract_x
_atom_site_fract_y
_atom_site_fract_z
Si Si1 0.804651 0.484111 0.836912
Si Si2 0.606333 0.612607 0.109198
Si Si3 0.375028 0.463820 0.452036
Si Si4 0.307578 0.751763 0.395859
Si Si5 0.090742 0.808113 0.713798
Si Si6 0.877254 0.254120 0.993164
Si Si7 0.571377 0.936878 0.083513
Si Si8 0.841591 0.798793 0.246586
O O1 0.768425 0.348067 0.717132
O O2 0.862386 0.416504 0.938770
O O3 0.930177 0.675034 0.731516
O O4 0.659983 0.504331 0.966033
O O5 0.449833 0.470154 0.254813
O O6 0.572912 0.750207 0.040510
O O7 0.726232 0.718648 0.173596
O O8 0.500000 0.500000 0.500000
O O9 0.321465 0.617144 0.494397
O O10 0.235677 0.281614 0.560972
O O11 0.210950 0.838215 0.525823
O O12 0.469037 0.909194 0.281223
O O13 0.094007 0.991929 0.768973
O O14 0.119827 0.718558 0.834500
O O15 0.023314 0.246897 0.854272
O O16 0.737257 0.074520 0.023390
O O17 0.500000 0.000000 0.000000
#
# Coordination Sequence:
#
# PCOD8021475 Si02
#       8
#     2   2   2   2   2   2   2   2
#     4  12  25  44  69 103 140 184 223 279 344 415
#     4  10  22  43  73  99 135 180 227 280 340 398
#     4   9  22  42  69 100 138 174 227 281 336 407
#     4  11  26  46  63 101 144 179 222 280 346 407
#     4  12  25  42  71 101 137 178 228 287 339 400
#     4  12  24  42  75 101 135 181 235 282 336 408
#     4  11  23  47  68 100 139 179 226 282 344 407
#     4  11  22  45  69 105 131 174 236 288 332 396
#
# _framework density 22.567245
#
# number of rings (size 3 to 8) (size 9 to 14) (size 15 to 20)
#    0.000    1.000    3.750    2.625    3.500    3.500 
#    2.250    1.250    0.000    0.000    0.000    0.000 
#    0.000    0.000    0.000    0.000    0.000    0.000 
#
# Total GULP energy -198371.505586 kJ/mol
# GULP energy per Si atom -12398.219099 kJ/mol
# Density = 2.251588 g / cm^3
# Si number density = 22.567245 Si / 1000 Ang^3
#
#
#
# Elastic Constant Matrix: (Units=GPa)
#
#
# Indices 1 2 3 4 5 6 
#
# 1 82.8242 26.8790 51.9424 -6.3416 -7.9269 -13.9802
# 2 26.8790 82.5353 49.4510 -13.7477 -2.5473 -0.2722
# 3 51.9424 49.4510 120.2998 -2.3514 -24.9697 -9.3109
# 4 -6.3416 -13.7477 -2.3514 44.0697 -3.0614 -5.3866
# 5 -7.9269 -2.5473 -24.9697 -3.0614 43.1120 -4.8299
# 6 -13.9802 -0.2722 -9.3109 -5.3866 -4.8299 41.9775
#
#
#
# Elastic Compliance Matrix: (Units=1/GPa)
#
#
# Indices 1 2 3 4 5 6 
#
# 1 0.017662 -0.001358 -0.006658 0.002337 0.000003 0.004697
# 2 -0.001358 0.017635 -0.007419 0.004454 -0.003390 -0.001802
# 3 -0.006658 -0.007419 0.015948 -0.001651 0.007675 0.001943
# 4 0.002337 0.004454 -0.001651 0.024936 0.001940 0.003864
# 5 0.000003 -0.003390 0.007675 0.001940 0.028158 0.005170
# 6 0.004697 -0.001802 0.001943 0.003864 0.005170 0.026897
#
#
# Mechanical properties :
#
#
# Convention : Reuss Voigt Hill
#
# Bulk Modulus (GPa) = 49.07885 60.24489 54.66187
# Shear Modulus (GPa) = 29.60408 36.32431 32.96419
#
# Velocity S-wave (km/s) = 3.62583 4.01634 3.82607
# Velocity P-wave (km/s) = 6.27088 6.94706 6.61761
#
# Compressibility (1/GPa) = 0.02037538
#
# Stress axis : x y z
#
# Youngs Moduli (GPa) = 56.61890 56.70701 62.70409
#
# Poissons Ratio (x) = 0.07701 0.41748
# Poissons Ratio (y) = 0.07689 0.46518
# Poissons Ratio (z) = 0.37696 0.42069
#
# Static dielectric constant tensor:
#      x y z
#    x 4.439280 0.140470 -0.088060 
#    y 0.140470 4.155100 -0.500840 
#    z -0.088060 -0.500840 4.305560 
# 
# 
# High freq. dielectric constant tensor:
#      x y z
#    x 1.905880 0.000780 -0.010290 
#    y 0.000780 1.884820 -0.022110 
#    z -0.010290 -0.022110 1.892160 
# 
# From -- ./inp_files/244440.got.cif
#   From: 2010.06.25/outbox.cif.g09.slc.cpg/sg2_123_cif.got.tgz:244440.got - 2010.06.27 13:26:56.
