data_PCOD8021273
_publ_section_title
;
Structure prediction by ZEFSAII (Michael W. Deem and Ramdas Pophale) SiO2 
 PCOD8021273
Probable space group: P -1
;
_chemical_formula_sum "Si O2"
_cell_formula_units_Z 16
_cell_length_a 11.456657
_cell_length_b 8.798617
_cell_length_c 16.352036
_cell_angle_alpha 67.737072
_cell_angle_beta 50.171955
_cell_angle_gamma 37.984459
_cell_volume 750.900745
_symmetry_space_group_name_H-M "P -1"
_symmetry_group_IT_number 2
_symmetry_cell_setting 'triclinic'
loop_
_space_group_symop_operation_xyz
x,y,z
-x,-y,-z
loop_
_atom_site_type_symbol
_atom_site_label
_atom_site_fract_x
_atom_site_fract_y
_atom_site_fract_z
Si Si1 0.807512 0.594772 0.943285
Si Si2 0.627597 0.256459 0.940647
Si Si3 0.921590 0.218436 0.434578
Si Si4 0.493020 0.195392 0.432116
Si Si5 0.827490 0.521990 0.619600
Si Si6 0.966914 0.964687 0.320003
Si Si7 0.774319 0.851583 0.059579
Si Si8 0.256768 0.218814 0.242693
O O1 0.833781 0.665403 0.831039
O O2 0.034321 0.294044 0.923187
O O3 0.562502 0.695604 0.035077
O O4 0.835806 0.704493 0.979097
O O5 0.828718 0.151420 0.810606
O O6 0.500000 0.500000 0.000000
O O7 0.744588 0.061426 0.001764
O O8 0.704394 0.519284 0.496120
O O9 0.155352 0.134901 0.340209
O O10 0.865953 0.197520 0.372429
O O11 0.000000 0.000000 0.500000
O O12 0.430294 0.244300 0.354018
O O13 0.500000 0.000000 0.500000
O O14 0.749837 0.062347 0.349906
O O15 0.821891 0.563778 0.709725
O O16 0.000000 0.500000 0.500000
O O17 0.921108 0.259210 0.621114
O O18 0.537173 0.965339 0.177040
#
# Coordination Sequence:
#
# PCOD8021273 Si02
#       8
#     2   2   2   2   2   2   2   2
#     4  10  22  44  67  98 129 173 227 275 334 407
#     4  11  24  42  67  99 142 174 217 287 347 405
#     4  12  24  45  67 102 145 180 223 294 342 397
#     4  12  26  45  70  96 138 187 236 277 334 418
#     4  12  23  45  64  93 135 182 228 279 328 408
#     4  12  24  43  69 100 138 181 231 284 353 400
#     4  10  22  43  69  97 129 171 229 276 328 416
#     4  11  22  41  70  95 131 181 224 270 341 401
#
# _framework density 21.307742999999999
#
# number of rings (size 3 to 8) (size 9 to 14) (size 15 to 20)
#    0.000    0.750    3.750    4.875    0.000    4.500 
#    6.750    0.000    0.000    0.000    0.000    0.000 
#    0.000    0.000    0.000    0.000    0.000    0.000 
#
# Total GULP energy -198270.940086 kJ/mol
# GULP energy per Si atom -12391.933755 kJ/mol
# Density = 2.125925 g / cm^3
# Si number density = 21.307743 Si / 1000 Ang^3
#
#
#
# Elastic Constant Matrix: (Units=GPa)
#
#
# Indices 1 2 3 4 5 6 
#
# 1 108.7443 51.2365 53.9886 -6.1235 -6.9303 -13.0666
# 2 51.2365 143.7133 57.4505 -9.3563 -17.1234 -11.6331
# 3 53.9886 57.4505 133.7455 -3.7218 -15.9573 -5.0572
# 4 -6.1235 -9.3563 -3.7218 24.3908 12.9777 2.0506
# 5 -6.9303 -17.1234 -15.9573 12.9777 32.2468 8.0135
# 6 -13.0666 -11.6331 -5.0572 2.0506 8.0135 46.4945
#
#
#
# Elastic Compliance Matrix: (Units=1/GPa)
#
#
# Indices 1 2 3 4 5 6 
#
# 1 0.012903 -0.002866 -0.004101 0.002624 -0.002526 0.002783
# 2 -0.002866 0.009427 -0.002535 0.001120 0.002486 0.000800
# 3 -0.004101 -0.002535 0.010625 -0.002614 0.004399 -0.001274
# 4 0.002624 0.001120 -0.002614 0.053274 -0.022121 0.002196
# 5 -0.002526 0.002486 0.004399 -0.022121 0.044431 -0.006291
# 6 0.002783 0.000800 -0.001274 0.002196 -0.006291 0.023339
#
#
# Mechanical properties :
#
#
# Convention : Reuss Voigt Hill
#
# Bulk Modulus (GPa) = 71.66828 79.06158 75.36493
# Shear Modulus (GPa) = 28.14488 35.52826 31.83657
#
# Velocity S-wave (km/s) = 3.63833 4.08780 3.86959
# Velocity P-wave (km/s) = 7.16643 7.71137 7.44389
#
# Compressibility (1/GPa) = 0.01395317
#
# Stress axis : x y z
#
# Youngs Moduli (GPa) = 77.50018 106.07729 94.11895
#
# Poissons Ratio (x) = 0.30399 0.38595
# Poissons Ratio (y) = 0.22210 0.23855
# Poissons Ratio (z) = 0.31780 0.26886
#
# Static dielectric constant tensor:
#      x y z
#    x 4.351670 0.191770 0.289250 
#    y 0.191770 4.484520 0.349490 
#    z 0.289250 0.349490 4.146440 
# 
# 
# High freq. dielectric constant tensor:
#      x y z
#    x 1.848870 0.005460 0.003730 
#    y 0.005460 1.846520 0.001400 
#    z 0.003730 0.001400 1.836630 
# 
# From -- ./inp_files/515322.got.cif
#   From: 2010.06.25/outbox.cif.g09.slc.cpg/sg2_258_cif.got.tgz:515322.got - 2010.06.27 13:26:56.
