data_PCOD8021622
_publ_section_title
;
Structure prediction by ZEFSAII (Michael W. Deem and Ramdas Pophale) SiO2 
 PCOD8021622
Probable space group: P -1
;
_chemical_formula_sum "Si O2"
_cell_formula_units_Z 14
_cell_length_a 10.090764
_cell_length_b 7.833136
_cell_length_c 10.682310
_cell_angle_alpha 101.703698
_cell_angle_beta 103.800225
_cell_angle_gamma 50.413260
_cell_volume 630.467203
_symmetry_space_group_name_H-M "P -1"
_symmetry_group_IT_number 2
_symmetry_cell_setting 'triclinic'
loop_
_space_group_symop_operation_xyz
x,y,z
-x,-y,-z
loop_
_atom_site_type_symbol
_atom_site_label
_atom_site_fract_x
_atom_site_fract_y
_atom_site_fract_z
Si Si1 0.853185 0.705954 0.636681
Si Si2 0.204364 0.713215 0.298281
Si Si3 0.674965 0.100735 0.807029
Si Si4 0.020870 0.408486 0.854276
Si Si5 0.355308 0.969477 0.936842
Si Si6 0.568269 0.432421 0.259048
Si Si7 0.120174 0.677879 0.531454
O O1 0.998946 0.562150 0.757609
O O2 0.797823 0.571110 0.535433
O O3 0.934808 0.779517 0.566637
O O4 0.679168 0.922226 0.695112
O O5 0.174266 0.899901 0.225330
O O6 0.136865 0.600297 0.192914
O O7 0.413739 0.524131 0.339834
O O8 0.102825 0.814524 0.423527
O O9 0.489157 0.348399 0.800498
O O10 0.729904 0.014945 0.947481
O O11 0.207835 0.168669 0.844704
O O12 0.000000 0.500000 0.000000
O O13 0.428254 0.738572 0.854503
O O14 0.500000 0.000000 0.000000
O O15 0.753812 0.322324 0.345091
#
# Coordination Sequence:
#
# PCOD8021622 Si02
#       7
#     2   2   2   2   2   2   2
#     4  10  23  43  66  99 128 167 221 258 317 383
#     4   9  23  42  62  97 126 169 213 263 314 379
#     4  10  24  42  66  93 128 168 210 270 314 384
#     4  11  22  41  67  91 128 173 211 262 321 375
#     4  12  26  43  65  97 132 166 212 271 320 386
#     4  10  24  42  65  96 130 170 210 264 325 374
#     4  10  22  44  65  94 133 170 214 264 313 383
#
# _framework density 22.205753000000001
#
# number of rings (size 3 to 8) (size 9 to 14) (size 15 to 20)
#    0.857    0.857    1.429    1.714    6.000    2.857 
#    5.143    0.000    0.000    0.000    0.000    0.000 
#    0.000    0.000    0.000    0.000    0.000    0.000 
#
# Total GULP energy -173453.433620 kJ/mol
# GULP energy per Si atom -12389.530973 kJ/mol
# Density = 2.215521 g / cm^3
# Si number density = 22.205753 Si / 1000 Ang^3
#
#
#
# Elastic Constant Matrix: (Units=GPa)
#
#
# Indices 1 2 3 4 5 6 
#
# 1 84.9388 3.4465 35.9633 -10.1930 -1.7289 11.4326
# 2 3.4465 87.7366 25.2298 9.8648 -4.0928 1.9866
# 3 35.9633 25.2298 114.6479 11.2872 -7.5312 17.1301
# 4 -10.1930 9.8648 11.2872 42.6986 6.8845 -4.9454
# 5 -1.7289 -4.0928 -7.5312 6.8845 46.5622 -5.0780
# 6 11.4326 1.9866 17.1301 -4.9454 -5.0780 26.9447
#
#
#
# Elastic Compliance Matrix: (Units=1/GPa)
#
#
# Indices 1 2 3 4 5 6 
#
# 1 0.014672 0.000294 -0.004814 0.004598 -0.001167 -0.002563
# 2 0.000294 0.012425 -0.002596 -0.002238 0.001057 0.000398
# 3 -0.004814 -0.002596 0.012300 -0.004775 0.001617 -0.006157
# 4 0.004598 -0.002238 -0.004775 0.027626 -0.004282 0.005513
# 5 -0.001167 0.001057 0.001617 -0.004282 0.022736 0.002888
# 6 -0.002563 0.000398 -0.006157 0.005513 0.002888 0.043642
#
#
# Mechanical properties :
#
#
# Convention : Reuss Voigt Hill
#
# Bulk Modulus (GPa) = 39.73614 46.28919 43.01266
# Shear Modulus (GPa) = 32.04701 38.08666 35.06684
#
# Velocity S-wave (km/s) = 3.80305 4.14595 3.97820
# Velocity P-wave (km/s) = 6.10062 6.61887 6.36502
#
# Compressibility (1/GPa) = 0.02516601
#
# Stress axis : x y z
#
# Youngs Moduli (GPa) = 68.15498 80.48444 81.30078
#
# Poissons Ratio (x) = -0.02370 0.39137
# Poissons Ratio (y) = -0.02007 0.21108
# Poissons Ratio (z) = 0.32808 0.20896
#
# Static dielectric constant tensor:
#      x y z
#    x 3.805070 0.264540 -0.156810 
#    y 0.264540 4.095390 -0.002350 
#    z -0.156810 -0.002350 3.989680 
# 
# 
# High freq. dielectric constant tensor:
#      x y z
#    x 1.858960 0.020540 -0.011380 
#    y 0.020540 1.875360 0.015190 
#    z -0.011380 0.015190 1.876520 
# 
# From -- ./inp_files/244623.got.cif
#   From: 2010.06.25/outbox.cif.g09.slc.cpg/sg2_123_cif.got.tgz:244623.got - 2010.06.27 13:26:56.
