data_PCOD8021785
_publ_section_title
;
Structure prediction by ZEFSAII (Michael W. Deem and Ramdas Pophale) SiO2 
 PCOD8021785
Probable space group: P -1
;
_chemical_formula_sum "Si O2"
_cell_formula_units_Z 16
_cell_length_a 12.952535
_cell_length_b 18.309440
_cell_length_c 6.780474
_cell_angle_alpha 50.556237
_cell_angle_beta 134.850662
_cell_angle_gamma 136.668111
_cell_volume 757.162055
_symmetry_space_group_name_H-M "P -1"
_symmetry_group_IT_number 2
_symmetry_cell_setting 'triclinic'
loop_
_space_group_symop_operation_xyz
x,y,z
-x,-y,-z
loop_
_atom_site_type_symbol
_atom_site_label
_atom_site_fract_x
_atom_site_fract_y
_atom_site_fract_z
Si Si1 0.300405 0.951027 0.293869
Si Si2 0.828836 0.568456 0.080080
Si Si3 0.164007 0.092444 0.667670
Si Si4 0.818198 0.421813 0.983129
Si Si5 0.992377 0.886557 0.214687
Si Si6 0.197625 0.717431 0.446808
Si Si7 0.633471 0.370101 0.427744
Si Si8 0.263473 0.264425 0.197717
O O1 0.226468 0.838987 0.261766
O O2 0.188745 0.915307 0.409525
O O3 0.500000 0.000000 0.500000
O O4 0.270657 0.041150 0.990739
O O5 0.751848 0.493726 0.298298
O O6 0.030881 0.629502 0.257323
O O7 0.768314 0.494341 0.929509
O O8 0.771504 0.657351 0.845848
O O9 0.100023 0.153478 0.630100
O O10 0.280290 0.180290 0.509868
O O11 0.000000 0.000000 0.500000
O O12 0.676828 0.364818 0.722908
O O13 0.813370 0.323177 0.272590
O O14 0.000000 0.500000 0.000000
O O15 0.886108 0.797369 0.056529
O O16 0.000000 0.000000 0.000000
O O17 0.349282 0.717759 0.532173
O O18 0.439289 0.336094 0.199270
#
# Coordination Sequence:
#
# PCOD8021785 Si02
#       8
#     2   2   2   2   2   2   2   2
#     4  11  25  43  68 101 133 168 223 273 321 388
#     4  11  22  43  65  93 131 167 217 266 321 402
#     4  11  23  45  67  93 132 176 220 261 323 395
#     4  11  21  40  66  93 127 167 216 265 325 386
#     4  10  22  44  68  88 134 177 209 269 330 379
#     4  11  22  42  65  92 131 173 207 266 334 384
#     4  11  25  40  65  96 131 167 214 273 325 386
#     4  12  25  42  67  98 128 174 220 266 329 386
#
# _framework density 21.131540000000001
#
# number of rings (size 3 to 8) (size 9 to 14) (size 15 to 20)
#    0.000    1.000    6.250    1.125    5.250    3.500 
#    2.250    1.250    0.000    0.000    0.000    0.000 
#    0.000    0.000    0.000    0.000    0.000    0.000 
#
# Total GULP energy -198341.479349 kJ/mol
# GULP energy per Si atom -12396.342459 kJ/mol
# Density = 2.108344 g / cm^3
# Si number density = 21.131540 Si / 1000 Ang^3
#
#
#
# Elastic Constant Matrix: (Units=GPa)
#
#
# Indices 1 2 3 4 5 6 
#
# 1 125.2856 43.3407 45.3989 10.1408 11.2721 -0.3080
# 2 43.3407 80.1806 18.6885 -5.4997 5.9546 -7.3275
# 3 45.3989 18.6885 80.0177 0.1962 2.1835 0.2440
# 4 10.1408 -5.4997 0.1962 26.5792 1.5388 11.2815
# 5 11.2721 5.9546 2.1835 1.5388 38.4931 6.5123
# 6 -0.3080 -7.3275 0.2440 11.2815 6.5123 34.2075
#
#
#
# Elastic Compliance Matrix: (Units=1/GPa)
#
#
# Indices 1 2 3 4 5 6 
#
# 1 0.012844 -0.005688 -0.005878 -0.006561 -0.002554 0.001589
# 2 -0.005688 0.016299 -0.000560 0.004713 -0.001376 0.002152
# 3 -0.005878 -0.000560 0.015933 0.002505 0.001025 -0.001308
# 4 -0.006561 0.004713 0.002505 0.047355 0.001696 -0.015008
# 5 -0.002554 -0.001376 0.001025 0.001696 0.027861 -0.006188
# 6 0.001589 0.002152 -0.001308 -0.015008 -0.006188 0.035846
#
#
# Mechanical properties :
#
#
# Convention : Reuss Voigt Hill
#
# Bulk Modulus (GPa) = 48.02116 55.59333 51.80724
# Shear Modulus (GPa) = 26.69081 31.72634 29.20858
#
# Velocity S-wave (km/s) = 3.55784 3.87896 3.72186
# Velocity P-wave (km/s) = 6.29697 6.81374 6.56045
#
# Compressibility (1/GPa) = 0.02082416
#
# Stress axis : x y z
#
# Youngs Moduli (GPa) = 77.85726 61.35338 62.76352
#
# Poissons Ratio (x) = 0.34896 0.36891
# Poissons Ratio (y) = 0.44283 0.03516
# Poissons Ratio (z) = 0.45763 0.03437
#
# Static dielectric constant tensor:
#      x y z
#    x 5.281260 -0.357700 -0.527750 
#    y -0.357700 4.018180 -0.104930 
#    z -0.527750 -0.104930 4.205660 
# 
# 
# High freq. dielectric constant tensor:
#      x y z
#    x 1.845710 -0.002300 0.001710 
#    y -0.002300 1.833190 -0.003850 
#    z 0.001710 -0.003850 1.803640 
# 
# From -- ./inp_files/81262.got.cif
#   From: 2010.06.25/outbox.cif.g09.slc.cpg/sg2_41_cif.got.tgz:81262.got - 2010.06.27 13:26:56.
