data_PCOD8021649
_publ_section_title
;
Structure prediction by ZEFSAII (Michael W. Deem and Ramdas Pophale) SiO2 
 PCOD8021649
Probable space group: P -1
;
_chemical_formula_sum "Si O2"
_cell_formula_units_Z 14
_cell_length_a 10.352668
_cell_length_b 11.933401
_cell_length_c 11.963813
_cell_angle_alpha 72.516549
_cell_angle_beta 154.042849
_cell_angle_gamma 106.705766
_cell_volume 616.518233
_symmetry_space_group_name_H-M "P -1"
_symmetry_group_IT_number 2
_symmetry_cell_setting 'triclinic'
loop_
_space_group_symop_operation_xyz
x,y,z
-x,-y,-z
loop_
_atom_site_type_symbol
_atom_site_label
_atom_site_fract_x
_atom_site_fract_y
_atom_site_fract_z
Si Si1 0.712532 0.142727 0.875475
Si Si2 0.864243 0.378279 0.800093
Si Si3 0.926683 0.249077 0.575108
Si Si4 0.726696 0.996336 0.577932
Si Si5 0.482082 0.364172 0.052503
Si Si6 0.554303 0.512713 0.714405
Si Si7 0.439452 0.279677 0.817448
O O1 0.832199 0.243232 0.853900
O O2 0.422877 0.077463 0.617551
O O3 0.619289 0.193865 0.906475
O O4 0.971945 0.055797 0.127822
O O5 0.728396 0.464635 0.758610
O O6 0.687359 0.395386 0.541590
O O7 0.210470 0.417022 0.042789
O O8 0.139119 0.314681 0.813324
O O9 0.114964 0.225918 0.614835
O O10 0.791523 0.127972 0.550523
O O11 0.663166 0.334671 0.313293
O O12 0.500000 0.000000 0.500000
O O13 0.617929 0.301088 0.066579
O O14 0.500000 0.500000 0.000000
O O15 0.391289 0.405064 0.683657
#
# Coordination Sequence:
#
# PCOD8021649 Si02
#       7
#     2   2   2   2   2   2   2
#     4  11  24  43  70  97 131 171 225 276 329 378
#     4   9  18  33  53  88 124 166 201 242 315 378
#     4  10  24  44  67  97 132 169 228 267 329 391
#     4  12  27  49  66  91 130 179 227 274 323 391
#     4  10  22  44  66 101 138 172 209 260 332 403
#     4   9  17  32  54  85 134 160 193 252 308 384
#     4   9  24  38  70 103 135 164 217 275 334 393
#
# _framework density 22.708169000000002
#
# number of rings (size 3 to 8) (size 9 to 14) (size 15 to 20)
#    0.857    1.143    0.000    2.571    4.000    3.429 
#    7.714    0.000    0.000    0.000    0.000    0.000 
#    0.000    0.000    0.000    0.000    0.000    0.000 
#
# Total GULP energy -173567.770130 kJ/mol
# GULP energy per Si atom -12397.697866 kJ/mol
# Density = 2.265648 g / cm^3
# Si number density = 22.708169 Si / 1000 Ang^3
#
#
#
# Elastic Constant Matrix: (Units=GPa)
#
#
# Indices 1 2 3 4 5 6 
#
# 1 53.6671 24.7263 38.3828 8.8381 -0.8799 18.7598
# 2 24.7263 143.0371 59.4064 8.3387 -1.1865 33.2963
# 3 38.3828 59.4064 148.2635 -3.5288 -24.7897 19.7361
# 4 8.8381 8.3387 -3.5288 46.0116 2.4871 -5.1243
# 5 -0.8799 -1.1865 -24.7897 2.4871 43.3653 9.4096
# 6 18.7598 33.2963 19.7361 -5.1243 9.4096 41.4755
#
#
#
# Elastic Compliance Matrix: (Units=1/GPa)
#
#
# Indices 1 2 3 4 5 6 
#
# 1 0.027780 0.000780 -0.006227 -0.007181 -0.000159 -0.011080
# 2 0.000780 0.010120 -0.003333 -0.003061 0.000148 -0.007303
# 3 -0.006227 -0.003333 0.010855 0.002222 0.006026 -0.000766
# 4 -0.007181 -0.003061 0.002222 0.024870 -0.002168 0.008212
# 5 -0.000159 0.000148 0.006026 -0.002168 0.028735 -0.009701
# 6 -0.011080 -0.007303 -0.000766 0.008212 -0.009701 0.038565
#
#
# Mechanical properties :
#
#
# Convention : Reuss Voigt Hill
#
# Bulk Modulus (GPa) = 32.05542 65.55541 48.80541
# Shear Modulus (GPa) = 29.60624 41.00063 35.30343
#
# Velocity S-wave (km/s) = 3.61469 4.25378 3.94719
# Velocity P-wave (km/s) = 5.61856 7.28406 6.50483
#
# Compressibility (1/GPa) = 0.03119598
#
# Stress axis : x y z
#
# Youngs Moduli (GPa) = 35.99653 98.81152 92.12607
#
# Poissons Ratio (x) = -0.07711 0.57368
# Poissons Ratio (y) = -0.02809 0.30706
# Poissons Ratio (z) = 0.22415 0.32934
#
# Static dielectric constant tensor:
#      x y z
#    x 4.220670 0.013540 -0.169190 
#    y 0.013540 3.937110 0.184810 
#    z -0.169190 0.184810 4.317740 
# 
# 
# High freq. dielectric constant tensor:
#      x y z
#    x 1.910500 0.001100 -0.002060 
#    y 0.001100 1.889190 0.004810 
#    z -0.002060 0.004810 1.902860 
# 
# From -- ./inp_files/518927.got.cif
#   From: 2010.06.25/outbox.cif.g09.slc.cpg/sg2_260_cif.got.tgz:518927.got - 2010.06.27 13:26:56.
