data_PCOD8021071
_publ_section_title
;
Structure prediction by ZEFSAII (Michael W. Deem and Ramdas Pophale) SiO2 
 PCOD8021071
Probable space group: P -1
;
_chemical_formula_sum "Si O2"
_cell_formula_units_Z 16
_cell_length_a 12.127974
_cell_length_b 8.967650
_cell_length_c 20.609108
_cell_angle_alpha 69.776434
_cell_angle_beta 41.947278
_cell_angle_gamma 38.345141
_cell_volume 761.778609
_symmetry_space_group_name_H-M "P -1"
_symmetry_group_IT_number 2
_symmetry_cell_setting 'triclinic'
loop_
_space_group_symop_operation_xyz
x,y,z
-x,-y,-z
loop_
_atom_site_type_symbol
_atom_site_label
_atom_site_fract_x
_atom_site_fract_y
_atom_site_fract_z
Si Si1 0.266147 0.169155 0.520664
Si Si2 0.274625 0.605293 0.134239
Si Si3 0.743483 0.533199 0.266127
Si Si4 0.316870 0.313617 0.867948
Si Si5 0.796867 0.072620 0.775332
Si Si6 0.611342 0.766807 0.770357
Si Si7 0.297286 0.075695 0.736222
Si Si8 0.276081 0.810162 0.522394
O O1 0.945442 0.498001 0.633876
O O2 0.500000 0.000000 0.500000
O O3 0.388666 0.169776 0.405329
O O4 0.260558 0.986291 0.541106
O O5 0.211918 0.773241 0.195536
O O6 0.431758 0.323075 0.139113
O O7 0.960059 0.812927 0.205976
O O8 0.500000 0.500000 0.000000
O O9 0.748381 0.513904 0.189190
O O10 0.810254 0.658294 0.241565
O O11 0.404990 0.743980 0.404022
O O12 0.014968 0.215226 0.227127
O O13 0.458905 0.288382 0.871945
O O14 0.554430 0.987056 0.790903
O O15 0.000000 0.500000 0.000000
O O16 0.943224 0.003061 0.651278
O O17 0.370766 0.925309 0.794007
O O18 0.500000 0.500000 0.500000
#
# Coordination Sequence:
#
# PCOD8021071 Si02
#       8
#     2   2   2   2   2   2   2   2
#     4  11  19  38  68  98 131 166 217 268 328 391
#     4  12  27  42  65  97 130 176 217 270 334 381
#     4   9  22  42  68  95 125 173 215 260 322 386
#     4  11  27  44  66  94 129 178 226 260 313 391
#     4  11  23  43  66  94 130 168 214 272 327 380
#     4  11  24  44  66  98 128 173 221 270 327 388
#     4  10  22  43  67  94 132 171 218 268 322 391
#     4   9  19  37  64  97 130 161 209 266 327 382
#
# _framework density 21.003477
#
# number of rings (size 3 to 8) (size 9 to 14) (size 15 to 20)
#    0.000    1.500    2.500    1.125    8.750    2.500 
#    0.000    0.000    0.000    0.000    0.000    0.000 
#    0.000    0.000    0.000    0.000    0.000    0.000 
#
# Total GULP energy -198293.117245 kJ/mol
# GULP energy per Si atom -12393.319828 kJ/mol
# Density = 2.095567 g / cm^3
# Si number density = 21.003477 Si / 1000 Ang^3
#
#
#
# Elastic Constant Matrix: (Units=GPa)
#
#
# Indices 1 2 3 4 5 6 
#
# 1 102.3695 42.6677 25.4071 -0.9275 -13.2739 -19.9111
# 2 42.6677 81.6562 42.3978 -11.0654 -9.3549 -17.9378
# 3 25.4071 42.3978 113.8813 -16.1816 -7.3728 -9.5633
# 4 -0.9275 -11.0654 -16.1816 35.0953 -3.1088 10.8584
# 5 -13.2739 -9.3549 -7.3728 -3.1088 30.5836 -0.5239
# 6 -19.9111 -17.9378 -9.5633 10.8584 -0.5239 30.5886
#
#
#
# Elastic Compliance Matrix: (Units=1/GPa)
#
#
# Indices 1 2 3 4 5 6 
#
# 1 0.014085 -0.005424 -0.000769 -0.003522 0.004032 0.007067
# 2 -0.005424 0.019582 -0.005124 0.002168 0.002717 0.005628
# 3 -0.000769 -0.005124 0.011417 0.004171 0.001251 -0.001395
# 4 -0.003522 0.002168 0.004171 0.035062 0.003497 -0.012104
# 5 0.004032 0.002717 0.001251 0.003497 0.036004 0.003985
# 6 0.007067 0.005628 -0.001395 -0.012104 0.003985 0.044521
#
#
# Mechanical properties :
#
#
# Convention : Reuss Voigt Hill
#
# Bulk Modulus (GPa) = 44.54103 57.65023 51.09563
# Shear Modulus (GPa) = 26.20707 31.74912 28.97809
#
# Velocity S-wave (km/s) = 3.53618 3.89216 3.71844
# Velocity P-wave (km/s) = 6.15835 6.90696 6.54337
#
# Compressibility (1/GPa) = 0.02245121
#
# Stress axis : x y z
#
# Youngs Moduli (GPa) = 70.99546 51.06649 87.59063
#
# Poissons Ratio (x) = 0.27696 0.06738
# Poissons Ratio (y) = 0.38505 0.44880
# Poissons Ratio (z) = 0.05461 0.26166
#
# Static dielectric constant tensor:
#      x y z
#    x 3.783820 0.056060 0.104770 
#    y 0.056060 4.002530 -0.216870 
#    z 0.104770 -0.216870 4.098830 
# 
# 
# High freq. dielectric constant tensor:
#      x y z
#    x 1.815160 0.001200 0.007600 
#    y 0.001200 1.828070 -0.007680 
#    z 0.007600 -0.007680 1.832660 
# 
# From -- ./inp_files/306007.got.cif
#   From: 2010.06.25/outbox.cif.g09.slc.cpg/sg2_154_cif.got.tgz:306007.got - 2010.06.27 13:26:56.
