data_PCOD8021920
_publ_section_title
;
Structure prediction by ZEFSAII (Michael W. Deem and Ramdas Pophale) SiO2 
 PCOD8021920
Probable space group: P -1
;
_chemical_formula_sum "Si O2"
_cell_formula_units_Z 14
_cell_length_a 8.989171
_cell_length_b 19.647774
_cell_length_c 13.851986
_cell_angle_alpha 146.018360
_cell_angle_beta 149.713241
_cell_angle_gamma 33.302758
_cell_volume 624.311099
_symmetry_space_group_name_H-M "P -1"
_symmetry_group_IT_number 2
_symmetry_cell_setting 'triclinic'
loop_
_space_group_symop_operation_xyz
x,y,z
-x,-y,-z
loop_
_atom_site_type_symbol
_atom_site_label
_atom_site_fract_x
_atom_site_fract_y
_atom_site_fract_z
Si Si1 0.074301 0.662971 0.288281
Si Si2 0.098954 0.631459 0.840952
Si Si3 0.613565 0.672282 0.312545
Si Si4 0.430640 0.140589 0.076898
Si Si5 0.171012 0.725617 0.616830
Si Si6 0.486260 0.613266 0.859646
Si Si7 0.069286 0.847911 0.348777
O O1 0.238546 0.631917 0.449477
O O2 0.290627 0.546230 0.198273
O O3 0.053688 0.800817 0.393534
O O4 0.702605 0.681340 0.108060
O O5 0.129406 0.480429 0.696490
O O6 0.159708 0.649863 0.782985
O O7 0.741464 0.738947 0.799591
O O8 0.369798 0.660482 0.083629
O O9 0.424805 0.756104 0.397902
O O10 0.801851 0.759188 0.480560
O O11 0.763494 0.145666 0.229589
O O12 0.199331 0.167331 0.886980
O O13 0.500000 0.000000 0.000000
O O14 0.412831 0.654241 0.755493
O O15 0.000000 0.000000 0.500000
#
# Coordination Sequence:
#
# PCOD8021920 Si02
#       7
#     2   2   2   2   2   2   2
#     4  11  23  41  65 102 140 175 223 278 341 396
#     4  10  22  44  70  94 146 173 221 283 338 400
#     4  10  23  42  70 105 129 181 226 277 340 397
#     4  11  26  46  67 101 136 182 229 280 336 410
#     4  12  25  41  70 104 134 174 233 282 333 404
#     4  11  23  40  67 103 138 176 221 282 337 397
#     4  11  23  47  70  93 141 187 218 275 351 402
#
# _framework density 22.424716
#
# number of rings (size 3 to 8) (size 9 to 14) (size 15 to 20)
#    0.000    1.143    4.286    1.286    4.000    2.857 
#    2.571    3.571    0.000    0.000    0.000    0.000 
#    0.000    0.000    0.000    0.000    0.000    0.000 
#
# Total GULP energy -173547.138935 kJ/mol
# GULP energy per Si atom -12396.224210 kJ/mol
# Density = 2.237368 g / cm^3
# Si number density = 22.424716 Si / 1000 Ang^3
#
#
#
# Elastic Constant Matrix: (Units=GPa)
#
#
# Indices 1 2 3 4 5 6 
#
# 1 148.0122 43.7705 56.8264 7.7383 10.9220 14.7370
# 2 43.7705 88.4679 27.3120 17.3327 7.0149 7.0123
# 3 56.8264 27.3120 96.5574 7.3415 17.4533 3.3929
# 4 7.7383 17.3327 7.3415 31.3348 4.7217 -1.1417
# 5 10.9220 7.0149 17.4533 4.7217 50.7977 -0.4567
# 6 14.7370 7.0123 3.3929 -1.1417 -0.4567 34.5624
#
#
#
# Elastic Compliance Matrix: (Units=1/GPa)
#
#
# Indices 1 2 3 4 5 6 
#
# 1 0.009835 -0.003212 -0.004784 0.000371 -0.000089 -0.003061
# 2 -0.003212 0.014967 -0.001715 -0.007126 -0.000140 -0.001736
# 3 -0.004784 -0.001715 0.014323 -0.000652 -0.003587 0.000913
# 4 0.000371 -0.007126 -0.000652 0.036344 -0.002227 0.002523
# 5 -0.000089 -0.000140 -0.003587 -0.002227 0.021170 0.000625
# 6 -0.003061 -0.001736 0.000913 0.002523 0.000625 0.030593
#
#
# Mechanical properties :
#
#
# Convention : Reuss Voigt Hill
#
# Bulk Modulus (GPa) = 50.75406 65.42836 58.09121
# Shear Modulus (GPa) = 32.63283 37.01424 34.82353
#
# Velocity S-wave (km/s) = 3.81887 4.06717 3.94497
# Velocity P-wave (km/s) = 6.49055 7.16212 6.83459
#
# Compressibility (1/GPa) = 0.01970286
#
# Stress axis : x y z
#
# Youngs Moduli (GPa) = 101.68079 66.81382 69.81780
#
# Poissons Ratio (x) = 0.21459 0.33401
# Poissons Ratio (y) = 0.32658 0.11975
# Poissons Ratio (z) = 0.48644 0.11459
#
# Static dielectric constant tensor:
#      x y z
#    x 4.359840 -0.014900 -0.068990 
#    y -0.014900 3.652560 -0.033290 
#    z -0.068990 -0.033290 4.230900 
# 
# 
# High freq. dielectric constant tensor:
#      x y z
#    x 1.900620 0.009130 0.002940 
#    y 0.009130 1.843090 -0.009600 
#    z 0.002940 -0.009600 1.899240 
# 
# From -- ./inp_files/236897.got.cif
#   From: 2010.06.25/outbox.cif.g09.slc.cpg/sg2_119_cif.got.tgz:236897.got - 2010.06.27 13:26:56.
