data_PCOD8021655
_publ_section_title
;
Structure prediction by ZEFSAII (Michael W. Deem and Ramdas Pophale) SiO2 
 PCOD8021655
Probable space group: P -1
;
_chemical_formula_sum "Si O2"
_cell_formula_units_Z 16
_cell_length_a 14.789990
_cell_length_b 12.630867
_cell_length_c 5.356492
_cell_angle_alpha 75.705395
_cell_angle_beta 77.228922
_cell_angle_gamma 126.504778
_cell_volume 686.985776
_symmetry_space_group_name_H-M "P -1"
_symmetry_group_IT_number 2
_symmetry_cell_setting 'triclinic'
loop_
_space_group_symop_operation_xyz
x,y,z
-x,-y,-z
loop_
_atom_site_type_symbol
_atom_site_label
_atom_site_fract_x
_atom_site_fract_y
_atom_site_fract_z
Si Si1 0.671482 0.841826 0.575481
Si Si2 0.807230 0.284027 0.670009
Si Si3 0.064781 0.472233 0.167094
Si Si4 0.076815 0.086001 0.653934
Si Si5 0.629168 0.936825 0.035856
Si Si6 0.443775 0.538414 0.713747
Si Si7 0.353093 0.659644 0.377819
Si Si8 0.216275 0.398776 0.216802
O O1 0.803878 0.894828 0.404334
O O2 0.687358 0.909957 0.795394
O O3 0.558262 0.658426 0.766347
O O4 0.646674 0.902274 0.322282
O O5 0.826428 0.368924 0.859539
O O6 0.752769 0.333928 0.480586
O O7 0.942576 0.338979 0.489302
O O8 0.698975 0.108593 0.887364
O O9 0.130927 0.410563 0.081690
O O10 0.000000 0.500000 0.000000
O O11 0.121021 0.248167 0.526290
O O12 0.000000 0.000000 0.500000
O O13 0.000000 0.000000 0.000000
O O14 0.479895 0.829262 0.119971
O O15 0.500000 0.500000 0.500000
O O16 0.395489 0.616188 0.599348
O O17 0.312118 0.392653 0.012349
O O18 0.303482 0.543002 0.255135
#
# Coordination Sequence:
#
# PCOD8021655 Si02
#       8
#     2   2   2   2   2   2   2   2
#     4  11  26  46  70 105 145 182 246 289 367 427
#     4  10  23  41  67  99 139 191 234 294 357 430
#     4  10  23  43  68 102 141 188 245 287 360 430
#     4  12  30  48  70 104 144 191 246 298 357 431
#     4  11  24  44  72 106 142 189 231 304 357 434
#     4  11  24  42  74 103 138 188 236 301 364 428
#     4  10  22  44  66 104 141 177 243 291 366 428
#     4  11  25  44  72 101 143 190 239 305 362 431
#
# _framework density 23.290147000000001
#
# number of rings (size 3 to 8) (size 9 to 14) (size 15 to 20)
#    0.000    1.250    1.250    2.625   12.250    1.000 
#    0.000    1.875    0.000    0.000    0.000    0.000 
#    0.000    0.000    0.000    0.000    0.000    0.000 
#
# Total GULP energy -198215.857136 kJ/mol
# GULP energy per Si atom -12388.491071 kJ/mol
# Density = 2.323714 g / cm^3
# Si number density = 23.290147 Si / 1000 Ang^3
#
#
#
# Elastic Constant Matrix: (Units=GPa)
#
#
# Indices 1 2 3 4 5 6 
#
# 1 131.9004 39.3304 22.6735 -5.4692 -20.7964 4.7049
# 2 39.3304 116.9329 40.0689 -29.4298 -7.3359 14.2678
# 3 22.6735 40.0689 89.2955 -6.3749 -9.0880 0.6536
# 4 -5.4692 -29.4298 -6.3749 36.3736 -0.0738 -1.3225
# 5 -20.7964 -7.3359 -9.0880 -0.0738 40.1328 5.6488
# 6 4.7049 14.2678 0.6536 -1.3225 5.6488 28.3880
#
#
#
# Elastic Compliance Matrix: (Units=1/GPa)
#
#
# Indices 1 2 3 4 5 6 
#
# 1 0.009175 -0.002669 -0.000760 -0.000942 0.004240 -0.001050
# 2 -0.002669 0.014621 -0.004987 0.010320 0.001099 -0.006529
# 3 -0.000760 -0.004987 0.013649 -0.001684 0.001509 0.001939
# 4 -0.000942 0.010320 -0.001684 0.035275 0.001598 -0.003666
# 5 0.004240 0.001099 0.001509 0.001598 0.028633 -0.006913
# 6 -0.001050 -0.006529 0.001939 -0.003666 -0.006913 0.039842
#
#
# Mechanical properties :
#
#
# Convention : Reuss Voigt Hill
#
# Bulk Modulus (GPa) = 48.51229 60.25269 54.38249
# Shear Modulus (GPa) = 30.32191 36.71596 33.51893
#
# Velocity S-wave (km/s) = 3.61213 3.97477 3.79778
# Velocity P-wave (km/s) = 6.18639 6.85505 6.52928
#
# Compressibility (1/GPa) = 0.02061333
#
# Stress axis : x y z
#
# Youngs Moduli (GPa) = 108.99426 68.39398 73.26670
#
# Poissons Ratio (x) = 0.18251 0.05570
# Poissons Ratio (y) = 0.29085 0.36538
# Poissons Ratio (z) = 0.08286 0.34108
#
# Static dielectric constant tensor:
#      x y z
#    x 13.254000 1.476550 -1.513900 
#    y 1.476550 4.384420 -0.443340 
#    z -1.513900 -0.443340 4.604870 
# 
# 
# High freq. dielectric constant tensor:
#      x y z
#    x 1.949090 0.013070 -0.004760 
#    y 0.013070 1.914390 -0.014710 
#    z -0.004760 -0.014710 1.916790 
# 
# From -- ./inp_files/94774.got.cif
#   From: 2010.06.25/outbox.cif.g09.slc.cpg/sg2_48_cif.got.tgz:94774.got - 2010.06.27 13:26:56.
