data_PCOD8021992
_publ_section_title
;
Structure prediction by ZEFSAII (Michael W. Deem and Ramdas Pophale) SiO2 
 PCOD8021992
Probable space group: P -1
;
_chemical_formula_sum "Si O2"
_cell_formula_units_Z 16
_cell_length_a 19.983505
_cell_length_b 17.084720
_cell_length_c 11.774343
_cell_angle_alpha 40.286880
_cell_angle_beta 158.606957
_cell_angle_gamma 150.241637
_cell_volume 704.442218
_symmetry_space_group_name_H-M "P -1"
_symmetry_group_IT_number 2
_symmetry_cell_setting 'triclinic'
loop_
_space_group_symop_operation_xyz
x,y,z
-x,-y,-z
loop_
_atom_site_type_symbol
_atom_site_label
_atom_site_fract_x
_atom_site_fract_y
_atom_site_fract_z
Si Si1 0.232384 0.827591 0.238298
Si Si2 0.191523 0.325610 0.099424
Si Si3 0.471649 0.935010 0.903532
Si Si4 0.417342 0.646007 0.206289
Si Si5 0.025262 0.511394 0.162651
Si Si6 0.001675 0.134986 0.802686
Si Si7 0.222270 0.341711 0.705057
Si Si8 0.965594 0.123684 0.337836
O O1 0.246431 0.696725 0.354004
O O2 0.500000 0.000000 0.500000
O O3 0.061677 0.824524 0.883215
O O4 0.083045 0.767362 0.186426
O O5 0.365137 0.518498 0.173449
O O6 0.307297 0.256698 0.419091
O O7 0.186409 0.297830 0.988530
O O8 0.269586 0.930653 0.530681
O O9 0.390000 0.759674 0.972513
O O10 0.500000 0.000000 0.000000
O O11 0.723035 0.053526 0.101251
O O12 0.230858 0.552441 0.121006
O O13 0.065467 0.395356 0.402419
O O14 0.000000 0.500000 0.000000
O O15 0.100425 0.191415 0.767233
O O16 0.000000 0.000000 0.000000
O O17 0.197994 0.272450 0.616864
O O18 0.500000 0.500000 0.000000
O O19 0.000000 0.000000 0.500000
#
# Coordination Sequence:
#
# PCOD8021992 Si02
#       8
#     2   2   2   2   2   2   2   2
#     4  11  25  45  73 108 145 189 239 299 374 446
#     4  10  24  43  69 104 138 190 237 293 369 434
#     4  12  23  45  73 102 141 190 246 301 365 437
#     4  10  22  44  71  97 142 182 242 295 359 442
#     4  11  23  47  74 100 140 192 242 301 371 438
#     4  12  27  46  75 105 148 195 254 311 366 438
#     4  12  29  48  71 111 148 197 249 305 377 446
#     4  12  27  46  73 109 152 193 242 308 380 446
#
# _framework density 22.713006
#
# number of rings (size 3 to 8) (size 9 to 14) (size 15 to 20)
#    0.000    0.750    3.750    2.250    5.250    3.500 
#    0.000    0.000    0.000    0.000    0.000    0.000 
#    0.000    0.000    0.000    0.000    0.000    0.000 
#
# Total GULP energy -198365.516720 kJ/mol
# GULP energy per Si atom -12397.844795 kJ/mol
# Density = 2.266131 g / cm^3
# Si number density = 22.713006 Si / 1000 Ang^3
#
#
#
# Elastic Constant Matrix: (Units=GPa)
#
#
# Indices 1 2 3 4 5 6 
#
# 1 76.2258 21.4693 23.7007 1.7039 -13.5844 -19.0450
# 2 21.4693 113.8098 44.7826 -14.4115 -11.2365 -18.5523
# 3 23.7007 44.7826 116.9322 -1.8056 -7.4109 -17.5663
# 4 1.7039 -14.4115 -1.8056 53.4636 -2.3418 -2.1195
# 5 -13.5844 -11.2365 -7.4109 -2.3418 41.3441 3.5113
# 6 -19.0450 -18.5523 -17.5663 -2.1195 3.5113 43.2976
#
#
#
# Elastic Compliance Matrix: (Units=1/GPa)
#
#
# Indices 1 2 3 4 5 6 
#
# 1 0.016114 -0.001090 -0.001758 -0.000463 0.004186 0.005546
# 2 -0.001090 0.011487 -0.003549 0.003220 0.002056 0.002994
# 3 -0.001758 -0.003549 0.010564 -0.000459 0.000159 0.001957
# 4 -0.000463 0.003220 -0.000459 0.019714 0.001602 0.001825
# 5 0.004186 0.002056 0.000159 0.001602 0.026178 0.000743
# 6 0.005546 0.002994 0.001957 0.001825 0.000743 0.027641
#
#
# Mechanical properties :
#
#
# Convention : Reuss Voigt Hill
#
# Bulk Modulus (GPa) = 39.41018 54.09700 46.75359
# Shear Modulus (GPa) = 37.60840 42.08875 39.84857
#
# Velocity S-wave (km/s) = 4.07358 4.30940 4.19315
# Velocity P-wave (km/s) = 6.28605 6.97356 6.63871
#
# Compressibility (1/GPa) = 0.02537415
#
# Stress axis : x y z
#
# Youngs Moduli (GPa) = 62.05652 87.05255 94.65840
#
# Poissons Ratio (x) = 0.09485 0.16637
# Poissons Ratio (y) = 0.06762 0.33592
# Poissons Ratio (z) = 0.10907 0.30893
#
# Static dielectric constant tensor:
#      x y z
#    x 4.111890 -0.215030 0.130910 
#    y -0.215030 4.144950 0.076880 
#    z 0.130910 0.076880 7.438270 
# 
# 
# High freq. dielectric constant tensor:
#      x y z
#    x 1.903060 -0.014300 -0.001870 
#    y -0.014300 1.902500 -0.001220 
#    z -0.001870 -0.001220 1.899630 
# 
# From -- ./inp_files/472407.got.cif
#   From: 2010.06.25/outbox.cif.g09.slc.cpg/sg2_237_cif.got.tgz:472407.got - 2010.06.27 13:26:56.
