data_PCOD8021259
_publ_section_title
;
Structure prediction by ZEFSAII (Michael W. Deem and Ramdas Pophale) SiO2 
 PCOD8021259
Probable space group: P -1
;
_chemical_formula_sum "Si O2"
_cell_formula_units_Z 16
_cell_length_a 16.449044
_cell_length_b 13.240703
_cell_length_c 20.406959
_cell_angle_alpha 154.470972
_cell_angle_beta 155.158281
_cell_angle_gamma 41.128840
_cell_volume 749.966846
_symmetry_space_group_name_H-M "P -1"
_symmetry_group_IT_number 2
_symmetry_cell_setting 'triclinic'
loop_
_space_group_symop_operation_xyz
x,y,z
-x,-y,-z
loop_
_atom_site_type_symbol
_atom_site_label
_atom_site_fract_x
_atom_site_fract_y
_atom_site_fract_z
Si Si1 0.655167 0.039604 0.732658
Si Si2 0.792760 0.994027 0.376415
Si Si3 0.997113 0.720914 0.581333
Si Si4 0.192895 0.503698 0.258066
Si Si5 0.463053 0.045886 0.074066
Si Si6 0.284378 0.457996 0.850497
Si Si7 0.417831 0.386768 0.470511
Si Si8 0.201592 0.938023 0.293810
O O1 0.692835 0.840146 0.693172
O O2 0.415211 0.936660 0.477683
O O3 0.791767 0.050648 0.774185
O O4 0.721972 0.313812 0.975171
O O5 0.847490 0.268988 0.605341
O O6 0.742108 0.789598 0.274778
O O7 0.000000 0.000000 0.500000
O O8 0.597783 0.922916 0.143104
O O9 0.899144 0.599003 0.369586
O O10 0.000000 0.500000 0.500000
O O11 0.225371 0.927345 0.855152
O O12 0.849463 0.835632 0.578991
O O13 0.276873 0.343873 0.277063
O O14 0.357212 0.616077 0.385943
O O15 0.975102 0.319484 0.962548
O O16 0.500000 0.000000 0.000000
O O17 0.552500 0.345391 0.320450
O O18 0.500000 0.500000 0.000000
#
# Coordination Sequence:
#
# PCOD8021259 Si02
#       8
#     2   2   2   2   2   2   2   2
#     4  11  26  43  69 100 138 178 223 283 332 407
#     4  11  24  44  70  99 134 175 223 280 337 407
#     4  12  27  45  69 100 139 182 228 283 340 407
#     4  10  22  43  69  95 130 174 221 277 335 398
#     4  11  25  44  70 102 136 177 226 283 338 400
#     4  12  24  44  69 101 135 182 228 274 344 401
#     4  10  23  43  68  97 131 174 223 271 337 402
#     4  11  25  45  65 102 135 177 228 276 341 397
#
# _framework density 21.334275999999999
#
# number of rings (size 3 to 8) (size 9 to 14) (size 15 to 20)
#    0.000    1.000    2.500    3.000    3.500    5.000 
#    0.000    0.000    0.000    0.000    0.000    0.000 
#    0.000    0.000    0.000    0.000    0.000    0.000 
#
# Total GULP energy -198427.633130 kJ/mol
# GULP energy per Si atom -12401.727071 kJ/mol
# Density = 2.128572 g / cm^3
# Si number density = 21.334276 Si / 1000 Ang^3
#
#
#
# Elastic Constant Matrix: (Units=GPa)
#
#
# Indices 1 2 3 4 5 6 
#
# 1 93.2908 16.0036 4.1044 -5.0795 -5.0317 -13.2628
# 2 16.0036 91.4045 14.6282 -0.9214 0.4733 11.3553
# 3 4.1044 14.6282 85.0337 -11.6243 -5.8185 -2.5355
# 4 -5.0795 -0.9214 -11.6243 30.1128 1.5445 2.6673
# 5 -5.0317 0.4733 -5.8185 1.5445 41.6873 -3.0157
# 6 -13.2628 11.3553 -2.5355 2.6673 -3.0157 36.7799
#
#
#
# Elastic Compliance Matrix: (Units=1/GPa)
#
#
# Indices 1 2 3 4 5 6 
#
# 1 0.012132 -0.002844 0.000402 0.001547 0.001880 0.005322
# 2 -0.002844 0.012439 -0.002298 -0.000477 -0.001155 -0.005084
# 3 0.000402 -0.002298 0.012959 0.004769 0.001819 0.001551
# 4 0.001547 -0.000477 0.004769 0.035466 -0.000571 -0.001585
# 5 0.001880 -0.001155 0.001819 -0.000571 0.024737 0.003230
# 6 0.005322 -0.005084 0.001551 -0.001585 0.003230 0.031164
#
#
# Mechanical properties :
#
#
# Convention : Reuss Voigt Hill
#
# Bulk Modulus (GPa) = 35.65096 37.68904 36.67000
# Shear Modulus (GPa) = 33.84653 37.38219 35.61436
#
# Velocity S-wave (km/s) = 3.98739 4.19049 4.09020
# Velocity P-wave (km/s) = 6.16003 6.41232 6.28744
#
# Compressibility (1/GPa) = 0.02804974
#
# Stress axis : x y z
#
# Youngs Moduli (GPa) = 82.42916 80.39262 77.16820
#
# Poissons Ratio (x) = 0.22862 -0.03106
# Poissons Ratio (y) = 0.23442 0.17736
# Poissons Ratio (z) = -0.03318 0.18478
#
# Static dielectric constant tensor:
#      x y z
#    x 4.071640 -0.044440 0.020680 
#    y -0.044440 3.903550 -0.176920 
#    z 0.020680 -0.176920 3.946140 
# 
# 
# High freq. dielectric constant tensor:
#      x y z
#    x 1.852700 -0.004110 0.001490 
#    y -0.004110 1.842310 -0.000450 
#    z 0.001490 -0.000450 1.849030 
# 
# From -- ./inp_files/332339.got.cif
#   From: 2010.06.25/outbox.cif.g09.slc.cpg/sg2_167_cif.got.tgz:332339.got - 2010.06.27 13:26:56.
