data_PCOD8021605
_publ_section_title
;
Structure prediction by ZEFSAII (Michael W. Deem and Ramdas Pophale) SiO2 
 PCOD8021605
Probable space group: P -1
;
_chemical_formula_sum "Si O2"
_cell_formula_units_Z 16
_cell_length_a 8.802744
_cell_length_b 14.275061
_cell_length_c 9.746252
_cell_angle_alpha 74.209767
_cell_angle_beta 82.683178
_cell_angle_gamma 41.994653
_cell_volume 783.134359
_symmetry_space_group_name_H-M "P -1"
_symmetry_group_IT_number 2
_symmetry_cell_setting 'triclinic'
loop_
_space_group_symop_operation_xyz
x,y,z
-x,-y,-z
loop_
_atom_site_type_symbol
_atom_site_label
_atom_site_fract_x
_atom_site_fract_y
_atom_site_fract_z
Si Si1 0.671113 0.222628 0.334043
Si Si2 0.883916 0.417796 0.149227
Si Si3 0.397861 0.929462 0.452197
Si Si4 0.055019 0.129630 0.180736
Si Si5 0.346393 0.313237 0.104369
Si Si6 0.274995 0.611698 0.569839
Si Si7 0.342595 0.995462 0.945719
Si Si8 0.803674 0.853536 0.376685
O O1 0.676195 0.147966 0.494118
O O2 0.449469 0.303001 0.238728
O O3 0.677095 0.325970 0.354308
O O4 0.892014 0.116691 0.250425
O O5 0.781575 0.454078 0.300720
O O6 0.924427 0.294943 0.117762
O O7 0.121290 0.362381 0.154484
O O8 0.703567 0.567144 0.026539
O O9 0.666812 0.815794 0.429072
O O10 0.251782 0.052357 0.303197
O O11 0.344387 0.998521 0.580441
O O12 0.157409 0.047155 0.057328
O O13 0.512235 0.164850 0.058263
O O14 0.500000 0.500000 0.500000
O O15 0.063269 0.727643 0.446132
O O16 0.200707 0.113066 0.793807
O O17 0.500000 0.000000 0.000000
#
# Coordination Sequence:
#
# PCOD8021605 Si02
#       8
#     2   2   2   2   2   2   2   2
#     4  11  24  40  66  95 128 172 219 268 335 389
#     4  10  22  44  65  88 131 180 223 252 336 398
#     4  11  20  40  69  96 120 169 228 264 326 385
#     4  11  23  40  66  95 136 170 210 276 334 392
#     4  11  23  41  68  95 129 173 221 275 320 399
#     4  11  26  45  62  94 136 176 217 271 327 401
#     4  12  23  41  66 104 131 162 225 282 324 375
#     4  11  22  40  72  90 129 174 214 275 328 384
#
# _framework density 20.430720999999998
#
# number of rings (size 3 to 8) (size 9 to 14) (size 15 to 20)
#    0.000    1.000    6.250    1.125    0.000    5.500 
#    0.000    1.250    0.000    0.000    0.000    0.000 
#    0.000    0.000    0.000    0.000    0.000    0.000 
#
# Total GULP energy -198365.055279 kJ/mol
# GULP energy per Si atom -12397.815955 kJ/mol
# Density = 2.038422 g / cm^3
# Si number density = 20.430721 Si / 1000 Ang^3
#
#
#
# Elastic Constant Matrix: (Units=GPa)
#
#
# Indices 1 2 3 4 5 6 
#
# 1 95.6864 44.1091 48.0112 -5.3452 -12.4949 -9.0925
# 2 44.1091 96.0298 62.2494 -3.5138 -17.4205 -17.5473
# 3 48.0112 62.2494 149.1310 4.2284 -13.5753 -3.7396
# 4 -5.3452 -3.5138 4.2284 33.3582 -9.4024 -10.5169
# 5 -12.4949 -17.4205 -13.5753 -9.4024 30.5638 2.2270
# 6 -9.0925 -17.5473 -3.7396 -10.5169 2.2270 28.4143
#
#
#
# Elastic Compliance Matrix: (Units=1/GPa)
#
#
# Indices 1 2 3 4 5 6 
#
# 1 0.014568 -0.003125 -0.003062 0.004701 0.003987 0.003756
# 2 -0.003125 0.020812 -0.006740 0.009571 0.009533 0.013761
# 3 -0.003062 -0.006740 0.010362 -0.004639 -0.001526 -0.005375
# 4 0.004701 0.009571 -0.004639 0.044059 0.017285 0.021757
# 5 0.003987 0.009533 -0.001526 0.017285 0.043698 0.009935
# 6 0.003756 0.013761 -0.005375 0.021757 0.009935 0.051460
#
#
# Mechanical properties :
#
#
# Convention : Reuss Voigt Hill
#
# Bulk Modulus (GPa) = 50.27880 72.17628 61.22754
# Shear Modulus (GPa) = 22.99483 30.89909 26.94696
#
# Velocity S-wave (km/s) = 3.35849 3.89316 3.63567
# Velocity P-wave (km/s) = 6.30096 7.45741 6.90344
#
# Compressibility (1/GPa) = 0.01988910
#
# Stress axis : x y z
#
# Youngs Moduli (GPa) = 68.64473 48.05020 96.50458
#
# Poissons Ratio (x) = 0.15016 0.29547
# Poissons Ratio (y) = 0.21451 0.65040
# Poissons Ratio (z) = 0.21017 0.32384
#
# Static dielectric constant tensor:
#      x y z
#    x 3.547070 0.095810 0.259810 
#    y 0.095810 3.438570 -0.238910 
#    z 0.259810 -0.238910 3.272610 
# 
# 
# High freq. dielectric constant tensor:
#      x y z
#    x 1.812070 -0.013620 -0.010560 
#    y -0.013620 1.771740 -0.000440 
#    z -0.010560 -0.000440 1.813370 
# 
# From -- ./inp_files/206327.got.cif
#   From: 2010.06.25/outbox.cif.g09.slc.cpg/sg2_104_cif.got.tgz:206327.got - 2010.06.27 13:26:56.
