data_PCOD8021194
_publ_section_title
;
Structure prediction by ZEFSAII (Michael W. Deem and Ramdas Pophale) SiO2 
 PCOD8021194
Probable space group: P -1
;
_chemical_formula_sum "Si O2"
_cell_formula_units_Z 16
_cell_length_a 9.104180
_cell_length_b 12.009766
_cell_length_c 8.319844
_cell_angle_alpha 64.277482
_cell_angle_beta 77.716383
_cell_angle_gamma 64.944174
_cell_volume 741.950795
_symmetry_space_group_name_H-M "P -1"
_symmetry_group_IT_number 2
_symmetry_cell_setting 'triclinic'
loop_
_space_group_symop_operation_xyz
x,y,z
-x,-y,-z
loop_
_atom_site_type_symbol
_atom_site_label
_atom_site_fract_x
_atom_site_fract_y
_atom_site_fract_z
Si Si1 0.349284 0.244949 0.208506
Si Si2 0.792652 0.232607 0.584237
Si Si3 0.423909 0.025275 0.831912
Si Si4 0.844006 0.480492 0.983249
Si Si5 0.153107 0.532262 0.393585
Si Si6 0.010596 0.217843 0.264589
Si Si7 0.131742 0.015637 0.071233
Si Si8 0.547458 0.718073 0.493958
O O1 0.310936 0.381763 0.025890
O O2 0.172244 0.236369 0.283627
O O3 0.435994 0.267321 0.331254
O O4 0.481812 0.111505 0.195513
O O5 0.849289 0.332278 0.611785
O O6 0.771062 0.122232 0.774870
O O7 0.618565 0.301482 0.496898
O O8 0.933985 0.161720 0.463043
O O9 0.442897 0.150040 0.667263
O O10 0.500000 0.000000 0.000000
O O11 0.236281 0.055033 0.888007
O O12 0.844956 0.455610 0.807221
O O13 0.000000 0.500000 0.000000
O O14 0.855361 0.350069 0.162441
O O15 0.306375 0.415331 0.510182
O O16 0.000000 0.500000 0.500000
O O17 0.061051 0.126746 0.153555
O O18 0.000000 0.000000 0.000000
#
# Coordination Sequence:
#
# PCOD8021194 Si02
#       8
#     2   2   2   2   2   2   2   2
#     4  10  22  43  68  98 129 179 224 269 336 404
#     4  12  25  45  64 101 137 175 225 279 337 394
#     4  12  24  44  68  97 135 177 223 278 334 395
#     4   9  20  40  66  99 127 169 224 267 327 396
#     4  11  24  43  71  98 134 178 224 276 336 402
#     4  11  23  43  67  95 138 177 224 275 334 402
#     4  12  28  43  68 101 135 177 226 282 335 398
#     4  11  25  43  68  98 137 178 223 275 336 399
#
# _framework density 21.564774
#
# number of rings (size 3 to 8) (size 9 to 14) (size 15 to 20)
#    0.000    1.000    2.500    4.125    7.000    1.000 
#    2.250    1.250    0.000    0.000    0.000    0.000 
#    0.000    0.000    0.000    0.000    0.000    0.000 
#
# Total GULP energy -198220.868898 kJ/mol
# GULP energy per Si atom -12388.804306 kJ/mol
# Density = 2.151569 g / cm^3
# Si number density = 21.564774 Si / 1000 Ang^3
#
#
#
# Elastic Constant Matrix: (Units=GPa)
#
#
# Indices 1 2 3 4 5 6 
#
# 1 123.6360 13.5474 20.6295 7.8602 5.6207 5.4956
# 2 13.5474 87.1551 29.6862 -11.3850 -11.9936 -3.2773
# 3 20.6295 29.6862 54.2342 -5.5558 4.8713 -1.7900
# 4 7.8602 -11.3850 -5.5558 29.1445 -5.8803 -2.9071
# 5 5.6207 -11.9936 4.8713 -5.8803 36.5675 2.2035
# 6 5.4956 -3.2773 -1.7900 -2.9071 2.2035 31.0076
#
#
#
# Elastic Compliance Matrix: (Units=1/GPa)
#
#
# Indices 1 2 3 4 5 6 
#
# 1 0.009202 -0.001260 -0.003137 -0.004185 -0.001950 -0.002199
# 2 -0.001260 0.016625 -0.008559 0.006935 0.007806 0.001582
# 3 -0.003137 -0.008559 0.025002 0.001311 -0.005542 0.001611
# 4 -0.004185 0.006935 0.001311 0.040687 0.009001 0.004725
# 5 -0.001950 0.007806 -0.005542 0.009001 0.032429 -0.000610
# 6 -0.002199 0.001582 0.001611 0.004725 -0.000610 0.033386
#
#
# Mechanical properties :
#
#
# Convention : Reuss Voigt Hill
#
# Bulk Modulus (GPa) = 40.13258 43.63905 41.88581
# Shear Modulus (GPa) = 26.10302 32.75473 29.42888
#
# Velocity S-wave (km/s) = 3.48292 3.90153 3.69816
# Velocity P-wave (km/s) = 5.90127 6.36994 6.14008
#
# Compressibility (1/GPa) = 0.02491741
#
# Stress axis : x y z
#
# Youngs Moduli (GPa) = 108.67051 60.15177 39.99666
#
# Poissons Ratio (x) = 0.07577 0.12547
# Poissons Ratio (y) = 0.13688 0.34234
# Poissons Ratio (z) = 0.34089 0.51485
#
# Static dielectric constant tensor:
#      x y z
#    x 3.977650 -0.050950 0.328040 
#    y -0.050950 4.207810 -0.321360 
#    z 0.328040 -0.321360 4.020520 
# 
# 
# High freq. dielectric constant tensor:
#      x y z
#    x 1.856310 0.004660 0.018730 
#    y 0.004660 1.861100 -0.008300 
#    z 0.018730 -0.008300 1.845780 
# 
# From -- ./inp_files/184919.got.cif
#   From: 2010.06.25/outbox.cif.g09.slc.cpg/sg2_93_cif.got.tgz:184919.got - 2010.06.27 13:26:56.
