data_PCOD8021812
_publ_section_title
;
Structure prediction by ZEFSAII (Michael W. Deem and Ramdas Pophale) SiO2 
 PCOD8021812
Probable space group: P -1
;
_chemical_formula_sum "Si O2"
_cell_formula_units_Z 16
_cell_length_a 15.223061
_cell_length_b 9.013779
_cell_length_c 12.133226
_cell_angle_alpha 112.710179
_cell_angle_beta 25.520927
_cell_angle_gamma 111.538000
_cell_volume 660.954821
_symmetry_space_group_name_H-M "P -1"
_symmetry_group_IT_number 2
_symmetry_cell_setting 'triclinic'
loop_
_space_group_symop_operation_xyz
x,y,z
-x,-y,-z
loop_
_atom_site_type_symbol
_atom_site_label
_atom_site_fract_x
_atom_site_fract_y
_atom_site_fract_z
Si Si1 0.484150 0.575103 0.301331
Si Si2 0.504018 0.132900 0.936261
Si Si3 0.810418 0.908342 0.137274
Si Si4 0.768437 0.580701 0.167663
Si Si5 0.126817 0.354921 0.696350
Si Si6 0.079019 0.173979 0.498838
Si Si7 0.486915 0.061331 0.687838
Si Si8 0.185825 0.598318 0.258601
O O1 0.547913 0.538296 0.347743
O O2 0.272279 0.475618 0.492766
O O3 0.438281 0.759899 0.385510
O O4 0.655946 0.521984 0.005968
O O5 0.503679 0.040380 0.793669
O O6 0.691845 0.266503 0.765723
O O7 0.291705 0.222280 0.210647
O O8 0.500000 0.000000 0.000000
O O9 0.858945 0.719527 0.021062
O O10 0.746274 0.967812 0.104086
O O11 0.621091 0.929604 0.440713
O O12 0.000000 0.000000 0.000000
O O13 0.768741 0.670037 0.311297
O O14 0.903159 0.425895 0.980217
O O15 0.109656 0.185237 0.600533
O O16 0.913613 0.304488 0.699401
O O17 0.000000 0.000000 0.500000
O O18 0.000000 0.500000 0.500000
#
# Coordination Sequence:
#
# PCOD8021812 Si02
#       8
#     2   2   2   2   2   2   2   2
#     4  11  22  44  67  98 139 182 236 297 361 426
#     4  12  27  48  70 103 148 193 237 305 369 432
#     4  10  22  44  68  98 137 182 231 300 359 422
#     4  10  23  40  68 104 132 180 233 296 361 428
#     4  11  23  41  70 101 140 181 235 295 362 438
#     4  12  26  46  69 105 144 190 243 291 364 444
#     4  10  25  41  68 102 136 183 245 288 360 441
#     4  12  27  44  72 102 140 191 246 297 359 435
#
# _framework density 24.207404
#
# number of rings (size 3 to 8) (size 9 to 14) (size 15 to 20)
#    0.000    1.000    3.750    1.875    3.500    5.000 
#    0.000    1.250    0.000    0.000    0.000    0.000 
#    0.000    0.000    0.000    0.000    0.000    0.000 
#
# Total GULP energy -198271.055597 kJ/mol
# GULP energy per Si atom -12391.940975 kJ/mol
# Density = 2.415231 g / cm^3
# Si number density = 24.207404 Si / 1000 Ang^3
#
#
#
# Elastic Constant Matrix: (Units=GPa)
#
#
# Indices 1 2 3 4 5 6 
#
# 1 164.0819 33.4365 24.3860 -8.5214 16.7513 25.1931
# 2 33.4365 82.1840 4.4644 -4.4208 -1.7557 15.3205
# 3 24.3860 4.4644 48.7222 -2.3631 -0.8605 7.8429
# 4 -8.5214 -4.4208 -2.3631 31.3720 10.6905 -4.8592
# 5 16.7513 -1.7557 -0.8605 10.6905 44.4463 2.2120
# 6 25.1931 15.3205 7.8429 -4.8592 2.2120 46.5533
#
#
#
# Elastic Compliance Matrix: (Units=1/GPa)
#
#
# Indices 1 2 3 4 5 6 
#
# 1 0.007986 -0.002551 -0.003308 0.002410 -0.003630 -0.002501
# 2 -0.002551 0.013841 0.000584 0.000231 0.001629 -0.003326
# 3 -0.003308 0.000584 0.022524 -0.000104 0.001845 -0.002295
# 4 0.002410 0.000231 -0.000104 0.036338 -0.009786 0.002895
# 5 -0.003630 0.001629 0.001845 -0.009786 0.026378 -0.001158
# 6 -0.002501 -0.003326 -0.002295 0.002895 -0.001158 0.024673
#
#
# Mechanical properties :
#
#
# Convention : Reuss Voigt Hill
#
# Bulk Modulus (GPa) = 29.58509 46.61800 38.10154
# Shear Modulus (GPa) = 32.56134 39.98772 36.27453
#
# Velocity S-wave (km/s) = 3.67154 4.06874 3.87523
# Velocity P-wave (km/s) = 5.49742 6.43214 5.98306
#
# Compressibility (1/GPa) = 0.03380081
#
# Stress axis : x y z
#
# Youngs Moduli (GPa) = 125.22451 72.24767 44.39778
#
# Poissons Ratio (x) = 0.18430 0.14686
# Poissons Ratio (y) = 0.31945 -0.02593
# Poissons Ratio (z) = 0.41422 -0.04219
#
# Static dielectric constant tensor:
#      x y z
#    x 4.852980 0.178390 -0.288830 
#    y 0.178390 4.237710 0.153310 
#    z -0.288830 0.153310 4.301690 
# 
# 
# High freq. dielectric constant tensor:
#      x y z
#    x 1.984720 0.016510 -0.013300 
#    y 0.016510 1.954010 0.013940 
#    z -0.013300 0.013940 1.946650 
# 
# From -- ./inp_files/447751.got.cif
#   From: 2010.06.25/outbox.cif.g09.slc.cpg/sg2_224_cif.got.tgz:447751.got - 2010.06.27 13:26:56.
