data_PCOD8021025
_publ_section_title
;
Structure prediction by ZEFSAII (Michael W. Deem and Ramdas Pophale) SiO2 
 PCOD8021025
Probable space group: P -1
;
_chemical_formula_sum "Si O2"
_cell_formula_units_Z 16
_cell_length_a 9.563239
_cell_length_b 8.766764
_cell_length_c 18.097370
_cell_angle_alpha 65.065152
_cell_angle_beta 34.319962
_cell_angle_gamma 80.547995
_cell_volume 723.753105
_symmetry_space_group_name_H-M "P -1"
_symmetry_group_IT_number 2
_symmetry_cell_setting 'triclinic'
loop_
_space_group_symop_operation_xyz
x,y,z
-x,-y,-z
loop_
_atom_site_type_symbol
_atom_site_label
_atom_site_fract_x
_atom_site_fract_y
_atom_site_fract_z
Si Si1 0.644490 0.810267 0.482151
Si Si2 0.762255 0.317430 0.439174
Si Si3 0.831035 0.367565 0.880398
Si Si4 0.463648 0.936688 0.673008
Si Si5 0.062432 0.422964 0.562690
Si Si6 0.004101 0.954408 0.172941
Si Si7 0.261798 0.585310 0.919009
Si Si8 0.505565 0.290354 0.905882
O O1 0.485068 0.701906 0.502571
O O2 0.459165 0.884238 0.598146
O O3 0.909664 0.952726 0.299813
O O4 0.752667 0.691158 0.513364
O O5 0.024972 0.428184 0.255291
O O6 0.752852 0.421387 0.496563
O O7 0.733324 0.115986 0.522417
O O8 0.545547 0.297376 0.976586
O O9 0.996121 0.237945 0.816214
O O10 0.812412 0.375441 0.974555
O O11 0.461923 0.774204 0.759638
O O12 0.203022 0.983853 0.797497
O O13 0.788942 0.305000 0.746067
O O14 0.000000 0.500000 0.500000
O O15 0.298369 0.100731 0.008236
O O16 0.420006 0.450335 0.880024
O O17 0.000000 0.500000 0.000000
#
# Coordination Sequence:
#
# PCOD8021025 Si02
#       8
#     2   2   2   2   2   2   2   2
#     4  11  22  43  70  95 134 176 231 267 327 401
#     4  10  22  43  66  99 126 176 229 265 325 399
#     4  11  25  42  72  99 134 180 222 278 331 406
#     4  11  25  42  70 104 134 173 226 287 329 385
#     4  11  24  42  66  98 138 177 216 281 339 391
#     4  11  22  43  71 102 129 175 233 272 332 401
#     4  12  25  47  65 101 137 174 225 278 339 393
#     4  11  24  46  67  98 139 175 226 272 340 406
#
# _framework density 22.106984000000001
#
# number of rings (size 3 to 8) (size 9 to 14) (size 15 to 20)
#    0.000    1.000    3.750    4.125    3.500    1.500 
#    0.000    3.125    0.000    0.000    0.000    0.000 
#    0.000    0.000    0.000    0.000    0.000    0.000 
#
# Total GULP energy -198246.295466 kJ/mol
# GULP energy per Si atom -12390.393467 kJ/mol
# Density = 2.205667 g / cm^3
# Si number density = 22.106984 Si / 1000 Ang^3
#
#
#
# Elastic Constant Matrix: (Units=GPa)
#
#
# Indices 1 2 3 4 5 6 
#
# 1 67.5088 15.4780 22.7484 -1.9796 3.5694 3.5613
# 2 15.4780 80.8245 47.0001 -11.5030 -7.2689 -0.1240
# 3 22.7484 47.0001 105.1558 -23.3689 5.6376 17.0074
# 4 -1.9796 -11.5030 -23.3689 35.7745 -4.2024 0.6243
# 5 3.5694 -7.2689 5.6376 -4.2024 37.4792 0.0136
# 6 3.5613 -0.1240 17.0074 0.6243 0.0136 31.8436
#
#
#
# Elastic Compliance Matrix: (Units=1/GPa)
#
#
# Indices 1 2 3 4 5 6 
#
# 1 0.016279 -0.001770 -0.003021 -0.001832 -0.001644 -0.000177
# 2 -0.001770 0.018359 -0.008763 0.000596 0.005112 0.004936
# 3 -0.003021 -0.008763 0.017588 0.008298 -0.003124 -0.009251
# 4 -0.001832 0.000596 0.008298 0.033883 0.002843 -0.004890
# 5 -0.001644 0.005112 -0.003124 0.002843 0.028618 0.001804
# 6 -0.000177 0.004936 -0.009251 -0.004890 0.001804 0.036479
#
#
# Mechanical properties :
#
#
# Convention : Reuss Voigt Hill
#
# Bulk Modulus (GPa) = 39.81036 47.10468 43.45752
# Shear Modulus (GPa) = 26.78305 32.23697 29.51001
#
# Velocity S-wave (km/s) = 3.48447 3.82281 3.65755
# Velocity P-wave (km/s) = 5.85114 6.39055 6.12678
#
# Compressibility (1/GPa) = 0.02511909
#
# Stress axis : x y z
#
# Youngs Moduli (GPa) = 61.42820 54.46866 56.85785
#
# Poissons Ratio (x) = 0.09639 0.17176
# Poissons Ratio (y) = 0.10871 0.49824
# Poissons Ratio (z) = 0.18557 0.47731
#
# Static dielectric constant tensor:
#      x y z
#    x 4.196800 0.045540 0.066280 
#    y 0.045540 4.153410 -0.155470 
#    z 0.066280 -0.155470 4.091440 
# 
# 
# High freq. dielectric constant tensor:
#      x y z
#    x 1.864400 -0.011180 0.003550 
#    y -0.011180 1.874170 -0.010580 
#    z 0.003550 -0.010580 1.868370 
# 
# From -- ./inp_files/392066.got.cif
#   From: 2010.06.25/outbox.cif.g09.slc.cpg/sg2_197_cif.got.tgz:392066.got - 2010.06.27 13:26:56.
