data_PCOD8021789
_publ_section_title
;
Structure prediction by ZEFSAII (Michael W. Deem and Ramdas Pophale) SiO2 
 PCOD8021789
Probable space group: P -1
;
_chemical_formula_sum "Si O2"
_cell_formula_units_Z 14
_cell_length_a 18.749869
_cell_length_b 21.007381
_cell_length_c 9.263623
_cell_angle_alpha 39.427659
_cell_angle_beta 132.511041
_cell_angle_gamma 162.446337
_cell_volume 662.862424
_symmetry_space_group_name_H-M "P -1"
_symmetry_group_IT_number 2
_symmetry_cell_setting 'triclinic'
loop_
_space_group_symop_operation_xyz
x,y,z
-x,-y,-z
loop_
_atom_site_type_symbol
_atom_site_label
_atom_site_fract_x
_atom_site_fract_y
_atom_site_fract_z
Si Si1 0.052324 0.822360 0.028605
Si Si2 0.862512 0.115767 0.656114
Si Si3 0.619062 0.993667 0.046066
Si Si4 0.604091 0.433169 0.886432
Si Si5 0.666798 0.464597 0.595908
Si Si6 0.270246 0.228679 0.529180
Si Si7 0.761633 0.203745 0.173514
O O1 0.983456 0.716233 0.278783
O O2 0.820100 0.629461 0.954329
O O3 0.201254 0.876299 0.059622
O O4 0.221872 0.087582 0.819873
O O5 0.755773 0.116538 0.444679
O O6 0.051125 0.240100 0.585206
O O7 0.632733 0.826394 0.890144
O O8 0.775292 0.162806 0.108486
O O9 0.408954 0.708749 0.289760
O O10 0.491648 0.973923 0.850047
O O11 0.664616 0.433286 0.819608
O O12 0.597463 0.543754 0.630288
O O13 0.474571 0.371346 0.451084
O O14 0.000000 0.000000 0.500000
O O15 0.000000 0.500000 0.000000
#
# Coordination Sequence:
#
# PCOD8021789 Si02
#       7
#     2   2   2   2   2   2   2
#     4  10  23  42  66  97 134 171 218 268 321 384
#     4  12  25  40  67 102 127 170 225 267 321 388
#     4  10  22  44  68  91 130 178 208 268 331 383
#     4  11  23  44  67  93 137 174 214 268 319 387
#     4  11  22  42  69  93 135 171 212 268 329 379
#     4   9  20  43  67  94 133 177 212 262 325 383
#     4  11  24  42  68  97 130 168 222 268 329 389
#
# _framework density 21.120521
#
# number of rings (size 3 to 8) (size 9 to 14) (size 15 to 20)
#    0.000    1.429    4.286    1.286    2.000    1.143 
#    0.000    2.857    0.000    0.000    0.000    0.000 
#    0.000    0.000    0.000    0.000    0.000    0.000 
#
# Total GULP energy -173437.557256 kJ/mol
# GULP energy per Si atom -12388.396947 kJ/mol
# Density = 2.107245 g / cm^3
# Si number density = 21.120521 Si / 1000 Ang^3
#
#
#
# Elastic Constant Matrix: (Units=GPa)
#
#
# Indices 1 2 3 4 5 6 
#
# 1 106.1826 55.9197 57.9647 -1.0279 4.3854 3.8025
# 2 55.9197 105.8268 83.0673 1.5034 -2.8458 1.8984
# 3 57.9647 83.0673 120.5776 9.0361 -8.1706 6.7509
# 4 -1.0279 1.5034 9.0361 46.3834 7.1634 0.5404
# 5 4.3854 -2.8458 -8.1706 7.1634 34.2465 -4.2546
# 6 3.8025 1.8984 6.7509 0.5404 -4.2546 47.7193
#
#
#
# Elastic Compliance Matrix: (Units=1/GPa)
#
#
# Indices 1 2 3 4 5 6 
#
# 1 0.014167 -0.004313 -0.004184 0.001840 -0.003644 -0.000711
# 2 -0.004313 0.022321 -0.013598 0.001984 -0.001096 0.001259
# 3 -0.004184 -0.013598 0.020425 -0.004387 0.005008 -0.001519
# 4 0.001840 0.001984 -0.004387 0.023329 -0.006048 -0.000408
# 5 -0.003644 -0.001096 0.005008 -0.006048 0.032356 0.002579
# 6 -0.000711 0.001259 -0.001519 -0.000408 0.002579 0.021412
#
#
# Mechanical properties :
#
#
# Convention : Reuss Voigt Hill
#
# Bulk Modulus (GPa) = 78.58876 80.72116 79.65496
# Shear Modulus (GPa) = 27.40597 34.71218 31.05908
#
# Velocity S-wave (km/s) = 3.60613 4.05844 3.83895
# Velocity P-wave (km/s) = 7.39117 7.76296 7.57934
#
# Compressibility (1/GPa) = 0.01272447
#
# Stress axis : x y z
#
# Youngs Moduli (GPa) = 70.58629 44.80002 48.95849
#
# Poissons Ratio (x) = 0.19323 0.20485
# Poissons Ratio (y) = 0.30444 0.66571
# Poissons Ratio (z) = 0.29534 0.60917
#
# Static dielectric constant tensor:
#      x y z
#    x 3.827940 -0.028200 0.235930 
#    y -0.028200 4.240630 0.105040 
#    z 0.235930 0.105040 3.834420 
# 
# 
# High freq. dielectric constant tensor:
#      x y z
#    x 1.819080 0.002200 0.012960 
#    y 0.002200 1.863920 0.007910 
#    z 0.012960 0.007910 1.813640 
# 
# From -- ./inp_files/312796.got.cif
#   From: 2010.06.25/outbox.cif.g09.slc.cpg/sg2_157_cif.got.tgz:312796.got - 2010.06.27 13:26:56.
