data_PCOD8021826
_publ_section_title
;
Structure prediction by ZEFSAII (Michael W. Deem and Ramdas Pophale) SiO2 
 PCOD8021826
Probable space group: P -1
;
_chemical_formula_sum "Si O2"
_cell_formula_units_Z 12
_cell_length_a 9.179859
_cell_length_b 9.926770
_cell_length_c 9.343626
_cell_angle_alpha 107.639269
_cell_angle_beta 114.386210
_cell_angle_gamma 44.241828
_cell_volume 541.012960
_symmetry_space_group_name_H-M "P -1"
_symmetry_group_IT_number 2
_symmetry_cell_setting 'triclinic'
loop_
_space_group_symop_operation_xyz
x,y,z
-x,-y,-z
loop_
_atom_site_type_symbol
_atom_site_label
_atom_site_fract_x
_atom_site_fract_y
_atom_site_fract_z
Si Si1 0.589994 0.343317 0.770466
Si Si2 0.733622 0.824811 0.975581
Si Si3 0.215378 0.904597 0.978090
Si Si4 0.877971 0.427757 0.464146
Si Si5 0.816722 0.474070 0.783128
Si Si6 0.029223 0.037915 0.363726
O O1 0.339693 0.459659 0.679119
O O2 0.660603 0.462530 0.805647
O O3 0.602928 0.298605 0.931998
O O4 0.744952 0.152161 0.673262
O O5 0.725844 0.685459 0.839819
O O6 0.928517 0.696969 0.129170
O O7 0.500000 0.000000 0.000000
O O8 0.766590 0.940557 0.927131
O O9 0.183204 0.888639 0.791074
O O10 0.000000 0.000000 0.000000
O O11 0.799009 0.458417 0.603941
O O12 0.039964 0.201530 0.419259
O O13 0.000000 0.500000 0.500000
O O14 0.000000 0.000000 0.500000
#
# Coordination Sequence:
#
# PCOD8021826 Si02
#       6
#     2   2   2   2   2   2
#     4  11  25  47  70  97 140 187 226 286 342 408
#     4  11  25  43  72 100 138 176 225 287 344 402
#     4  10  22  44  69 101 132 179 227 276 340 405
#     4  12  29  43  68 104 138 180 234 288 344 408
#     4  11  25  46  67 102 139 178 233 278 342 416
#     4  11  23  45  74  98 139 179 231 276 345 414
#
# _framework density 22.180615
#
# number of rings (size 3 to 8) (size 9 to 14) (size 15 to 20)
#    0.000    1.000    5.000    0.500    9.333    2.667 
#    0.000    0.000    0.000    0.000    0.000    0.000 
#    0.000    0.000    0.000    0.000    0.000    0.000 
#
# Total GULP energy -148701.919484 kJ/mol
# GULP energy per Si atom -12391.826624 kJ/mol
# Density = 2.213013 g / cm^3
# Si number density = 22.180615 Si / 1000 Ang^3
#
#
#
# Elastic Constant Matrix: (Units=GPa)
#
#
# Indices 1 2 3 4 5 6 
#
# 1 126.0139 70.8670 30.6233 -0.4576 17.3221 26.9713
# 2 70.8670 121.0460 28.8854 9.2358 8.5308 37.1904
# 3 30.6233 28.8854 122.4699 -16.9773 -3.4125 17.0758
# 4 -0.4576 9.2358 -16.9773 36.2247 4.5897 9.1283
# 5 17.3221 8.5308 -3.4125 4.5897 35.3375 -2.3069
# 6 26.9713 37.1904 17.0758 9.1283 -2.3069 55.6874
#
#
#
# Elastic Compliance Matrix: (Units=1/GPa)
#
#
# Indices 1 2 3 4 5 6 
#
# 1 0.013144 -0.006505 -0.001239 0.002511 -0.005467 -0.002280
# 2 -0.006505 0.014362 -0.001409 -0.002959 -0.000392 -0.005540
# 3 -0.001239 -0.001409 0.009920 0.005453 0.001044 -0.002352
# 4 0.002511 -0.002959 0.005453 0.033197 -0.004729 -0.006550
# 5 -0.005467 -0.000392 0.001044 -0.004729 0.032094 0.004694
# 6 -0.002280 -0.005540 -0.002352 -0.006550 0.004694 0.024750
#
#
# Mechanical properties :
#
#
# Convention : Reuss Voigt Hill
#
# Bulk Modulus (GPa) = 52.30396 70.03126 61.16761
# Shear Modulus (GPa) = 32.86299 41.39351 37.12825
#
# Velocity S-wave (km/s) = 3.85334 4.32464 4.09578
# Velocity P-wave (km/s) = 6.59013 7.52186 7.07136
#
# Compressibility (1/GPa) = 0.01911901
#
# Stress axis : x y z
#
# Youngs Moduli (GPa) = 76.08250 69.63026 100.80363
#
# Poissons Ratio (x) = 0.45297 0.12485
# Poissons Ratio (y) = 0.49494 0.14206
# Poissons Ratio (z) = 0.09423 0.09813
#
# Static dielectric constant tensor:
#      x y z
#    x 3.895930 0.267330 0.073390 
#    y 0.267330 4.291890 0.597150 
#    z 0.073390 0.597150 1.783980 
# 
# 
# High freq. dielectric constant tensor:
#      x y z
#    x 1.871360 0.012780 0.002790 
#    y 0.012780 1.895700 -0.004550 
#    z 0.002790 -0.004550 1.876010 
# 
# From -- ./inp_files/158329.got.cif
#   From: 2010.06.25/outbox.cif.g09.slc.cpg/sg2_80_cif.got.tgz:158329.got - 2010.06.27 13:26:56.
