data_PCOD8021384
_publ_section_title
;
Structure prediction by ZEFSAII (Michael W. Deem and Ramdas Pophale) SiO2 
 PCOD8021384
Probable space group: P -1
;
_chemical_formula_sum "Si O2"
_cell_formula_units_Z 14
_cell_length_a 8.339212
_cell_length_b 5.377361
_cell_length_c 13.847952
_cell_angle_alpha 68.291825
_cell_angle_beta 90.857430
_cell_angle_gamma 107.407618
_cell_volume 547.302735
_symmetry_space_group_name_H-M "P -1"
_symmetry_group_IT_number 2
_symmetry_cell_setting 'triclinic'
loop_
_space_group_symop_operation_xyz
x,y,z
-x,-y,-z
loop_
_atom_site_type_symbol
_atom_site_label
_atom_site_fract_x
_atom_site_fract_y
_atom_site_fract_z
Si Si1 0.816361 0.764714 0.668739
Si Si2 0.005335 0.395814 0.624096
Si Si3 0.013581 0.795084 0.915718
Si Si4 0.285126 0.120632 0.019024
Si Si5 0.606051 0.818241 0.482170
Si Si6 0.545470 0.323867 0.844603
Si Si7 0.750791 0.888214 0.277086
O O1 0.937207 0.573069 0.676122
O O2 0.751928 0.811615 0.556498
O O3 0.663917 0.614664 0.761527
O O4 0.901424 0.064716 0.674942
O O5 0.000000 0.500000 0.500000
O O6 0.191295 0.392289 0.662174
O O7 0.815245 0.782820 0.909805
O O8 0.092837 0.849960 0.801074
O O9 0.000000 0.500000 0.000000
O O10 0.140127 0.035648 0.947451
O O11 0.341571 0.867728 0.096720
O O12 0.443200 0.362861 0.935482
O O13 0.500000 0.500000 0.500000
O O14 0.697883 0.987475 0.364539
O O15 0.500000 0.000000 0.500000
O O16 0.411098 0.172686 0.783907
#
# Coordination Sequence:
#
# PCOD8021384 Si02
#       7
#     2   2   2   2   2   2   2
#     4  12  26  46  74 104 146 195 248 303 365 441
#     4  12  27  48  72 105 148 195 249 302 363 434
#     4  10  22  43  71 105 141 186 243 302 367 437
#     4   9  21  45  70 101 147 184 246 303 367 441
#     4  12  26  46  71 108 149 187 244 306 366 432
#     4  10  22  45  72 105 142 196 242 306 376 435
#     4  11  25  45  72 107 145 195 246 310 369 441
#
# _framework density 25.579989999999999
#
# number of rings (size 3 to 8) (size 9 to 14) (size 15 to 20)
#    0.000    1.143    2.857    2.143    2.000    1.143 
#    5.143    3.571    0.000    0.000    0.000    0.000 
#    0.000    0.000    0.000    0.000    0.000    0.000 
#
# Total GULP energy -173498.482737 kJ/mol
# GULP energy per Si atom -12392.748767 kJ/mol
# Density = 2.552177 g / cm^3
# Si number density = 25.579990 Si / 1000 Ang^3
#
#
#
# Elastic Constant Matrix: (Units=GPa)
#
#
# Indices 1 2 3 4 5 6 
#
# 1 166.7480 34.3890 66.1337 -0.0503 -23.5055 -30.4760
# 2 34.3890 88.4189 26.8129 -10.5242 -25.2133 -23.9512
# 3 66.1337 26.8129 181.1411 -8.9581 -37.5858 -8.7302
# 4 -0.0503 -10.5242 -8.9581 34.4613 13.4156 1.0862
# 5 -23.5055 -25.2133 -37.5858 13.4156 60.5005 2.6195
# 6 -30.4760 -23.9512 -8.7302 1.0862 2.6195 31.5435
#
#
#
# Elastic Compliance Matrix: (Units=1/GPa)
#
#
# Indices 1 2 3 4 5 6 
#
# 1 0.008623 -0.000326 -0.002470 -0.001631 0.001725 0.007313
# 2 -0.000326 0.016569 -0.000533 0.002453 0.005402 0.011585
# 3 -0.002470 -0.000533 0.007134 0.000480 0.003191 -0.001099
# 4 -0.001631 0.002453 0.000480 0.032423 -0.006496 -0.000157
# 5 0.001725 0.005402 0.003191 -0.006496 0.022657 0.004993
# 6 0.007313 0.011585 -0.001099 -0.000157 0.004993 0.046851
#
#
# Mechanical properties :
#
#
# Convention : Reuss Voigt Hill
#
# Bulk Modulus (GPa) = 38.95983 76.77547 57.86765
# Shear Modulus (GPa) = 33.45091 45.89923 39.67507
#
# Velocity S-wave (km/s) = 3.62013 4.24056 3.94257
# Velocity P-wave (km/s) = 5.72167 7.35225 6.58760
#
# Compressibility (1/GPa) = 0.02566746
#
# Stress axis : x y z
#
# Youngs Moduli (GPa) = 115.96449 60.35459 140.16628
#
# Poissons Ratio (x) = 0.01968 0.34627
# Poissons Ratio (y) = 0.03781 0.07471
# Poissons Ratio (z) = 0.28648 0.03217
#
# Static dielectric constant tensor:
#      x y z
#    x 6.486350 0.662370 -0.032930 
#    y 0.662370 4.493150 0.151900 
#    z -0.032930 0.151900 5.250180 
# 
# 
# High freq. dielectric constant tensor:
#      x y z
#    x 2.047060 0.008210 -0.000370 
#    y 0.008210 1.994880 0.007420 
#    z -0.000370 0.007420 2.052710 
# 
# From -- ./inp_files/488092.got.cif
#   From: 2010.06.25/outbox.cif.g09.slc.cpg/sg2_245_cif.got.tgz:488092.got - 2010.06.27 13:26:56.
