data_PCOD8021872
_publ_section_title
;
Structure prediction by ZEFSAII (Michael W. Deem and Ramdas Pophale) SiO2 
 PCOD8021872
Probable space group: P -1
;
_chemical_formula_sum "Si O2"
_cell_formula_units_Z 14
_cell_length_a 13.583833
_cell_length_b 6.055175
_cell_length_c 22.371509
_cell_angle_alpha 110.902408
_cell_angle_beta 157.751998
_cell_angle_gamma 66.955946
_cell_volume 641.022589
_symmetry_space_group_name_H-M "P -1"
_symmetry_group_IT_number 2
_symmetry_cell_setting 'triclinic'
loop_
_space_group_symop_operation_xyz
x,y,z
-x,-y,-z
loop_
_atom_site_type_symbol
_atom_site_label
_atom_site_fract_x
_atom_site_fract_y
_atom_site_fract_z
Si Si1 0.090368 0.497016 0.728946
Si Si2 0.310222 0.244702 0.064457
Si Si3 0.373326 0.731293 0.176256
Si Si4 0.789284 0.865945 0.338591
Si Si5 0.900059 0.963368 0.850225
Si Si6 0.363105 0.269372 0.424023
Si Si7 0.447893 0.269701 0.014512
O O1 0.050342 0.300748 0.638086
O O2 0.259191 0.409981 0.873318
O O3 0.807337 0.631201 0.604468
O O4 0.260546 0.669134 0.808220
O O5 0.358688 0.455469 0.157582
O O6 0.552677 0.029498 0.186934
O O7 0.297307 0.333916 0.997947
O O8 0.028962 0.168741 0.910249
O O9 0.653549 0.731962 0.301561
O O10 0.347367 0.900916 0.236502
O O11 0.121071 0.811448 0.000516
O O12 0.000000 0.000000 0.500000
O O13 0.804207 0.784283 0.732290
O O14 0.500000 0.500000 0.500000
O O15 0.500000 0.000000 0.500000
O O16 0.500000 0.000000 0.000000
#
# Coordination Sequence:
#
# PCOD8021872 Si02
#       7
#     2   2   2   2   2   2   2
#     4  11  25  44  67 102 135 178 232 293 358 421
#     4  11  21  40  69 102 128 178 233 289 358 413
#     4  10  22  44  69  97 131 181 235 294 351 416
#     4  11  25  41  63 100 137 175 224 285 360 428
#     4  10  24  44  69  98 136 180 241 291 344 428
#     4  12  31  49  72 105 148 197 236 293 366 431
#     4  11  21  39  74  99 129 169 232 300 347 413
#
# _framework density 21.840102999999999
#
# number of rings (size 3 to 8) (size 9 to 14) (size 15 to 20)
#    0.000    1.143    2.857    2.143   12.000    1.714 
#    0.000    0.000    0.000    0.000    0.000    0.000 
#    0.000    0.000    0.000    0.000    0.000    0.000 
#
# Total GULP energy -173438.891236 kJ/mol
# GULP energy per Si atom -12388.492231 kJ/mol
# Density = 2.179039 g / cm^3
# Si number density = 21.840103 Si / 1000 Ang^3
#
#
#
# Elastic Constant Matrix: (Units=GPa)
#
#
# Indices 1 2 3 4 5 6 
#
# 1 132.9749 48.4868 43.6230 7.3771 12.5543 -22.4317
# 2 48.4868 122.9199 36.3597 21.4309 12.4774 -13.8185
# 3 43.6230 36.3597 88.9001 26.5754 5.4064 -9.1694
# 4 7.3771 21.4309 26.5754 36.3933 -8.8720 2.7841
# 5 12.5543 12.4774 5.4064 -8.8720 28.9776 6.2991
# 6 -22.4317 -13.8185 -9.1694 2.7841 6.2991 50.9002
#
#
#
# Elastic Compliance Matrix: (Units=1/GPa)
#
#
# Indices 1 2 3 4 5 6 
#
# 1 0.010563 -0.002464 -0.003945 0.001129 -0.003219 0.003612
# 2 -0.002464 0.011740 -0.000381 -0.008133 -0.007137 0.003361
# 3 -0.003945 -0.000381 0.018279 -0.014147 -0.006528 0.003033
# 4 0.001129 -0.008133 -0.014147 0.048636 0.022656 -0.009723
# 5 -0.003219 -0.007137 -0.006528 0.022656 0.049724 -0.011925
# 6 0.003612 0.003361 0.003033 -0.009723 -0.011925 0.024705
#
#
# Mechanical properties :
#
#
# Convention : Reuss Voigt Hill
#
# Bulk Modulus (GPa) = 37.03223 66.85933 51.94578
# Shear Modulus (GPa) = 26.84888 37.67590 32.26239
#
# Velocity S-wave (km/s) = 3.51000 4.15791 3.84762
# Velocity P-wave (km/s) = 5.78097 7.33011 6.60114
#
# Compressibility (1/GPa) = 0.02700350
#
# Stress axis : x y z
#
# Youngs Moduli (GPa) = 94.66616 85.17715 54.70755
#
# Poissons Ratio (x) = 0.20987 0.21582
# Poissons Ratio (y) = 0.23325 0.02083
# Poissons Ratio (z) = 0.37345 0.03242
#
# Static dielectric constant tensor:
#      x y z
#    x 4.320230 0.006590 0.192470 
#    y 0.006590 4.334360 0.192520 
#    z 0.192470 0.192520 3.755440 
# 
# 
# High freq. dielectric constant tensor:
#      x y z
#    x 1.873220 -0.007910 0.003460 
#    y -0.007910 1.875310 0.013620 
#    z 0.003460 0.013620 1.840960 
# 
# From -- ./inp_files/46717.got.cif
#   From: 2010.06.25/outbox.cif.g09.slc.cpg/sg2_24_cif.got.tgz:46717.got - 2010.06.27 13:26:56.
