data_PCOD8021568
_publ_section_title
;
Structure prediction by ZEFSAII (Michael W. Deem and Ramdas Pophale) SiO2 
 PCOD8021568
Probable space group: P -1
;
_chemical_formula_sum "Si O2"
_cell_formula_units_Z 16
_cell_length_a 9.058023
_cell_length_b 16.043993
_cell_length_c 8.058326
_cell_angle_alpha 52.903292
_cell_angle_beta 128.512950
_cell_angle_gamma 116.723211
_cell_volume 725.721018
_symmetry_space_group_name_H-M "P -1"
_symmetry_group_IT_number 2
_symmetry_cell_setting 'triclinic'
loop_
_space_group_symop_operation_xyz
x,y,z
-x,-y,-z
loop_
_atom_site_type_symbol
_atom_site_label
_atom_site_fract_x
_atom_site_fract_y
_atom_site_fract_z
Si Si1 0.997222 0.997588 0.807375
Si Si2 0.661896 0.904039 0.283402
Si Si3 0.382104 0.944168 0.634254
Si Si4 0.230118 0.620775 0.584066
Si Si5 0.551832 0.293203 0.038585
Si Si6 0.192768 0.381294 0.795818
Si Si7 0.676457 0.261756 0.833255
Si Si8 0.917702 0.787635 0.825607
O O1 0.923732 0.876994 0.861544
O O2 0.205505 0.032140 0.837625
O O3 0.844390 0.070294 0.543075
O O4 0.000000 0.000000 0.000000
O O5 0.478844 0.839956 0.151452
O O6 0.783970 0.817468 0.549453
O O7 0.583750 0.985078 0.260631
O O8 0.455761 0.831686 0.836259
O O9 0.500000 0.000000 0.500000
O O10 0.326836 0.668076 0.761919
O O11 0.274079 0.501493 0.742130
O O12 0.314435 0.682693 0.405890
O O13 0.005309 0.627473 0.432617
O O14 0.340622 0.325093 0.859592
O O15 0.634223 0.339920 0.862315
O O16 0.167947 0.324468 0.024623
O O17 0.869829 0.219197 0.078489
#
# Coordination Sequence:
#
# PCOD8021568 Si02
#       8
#     2   2   2   2   2   2   2   2
#     4  11  25  39  63  93 133 177 216 267 325 389
#     4  11  24  44  61  95 141 173 219 274 316 397
#     4  11  24  40  63  97 132 174 222 270 325 392
#     4  10  24  48  66  98 134 167 220 281 328 398
#     4  12  24  40  68  98 128 172 224 269 327 394
#     4  10  23  44  73  93 131 175 213 273 344 384
#     4  11  25  41  70  97 131 177 218 271 333 386
#     4  10  22  44  64  92 131 175 215 264 331 385
#
# _framework density 22.047039000000002
#
# number of rings (size 3 to 8) (size 9 to 14) (size 15 to 20)
#    0.000    1.250    0.000    6.375    8.750    2.500 
#    0.000    5.625    0.000    0.000    0.000    0.000 
#    0.000    0.000    0.000    0.000    0.000    0.000 
#
# Total GULP energy -198384.091846 kJ/mol
# GULP energy per Si atom -12399.005740 kJ/mol
# Density = 2.199686 g / cm^3
# Si number density = 22.047039 Si / 1000 Ang^3
#
#
#
# Elastic Constant Matrix: (Units=GPa)
#
#
# Indices 1 2 3 4 5 6 
#
# 1 165.9120 63.0844 61.9807 11.7462 5.3650 -19.3823
# 2 63.0844 97.4405 54.4015 -6.0479 -4.4765 -4.7996
# 3 61.9807 54.4015 86.4227 -9.6083 5.4704 -13.7295
# 4 11.7462 -6.0479 -9.6083 32.4521 -10.7010 -2.7906
# 5 5.3650 -4.4765 5.4704 -10.7010 49.5850 3.9165
# 6 -19.3823 -4.7996 -13.7295 -2.7906 3.9165 27.6617
#
#
#
# Elastic Compliance Matrix: (Units=1/GPa)
#
#
# Indices 1 2 3 4 5 6 
#
# 1 0.010503 -0.004594 -0.004555 -0.006578 -0.002787 0.004032
# 2 -0.004594 0.018394 -0.008917 0.003450 0.004258 -0.004709
# 3 -0.004555 -0.008917 0.022481 0.006636 -0.001942 0.007364
# 4 -0.006578 0.003450 0.006636 0.038778 0.008503 0.001991
# 5 -0.002787 0.004258 -0.001942 0.008503 0.023267 -0.004614
# 6 0.004032 -0.004709 0.007364 0.001991 -0.004614 0.042669
#
#
# Mechanical properties :
#
#
# Convention : Reuss Voigt Hill
#
# Bulk Modulus (GPa) = 65.59603 78.74537 72.17070
# Shear Modulus (GPa) = 25.34135 33.29369 29.31752
#
# Velocity S-wave (km/s) = 3.39399 3.89024 3.65056
# Velocity P-wave (km/s) = 6.72133 7.48152 7.11159
#
# Compressibility (1/GPa) = 0.01524482
#
# Stress axis : x y z
#
# Youngs Moduli (GPa) = 95.21440 54.36665 44.48120
#
# Poissons Ratio (x) = 0.24978 0.20259
# Poissons Ratio (y) = 0.43746 0.39666
# Poissons Ratio (z) = 0.43366 0.48481
#
# Static dielectric constant tensor:
#      x y z
#    x 4.311930 0.042820 0.112540 
#    y 0.042820 3.923870 0.006770 
#    z 0.112540 0.006770 4.225970 
# 
# 
# High freq. dielectric constant tensor:
#      x y z
#    x 1.885200 0.003830 0.006430 
#    y 0.003830 1.853050 0.002020 
#    z 0.006430 0.002020 1.885740 
# 
# From -- ./inp_files/214614.got.cif
#   From: 2010.06.25/outbox.cif.g09.slc.cpg/sg2_108_cif.got.tgz:214614.got - 2010.06.27 13:26:56.
