data_PCOD8021062
_publ_section_title
;
Structure prediction by ZEFSAII (Michael W. Deem and Ramdas Pophale) SiO2 
 PCOD8021062
Probable space group: P -1
;
_chemical_formula_sum "Si O2"
_cell_formula_units_Z 16
_cell_length_a 24.624942
_cell_length_b 14.652957
_cell_length_c 9.609527
_cell_angle_alpha 131.273621
_cell_angle_beta 148.030551
_cell_angle_gamma 26.594194
_cell_volume 746.864436
_symmetry_space_group_name_H-M "P -1"
_symmetry_group_IT_number 2
_symmetry_cell_setting 'triclinic'
loop_
_space_group_symop_operation_xyz
x,y,z
-x,-y,-z
loop_
_atom_site_type_symbol
_atom_site_label
_atom_site_fract_x
_atom_site_fract_y
_atom_site_fract_z
Si Si1 0.285793 0.274716 0.471249
Si Si2 0.007911 0.662779 0.671415
Si Si3 0.488291 0.437757 0.767990
Si Si4 0.988498 0.737987 0.388419
Si Si5 0.597220 0.089339 0.786022
Si Si6 0.281643 0.208155 0.710674
Si Si7 0.104492 0.814904 0.156273
Si Si8 0.114606 0.874141 0.763784
O O1 0.088552 0.547345 0.299625
O O2 0.458924 0.187400 0.709426
O O3 0.268840 0.272904 0.595245
O O4 0.310008 0.121674 0.296031
O O5 0.956775 0.716671 0.451785
O O6 0.169935 0.399094 0.775130
O O7 0.818237 0.824080 0.514621
O O8 0.114186 0.673025 0.970887
O O9 0.486502 0.293121 0.648751
O O10 0.314138 0.646206 0.496235
O O11 0.500000 0.500000 0.000000
O O12 0.671450 0.295342 0.939775
O O13 0.110828 0.738545 0.669078
O O14 0.777952 0.983327 0.127793
O O15 0.500000 0.000000 0.000000
O O16 0.979234 0.939717 0.146586
O O17 0.000000 0.000000 0.000000
O O18 0.000000 0.000000 0.500000
#
# Coordination Sequence:
#
# PCOD8021062 Si02
#       8
#     2   2   2   2   2   2   2   2
#     4  10  24  39  62 101 128 180 223 283 337 407
#     4  10  24  42  66  99 131 179 223 284 343 410
#     4  12  26  45  72 103 138 187 231 288 348 419
#     4  11  21  44  66  94 137 176 224 283 347 401
#     4  11  23  41  65  98 135 172 231 281 338 410
#     4  10  22  43  67  93 134 177 226 277 345 410
#     4  12  27  48  70 104 142 179 234 294 346 414
#     4  12  24  44  72 102 135 183 230 281 351 411
#
# _framework density 21.422898
#
# number of rings (size 3 to 8) (size 9 to 14) (size 15 to 20)
#    0.000    1.000    3.750    1.875    3.500    0.500 
#    9.000    0.000    0.000    0.000    0.000    0.000 
#    0.000    0.000    0.000    0.000    0.000    0.000 
#
# Total GULP energy -198209.457218 kJ/mol
# GULP energy per Si atom -12388.091076 kJ/mol
# Density = 2.137414 g / cm^3
# Si number density = 21.422898 Si / 1000 Ang^3
#
#
#
# Elastic Constant Matrix: (Units=GPa)
#
#
# Indices 1 2 3 4 5 6 
#
# 1 119.1575 42.6105 51.6469 -16.6659 21.8654 -4.8318
# 2 42.6105 91.5810 45.1984 -9.9314 4.2362 -10.3015
# 3 51.6469 45.1984 125.0401 -25.6173 9.9207 -8.9011
# 4 -16.6659 -9.9314 -25.6173 42.5472 -2.0029 6.9294
# 5 21.8654 4.2362 9.9207 -2.0029 40.1871 -1.3071
# 6 -4.8318 -10.3015 -8.9011 6.9294 -1.3071 35.0552
#
#
#
# Elastic Compliance Matrix: (Units=1/GPa)
#
#
# Indices 1 2 3 4 5 6 
#
# 1 0.012298 -0.003922 -0.002863 0.002049 -0.005495 -0.000794
# 2 -0.003922 0.014806 -0.003801 -0.000794 0.001572 0.003061
# 3 -0.002863 -0.003801 0.011641 0.004896 -0.000657 0.000452
# 4 0.002049 -0.000794 0.004896 0.027709 -0.000996 -0.004222
# 5 -0.005495 0.001572 -0.000657 -0.000996 0.027845 0.000773
# 6 -0.000794 0.003061 0.000452 -0.004222 0.000773 0.030295
#
#
# Mechanical properties :
#
#
# Convention : Reuss Voigt Hill
#
# Bulk Modulus (GPa) = 56.90591 68.29891 62.60241
# Shear Modulus (GPa) = 32.97623 36.64609 34.81116
#
# Velocity S-wave (km/s) = 3.92765 4.14043 4.03544
# Velocity P-wave (km/s) = 6.86945 7.40325 7.14134
#
# Compressibility (1/GPa) = 0.01757287
#
# Stress axis : x y z
#
# Youngs Moduli (GPa) = 81.31172 67.54126 85.90151
#
# Poissons Ratio (x) = 0.26491 0.24592
# Poissons Ratio (y) = 0.31892 0.32653
# Poissons Ratio (z) = 0.23278 0.25674
#
# Static dielectric constant tensor:
#      x y z
#    x 4.226750 -0.074410 0.361630 
#    y -0.074410 7.438810 -0.150940 
#    z 0.361630 -0.150940 3.698050 
# 
# 
# High freq. dielectric constant tensor:
#      x y z
#    x 1.849120 -0.004610 0.012310 
#    y -0.004610 1.855840 -0.004120 
#    z 0.012310 -0.004120 1.831690 
# 
# From -- ./inp_files/354605.got.cif
#   From: 2010.06.25/outbox.cif.g09.slc.cpg/sg2_178_cif.got.tgz:354605.got - 2010.06.27 13:26:56.
