data_PCOD8021953
_publ_section_title
;
Structure prediction by ZEFSAII (Michael W. Deem and Ramdas Pophale) SiO2 
 PCOD8021953
Probable space group: P -1
;
_chemical_formula_sum "Si O2"
_cell_formula_units_Z 16
_cell_length_a 13.389083
_cell_length_b 12.832694
_cell_length_c 9.810418
_cell_angle_alpha 27.346948
_cell_angle_beta 78.610618
_cell_angle_gamma 71.274764
_cell_volume 718.297711
_symmetry_space_group_name_H-M "P -1"
_symmetry_group_IT_number 2
_symmetry_cell_setting 'triclinic'
loop_
_space_group_symop_operation_xyz
x,y,z
-x,-y,-z
loop_
_atom_site_type_symbol
_atom_site_label
_atom_site_fract_x
_atom_site_fract_y
_atom_site_fract_z
Si Si1 0.277888 0.107187 0.259686
Si Si2 0.797271 0.073945 0.754896
Si Si3 0.853099 0.650270 0.449523
Si Si4 0.702412 0.889218 0.449080
Si Si5 0.062596 0.734516 0.334602
Si Si6 0.399851 0.596509 0.233923
Si Si7 0.489928 0.274955 0.344038
Si Si8 0.367146 0.474528 0.671074
O O1 0.234436 0.149905 0.377298
O O2 0.188599 0.038674 0.270456
O O3 0.391875 0.902312 0.464062
O O4 0.292607 0.340112 0.916105
O O5 0.870745 0.243675 0.572459
O O6 0.673134 0.249807 0.585939
O O7 0.816187 0.874210 0.097327
O O8 0.770389 0.695720 0.545291
O O9 0.859100 0.410366 0.641147
O O10 0.972000 0.607667 0.532851
O O11 0.588694 0.850325 0.561736
O O12 0.682944 0.160123 0.088181
O O13 0.000000 0.000000 0.000000
O O14 0.430781 0.370630 0.389439
O O15 0.347249 0.495980 0.489202
O O16 0.507515 0.656650 0.178226
O O17 0.500000 0.500000 0.000000
#
# Coordination Sequence:
#
# PCOD8021953 Si02
#       8
#     2   2   2   2   2   2   2   2
#     4  12  25  39  60  95 140 181 219 264 332 383
#     4  11  22  39  66  96 134 171 211 273 336 391
#     4  10  22  44  71 101 122 169 223 273 334 394
#     4  12  25  41  67  96 134 180 229 267 315 401
#     4   9  21  43  72  97 129 160 215 282 339 395
#     4  11  23  39  61  92 132 180 229 273 312 380
#     4  12  24  39  60  87 138 189 223 265 316 379
#     4  11  23  38  60  94 136 172 223 276 325 377
#
# _framework density 22.274888000000001
#
# number of rings (size 3 to 8) (size 9 to 14) (size 15 to 20)
#    0.000    1.000    5.000    1.875    3.500    0.500 
#    0.000    0.625    0.000   10.500    0.000    0.000 
#    0.000    0.000    0.000    0.000    0.000    0.000 
#
# Total GULP energy -198287.547420 kJ/mol
# GULP energy per Si atom -12392.971714 kJ/mol
# Density = 2.222419 g / cm^3
# Si number density = 22.274888 Si / 1000 Ang^3
#
#
#
# Elastic Constant Matrix: (Units=GPa)
#
#
# Indices 1 2 3 4 5 6 
#
# 1 91.3377 43.0704 18.8939 8.9347 2.1107 21.7449
# 2 43.0704 132.0179 47.4202 10.0249 8.2244 13.8065
# 3 18.8939 47.4202 105.1969 6.5829 6.5378 1.4118
# 4 8.9347 10.0249 6.5829 40.9698 -1.0072 8.0095
# 5 2.1107 8.2244 6.5378 -1.0072 16.2825 -4.0106
# 6 21.7449 13.8065 1.4118 8.0095 -4.0106 39.0256
#
#
#
# Elastic Compliance Matrix: (Units=1/GPa)
#
#
# Indices 1 2 3 4 5 6 
#
# 1 0.014535 -0.003607 -0.000747 -0.000881 -0.001484 -0.006768
# 2 -0.003607 0.010625 -0.003818 -0.000940 -0.003872 -0.001816
# 3 -0.000747 -0.003818 0.011557 -0.001077 -0.002355 0.001328
# 4 -0.000881 -0.000940 -0.001077 0.025880 0.001566 -0.004288
# 5 -0.001484 -0.003872 -0.002355 0.001566 0.066779 0.008823
# 6 -0.006768 -0.001816 0.001328 -0.004288 0.008823 0.031777
#
#
# Mechanical properties :
#
#
# Convention : Reuss Voigt Hill
#
# Bulk Modulus (GPa) = 49.07998 60.81349 54.94674
# Shear Modulus (GPa) = 27.13139 33.86679 30.49909
#
# Velocity S-wave (km/s) = 3.49381 3.90346 3.70430
# Velocity P-wave (km/s) = 6.19332 6.90483 6.55873
#
# Compressibility (1/GPa) = 0.02037491
#
# Stress axis : x y z
#
# Youngs Moduli (GPa) = 68.79827 94.11418 86.52701
#
# Poissons Ratio (x) = 0.33945 0.06460
# Poissons Ratio (y) = 0.24814 0.33036
# Poissons Ratio (z) = 0.05136 0.35933
#
# Static dielectric constant tensor:
#      x y z
#    x 4.368430 0.296550 0.178570 
#    y 0.296550 4.412450 -0.076320 
#    z 0.178570 -0.076320 3.539060 
# 
# 
# High freq. dielectric constant tensor:
#      x y z
#    x 1.864810 0.019180 0.012630 
#    y 0.019180 1.881300 -0.016870 
#    z 0.012630 -0.016870 1.869400 
# 
# From -- ./inp_files/109496.got.cif
#   From: 2010.06.25/outbox.cif.g09.slc.cpg/sg2_55_cif.got.tgz:109496.got - 2010.06.27 13:26:56.
