data_PCOD8021544
_publ_section_title
;
Structure prediction by ZEFSAII (Michael W. Deem and Ramdas Pophale) SiO2 
 PCOD8021544
Probable space group: P -1
;
_chemical_formula_sum "Si O2"
_cell_formula_units_Z 16
_cell_length_a 15.122388
_cell_length_b 15.270556
_cell_length_c 8.961205
_cell_angle_alpha 105.572733
_cell_angle_beta 92.893265
_cell_angle_gamma 151.442935
_cell_volume 746.393803
_symmetry_space_group_name_H-M "P -1"
_symmetry_group_IT_number 2
_symmetry_cell_setting 'triclinic'
loop_
_space_group_symop_operation_xyz
x,y,z
-x,-y,-z
loop_
_atom_site_type_symbol
_atom_site_label
_atom_site_fract_x
_atom_site_fract_y
_atom_site_fract_z
Si Si1 0.464992 0.289639 0.182511
Si Si2 0.783533 0.759767 0.468757
Si Si3 0.188642 0.736429 0.959137
Si Si4 0.248334 0.789489 0.324401
Si Si5 0.994098 0.834645 0.748366
Si Si6 0.491018 0.321215 0.541683
Si Si7 0.745871 0.037544 0.407780
Si Si8 0.492390 0.851231 0.021218
O O1 0.640422 0.540488 0.279855
O O2 0.419129 0.227438 0.324073
O O3 0.594997 0.325661 0.140327
O O4 0.213802 0.066207 0.978247
O O5 0.894807 0.833669 0.669085
O O6 0.592357 0.655650 0.428093
O O7 0.000000 0.000000 0.500000
O O8 0.910402 0.452651 0.791117
O O9 0.261658 0.884463 0.917733
O O10 0.262413 0.837810 0.177335
O O11 0.303122 0.748742 0.931344
O O12 0.142155 0.770710 0.406283
O O13 0.500000 0.000000 0.500000
O O14 0.775189 0.583572 0.707399
O O15 0.061379 0.830601 0.616363
O O16 0.366922 0.137770 0.563539
O O17 0.538721 0.880250 0.213167
#
# Coordination Sequence:
#
# PCOD8021544 Si02
#       8
#     2   2   2   2   2   2   2   2
#     4  10  23  42  67  96 131 173 215 271 326 384
#     4  11  23  43  69  98 133 169 220 266 325 390
#     4  10  23  42  65  91 133 167 216 277 318 386
#     4  11  23  41  65  98 127 173 217 265 329 383
#     4  10  23  44  64  99 129 174 220 267 322 387
#     4  11  24  43  67  96 133 172 215 273 319 392
#     4  11  23  43  66  97 134 172 221 267 325 391
#     4  10  22  44  63  96 126 169 222 264 329 383
#
# _framework density 21.436405000000001
#
# number of rings (size 3 to 8) (size 9 to 14) (size 15 to 20)
#    0.000    1.500    2.500    2.250    3.500    5.000 
#    6.750    0.000    0.000    0.000    0.000    0.000 
#    0.000    0.000    0.000    0.000    0.000    0.000 
#
# Total GULP energy -198388.464769 kJ/mol
# GULP energy per Si atom -12399.279048 kJ/mol
# Density = 2.138761 g / cm^3
# Si number density = 21.436405 Si / 1000 Ang^3
#
#
#
# Elastic Constant Matrix: (Units=GPa)
#
#
# Indices 1 2 3 4 5 6 
#
# 1 75.7984 28.8560 45.7945 2.0577 -12.2111 -0.2726
# 2 28.8560 86.5554 43.6324 -5.5517 -2.4964 4.4576
# 3 45.7945 43.6324 143.4585 3.1401 -6.6198 -2.0260
# 4 2.0577 -5.5517 3.1401 28.9791 8.0234 4.9921
# 5 -12.2111 -2.4964 -6.6198 8.0234 34.3172 1.9162
# 6 -0.2726 4.4576 -2.0260 4.9921 1.9162 34.9541
#
#
#
# Elastic Compliance Matrix: (Units=1/GPa)
#
#
# Indices 1 2 3 4 5 6 
#
# 1 0.018414 -0.004054 -0.004276 -0.003436 0.006205 0.000563
# 2 -0.004054 0.015049 -0.003510 0.004553 -0.001939 -0.002698
# 3 -0.004276 -0.003510 0.009475 -0.001706 0.000384 0.001186
# 4 -0.003436 0.004553 -0.001706 0.039622 -0.010160 -0.005808
# 5 0.006205 -0.001939 0.000384 -0.010160 0.033660 -0.000076
# 6 0.000563 -0.002698 0.001186 -0.005808 -0.000076 0.029860
#
#
# Mechanical properties :
#
#
# Convention : Reuss Voigt Hill
#
# Bulk Modulus (GPa) = 51.92489 60.26423 56.09456
# Shear Modulus (GPa) = 28.37994 32.15203 30.26599
#
# Velocity S-wave (km/s) = 3.64251 3.87703 3.76160
# Velocity P-wave (km/s) = 6.47811 6.94377 6.71497
#
# Compressibility (1/GPa) = 0.01925859
#
# Stress axis : x y z
#
# Youngs Moduli (GPa) = 54.30563 66.44755 105.54109
#
# Poissons Ratio (x) = 0.26938 0.45126
# Poissons Ratio (y) = 0.22016 0.37048
# Poissons Ratio (z) = 0.23219 0.23325
#
# Static dielectric constant tensor:
#      x y z
#    x 4.055460 0.044340 -0.065340 
#    y 0.044340 4.015340 -0.047500 
#    z -0.065340 -0.047500 3.874950 
# 
# 
# High freq. dielectric constant tensor:
#      x y z
#    x 1.851610 0.003950 -0.002210 
#    y 0.003950 1.844790 -0.000760 
#    z -0.002210 -0.000760 1.840110 
# 
# From -- ./inp_files/315648.got.cif
#   From: 2010.06.25/outbox.cif.g09.slc.cpg/sg2_158_cif.got.tgz:315648.got - 2010.06.27 13:26:56.
