data_PCOD8021377
_publ_section_title
;
Structure prediction by ZEFSAII (Michael W. Deem and Ramdas Pophale) SiO2 
 PCOD8021377
Probable space group: P -1
;
_chemical_formula_sum "Si O2"
_cell_formula_units_Z 12
_cell_length_a 9.100687
_cell_length_b 11.649544
_cell_length_c 8.600915
_cell_angle_alpha 89.640106
_cell_angle_beta 66.867877
_cell_angle_gamma 39.694104
_cell_volume 462.581336
_symmetry_space_group_name_H-M "P -1"
_symmetry_group_IT_number 2
_symmetry_cell_setting 'triclinic'
loop_
_space_group_symop_operation_xyz
x,y,z
-x,-y,-z
loop_
_atom_site_type_symbol
_atom_site_label
_atom_site_fract_x
_atom_site_fract_y
_atom_site_fract_z
Si Si1 0.589225 0.045246 0.743740
Si Si2 0.814199 0.051783 0.208353
Si Si3 0.244473 0.378208 0.277358
Si Si4 0.901554 0.733367 0.879032
Si Si5 0.568903 0.306611 0.618041
Si Si6 0.076385 0.728210 0.327663
O O1 0.575405 0.189804 0.722509
O O2 0.761946 0.919275 0.834368
O O3 0.269404 0.176434 0.884967
O O4 0.764754 0.881238 0.530913
O O5 0.543280 0.158545 0.231690
O O6 0.694797 0.206226 0.394255
O O7 0.023752 0.826794 0.188773
O O8 0.000000 0.000000 0.000000
O O9 0.172705 0.347800 0.157069
O O10 0.258857 0.504076 0.222155
O O11 0.000000 0.500000 0.500000
O O12 0.242464 0.550513 0.747252
O O13 0.763174 0.287790 0.613822
#
# Coordination Sequence:
#
# PCOD8021377 Si02
#       6
#     2   2   2   2   2   2
#     4  10  22  43  71 103 136 182 236 281 344 417
#     4  11  26  46  71 104 142 185 234 288 348 414
#     4  12  25  48  69 103 146 183 231 290 356 412
#     4  11  24  44  73 104 140 183 232 289 348 417
#     4  11  24  46  73 103 141 182 236 290 347 411
#     4  11  26  47  73 102 143 186 232 289 351 414
#
# _framework density 25.941382999999998
#
# number of rings (size 3 to 8) (size 9 to 14) (size 15 to 20)
#    0.000    1.000    3.333    2.500    4.667    6.667 
#    3.000    0.000    0.000    0.000    0.000    0.000 
#    0.000    0.000    0.000    0.000    0.000    0.000 
#
# Total GULP energy -148784.087021 kJ/mol
# GULP energy per Si atom -12398.673918 kJ/mol
# Density = 2.588234 g / cm^3
# Si number density = 25.941383 Si / 1000 Ang^3
#
#
#
# Elastic Constant Matrix: (Units=GPa)
#
#
# Indices 1 2 3 4 5 6 
#
# 1 62.3361 28.7970 22.8989 -1.0947 0.2656 -7.5075
# 2 28.7970 127.5752 51.1769 -4.9546 -9.3812 -3.2901
# 3 22.8989 51.1769 170.7348 -11.9245 -24.2421 -9.0925
# 4 -1.0947 -4.9546 -11.9245 37.9651 -1.3824 -10.4892
# 5 0.2656 -9.3812 -24.2421 -1.3824 25.4499 8.0149
# 6 -7.5075 -3.2901 -9.0925 -10.4892 8.0149 36.9431
#
#
#
# Elastic Compliance Matrix: (Units=1/GPa)
#
#
# Indices 1 2 3 4 5 6 
#
# 1 0.018986 -0.003770 -0.001814 0.000482 -0.004617 0.004215
# 2 -0.003770 0.009681 -0.002155 0.000342 0.001803 -0.000728
# 3 -0.001814 -0.002155 0.007912 0.002580 0.006691 0.000668
# 4 0.000482 0.000342 0.002580 0.029718 0.001390 0.008900
# 5 -0.004617 0.001803 0.006691 0.001390 0.049434 -0.009461
# 6 0.004215 -0.000728 0.000668 0.008900 -0.009461 0.032604
#
#
# Mechanical properties :
#
#
# Convention : Reuss Voigt Hill
#
# Bulk Modulus (GPa) = 47.39076 62.93239 55.16158
# Shear Modulus (GPa) = 29.26602 37.25651 33.26127
#
# Velocity S-wave (km/s) = 3.36245 3.79381 3.58462
# Velocity P-wave (km/s) = 5.77779 6.59566 6.20023
#
# Compressibility (1/GPa) = 0.02110116
#
# Stress axis : x y z
#
# Youngs Moduli (GPa) = 52.67132 103.29370 126.39022
#
# Poissons Ratio (x) = 0.38942 0.22923
# Poissons Ratio (y) = 0.19857 0.27238
# Poissons Ratio (z) = 0.09553 0.22261
#
# Static dielectric constant tensor:
#      x y z
#    x 5.046360 1.643310 0.970260 
#    y 1.643310 9.008490 3.013570 
#    z 0.970260 3.013570 7.049380 
# 
# 
# High freq. dielectric constant tensor:
#      x y z
#    x 2.023250 0.008170 -0.011810 
#    y 0.008170 2.052360 0.005400 
#    z -0.011810 0.005400 2.055180 
# 
# From -- ./inp_files/186463.got.cif
#   From: 2010.06.25/outbox.cif.g09.slc.cpg/sg2_94_cif.got.tgz:186463.got - 2010.06.27 13:26:56.
