data_PCOD8021175
_publ_section_title
;
Structure prediction by ZEFSAII (Michael W. Deem and Ramdas Pophale) SiO2 
 PCOD8021175
Probable space group: P -1
;
_chemical_formula_sum "Si O2"
_cell_formula_units_Z 16
_cell_length_a 9.083021
_cell_length_b 11.124816
_cell_length_c 9.292086
_cell_angle_alpha 66.921568
_cell_angle_beta 65.859825
_cell_angle_gamma 59.681469
_cell_volume 718.829754
_symmetry_space_group_name_H-M "P -1"
_symmetry_group_IT_number 2
_symmetry_cell_setting 'triclinic'
loop_
_space_group_symop_operation_xyz
x,y,z
-x,-y,-z
loop_
_atom_site_type_symbol
_atom_site_label
_atom_site_fract_x
_atom_site_fract_y
_atom_site_fract_z
Si Si1 0.300449 0.590546 0.989464
Si Si2 0.931522 0.140611 0.864516
Si Si3 0.645674 0.644445 0.292519
Si Si4 0.255430 0.844212 0.359137
Si Si5 0.827836 0.335166 0.298874
Si Si6 0.276715 0.158582 0.627748
Si Si7 0.372964 0.081693 0.314129
Si Si8 0.796539 0.661629 0.923138
O O1 0.220596 0.722767 0.066938
O O2 0.198291 0.484973 0.078996
O O3 0.500000 0.500000 0.000000
O O4 0.285683 0.656386 0.803933
O O5 0.866136 0.104738 0.756393
O O6 0.090257 0.186677 0.755231
O O7 0.000000 0.000000 0.000000
O O8 0.438078 0.711743 0.305961
O O9 0.717179 0.475621 0.372321
O O10 0.671079 0.715987 0.395491
O O11 0.757638 0.668949 0.104873
O O12 0.154626 0.800509 0.548280
O O13 0.286524 0.979540 0.336969
O O14 0.019246 0.326785 0.183493
O O15 0.265307 0.165503 0.457307
O O16 0.420535 0.003792 0.693395
O O17 0.361016 0.200748 0.146715
#
# Coordination Sequence:
#
# PCOD8021175 Si02
#       8
#     2   2   2   2   2   2   2   2
#     4  11  26  45  69 104 138 179 226 280 344 401
#     4  12  27  41  68 103 137 173 228 288 332 401
#     4  10  22  43  68  96 128 178 227 277 336 403
#     4  11  26  43  65 100 138 179 225 278 347 402
#     4  11  23  43  71  95 137 177 226 277 342 408
#     4  10  23  42  63  96 137 170 232 272 342 392
#     4  10  25  42  66  96 134 188 217 279 337 416
#     4  11  23  42  70  93 133 177 231 267 342 401
#
# _framework density 22.258398
#
# number of rings (size 3 to 8) (size 9 to 14) (size 15 to 20)
#    0.000    1.250    0.000    5.625    8.750    5.000 
#    0.000    2.500    0.000    0.000    0.000    0.000 
#    0.000    0.000    0.000    0.000    0.000    0.000 
#
# Total GULP energy -198459.214305 kJ/mol
# GULP energy per Si atom -12403.700894 kJ/mol
# Density = 2.220774 g / cm^3
# Si number density = 22.258398 Si / 1000 Ang^3
#
#
#
# Elastic Constant Matrix: (Units=GPa)
#
#
# Indices 1 2 3 4 5 6 
#
# 1 102.4543 20.1990 46.9990 2.2297 12.9559 -7.5539
# 2 20.1990 88.8177 47.5813 -1.0799 16.6527 4.0935
# 3 46.9990 47.5813 97.4544 -1.3072 10.5249 4.1359
# 4 2.2297 -1.0799 -1.3072 32.9599 -4.0429 0.3470
# 5 12.9559 16.6527 10.5249 -4.0429 39.2901 6.2005
# 6 -7.5539 4.0935 4.1359 0.3470 6.2005 32.5889
#
#
#
# Elastic Compliance Matrix: (Units=1/GPa)
#
#
# Indices 1 2 3 4 5 6 
#
# 1 0.013588 0.001116 -0.006885 -0.001698 -0.004021 0.004666
# 2 0.001116 0.016197 -0.007900 -0.000499 -0.005203 0.000222
# 3 -0.006885 -0.007900 0.017418 0.001122 0.001561 -0.003123
# 4 -0.001698 -0.000499 0.001122 0.030978 0.003902 -0.001546
# 5 -0.004021 -0.005203 0.001561 0.003902 0.029947 -0.006216
# 6 0.004666 0.000222 -0.003123 -0.001546 -0.006216 0.033334
#
#
# Mechanical properties :
#
#
# Convention : Reuss Voigt Hill
#
# Bulk Modulus (GPa) = 50.34043 57.58722 53.96383
# Shear Modulus (GPa) = 28.50285 32.56425 30.53355
#
# Velocity S-wave (km/s) = 3.58235 3.82908 3.70777
# Velocity P-wave (km/s) = 6.30686 6.74370 6.52893
#
# Compressibility (1/GPa) = 0.01986475
#
# Stress axis : x y z
#
# Youngs Moduli (GPa) = 73.59448 61.74056 57.41283
#
# Poissons Ratio (x) = -0.06891 0.39526
# Poissons Ratio (y) = -0.08214 0.45359
# Poissons Ratio (z) = 0.50667 0.48778
#
# Static dielectric constant tensor:
#      x y z
#    x 4.119060 -0.115560 0.208320 
#    y -0.115560 4.198450 0.019380 
#    z 0.208320 0.019380 4.166270 
# 
# 
# High freq. dielectric constant tensor:
#      x y z
#    x 1.887210 -0.005710 0.004360 
#    y -0.005710 1.887570 0.004660 
#    z 0.004360 0.004660 1.872580 
# 
# From -- ./inp_files/185699.got.cif
#   From: 2010.06.25/outbox.cif.g09.slc.cpg/sg2_93_cif.got.tgz:185699.got - 2010.06.27 13:26:56.
