data_PCOD8021727
_publ_section_title
;
Structure prediction by ZEFSAII (Michael W. Deem and Ramdas Pophale) SiO2 
 PCOD8021727
Probable space group: P -1
;
_chemical_formula_sum "Si O2"
_cell_formula_units_Z 16
_cell_length_a 9.030981
_cell_length_b 17.172189
_cell_length_c 11.575490
_cell_angle_alpha 34.092608
_cell_angle_beta 125.910820
_cell_angle_gamma 113.173374
_cell_volume 797.996904
_symmetry_space_group_name_H-M "P -1"
_symmetry_group_IT_number 2
_symmetry_cell_setting 'triclinic'
loop_
_space_group_symop_operation_xyz
x,y,z
-x,-y,-z
loop_
_atom_site_type_symbol
_atom_site_label
_atom_site_fract_x
_atom_site_fract_y
_atom_site_fract_z
Si Si1 0.217436 0.934581 0.701091
Si Si2 0.604954 0.123367 0.906069
Si Si3 0.604070 0.379631 0.870695
Si Si4 0.592546 0.592444 0.012756
Si Si5 0.177842 0.875217 0.228396
Si Si6 0.040872 0.582478 0.533820
Si Si7 0.487765 0.093715 0.493873
Si Si8 0.680114 0.608679 0.477093
O O1 0.346443 0.040346 0.583778
O O2 0.250303 0.903619 0.889076
O O3 0.281233 0.780294 0.861485
O O4 0.000000 0.000000 0.500000
O O5 0.723696 0.122635 0.849178
O O6 0.442353 0.261571 0.669719
O O7 0.500000 0.000000 0.000000
O O8 0.511166 0.423922 0.895353
O O9 0.735969 0.480519 0.754117
O O10 0.436168 0.415257 0.659101
O O11 0.811385 0.533082 0.190137
O O12 0.500000 0.500000 0.000000
O O13 0.590181 0.748110 0.775275
O O14 0.125069 0.722255 0.386418
O O15 0.312056 0.906215 0.355675
O O16 0.000000 0.000000 0.000000
O O17 0.000000 0.500000 0.500000
O O18 0.869462 0.636418 0.475090
O O19 0.500000 0.000000 0.500000
#
# Coordination Sequence:
#
# PCOD8021727 Si02
#       8
#     2   2   2   2   2   2   2   2
#     4  11  26  43  69 101 135 184 235 282 351 419
#     4  11  23  45  71  96 140 181 225 293 347 408
#     4  10  22  44  67  95 136 177 229 284 345 406
#     4  12  25  45  68 100 145 183 228 284 356 412
#     4  12  28  46  73 108 139 183 241 288 346 422
#     4  12  26  43  73 107 137 181 238 287 342 421
#     4  12  27  48  70  98 146 191 227 292 354 414
#     4  10  23  42  70  99 130 178 231 286 342 405
#
# _framework density 20.050203
#
# number of rings (size 3 to 8) (size 9 to 14) (size 15 to 20)
#    0.000    0.750    5.000    1.500   10.500    0.000 
#    2.250    0.625    0.000    0.000    0.000    0.000 
#    0.000    0.000    0.000    0.000    0.000    0.000 
#
# Total GULP energy -198255.158660 kJ/mol
# GULP energy per Si atom -12390.947416 kJ/mol
# Density = 2.000457 g / cm^3
# Si number density = 20.050203 Si / 1000 Ang^3
#
#
#
# Elastic Constant Matrix: (Units=GPa)
#
#
# Indices 1 2 3 4 5 6 
#
# 1 158.6230 53.5117 67.9156 -5.5691 -0.8725 -4.0512
# 2 53.5117 122.5270 59.0030 -16.4758 8.8212 -1.2654
# 3 67.9156 59.0030 154.8914 -13.7439 8.9320 5.5284
# 4 -5.5691 -16.4758 -13.7439 33.7211 11.9987 -2.1774
# 5 -0.8725 8.8212 8.9320 11.9987 40.9517 -2.1659
# 6 -4.0512 -1.2654 5.5284 -2.1774 -2.1659 39.8775
#
#
#
# Elastic Compliance Matrix: (Units=1/GPa)
#
#
# Indices 1 2 3 4 5 6 
#
# 1 0.008459 -0.002597 -0.003030 -0.001730 0.001972 0.001210
# 2 -0.002597 0.011536 -0.002588 0.005450 -0.003542 0.000566
# 3 -0.003030 -0.002588 0.009211 0.002739 -0.002406 -0.001648
# 4 -0.001730 0.005450 0.002739 0.037775 -0.012824 0.000983
# 5 0.001972 -0.003542 -0.002406 -0.012824 0.029576 0.001328
# 6 0.001210 0.000566 -0.001648 0.000983 0.001328 0.025572
#
#
# Mechanical properties :
#
#
# Convention : Reuss Voigt Hill
#
# Bulk Modulus (GPa) = 78.27566 88.54466 83.41016
# Shear Modulus (GPa) = 35.00984 39.95081 37.48032
#
# Velocity S-wave (km/s) = 4.18318 4.46863 4.32826
# Velocity P-wave (km/s) = 7.90295 8.41916 8.16513
#
# Compressibility (1/GPa) = 0.01277536
#
# Stress axis : x y z
#
# Youngs Moduli (GPa) = 118.22114 86.68809 108.56508
#
# Poissons Ratio (x) = 0.22515 0.32895
# Poissons Ratio (y) = 0.30705 0.28095
# Poissons Ratio (z) = 0.35820 0.22433
#
# Static dielectric constant tensor:
#      x y z
#    x 3.815070 -0.113640 -0.095350 
#    y -0.113640 3.889240 0.026600 
#    z -0.095350 0.026600 3.906880 
# 
# 
# High freq. dielectric constant tensor:
#      x y z
#    x 1.796410 -0.003750 -0.006590 
#    y -0.003750 1.789370 -0.009530 
#    z -0.006590 -0.009530 1.799780 
# 
# From -- ./inp_files/333857.got.cif
#   From: 2010.06.25/outbox.cif.g09.slc.cpg/sg2_167_cif.got.tgz:333857.got - 2010.06.27 13:26:56.
