data_PCOD8021629
_publ_section_title
;
Structure prediction by ZEFSAII (Michael W. Deem and Ramdas Pophale) SiO2 
 PCOD8021629
Probable space group: P -1
;
_chemical_formula_sum "Si O2"
_cell_formula_units_Z 16
_cell_length_a 10.227364
_cell_length_b 6.768281
_cell_length_c 13.098403
_cell_angle_alpha 59.566657
_cell_angle_beta 110.509850
_cell_angle_gamma 110.862056
_cell_volume 714.073045
_symmetry_space_group_name_H-M "P -1"
_symmetry_group_IT_number 2
_symmetry_cell_setting 'triclinic'
loop_
_space_group_symop_operation_xyz
x,y,z
-x,-y,-z
loop_
_atom_site_type_symbol
_atom_site_label
_atom_site_fract_x
_atom_site_fract_y
_atom_site_fract_z
Si Si1 0.218613 0.983045 0.859618
Si Si2 0.025065 0.882703 0.362798
Si Si3 0.552731 0.234776 0.390464
Si Si4 0.427235 0.821083 0.825049
Si Si5 0.186745 0.497813 0.477605
Si Si6 0.840223 0.503892 0.939097
Si Si7 0.259392 0.330949 0.332963
Si Si8 0.692520 0.712185 0.008128
O O1 0.338503 0.007594 0.796076
O O2 0.239892 0.194005 0.890176
O O3 0.244145 0.753781 0.984286
O O4 0.061194 0.974618 0.772141
O O5 0.085777 0.678627 0.376802
O O6 0.914805 0.753008 0.453138
O O7 0.164413 0.066943 0.395515
O O8 0.582321 0.162281 0.303310
O O9 0.697366 0.403995 0.428428
O O10 0.419310 0.358864 0.325970
O O11 0.500000 0.000000 0.500000
O O12 0.374231 0.556446 0.916856
O O13 0.589327 0.879539 0.896625
O O14 0.272476 0.468711 0.406705
O O15 0.817581 0.540426 0.804637
O O16 0.803345 0.711014 0.945565
O O17 0.000000 0.500000 0.000000
#
# Coordination Sequence:
#
# PCOD8021629 Si02
#       8
#     2   2   2   2   2   2   2   2
#     4  11  24  40  72  98 130 182 224 270 341 409
#     4  11  25  46  68 101 135 180 229 281 332 406
#     4  12  25  46  70 100 137 178 227 290 335 390
#     4  10  23  43  65  94 137 175 227 275 333 398
#     4  11  27  46  70  99 135 185 233 271 340 410
#     4  11  24  42  66 102 137 173 217 281 342 398
#     4  12  25  47  71  98 142 179 224 284 344 396
#     4  10  22  44  65  95 136 179 222 274 331 410
#
# _framework density 22.406669999999998
#
# number of rings (size 3 to 8) (size 9 to 14) (size 15 to 20)
#    0.000    1.000    3.750    1.875    3.500    4.500 
#    4.500    0.000    0.000    0.000    0.000    0.000 
#    0.000    0.000    0.000    0.000    0.000    0.000 
#
# Total GULP energy -198330.773036 kJ/mol
# GULP energy per Si atom -12395.673315 kJ/mol
# Density = 2.235567 g / cm^3
# Si number density = 22.406670 Si / 1000 Ang^3
#
#
#
# Elastic Constant Matrix: (Units=GPa)
#
#
# Indices 1 2 3 4 5 6 
#
# 1 101.6304 28.6479 22.5084 14.2899 7.0044 6.5031
# 2 28.6479 67.6827 28.3149 12.1903 -2.9839 -10.8678
# 3 22.5084 28.3149 105.7791 12.7378 -4.2268 -2.6963
# 4 14.2899 12.1903 12.7378 39.5508 -7.1534 -5.7986
# 5 7.0044 -2.9839 -4.2268 -7.1534 39.7299 1.9306
# 6 6.5031 -10.8678 -2.6963 -5.7986 1.9306 20.6430
#
#
#
# Elastic Compliance Matrix: (Units=1/GPa)
#
#
# Indices 1 2 3 4 5 6 
#
# 1 0.013063 -0.005761 -0.001047 -0.004397 -0.003240 -0.008217
# 2 -0.005761 0.021029 -0.003906 -0.001141 0.001395 0.011925
# 3 -0.001047 -0.003906 0.010963 -0.001946 0.000751 -0.000912
# 4 -0.004397 -0.001141 -0.001946 0.030085 0.005488 0.008468
# 5 -0.003240 0.001395 0.000751 0.005488 0.026871 0.000881
# 6 -0.008217 0.011925 -0.000912 0.008468 0.000881 0.059487
#
#
# Mechanical properties :
#
#
# Convention : Reuss Voigt Hill
#
# Bulk Modulus (GPa) = 42.32455 48.22606 45.27530
# Shear Modulus (GPa) = 26.20510 33.02614 29.61562
#
# Velocity S-wave (km/s) = 3.42354 3.84336 3.63951
# Velocity P-wave (km/s) = 5.87858 6.42379 6.15722
#
# Compressibility (1/GPa) = 0.02362695
#
# Stress axis : x y z
#
# Youngs Moduli (GPa) = 76.55299 47.55245 91.21467
#
# Poissons Ratio (x) = 0.27397 0.09548
# Poissons Ratio (y) = 0.44105 0.35629
# Poissons Ratio (z) = 0.08013 0.18574
#
# Static dielectric constant tensor:
#      x y z
#    x 3.795620 -0.208670 -0.058640 
#    y -0.208670 3.675520 0.362860 
#    z -0.058640 0.362860 3.413990 
# 
# 
# High freq. dielectric constant tensor:
#      x y z
#    x 1.897890 -0.008400 0.003260 
#    y -0.008400 1.870720 -0.002030 
#    z 0.003260 -0.002030 1.887270 
# 
# From -- ./inp_files/410122.got.cif
#   From: 2010.06.25/outbox.cif.g09.slc.cpg/sg2_206_cif.got.tgz:410122.got - 2010.06.27 13:26:56.
