data_PCOD8021017
_publ_section_title
;
Structure prediction by ZEFSAII (Michael W. Deem and Ramdas Pophale) SiO2 
 PCOD8021017
Probable space group: P -1
;
_chemical_formula_sum "Si O2"
_cell_formula_units_Z 14
_cell_length_a 12.454368
_cell_length_b 11.727307
_cell_length_c 6.878664
_cell_angle_alpha 58.534659
_cell_angle_beta 74.062434
_cell_angle_gamma 45.105676
_cell_volume 599.701792
_symmetry_space_group_name_H-M "P -1"
_symmetry_group_IT_number 2
_symmetry_cell_setting 'triclinic'
loop_
_space_group_symop_operation_xyz
x,y,z
-x,-y,-z
loop_
_atom_site_type_symbol
_atom_site_label
_atom_site_fract_x
_atom_site_fract_y
_atom_site_fract_z
Si Si1 0.931610 0.835139 0.573338
Si Si2 0.727100 0.073840 0.769835
Si Si3 0.166469 0.759290 0.244843
Si Si4 0.188187 0.604732 0.978092
Si Si5 0.672497 0.835764 0.128507
Si Si6 0.151936 0.356322 0.424463
Si Si7 0.372362 0.414377 0.712358
O O1 0.870927 0.737968 0.640940
O O2 0.004084 0.843796 0.338769
O O3 0.790394 0.041090 0.546249
O O4 0.052705 0.729097 0.781318
O O5 0.816494 0.096549 0.854462
O O6 0.547897 0.249568 0.717321
O O7 0.770281 0.883353 0.965757
O O8 0.172095 0.732398 0.035177
O O9 0.307120 0.567425 0.447101
O O10 0.192961 0.458841 0.208517
O O11 0.346000 0.493838 0.872487
O O12 0.700698 0.805268 0.373462
O O13 0.722439 0.649241 0.187469
O O14 0.500000 0.000000 0.000000
O O15 0.000000 0.500000 0.500000
#
# Coordination Sequence:
#
# PCOD8021017 Si02
#       7
#     2   2   2   2   2   2   2
#     4  11  24  41  66 101 132 170 222 278 329 388
#     4  11  24  43  64  97 140 170 214 280 332 393
#     4  11  23  44  67  95 132 179 222 265 332 396
#     4  11  22  41  70  95 132 171 226 277 317 396
#     4  10  22  43  66  97 135 167 220 279 329 389
#     4  12  20  41  72  99 129 177 226 272 331 393
#     4  10  22  46  67  94 129 176 227 267 325 401
#
# _framework density 23.344937000000002
#
# number of rings (size 3 to 8) (size 9 to 14) (size 15 to 20)
#    0.000    1.143    2.857    3.857    0.000    1.143 
#   10.286    4.286    0.000    0.000    0.000    0.000 
#    0.000    0.000    0.000    0.000    0.000    0.000 
#
# Total GULP energy -173535.320027 kJ/mol
# GULP energy per Si atom -12395.380002 kJ/mol
# Density = 2.329180 g / cm^3
# Si number density = 23.344937 Si / 1000 Ang^3
#
#
#
# Elastic Constant Matrix: (Units=GPa)
#
#
# Indices 1 2 3 4 5 6 
#
# 1 89.4839 45.6813 17.9670 11.6767 8.5589 27.2798
# 2 45.6813 133.3829 49.9619 39.6546 10.6619 -1.9276
# 3 17.9670 49.9619 93.8186 17.8148 23.2605 -6.8122
# 4 11.6767 39.6546 17.8148 46.1697 10.1076 1.5425
# 5 8.5589 10.6619 23.2605 10.1076 32.2094 6.0931
# 6 27.2798 -1.9276 -6.8122 1.5425 6.0931 52.1294
#
#
#
# Elastic Compliance Matrix: (Units=1/GPa)
#
#
# Indices 1 2 3 4 5 6 
#
# 1 0.017158 -0.006157 -0.000836 0.001736 -0.000706 -0.009284
# 2 -0.006157 0.014088 -0.005075 -0.009342 0.003001 0.003005
# 3 -0.000836 -0.005075 0.016357 0.000491 -0.010752 0.003629
# 4 0.001736 -0.009342 0.000491 0.030651 -0.007103 -0.001267
# 5 -0.000706 0.003001 -0.010752 -0.007103 0.041282 -0.005540
# 6 -0.009284 0.003005 0.003629 -0.001267 -0.005540 0.025312
#
#
# Mechanical properties :
#
#
# Convention : Reuss Voigt Hill
#
# Bulk Modulus (GPa) = 42.61262 60.43397 51.52329
# Shear Modulus (GPa) = 28.27950 39.64004 33.95977
#
# Velocity S-wave (km/s) = 3.48426 4.12517 3.81818
# Velocity P-wave (km/s) = 5.87195 6.97373 6.44642
#
# Compressibility (1/GPa) = 0.02346723
#
# Stress axis : x y z
#
# Youngs Moduli (GPa) = 58.28351 70.98383 61.13413
#
# Poissons Ratio (x) = 0.43705 0.05109
# Poissons Ratio (y) = 0.35885 0.31026
# Poissons Ratio (z) = 0.04871 0.36025
#
# Static dielectric constant tensor:
#      x y z
#    x 4.524490 0.328420 -0.139370 
#    y 0.328420 4.588850 0.220820 
#    z -0.139370 0.220820 4.388150 
# 
# 
# High freq. dielectric constant tensor:
#      x y z
#    x 1.925400 0.015160 -0.002880 
#    y 0.015160 1.932270 0.003170 
#    z -0.002880 0.003170 1.919900 
# 
# From -- ./inp_files/68612.got.cif
#   From: 2010.06.25/outbox.cif.g09.slc.cpg/sg2_35_cif.got.tgz:68612.got - 2010.06.27 13:26:56.
