data_PCOD8021208
_publ_section_title
;
Structure prediction by ZEFSAII (Michael W. Deem and Ramdas Pophale) SiO2 
 PCOD8021208
Probable space group: P -1
;
_chemical_formula_sum "Si O2"
_cell_formula_units_Z 14
_cell_length_a 21.666646
_cell_length_b 10.322437
_cell_length_c 7.006079
_cell_angle_alpha 86.265318
_cell_angle_beta 107.655268
_cell_angle_gamma 32.442767
_cell_volume 623.265165
_symmetry_space_group_name_H-M "P -1"
_symmetry_group_IT_number 2
_symmetry_cell_setting 'triclinic'
loop_
_space_group_symop_operation_xyz
x,y,z
-x,-y,-z
loop_
_atom_site_type_symbol
_atom_site_label
_atom_site_fract_x
_atom_site_fract_y
_atom_site_fract_z
Si Si1 0.323819 0.470009 0.300080
Si Si2 0.209137 0.357782 0.747688
Si Si3 0.841817 0.272613 0.215986
Si Si4 0.326268 0.741903 0.459675
Si Si5 0.331104 0.883595 0.085460
Si Si6 0.567735 0.932467 0.266920
Si Si7 0.845321 0.991178 0.361844
O O1 0.340191 0.588374 0.360233
O O2 0.343315 0.345585 0.514439
O O3 0.442595 0.224334 0.261072
O O4 0.155930 0.751753 0.011303
O O5 0.248597 0.428349 0.864477
O O6 0.303836 0.189384 0.651950
O O7 0.027817 0.661549 0.517487
O O8 0.282666 0.120313 0.983625
O O9 0.767305 0.275330 0.231915
O O10 0.000000 0.000000 0.500000
O O11 0.296928 0.914722 0.272214
O O12 0.486505 0.468529 0.752457
O O13 0.183016 0.997832 0.446640
O O14 0.230970 0.975405 0.847356
O O15 0.500000 0.000000 0.000000
#
# Coordination Sequence:
#
# PCOD8021208 Si02
#       7
#     2   2   2   2   2   2   2
#     4  11  23  42  72 104 133 181 231 279 348 399
#     4  11  24  44  70  99 136 177 225 283 339 403
#     4  10  22  43  68  99 137 172 227 278 339 409
#     4  11  25  43  71  99 135 177 232 283 333 415
#     4  11  25  44  67 100 135 179 231 275 345 405
#     4  11  23  41  70 103 141 174 226 291 338 408
#     4  11  24  48  67  97 139 182 223 281 344 404
#
# _framework density 22.462347999999999
#
# number of rings (size 3 to 8) (size 9 to 14) (size 15 to 20)
#    0.000    1.143    2.857    2.571    4.000    2.857 
#    5.143    4.286    0.000    0.000    0.000    0.000 
#    0.000    0.000    0.000    0.000    0.000    0.000 
#
# Total GULP energy -173475.281889 kJ/mol
# GULP energy per Si atom -12391.091564 kJ/mol
# Density = 2.241122 g / cm^3
# Si number density = 22.462348 Si / 1000 Ang^3
#
#
#
# Elastic Constant Matrix: (Units=GPa)
#
#
# Indices 1 2 3 4 5 6 
#
# 1 135.4184 56.9670 68.7249 -5.4135 -27.4582 -6.2305
# 2 56.9670 83.6202 49.1960 1.8471 -1.8270 -15.5691
# 3 68.7249 49.1960 157.0792 3.6021 -16.4889 -13.5579
# 4 -5.4135 1.8471 3.6021 22.6418 7.1526 -5.9313
# 5 -27.4582 -1.8270 -16.4889 7.1526 49.6466 -10.6621
# 6 -6.2305 -15.5691 -13.5579 -5.9313 -10.6621 34.0944
#
#
#
# Elastic Compliance Matrix: (Units=1/GPa)
#
#
# Indices 1 2 3 4 5 6 
#
# 1 0.013141 -0.007102 -0.002965 0.002439 0.005711 0.000190
# 2 -0.007102 0.019404 -0.002791 -0.000491 -0.002897 0.005461
# 3 -0.002965 -0.002791 0.008962 -0.001997 0.001953 0.002011
# 4 0.002439 -0.000491 -0.001997 0.048316 -0.004943 0.006287
# 5 0.005711 -0.002897 0.001953 -0.004943 0.026240 0.007843
# 6 0.000190 0.005461 0.002011 0.006287 0.007843 0.036205
#
#
# Mechanical properties :
#
#
# Convention : Reuss Voigt Hill
#
# Bulk Modulus (GPa) = 63.33095 80.65483 71.99289
# Shear Modulus (GPa) = 27.28548 34.69187 30.98868
#
# Velocity S-wave (km/s) = 3.48907 3.93421 3.71830
# Velocity P-wave (km/s) = 6.66985 7.52476 7.11016
#
# Compressibility (1/GPa) = 0.01579007
#
# Stress axis : x y z
#
# Youngs Moduli (GPa) = 76.09664 51.53679 111.57917
#
# Poissons Ratio (x) = 0.36600 0.33087
# Poissons Ratio (y) = 0.54042 0.31146
# Poissons Ratio (z) = 0.22565 0.14386
#
# Static dielectric constant tensor:
#      x y z
#    x 4.653620 0.099550 -0.216220 
#    y 0.099550 4.104470 -0.072960 
#    z -0.216220 -0.072960 4.428740 
# 
# 
# High freq. dielectric constant tensor:
#      x y z
#    x 1.903550 0.002780 -0.003680 
#    y 0.002780 1.862340 -0.003280 
#    z -0.003680 -0.003280 1.901740 
# 
# From -- ./inp_files/123660.got.cif
#   From: 2010.06.25/outbox.cif.g09.slc.cpg/sg2_62_cif.got.tgz:123660.got - 2010.06.27 13:26:56.
