data_PCOD8021316
_publ_section_title
;
Structure prediction by ZEFSAII (Michael W. Deem and Ramdas Pophale) SiO2 
 PCOD8021316
Probable space group: P -1
;
_chemical_formula_sum "Si O2"
_cell_formula_units_Z 12
_cell_length_a 16.453872
_cell_length_b 12.389447
_cell_length_c 9.552248
_cell_angle_alpha 133.362010
_cell_angle_beta 38.644133
_cell_angle_gamma 156.744410
_cell_volume 476.326160
_symmetry_space_group_name_H-M "P -1"
_symmetry_group_IT_number 2
_symmetry_cell_setting 'triclinic'
loop_
_space_group_symop_operation_xyz
x,y,z
-x,-y,-z
loop_
_atom_site_type_symbol
_atom_site_label
_atom_site_fract_x
_atom_site_fract_y
_atom_site_fract_z
Si Si1 0.326451 0.872172 0.991575
Si Si2 0.813116 0.468225 0.349819
Si Si3 0.929623 0.180690 0.313181
Si Si4 0.246328 0.301885 0.791773
Si Si5 0.260383 0.308089 0.461841
Si Si6 0.666254 0.213651 0.598130
O O1 0.210037 0.612333 0.850320
O O2 0.470928 0.090367 0.862581
O O3 0.102213 0.752690 0.248154
O O4 0.500000 0.000000 0.000000
O O5 0.697251 0.519462 0.553040
O O6 0.641944 0.200112 0.444965
O O7 0.731334 0.108246 0.462629
O O8 0.116236 0.456267 0.399122
O O9 0.816010 0.935289 0.335264
O O10 0.051889 0.221294 0.051183
O O11 0.260040 0.368846 0.674387
O O12 0.508398 0.579347 0.762421
O O13 0.000000 0.000000 0.500000
#
# Coordination Sequence:
#
# PCOD8021316 Si02
#       6
#     2   2   2   2   2   2
#     4  11  25  42  70 101 140 184 223 291 352 413
#     4  11  26  44  67 108 138 177 238 287 350 414
#     4  10  22  43  70 103 132 189 232 282 354 419
#     4  10  24  45  70  94 143 185 231 283 349 416
#     4  11  25  44  69  99 139 184 234 284 345 421
#     4  11  23  43  73 103 144 177 236 291 354 411
#
# _framework density 25.192823000000001
#
# number of rings (size 3 to 8) (size 9 to 14) (size 15 to 20)
#    0.000    1.333    0.000    4.500    9.333    1.333 
#    3.000    4.167    0.000    0.000    0.000    0.000 
#    0.000    0.000    0.000    0.000    0.000    0.000 
#
# Total GULP energy -148694.885791 kJ/mol
# GULP energy per Si atom -12391.240483 kJ/mol
# Density = 2.513548 g / cm^3
# Si number density = 25.192823 Si / 1000 Ang^3
#
#
#
# Elastic Constant Matrix: (Units=GPa)
#
#
# Indices 1 2 3 4 5 6 
#
# 1 132.6253 46.8657 39.1414 -14.9064 8.4634 1.0276
# 2 46.8657 115.8879 25.9844 -23.0404 -5.2832 2.0814
# 3 39.1414 25.9844 89.2146 -25.4105 2.0564 -10.8343
# 4 -14.9064 -23.0404 -25.4105 45.8167 -7.8583 -0.7487
# 5 8.4634 -5.2832 2.0564 -7.8583 36.9547 -3.2323
# 6 1.0276 2.0814 -10.8343 -0.7487 -3.2323 52.2401
#
#
#
# Elastic Compliance Matrix: (Units=1/GPa)
#
#
# Indices 1 2 3 4 5 6 
#
# 1 0.009950 -0.003526 -0.003711 -0.001108 -0.002901 -0.001020
# 2 -0.003526 0.011286 -0.000457 0.004866 0.003465 -0.000191
# 3 -0.003711 -0.000457 0.015502 0.007532 0.001832 0.003528
# 4 -0.001108 0.004866 0.007532 0.029320 0.006961 0.002241
# 5 -0.002901 0.003465 0.001832 0.006961 0.029794 0.002242
# 6 -0.001020 -0.000191 0.003528 0.002241 0.002242 0.020073
#
#
# Mechanical properties :
#
#
# Convention : Reuss Voigt Hill
#
# Bulk Modulus (GPa) = 46.84071 62.41231 54.62651
# Shear Modulus (GPa) = 36.11933 42.05140 39.08536
#
# Velocity S-wave (km/s) = 3.79055 4.08999 3.94312
# Velocity P-wave (km/s) = 6.14743 6.86525 6.51624
#
# Compressibility (1/GPa) = 0.02134895
#
# Stress axis : x y z
#
# Youngs Moduli (GPa) = 100.50565 88.60300 64.50887
#
# Poissons Ratio (x) = 0.31241 0.23940
# Poissons Ratio (y) = 0.35438 0.02951
# Poissons Ratio (z) = 0.37298 0.04053
#
# Static dielectric constant tensor:
#      x y z
#    x 5.128230 -0.039440 0.093340 
#    y -0.039440 5.127380 -0.204070 
#    z 0.093340 -0.204070 4.410640 
# 
# 
# High freq. dielectric constant tensor:
#      x y z
#    x 2.009460 0.009170 0.010260 
#    y 0.009170 2.041000 -0.015160 
#    z 0.010260 -0.015160 1.993090 
# 
# From -- ./inp_files/308454.got.cif
#   From: 2010.06.25/outbox.cif.g09.slc.cpg/sg2_155_cif.got.tgz:308454.got - 2010.06.27 13:26:56.
