data_PCOD8021184
_publ_section_title
;
Structure prediction by ZEFSAII (Michael W. Deem and Ramdas Pophale) SiO2 
 PCOD8021184
Probable space group: P -1
;
_chemical_formula_sum "Si O2"
_cell_formula_units_Z 16
_cell_length_a 12.341111
_cell_length_b 12.038477
_cell_length_c 8.723044
_cell_angle_alpha 118.970789
_cell_angle_beta 128.681779
_cell_angle_gamma 94.067378
_cell_volume 740.856258
_symmetry_space_group_name_H-M "P -1"
_symmetry_group_IT_number 2
_symmetry_cell_setting 'triclinic'
loop_
_space_group_symop_operation_xyz
x,y,z
-x,-y,-z
loop_
_atom_site_type_symbol
_atom_site_label
_atom_site_fract_x
_atom_site_fract_y
_atom_site_fract_z
Si Si1 0.615487 0.663438 0.007185
Si Si2 0.239719 0.075226 0.165090
Si Si3 0.909030 0.872518 0.208945
Si Si4 0.914037 0.535702 0.579530
Si Si5 0.870324 0.168829 0.852550
Si Si6 0.315459 0.348823 0.605205
Si Si7 0.383638 0.775021 0.807614
Si Si8 0.467016 0.942127 0.680596
O O1 0.496441 0.481417 0.791230
O O2 0.525740 0.740856 0.911146
O O3 0.767535 0.715074 0.059921
O O4 0.676650 0.721548 0.273475
O O5 0.242082 0.218012 0.328679
O O6 0.424371 0.111017 0.341270
O O7 0.122332 0.928049 0.066433
O O8 0.162226 0.053303 0.914737
O O9 0.031603 0.836395 0.209807
O O10 0.000000 0.000000 0.500000
O O11 0.803038 0.589501 0.439871
O O12 0.796505 0.377985 0.456688
O O13 0.000000 0.500000 0.500000
O O14 0.045664 0.658768 0.899219
O O15 0.678928 0.094744 0.589926
O O16 0.386708 0.856274 0.709847
O O17 0.412750 0.878646 0.052320
#
# Coordination Sequence:
#
# PCOD8021184 Si02
#       8
#     2   2   2   2   2   2   2   2
#     4  10  22  43  68  97 130 178 226 268 337 403
#     4  12  24  44  68  98 134 179 228 270 336 403
#     4  12  25  40  68 101 137 171 222 284 336 391
#     4  11  25  44  67  98 139 179 216 284 346 396
#     4  12  27  43  69 105 138 174 230 284 333 400
#     4  10  23  42  71  97 132 178 223 278 325 414
#     4  10  22  44  66  96 136 176 232 269 338 407
#     4  11  24  42  71  95 132 185 222 283 329 405
#
# _framework density 21.596633000000001
#
# number of rings (size 3 to 8) (size 9 to 14) (size 15 to 20)
#    0.000    1.000    2.500    3.750    3.500    6.000 
#    0.000    0.000    0.000    0.000    0.000    0.000 
#    0.000    0.000    0.000    0.000    0.000    0.000 
#
# Total GULP energy -198472.571040 kJ/mol
# GULP energy per Si atom -12404.535690 kJ/mol
# Density = 2.154748 g / cm^3
# Si number density = 21.596633 Si / 1000 Ang^3
#
#
#
# Elastic Constant Matrix: (Units=GPa)
#
#
# Indices 1 2 3 4 5 6 
#
# 1 144.0682 36.7629 50.9024 12.7272 0.7057 -3.4978
# 2 36.7629 91.2065 50.5533 4.3325 -4.0363 10.8019
# 3 50.9024 50.5533 138.5060 9.8063 -12.7050 3.9234
# 4 12.7272 4.3325 9.8063 37.7037 -3.3442 -4.7603
# 5 0.7057 -4.0363 -12.7050 -3.3442 31.7807 -1.0938
# 6 -3.4978 10.8019 3.9234 -4.7603 -1.0938 31.5613
#
#
#
# Elastic Compliance Matrix: (Units=1/GPa)
#
#
# Indices 1 2 3 4 5 6 
#
# 1 0.008591 -0.002333 -0.002361 -0.001944 -0.001577 0.001696
# 2 -0.002333 0.014962 -0.004440 -0.000397 -0.000033 -0.004888
# 3 -0.002361 -0.004440 0.010095 -0.001019 0.003416 -0.000032
# 4 -0.001944 -0.000397 -0.001019 0.028287 0.002713 0.004408
# 5 -0.001577 -0.000033 0.003416 0.002713 0.033181 0.000971
# 6 0.001696 -0.004888 -0.000032 0.004408 0.000971 0.034248
#
#
# Mechanical properties :
#
#
# Convention : Reuss Voigt Hill
#
# Bulk Modulus (GPa) = 65.01919 72.24642 68.63281
# Shear Modulus (GPa) = 32.73174 35.91328 34.32251
#
# Velocity S-wave (km/s) = 3.89729 4.08230 3.99087
# Velocity P-wave (km/s) = 7.10094 7.46629 7.28591
#
# Compressibility (1/GPa) = 0.01538007
#
# Stress axis : x y z
#
# Youngs Moduli (GPa) = 116.39815 66.83754 99.06269
#
# Poissons Ratio (x) = 0.15590 0.23390
# Poissons Ratio (y) = 0.27150 0.43984
# Poissons Ratio (z) = 0.27483 0.29676
#
# Static dielectric constant tensor:
#      x y z
#    x 3.973430 0.151770 0.102350 
#    y 0.151770 3.973490 0.167450 
#    z 0.102350 0.167450 4.137140 
# 
# 
# High freq. dielectric constant tensor:
#      x y z
#    x 1.853360 0.006880 0.006540 
#    y 0.006880 1.849970 0.000000 
#    z 0.006540 0.000000 1.856680 
# 
# From -- ./inp_files/263204.got.cif
#   From: 2010.06.25/outbox.cif.g09.slc.cpg/sg2_132_cif.got.tgz:263204.got - 2010.06.27 13:26:56.
