data_PCOD8021416
_publ_section_title
;
Structure prediction by ZEFSAII (Michael W. Deem and Ramdas Pophale) SiO2 
 PCOD8021416
Probable space group: P -1
;
_chemical_formula_sum "Si O2"
_cell_formula_units_Z 14
_cell_length_a 8.379120
_cell_length_b 9.111299
_cell_length_c 15.506126
_cell_angle_alpha 61.054190
_cell_angle_beta 47.382547
_cell_angle_gamma 47.401279
_cell_volume 640.546800
_symmetry_space_group_name_H-M "P -1"
_symmetry_group_IT_number 2
_symmetry_cell_setting 'triclinic'
loop_
_space_group_symop_operation_xyz
x,y,z
-x,-y,-z
loop_
_atom_site_type_symbol
_atom_site_label
_atom_site_fract_x
_atom_site_fract_y
_atom_site_fract_z
Si Si1 0.543572 0.980751 0.388906
Si Si2 0.460655 0.711654 0.967323
Si Si3 0.232400 0.213671 0.287609
Si Si4 0.946113 0.038840 0.823930
Si Si5 0.188956 0.276140 0.020431
Si Si6 0.657121 0.581534 0.375336
Si Si7 0.409060 0.831803 0.231656
O O1 0.614254 0.766296 0.392888
O O2 0.769796 0.011094 0.271721
O O3 0.500000 0.000000 0.500000
O O4 0.283699 0.155837 0.386726
O O5 0.522797 0.775528 0.835565
O O6 0.663564 0.713576 0.955288
O O7 0.500000 0.500000 0.000000
O O8 0.173523 0.859315 0.068374
O O9 0.961213 0.416557 0.311916
O O10 0.232230 0.034361 0.291490
O O11 0.774315 0.187375 0.765051
O O12 0.958419 0.831814 0.869495
O O13 0.381025 0.153096 0.905929
O O14 0.000000 0.500000 0.000000
O O15 0.500000 0.500000 0.500000
O O16 0.555395 0.643347 0.296521
#
# Coordination Sequence:
#
# PCOD8021416 Si02
#       7
#     2   2   2   2   2   2   2
#     4  11  29  46  67 100 139 182 227 284 346 403
#     4  11  22  40  67 102 138 175 223 279 343 404
#     4  11  23  46  69  98 139 175 229 283 341 409
#     4  11  23  45  68 102 143 180 222 283 344 412
#     4  11  22  39  68 105 138 181 226 277 345 416
#     4  11  27  47  72 100 128 186 237 283 340 411
#     4  10  22  43  71  99 135 178 228 281 342 403
#
# _framework density 21.856327
#
# number of rings (size 3 to 8) (size 9 to 14) (size 15 to 20)
#    0.000    1.143    2.857    2.571    6.000    3.429 
#    2.571    0.000    0.000    0.000    0.000    0.000 
#    0.000    0.000    0.000    0.000    0.000    0.000 
#
# Total GULP energy -173581.019808 kJ/mol
# GULP energy per Si atom -12398.644272 kJ/mol
# Density = 2.180658 g / cm^3
# Si number density = 21.856327 Si / 1000 Ang^3
#
#
#
# Elastic Constant Matrix: (Units=GPa)
#
#
# Indices 1 2 3 4 5 6 
#
# 1 78.1015 51.2021 53.4353 -10.8990 7.4967 -4.5016
# 2 51.2021 121.8590 35.3129 -7.2679 5.8973 -7.4555
# 3 53.4353 35.3129 116.5966 -9.2877 7.2993 2.8364
# 4 -10.8990 -7.2679 -9.2877 33.9223 0.3032 -1.7917
# 5 7.4967 5.8973 7.2993 0.3032 46.7579 -9.7515
# 6 -4.5016 -7.4555 2.8364 -1.7917 -9.7515 42.4515
#
#
#
# Elastic Compliance Matrix: (Units=1/GPa)
#
#
# Indices 1 2 3 4 5 6 
#
# 1 0.024194 -0.007290 -0.008524 0.003980 -0.001295 0.001725
# 2 -0.007290 0.011390 -0.000129 0.000128 0.000011 0.001244
# 3 -0.008524 -0.000129 0.012683 0.000610 -0.001014 -0.001981
# 4 0.003980 0.000128 0.000610 0.031041 -0.000623 0.001571
# 5 -0.001295 0.000011 -0.001014 -0.000623 0.022829 0.005150
# 6 0.001725 0.001244 -0.001981 0.001571 0.005150 0.025339
#
#
# Mechanical properties :
#
#
# Convention : Reuss Voigt Hill
#
# Bulk Modulus (GPa) = 61.05023 66.27307 63.66165
# Shear Modulus (GPa) = 30.33550 36.40014 33.36782
#
# Velocity S-wave (km/s) = 3.72956 4.08539 3.91153
# Velocity P-wave (km/s) = 6.82197 7.25547 7.04206
#
# Compressibility (1/GPa) = 0.01637996
#
# Stress axis : x y z
#
# Youngs Moduli (GPa) = 41.33224 87.79622 78.84867
#
# Poissons Ratio (x) = 0.64004 0.67210
# Poissons Ratio (y) = 0.30131 0.01020
# Poissons Ratio (z) = 0.35231 0.01136
#
# Static dielectric constant tensor:
#      x y z
#    x 3.971710 -0.034060 0.206210 
#    y -0.034060 3.804110 0.003330 
#    z 0.206210 0.003330 4.162540 
# 
# 
# High freq. dielectric constant tensor:
#      x y z
#    x 1.860090 -0.002470 0.012040 
#    y -0.002470 1.861980 -0.004920 
#    z 0.012040 -0.004920 1.865110 
# 
# From -- ./inp_files/177209.got.cif
#   From: 2010.06.25/outbox.cif.g09.slc.cpg/sg2_89_cif.got.tgz:177209.got - 2010.06.27 13:26:56.
