data_PCOD8021650
_publ_section_title
;
Structure prediction by ZEFSAII (Michael W. Deem and Ramdas Pophale) SiO2 
 PCOD8021650
Probable space group: P -1
;
_chemical_formula_sum "Si O2"
_cell_formula_units_Z 16
_cell_length_a 14.970334
_cell_length_b 9.976028
_cell_length_c 8.575316
_cell_angle_alpha 47.196110
_cell_angle_beta 51.774303
_cell_angle_gamma 49.384505
_cell_volume 676.521195
_symmetry_space_group_name_H-M "P -1"
_symmetry_group_IT_number 2
_symmetry_cell_setting 'triclinic'
loop_
_space_group_symop_operation_xyz
x,y,z
-x,-y,-z
loop_
_atom_site_type_symbol
_atom_site_label
_atom_site_fract_x
_atom_site_fract_y
_atom_site_fract_z
Si Si1 0.370627 0.394146 0.602495
Si Si2 0.771275 0.508791 0.839325
Si Si3 0.881717 0.112425 0.217409
Si Si4 0.531014 0.605518 0.168592
Si Si5 0.126874 0.535877 0.572613
Si Si6 0.150449 0.185468 0.315860
Si Si7 0.667328 0.976991 0.026324
Si Si8 0.869624 0.897543 0.092157
O O1 0.466489 0.449199 0.350171
O O2 0.385355 0.438415 0.731811
O O3 0.230110 0.527338 0.594524
O O4 0.403100 0.159055 0.727965
O O5 0.830077 0.419675 0.679738
O O6 0.806912 0.691376 0.702084
O O7 0.814765 0.339410 0.058442
O O8 0.620949 0.583433 0.940679
O O9 0.816996 0.043269 0.483196
O O10 0.878920 0.962211 0.204895
O O11 0.021792 0.074291 0.146238
O O12 0.427141 0.829537 0.110366
O O13 0.108742 0.331844 0.746523
O O14 0.998054 0.707763 0.630141
O O15 0.224566 0.168159 0.090156
O O16 0.736813 0.032491 0.050986
#
# Coordination Sequence:
#
# PCOD8021650 Si02
#       8
#     2   2   2   2   2   2   2   2
#     4  10  25  45  69  96 135 179 225 283 318 405
#     4  12  25  44  71  99 138 178 220 282 333 399
#     4  11  24  40  67 100 139 174 222 269 339 399
#     4  11  26  47  69  95 135 184 231 269 335 393
#     4  11  23  46  68 102 138 172 226 275 347 390
#     4  12  25  42  72 102 137 177 214 284 342 400
#     4  11  26  45  70  99 138 176 226 276 337 394
#     4  10  22  44  66 101 138 176 219 277 328 409
#
# _framework density 23.650403000000001
#
# number of rings (size 3 to 8) (size 9 to 14) (size 15 to 20)
#    0.000    1.000    3.750    2.250    7.000    4.000 
#    0.000    1.250    0.000    0.000    0.000    0.000 
#    0.000    0.000    0.000    0.000    0.000    0.000 
#
# Total GULP energy -198391.457443 kJ/mol
# GULP energy per Si atom -12399.466090 kJ/mol
# Density = 2.359657 g / cm^3
# Si number density = 23.650403 Si / 1000 Ang^3
#
#
#
# Elastic Constant Matrix: (Units=GPa)
#
#
# Indices 1 2 3 4 5 6 
#
# 1 125.2797 34.0860 52.7266 -3.9935 -23.6443 -15.7462
# 2 34.0860 75.0547 38.6312 7.9567 -9.5900 -19.8201
# 3 52.7266 38.6312 119.5967 -16.5954 -23.8682 -14.9249
# 4 -3.9935 7.9567 -16.5954 31.9859 -2.0217 -5.7532
# 5 -23.6443 -9.5900 -23.8682 -2.0217 35.8647 -3.5957
# 6 -15.7462 -19.8201 -14.9249 -5.7532 -3.5957 24.4256
#
#
#
# Elastic Compliance Matrix: (Units=1/GPa)
#
#
# Indices 1 2 3 4 5 6 
#
# 1 0.011411 -0.001982 -0.002052 0.002330 0.006358 0.005979
# 2 -0.001982 0.020512 -0.004741 -0.005640 0.001850 0.011414
# 3 -0.002052 -0.004741 0.014991 0.010654 0.008737 0.007786
# 4 0.002330 -0.005640 0.010654 0.041861 0.010973 0.014911
# 5 0.006358 0.001850 0.008737 0.010973 0.040962 0.019553
# 6 0.005979 0.011414 0.007786 0.014911 0.019553 0.065205
#
#
# Mechanical properties :
#
#
# Convention : Reuss Voigt Hill
#
# Bulk Modulus (GPa) = 34.05515 63.42429 48.73972
# Shear Modulus (GPa) = 22.49419 31.42107 26.95763
#
# Velocity S-wave (km/s) = 3.08736 3.64890 3.37981
# Velocity P-wave (km/s) = 5.20958 6.68044 5.99032
#
# Compressibility (1/GPa) = 0.02936413
#
# Stress axis : x y z
#
# Youngs Moduli (GPa) = 87.63709 48.75130 66.70542
#
# Poissons Ratio (x) = 0.09661 0.13690
# Poissons Ratio (y) = 0.17367 0.31626
# Poissons Ratio (z) = 0.17986 0.23114
#
# Static dielectric constant tensor:
#      x y z
#    x 4.456600 -0.152770 -0.309680 
#    y -0.152770 3.842270 -0.067500 
#    z -0.309680 -0.067500 4.489870 
# 
# 
# High freq. dielectric constant tensor:
#      x y z
#    x 1.942330 -0.007200 -0.018670 
#    y -0.007200 1.911880 -0.014930 
#    z -0.018670 -0.014930 1.953170 
# 
# From -- ./inp_files/306140.got.cif
#   From: 2010.06.25/outbox.cif.g09.slc.cpg/sg2_154_cif.got.tgz:306140.got - 2010.06.27 13:26:56.
