data_PCOD8021914
_publ_section_title
;
Structure prediction by ZEFSAII (Michael W. Deem and Ramdas Pophale) SiO2 
 PCOD8021914
Probable space group: P -1
;
_chemical_formula_sum "Si O2"
_cell_formula_units_Z 16
_cell_length_a 9.830929
_cell_length_b 12.510720
_cell_length_c 14.043383
_cell_angle_alpha 51.903967
_cell_angle_beta 73.086655
_cell_angle_gamma 115.635816
_cell_volume 757.213749
_symmetry_space_group_name_H-M "P -1"
_symmetry_group_IT_number 2
_symmetry_cell_setting 'triclinic'
loop_
_space_group_symop_operation_xyz
x,y,z
-x,-y,-z
loop_
_atom_site_type_symbol
_atom_site_label
_atom_site_fract_x
_atom_site_fract_y
_atom_site_fract_z
Si Si1 0.874860 0.044462 0.997202
Si Si2 0.143778 0.128020 0.547859
Si Si3 0.339392 0.559216 0.319905
Si Si4 0.721426 0.970255 0.272148
Si Si5 0.723849 0.929692 0.628107
Si Si6 0.765739 0.308384 0.087220
Si Si7 0.029187 0.427690 0.293788
Si Si8 0.801307 0.486133 0.424400
O O1 0.613659 0.821374 0.126623
O O2 0.874729 0.103136 0.071302
O O3 0.019829 0.256512 0.783385
O O4 0.000000 0.000000 0.000000
O O5 0.307705 0.371346 0.430667
O O6 0.118287 0.983605 0.706658
O O7 0.283081 0.181555 0.396349
O O8 0.874749 0.977909 0.658294
O O9 0.190326 0.511723 0.463636
O O10 0.253212 0.543615 0.243985
O O11 0.472725 0.693100 0.456976
O O12 0.656498 0.073989 0.257304
O O13 0.445068 0.745204 0.816548
O O14 0.858886 0.172080 0.433032
O O15 0.000000 0.500000 0.000000
O O16 0.857591 0.400738 0.910335
O O17 0.875697 0.401470 0.410847
#
# Coordination Sequence:
#
# PCOD8021914 Si02
#       8
#     2   2   2   2   2   2   2   2
#     4  11  23  39  62  96 133 171 213 264 327 388
#     4  10  22  44  70  92 131 181 217 271 332 383
#     4  10  24  41  64  98 128 171 221 263 320 394
#     4  11  23  41  64  97 129 167 219 267 323 391
#     4  10  24  46  67  94 133 173 223 274 327 390
#     4  12  26  41  67 101 129 171 221 271 332 388
#     4  11  23  43  66  97 131 172 215 269 333 384
#     4  11  22  41  66  95 132 171 212 268 326 388
#
# _framework density 21.130096999999999
#
# number of rings (size 3 to 8) (size 9 to 14) (size 15 to 20)
#    0.000    1.250    2.500    2.625    1.750    7.500 
#    0.000   10.000    0.000    0.000    0.000    0.000 
#    0.000    0.000    0.000    0.000    0.000    0.000 
#
# Total GULP energy -198413.337013 kJ/mol
# GULP energy per Si atom -12400.833563 kJ/mol
# Density = 2.108200 g / cm^3
# Si number density = 21.130097 Si / 1000 Ang^3
#
#
#
# Elastic Constant Matrix: (Units=GPa)
#
#
# Indices 1 2 3 4 5 6 
#
# 1 108.9514 36.7673 43.0530 4.1578 0.5105 -2.4444
# 2 36.7673 110.7875 42.8345 2.6223 -3.9999 -4.2954
# 3 43.0530 42.8345 112.1499 -0.9137 -5.2666 8.1940
# 4 4.1578 2.6223 -0.9137 19.1005 -3.4105 1.8772
# 5 0.5105 -3.9999 -5.2666 -3.4105 30.5422 6.1331
# 6 -2.4444 -4.2954 8.1940 1.8772 6.1331 38.3082
#
#
#
# Elastic Compliance Matrix: (Units=1/GPa)
#
#
# Indices 1 2 3 4 5 6 
#
# 1 0.011624 -0.002313 -0.003815 -0.002892 -0.001826 0.001732
# 2 -0.002313 0.011286 -0.003553 -0.001334 0.000377 0.001883
# 3 -0.003815 -0.003553 0.012171 0.002772 0.002775 -0.003825
# 4 -0.002892 -0.001334 0.002772 0.055109 0.007474 -0.004824
# 5 -0.001826 0.000377 0.002775 0.007474 0.035483 -0.006715
# 6 0.001732 0.001883 -0.003825 -0.004824 -0.006715 0.028555
#
#
# Mechanical properties :
#
#
# Convention : Reuss Voigt Hill
#
# Bulk Modulus (GPa) = 63.62000 64.13315 63.87657
# Shear Modulus (GPa) = 27.95959 31.53910 29.74935
#
# Velocity S-wave (km/s) = 3.64154 3.86763 3.75629
# Velocity P-wave (km/s) = 6.91775 7.09663 7.00776
#
# Compressibility (1/GPa) = 0.01571833
#
# Stress axis : x y z
#
# Youngs Moduli (GPa) = 86.02733 88.60552 82.16519
#
# Poissons Ratio (x) = 0.20496 0.31344
# Poissons Ratio (y) = 0.19899 0.29196
# Poissons Ratio (z) = 0.32818 0.31484
#
# Static dielectric constant tensor:
#      x y z
#    x 3.939130 -0.110810 -0.009720 
#    y -0.110810 3.957610 0.014630 
#    z -0.009720 0.014630 3.583810 
# 
# 
# High freq. dielectric constant tensor:
#      x y z
#    x 1.837300 -0.004650 0.000690 
#    y -0.004650 1.842800 -0.001530 
#    z 0.000690 -0.001530 1.818130 
# 
# From -- ./inp_files/70822.got.cif
#   From: 2010.06.25/outbox.cif.g09.slc.cpg/sg2_36_cif.got.tgz:70822.got - 2010.06.27 13:26:56.
