data_PCOD8021338
_publ_section_title
;
Structure prediction by ZEFSAII (Michael W. Deem and Ramdas Pophale) SiO2 
 PCOD8021338
Probable space group: P -1
;
_chemical_formula_sum "Si O2"
_cell_formula_units_Z 14
_cell_length_a 18.520892
_cell_length_b 8.294419
_cell_length_c 6.237640
_cell_angle_alpha 79.855591
_cell_angle_beta 98.168381
_cell_angle_gamma 42.675351
_cell_volume 584.019589
_symmetry_space_group_name_H-M "P -1"
_symmetry_group_IT_number 2
_symmetry_cell_setting 'triclinic'
loop_
_space_group_symop_operation_xyz
x,y,z
-x,-y,-z
loop_
_atom_site_type_symbol
_atom_site_label
_atom_site_fract_x
_atom_site_fract_y
_atom_site_fract_z
Si Si1 0.296518 0.264712 0.154578
Si Si2 0.120519 0.387721 0.796926
Si Si3 0.297468 0.624579 0.959518
Si Si4 0.076810 0.026708 0.487569
Si Si5 0.520495 0.158385 0.966829
Si Si6 0.709163 0.937173 0.423694
Si Si7 0.786668 0.043053 0.774059
O O1 0.402399 0.957277 0.190100
O O2 0.263797 0.274616 0.380311
O O3 0.188538 0.426997 0.909969
O O4 0.328820 0.396893 0.134040
O O5 0.995867 0.675406 0.600087
O O6 0.186105 0.205386 0.658847
O O7 0.119221 0.248827 0.012224
O O8 0.397006 0.473811 0.851719
O O9 0.169157 0.863069 0.755321
O O10 0.303542 0.742317 0.129630
O O11 0.142722 0.925471 0.307420
O O12 0.000000 0.000000 0.500000
O O13 0.589151 0.113881 0.208974
O O14 0.500000 0.000000 0.000000
O O15 0.707731 0.094623 0.546776
#
# Coordination Sequence:
#
# PCOD8021338 Si02
#       7
#     2   2   2   2   2   2   2
#     4   9  20  40  69  98 131 175 225 273 330 395
#     4  10  22  46  67  95 134 179 223 270 334 401
#     4  11  24  40  64 105 135 170 230 279 327 400
#     4  12  26  44  70  99 133 178 227 284 331 385
#     4   9  21  41  68 100 137 174 225 276 328 401
#     4  10  22  43  70  96 134 186 214 269 345 399
#     4  11  26  42  66 100 140 176 219 273 344 402
#
# _framework density 23.971799000000001
#
# number of rings (size 3 to 8) (size 9 to 14) (size 15 to 20)
#    0.000    1.714    1.429    1.286    2.000    9.143 
#    0.000   10.000    0.000    0.000    0.000    0.000 
#    0.000    0.000    0.000    0.000    0.000    0.000 
#
# Total GULP energy -173449.395851 kJ/mol
# GULP energy per Si atom -12389.242561 kJ/mol
# Density = 2.391724 g / cm^3
# Si number density = 23.971799 Si / 1000 Ang^3
#
#
#
# Elastic Constant Matrix: (Units=GPa)
#
#
# Indices 1 2 3 4 5 6 
#
# 1 90.4937 33.5150 51.7203 -7.1087 -5.5713 3.7746
# 2 33.5150 104.3261 36.8209 1.6174 18.0774 4.7191
# 3 51.7203 36.8209 89.2046 9.1076 3.3783 3.5764
# 4 -7.1087 1.6174 9.1076 26.1967 -2.3049 2.6283
# 5 -5.5713 18.0774 3.3783 -2.3049 43.6542 -4.1074
# 6 3.7746 4.7191 3.5764 2.6283 -4.1074 31.8572
#
#
#
# Elastic Compliance Matrix: (Units=1/GPa)
#
#
# Indices 1 2 3 4 5 6 
#
# 1 0.019979 -0.003454 -0.011364 0.010127 0.005326 -0.000729
# 2 -0.003454 0.012808 -0.002887 -0.001048 -0.005748 -0.001819
# 3 -0.011364 -0.002887 0.020109 -0.010108 -0.002340 0.000049
# 4 0.010127 -0.001048 -0.010108 0.045211 0.004609 -0.003046
# 5 0.005326 -0.005748 -0.002340 0.004609 0.026726 0.003549
# 6 -0.000729 -0.001819 0.000049 -0.003046 0.003549 0.032449
#
#
# Mechanical properties :
#
#
# Convention : Reuss Voigt Hill
#
# Bulk Modulus (GPa) = 57.18783 58.68187 57.93485
# Shear Modulus (GPa) = 25.18639 31.13949 28.16294
#
# Velocity S-wave (km/s) = 3.24492 3.60808 3.43131
# Velocity P-wave (km/s) = 6.16015 6.47228 6.31814
#
# Compressibility (1/GPa) = 0.01748624
#
# Stress axis : x y z
#
# Youngs Moduli (GPa) = 50.05358 78.07463 49.72854
#
# Poissons Ratio (x) = 0.26968 0.56512
# Poissons Ratio (y) = 0.17289 0.14354
# Poissons Ratio (z) = 0.56882 0.22537
#
# Static dielectric constant tensor:
#      x y z
#    x 4.509060 -0.218820 -0.167620 
#    y -0.218820 4.433250 0.128510 
#    z -0.167620 0.128510 4.241670 
# 
# 
# High freq. dielectric constant tensor:
#      x y z
#    x 1.958700 -0.001550 -0.005380 
#    y -0.001550 1.941890 0.007460 
#    z -0.005380 0.007460 1.944210 
# 
# From -- ./inp_files/116945.got.cif
#   From: 2010.06.25/outbox.cif.g09.slc.cpg/sg2_59_cif.got.tgz:116945.got - 2010.06.27 13:26:56.
