data_PCOD8021592
_publ_section_title
;
Structure prediction by ZEFSAII (Michael W. Deem and Ramdas Pophale) SiO2 
 PCOD8021592
Probable space group: P -1
;
_chemical_formula_sum "Si O2"
_cell_formula_units_Z 14
_cell_length_a 8.602774
_cell_length_b 5.280635
_cell_length_c 14.364434
_cell_angle_alpha 84.951812
_cell_angle_beta 70.526230
_cell_angle_gamma 110.721372
_cell_volume 559.508253
_symmetry_space_group_name_H-M "P -1"
_symmetry_group_IT_number 2
_symmetry_cell_setting 'triclinic'
loop_
_space_group_symop_operation_xyz
x,y,z
-x,-y,-z
loop_
_atom_site_type_symbol
_atom_site_label
_atom_site_fract_x
_atom_site_fract_y
_atom_site_fract_z
Si Si1 0.545364 0.734670 0.599052
Si Si2 0.518164 0.180811 0.715345
Si Si3 0.474503 0.765726 0.085109
Si Si4 0.131198 0.520080 0.673255
Si Si5 0.774650 0.605630 0.997002
Si Si6 0.901615 0.972674 0.422341
Si Si7 0.152065 0.744894 0.853664
O O1 0.569784 0.489715 0.658837
O O2 0.344874 0.646718 0.603514
O O3 0.683700 0.819007 0.482579
O O4 0.603052 0.008130 0.643649
O O5 0.601606 0.195017 0.801442
O O6 0.298801 0.020077 0.766974
O O7 0.673530 0.768748 0.066203
O O8 0.331342 0.484001 0.076943
O O9 0.500000 0.000000 0.000000
O O10 0.039464 0.213361 0.655367
O O11 0.092739 0.503965 0.793040
O O12 0.044490 0.719322 0.639203
O O13 0.759674 0.347245 0.073690
O O14 0.981999 0.798843 0.924247
O O15 0.000000 0.000000 0.500000
#
# Coordination Sequence:
#
# PCOD8021592 Si02
#       7
#     2   2   2   2   2   2   2
#     4  11  24  44  71  96 130 176 221 267 330 395
#     4  11  23  42  69  98 134 174 224 269 321 395
#     4  11  22  40  62  96 134 181 215 266 332 390
#     4  11  23  44  70  97 131 172 219 270 328 400
#     4  10  23  42  65  91 141 174 225 273 325 387
#     4  12  26  45  69  99 135 166 215 277 336 394
#     4  10  22  44  65 100 125 179 224 278 322 381
#
# _framework density 25.021972999999999
#
# number of rings (size 3 to 8) (size 9 to 14) (size 15 to 20)
#    0.000    1.143    1.429    5.571    2.000    2.857 
#    7.714    0.000    0.000    0.000    0.000    0.000 
#    0.000    0.000    0.000    0.000    0.000    0.000 
#
# Total GULP energy -173622.446821 kJ/mol
# GULP energy per Si atom -12401.603344 kJ/mol
# Density = 2.496502 g / cm^3
# Si number density = 25.021973 Si / 1000 Ang^3
#
#
#
# Elastic Constant Matrix: (Units=GPa)
#
#
# Indices 1 2 3 4 5 6 
#
# 1 84.0327 18.2332 15.5638 0.5894 8.3525 -17.5313
# 2 18.2332 111.8234 31.6702 13.2115 15.5638 -41.2418
# 3 15.5638 31.6702 86.7563 16.9784 8.7017 -13.5226
# 4 0.5894 13.2115 16.9784 49.3132 7.8150 4.7405
# 5 8.3525 15.5638 8.7017 7.8150 41.3474 -1.0256
# 6 -17.5313 -41.2418 -13.5226 4.7405 -1.0256 34.0671
#
#
#
# Elastic Compliance Matrix: (Units=1/GPa)
#
#
# Indices 1 2 3 4 5 6 
#
# 1 0.013889 0.001859 -0.001390 -0.000578 -0.002884 0.008840
# 2 0.001859 0.019937 -0.001928 -0.006205 -0.005681 0.025019
# 3 -0.001390 -0.001928 0.013917 -0.004391 -0.001017 0.003056
# 4 -0.000578 -0.006205 -0.004391 0.024981 -0.001670 -0.013078
# 5 -0.002884 -0.005681 -0.001017 -0.001670 0.027245 -0.007713
# 6 0.008840 0.025019 0.003056 -0.013078 -0.007713 0.066992
#
#
# Mechanical properties :
#
#
# Convention : Reuss Voigt Hill
#
# Bulk Modulus (GPa) = 22.30843 45.94963 34.12903
# Shear Modulus (GPa) = 27.05333 39.42190 33.23761
#
# Velocity S-wave (km/s) = 3.29170 3.97355 3.64859
# Velocity P-wave (km/s) = 4.83549 6.28138 5.60525
#
# Compressibility (1/GPa) = 0.04482611
#
# Stress axis : x y z
#
# Youngs Moduli (GPa) = 71.99841 50.15898 71.85338
#
# Poissons Ratio (x) = -0.09325 0.09987
# Poissons Ratio (y) = -0.13385 0.13850
# Poissons Ratio (z) = 0.10008 0.09668
#
# Static dielectric constant tensor:
#      x y z
#    x 4.561300 0.097640 0.075600 
#    y 0.097640 4.601360 0.476920 
#    z 0.075600 0.476920 4.559040 
# 
# 
# High freq. dielectric constant tensor:
#      x y z
#    x 1.987300 -0.005450 0.009470 
#    y -0.005450 1.996960 0.021500 
#    z 0.009470 0.021500 2.001530 
# 
# From -- ./inp_files/35260.got.cif
#   From: 2010.06.25/outbox.cif.g09.slc.cpg/sg2_18_cif.got.tgz:35260.got - 2010.06.27 13:26:56.
