data_PCOD8021911
_publ_section_title
;
Structure prediction by ZEFSAII (Michael W. Deem and Ramdas Pophale) SiO2 
 PCOD8021911
Probable space group: P -1
;
_chemical_formula_sum "Si O2"
_cell_formula_units_Z 16
_cell_length_a 9.332669
_cell_length_b 20.173406
_cell_length_c 11.770005
_cell_angle_alpha 31.461404
_cell_angle_beta 37.563493
_cell_angle_gamma 48.469019
_cell_volume 704.487016
_symmetry_space_group_name_H-M "P -1"
_symmetry_group_IT_number 2
_symmetry_cell_setting 'triclinic'
loop_
_space_group_symop_operation_xyz
x,y,z
-x,-y,-z
loop_
_atom_site_type_symbol
_atom_site_label
_atom_site_fract_x
_atom_site_fract_y
_atom_site_fract_z
Si Si1 0.399096 0.105435 0.742235
Si Si2 0.932095 0.752043 0.413508
Si Si3 0.919076 0.113114 0.666727
Si Si4 0.343612 0.574349 0.336411
Si Si5 0.261981 0.331235 0.884369
Si Si6 0.441158 0.449839 0.983176
Si Si7 0.221376 0.056036 0.349167
Si Si8 0.244026 0.693529 0.666719
O O1 0.569267 0.202125 0.558824
O O2 0.187607 0.185194 0.710251
O O3 0.562924 0.038688 0.642918
O O4 0.279605 0.999916 0.055541
O O5 0.007232 0.871613 0.271026
O O6 0.142592 0.664378 0.374428
O O7 0.741043 0.667008 0.725987
O O8 0.823072 0.253130 0.492570
O O9 0.137171 0.083996 0.489581
O O10 0.298642 0.426142 0.616019
O O11 0.593739 0.618703 0.169230
O O12 0.342617 0.590314 0.174787
O O13 0.328515 0.185390 0.031856
O O14 0.983380 0.319870 0.092592
O O15 0.346503 0.555922 0.802401
O O16 0.500000 0.500000 0.000000
O O17 0.000000 0.000000 0.500000
#
# Coordination Sequence:
#
# PCOD8021911 Si02
#       8
#     2   2   2   2   2   2   2   2
#     4  12  25  46  71 102 147 184 233 293 354 421
#     4  12  27  48  68 106 148 185 234 289 361 425
#     4  11  26  43  72 104 141 189 236 288 347 427
#     4  11  26  44  74 101 142 189 231 294 352 426
#     4  10  22  44  70 109 135 181 241 293 347 412
#     4  12  26  46  70 105 146 185 232 293 364 419
#     4  11  23  42  70 105 141 179 235 293 344 410
#     4  11  23  45  71 106 139 181 235 302 345 417
#
# _framework density 22.711562000000001
#
# number of rings (size 3 to 8) (size 9 to 14) (size 15 to 20)
#    0.000    0.750    5.000    3.000    5.250    3.000 
#    0.000    0.000    0.000    0.000    0.000    0.000 
#    0.000    0.000    0.000    0.000    0.000    0.000 
#
# Total GULP energy -198279.984836 kJ/mol
# GULP energy per Si atom -12392.499052 kJ/mol
# Density = 2.265987 g / cm^3
# Si number density = 22.711562 Si / 1000 Ang^3
#
#
#
# Elastic Constant Matrix: (Units=GPa)
#
#
# Indices 1 2 3 4 5 6 
#
# 1 62.3039 19.9403 19.2705 14.2938 -2.8794 7.2634
# 2 19.9403 140.2784 79.7315 23.2307 -2.8957 1.6612
# 3 19.2705 79.7315 178.6268 15.5446 -21.1243 5.0426
# 4 14.2938 23.2307 15.5446 43.6155 -0.0419 5.8367
# 5 -2.8794 -2.8957 -21.1243 -0.0419 39.7029 -2.7536
# 6 7.2634 1.6612 5.0426 5.8367 -2.7536 36.7179
#
#
#
# Elastic Compliance Matrix: (Units=1/GPa)
#
#
# Indices 1 2 3 4 5 6 
#
# 1 0.018111 -0.001298 -0.000830 -0.004595 0.000589 -0.002635
# 2 -0.001298 0.010366 -0.004384 -0.003648 -0.001616 0.000849
# 3 -0.000830 -0.004384 0.008141 -0.000233 0.003922 -0.000424
# 4 -0.004595 -0.003648 -0.000233 0.026892 -0.000920 -0.003238
# 5 0.000589 -0.001616 0.003922 -0.000920 0.027309 0.001612
# 6 -0.002635 0.000849 -0.000424 -0.003238 0.001612 0.028411
#
#
# Mechanical properties :
#
#
# Convention : Reuss Voigt Hill
#
# Bulk Modulus (GPa) = 42.38712 68.78819 55.58766
# Shear Modulus (GPa) = 35.68327 41.49172 38.58750
#
# Velocity S-wave (km/s) = 3.96807 4.27886 4.12639
# Velocity P-wave (km/s) = 6.30063 7.40034 6.87251
#
# Compressibility (1/GPa) = 0.02359207
#
# Stress axis : x y z
#
# Youngs Moduli (GPa) = 55.21411 96.46897 122.83516
#
# Poissons Ratio (x) = 0.12523 0.10201
# Poissons Ratio (y) = 0.07168 0.53857
# Poissons Ratio (z) = 0.04585 0.42297
#
# Static dielectric constant tensor:
#      x y z
#    x 3.997520 -0.144570 -0.039690 
#    y -0.144570 4.252330 -0.177920 
#    z -0.039690 -0.177920 4.480850 
# 
# 
# High freq. dielectric constant tensor:
#      x y z
#    x 1.877680 -0.003940 -0.009680 
#    y -0.003940 1.899500 -0.005930 
#    z -0.009680 -0.005930 1.922420 
# 
# From -- ./inp_files/405229.got.cif
#   From: 2010.06.25/outbox.cif.g09.slc.cpg/sg2_203_cif.got.tgz:405229.got - 2010.06.27 13:26:56.
