data_PCOD8021349
_publ_section_title
;
Structure prediction by ZEFSAII (Michael W. Deem and Ramdas Pophale) SiO2 
 PCOD8021349
Probable space group: P -1
;
_chemical_formula_sum "Si O2"
_cell_formula_units_Z 16
_cell_length_a 11.921463
_cell_length_b 9.188407
_cell_length_c 14.887625
_cell_angle_alpha 140.392197
_cell_angle_beta 73.870367
_cell_angle_gamma 129.062717
_cell_volume 732.769703
_symmetry_space_group_name_H-M "P -1"
_symmetry_group_IT_number 2
_symmetry_cell_setting 'triclinic'
loop_
_space_group_symop_operation_xyz
x,y,z
-x,-y,-z
loop_
_atom_site_type_symbol
_atom_site_label
_atom_site_fract_x
_atom_site_fract_y
_atom_site_fract_z
Si Si1 0.802088 0.336891 0.693341
Si Si2 0.228863 0.953008 0.622723
Si Si3 0.248965 0.658085 0.641788
Si Si4 0.565018 0.331701 0.674208
Si Si5 0.993177 0.034213 0.687564
Si Si6 0.119125 0.628496 0.839084
Si Si7 0.749470 0.933949 0.816670
Si Si8 0.429385 0.157920 0.351015
O O1 0.832209 0.261505 0.553936
O O2 0.719529 0.478733 0.771572
O O3 0.968469 0.585251 0.825502
O O4 0.686071 0.016206 0.621365
O O5 0.187847 0.745234 0.619092
O O6 0.418782 0.261886 0.723793
O O7 0.136537 0.067976 0.707208
O O8 0.232159 0.751626 0.786712
O O9 0.434719 0.852613 0.679032
O O10 0.144248 0.289483 0.486368
O O11 0.625965 0.562276 0.686313
O O12 0.500000 0.000000 0.500000
O O13 0.061147 0.304525 0.730274
O O14 0.916754 0.060251 0.802612
O O15 0.222632 0.891532 0.015738
O O16 0.671980 0.003525 0.794975
O O17 0.500000 0.500000 0.500000
#
# Coordination Sequence:
#
# PCOD8021349 Si02
#       8
#     2   2   2   2   2   2   2   2
#     4  11  22  42  69  99 138 176 224 282 336 399
#     4  11  24  42  70 104 135 171 235 290 327 396
#     4  12  25  45  70 105 135 182 233 280 335 404
#     4  10  22  43  70  98 131 176 224 278 335 400
#     4  12  24  43  71  98 139 180 230 281 332 404
#     4  12  28  45  65 102 144 180 224 281 350 404
#     4  12  27  46  70 101 137 181 227 284 345 405
#     4  12  23  41  74 100 132 178 236 280 333 403
#
# _framework density 21.834963999999999
#
# number of rings (size 3 to 8) (size 9 to 14) (size 15 to 20)
#    0.000    0.500    5.000    4.125    5.250    1.000 
#    0.000    0.625    0.000    0.000    0.000    0.000 
#    0.000    0.000    0.000    0.000    0.000    0.000 
#
# Total GULP energy -198464.346325 kJ/mol
# GULP energy per Si atom -12404.021645 kJ/mol
# Density = 2.178527 g / cm^3
# Si number density = 21.834964 Si / 1000 Ang^3
#
#
#
# Elastic Constant Matrix: (Units=GPa)
#
#
# Indices 1 2 3 4 5 6 
#
# 1 143.2526 25.8699 36.6963 -7.0473 4.3648 -1.1967
# 2 25.8699 128.6580 34.4170 -17.7071 1.2345 -8.6624
# 3 36.6963 34.4170 70.0405 -27.5343 10.6216 -1.1387
# 4 -7.0473 -17.7071 -27.5343 31.8573 -2.9410 1.5472
# 5 4.3648 1.2345 10.6216 -2.9410 18.1527 -4.4463
# 6 -1.1967 -8.6624 -1.1387 1.5472 -4.4463 38.6599
#
#
#
# Elastic Compliance Matrix: (Units=1/GPa)
#
#
# Indices 1 2 3 4 5 6 
#
# 1 0.008296 -0.000661 -0.005343 -0.003092 0.000714 0.000157
# 2 -0.000661 0.009315 -0.003881 0.001814 0.002624 0.002182
# 3 -0.005343 -0.003881 0.028990 0.020667 -0.012669 -0.002465
# 4 -0.003092 0.001814 0.020667 0.049294 -0.003853 -0.001496
# 5 0.000714 0.002624 -0.012669 -0.003853 0.063409 0.007684
# 6 0.000157 0.002182 -0.002465 -0.001496 0.007684 0.027231
#
#
# Mechanical properties :
#
#
# Convention : Reuss Voigt Hill
#
# Bulk Modulus (GPa) = 37.26924 59.54638 48.40781
# Shear Modulus (GPa) = 23.22913 34.06517 28.64715
#
# Velocity S-wave (km/s) = 3.26521 3.95412 3.62606
# Velocity P-wave (km/s) = 5.59653 6.94097 6.30469
#
# Compressibility (1/GPa) = 0.02683178
#
# Stress axis : x y z
#
# Youngs Moduli (GPa) = 120.53760 107.35648 34.49515
#
# Poissons Ratio (x) = 0.07092 0.18431
# Poissons Ratio (y) = 0.07963 0.13386
# Poissons Ratio (z) = 0.64406 0.41661
#
# Static dielectric constant tensor:
#      x y z
#    x 4.781750 0.068720 0.099110 
#    y 0.068720 4.142000 -0.055590 
#    z 0.099110 -0.055590 3.428050 
# 
# 
# High freq. dielectric constant tensor:
#      x y z
#    x 1.881720 -0.000480 0.008860 
#    y -0.000480 1.879120 -0.004280 
#    z 0.008860 -0.004280 1.810030 
# 
# From -- ./inp_files/461873.got.cif
#   From: 2010.06.25/outbox.cif.g09.slc.cpg/sg2_231_cif.got.tgz:461873.got - 2010.06.27 13:26:56.
