data_PCOD8021573
_publ_section_title
;
Structure prediction by ZEFSAII (Michael W. Deem and Ramdas Pophale) SiO2 
 PCOD8021573
Probable space group: P -1
;
_chemical_formula_sum "Si O2"
_cell_formula_units_Z 16
_cell_length_a 15.511102
_cell_length_b 12.493266
_cell_length_c 12.312423
_cell_angle_alpha 108.325006
_cell_angle_beta 152.750085
_cell_angle_gamma 54.473996
_cell_volume 746.866345
_symmetry_space_group_name_H-M "P -1"
_symmetry_group_IT_number 2
_symmetry_cell_setting 'triclinic'
loop_
_space_group_symop_operation_xyz
x,y,z
-x,-y,-z
loop_
_atom_site_type_symbol
_atom_site_label
_atom_site_fract_x
_atom_site_fract_y
_atom_site_fract_z
Si Si1 0.926231 0.321289 0.695136
Si Si2 0.316715 0.806524 0.632478
Si Si3 0.987369 0.902627 0.873512
Si Si4 0.472211 0.604201 0.409099
Si Si5 0.552566 0.799307 0.682161
Si Si6 0.961557 0.343646 0.488370
Si Si7 0.391983 0.307351 0.867967
Si Si8 0.869791 0.145162 0.224441
O O1 0.874603 0.212278 0.629892
O O2 0.664167 0.498382 0.489798
O O3 0.997842 0.307361 0.644913
O O4 0.166252 0.257901 0.021261
O O5 0.511481 0.762239 0.742237
O O6 0.484540 0.690364 0.883856
O O7 0.135087 0.986334 0.524548
O O8 0.119777 0.878370 0.899691
O O9 0.675120 0.012273 0.539738
O O10 0.165178 0.727596 0.066104
O O11 0.000000 0.000000 0.000000
O O12 0.500000 0.500000 0.500000
O O13 0.548892 0.698347 0.560870
O O14 0.782886 0.526755 0.332422
O O15 0.838433 0.288119 0.271275
O O16 0.238027 0.257594 0.712787
O O17 0.620503 0.178855 0.999286
#
# Coordination Sequence:
#
# PCOD8021573 Si02
#       8
#     2   2   2   2   2   2   2   2
#     4  12  23  40  68  95 129 172 210 265 321 374
#     4  11  23  39  65  90 130 165 216 258 315 376
#     4   9  22  43  67  90 128 166 206 263 320 371
#     4  11  22  40  71  94 122 170 217 262 318 378
#     4  10  22  44  64  93 130 167 212 265 317 378
#     4  11  25  38  64  92 132 164 209 262 315 375
#     4  11  23  41  59  97 128 165 213 257 310 382
#     4  11  23  40  66  90 124 171 204 258 317 377
#
# _framework density 21.422841999999999
#
# number of rings (size 3 to 8) (size 9 to 14) (size 15 to 20)
#    0.000    1.250    3.750    1.875    1.750    2.500 
#    0.000    0.625    5.500    0.000    0.000    0.000 
#    0.000    0.000    0.000    0.000    0.000    0.000 
#
# Total GULP energy -198346.936145 kJ/mol
# GULP energy per Si atom -12396.683509 kJ/mol
# Density = 2.137408 g / cm^3
# Si number density = 21.422842 Si / 1000 Ang^3
#
#
#
# Elastic Constant Matrix: (Units=GPa)
#
#
# Indices 1 2 3 4 5 6 
#
# 1 87.4492 28.0268 29.8803 -1.5037 8.7844 -16.7832
# 2 28.0268 52.6988 27.2394 -6.6092 3.3729 -4.8452
# 3 29.8803 27.2394 107.6030 -9.9447 -3.5044 8.3789
# 4 -1.5037 -6.6092 -9.9447 32.3356 2.1258 -0.0051
# 5 8.7844 3.3729 -3.5044 2.1258 33.3619 1.1480
# 6 -16.7832 -4.8452 8.3789 -0.0051 1.1480 33.8642
#
#
#
# Elastic Compliance Matrix: (Units=1/GPa)
#
#
# Indices 1 2 3 4 5 6 
#
# 1 0.016828 -0.005908 -0.004127 -0.001399 -0.004476 0.008667
# 2 -0.005908 0.025244 -0.004624 0.003580 -0.001775 0.001888
# 3 -0.004127 -0.004624 0.012391 0.002482 0.002900 -0.005871
# 4 -0.001399 0.003580 0.002482 0.032472 -0.001777 -0.000730
# 5 -0.004476 -0.001775 0.002900 -0.001777 0.031897 -0.004272
# 6 0.008667 0.001888 -0.005871 -0.000730 -0.004272 0.035693
#
#
# Mechanical properties :
#
#
# Convention : Reuss Voigt Hill
#
# Bulk Modulus (GPa) = 39.77026 46.44935 43.10981
# Shear Modulus (GPa) = 26.01100 30.75264 28.38182
#
# Velocity S-wave (km/s) = 3.48828 3.79292 3.64378
# Velocity P-wave (km/s) = 5.90159 6.39616 6.15385
#
# Compressibility (1/GPa) = 0.02514442
#
# Stress axis : x y z
#
# Youngs Moduli (GPa) = 59.42447 39.61294 80.70349
#
# Poissons Ratio (x) = 0.23405 0.33309
# Poissons Ratio (y) = 0.35110 0.37316
# Poissons Ratio (z) = 0.24526 0.18316
#
# Static dielectric constant tensor:
#      x y z
#    x 3.945940 -0.115820 0.101020 
#    y -0.115820 3.764040 -0.239220 
#    z 0.101020 -0.239220 4.190120 
# 
# 
# High freq. dielectric constant tensor:
#      x y z
#    x 1.846680 -0.012840 -0.000040 
#    y -0.012840 1.826050 -0.014700 
#    z -0.000040 -0.014700 1.848170 
# 
# From -- ./inp_files/294122.got.cif
#   From: 2010.06.25/outbox.cif.g09.slc.cpg/sg2_148_cif.got.tgz:294122.got - 2010.06.27 13:26:56.
