data_PCOD8021149
_publ_section_title
;
Structure prediction by ZEFSAII (Michael W. Deem and Ramdas Pophale) SiO2 
 PCOD8021149
Probable space group: P -1
;
_chemical_formula_sum "Si O2"
_cell_formula_units_Z 16
_cell_length_a 14.479105
_cell_length_b 9.393385
_cell_length_c 8.555068
_cell_angle_alpha 66.567524
_cell_angle_beta 48.629670
_cell_angle_gamma 91.280359
_cell_volume 729.240233
_symmetry_space_group_name_H-M "P -1"
_symmetry_group_IT_number 2
_symmetry_cell_setting 'triclinic'
loop_
_space_group_symop_operation_xyz
x,y,z
-x,-y,-z
loop_
_atom_site_type_symbol
_atom_site_label
_atom_site_fract_x
_atom_site_fract_y
_atom_site_fract_z
Si Si1 0.335958 0.198295 0.224570
Si Si2 0.118458 0.662190 0.374055
Si Si3 0.506522 0.466922 0.688876
Si Si4 0.238448 0.428983 0.450610
Si Si5 0.493047 0.210693 0.335374
Si Si6 0.013368 0.835699 0.991077
Si Si7 0.933084 0.104735 0.434675
Si Si8 0.727732 0.097124 0.162488
O O1 0.277163 0.318050 0.329375
O O2 0.444480 0.165681 0.228837
O O3 0.218948 0.018989 0.388297
O O4 0.408088 0.280569 0.943950
O O5 0.237874 0.601398 0.302318
O O6 0.061313 0.727380 0.556546
O O7 0.000000 0.500000 0.500000
O O8 0.182982 0.833683 0.122438
O O9 0.500000 0.500000 0.500000
O O10 0.660408 0.511984 0.542666
O O11 0.456752 0.589744 0.786428
O O12 0.089138 0.326669 0.730370
O O13 0.619172 0.176435 0.266057
O O14 0.362136 0.107476 0.639726
O O15 0.979693 0.820868 0.851659
O O16 0.165756 0.850173 0.836877
O O17 0.000000 0.000000 0.000000
O O18 0.000000 0.000000 0.500000
#
# Coordination Sequence:
#
# PCOD8021149 Si02
#       8
#     2   2   2   2   2   2   2   2
#     4  11  22  46  69  94 133 180 225 269 337 404
#     4  12  25  44  65  99 137 176 217 278 339 395
#     4  11  25  41  66  98 133 172 226 274 329 394
#     4  11  23  45  69  95 136 179 218 277 338 397
#     4  10  22  43  68  93 128 180 220 270 336 398
#     4  12  22  44  70  99 135 171 228 276 336 399
#     4  12  27  41  69 100 134 181 223 276 336 402
#     4  11  22  42  69  93 130 173 224 270 333 398
#
# _framework density 21.940642
#
# number of rings (size 3 to 8) (size 9 to 14) (size 15 to 20)
#    0.000    0.750    3.750    5.250    3.500    1.500 
#    0.000    1.250    0.000    0.000    0.000    0.000 
#    0.000    0.000    0.000    0.000    0.000    0.000 
#
# Total GULP energy -198336.413311 kJ/mol
# GULP energy per Si atom -12396.025832 kJ/mol
# Density = 2.189070 g / cm^3
# Si number density = 21.940642 Si / 1000 Ang^3
#
#
#
# Elastic Constant Matrix: (Units=GPa)
#
#
# Indices 1 2 3 4 5 6 
#
# 1 151.8847 38.2283 26.4259 8.7556 -0.6988 -1.5998
# 2 38.2283 97.5779 13.3368 2.9876 0.1188 8.9660
# 3 26.4259 13.3368 120.2339 0.2426 11.7898 11.7486
# 4 8.7556 2.9876 0.2426 28.3603 1.2409 3.0678
# 5 -0.6988 0.1188 11.7898 1.2409 43.4301 2.2482
# 6 -1.5998 8.9660 11.7486 3.0678 2.2482 34.3416
#
#
#
# Elastic Compliance Matrix: (Units=1/GPa)
#
#
# Indices 1 2 3 4 5 6 
#
# 1 0.007752 -0.002917 -0.001609 -0.002295 0.000540 0.001843
# 2 -0.002917 0.011725 -0.000376 -0.000006 0.000183 -0.003080
# 3 -0.001609 -0.000376 0.009245 0.000894 -0.002402 -0.003062
# 4 -0.002295 -0.000006 0.000894 0.036400 -0.001134 -0.003588
# 5 0.000540 0.000183 -0.002402 -0.001134 0.023752 -0.000655
# 6 0.001843 -0.003080 -0.003062 -0.003588 -0.000655 0.031420
#
#
# Mechanical properties :
#
#
# Convention : Reuss Voigt Hill
#
# Bulk Modulus (GPa) = 52.85728 58.40872 55.63300
# Shear Modulus (GPa) = 36.65544 40.67343 38.66443
#
# Velocity S-wave (km/s) = 4.09181 4.31024 4.20245
# Velocity P-wave (km/s) = 6.81669 7.17286 6.99704
#
# Compressibility (1/GPa) = 0.01891887
#
# Stress axis : x y z
#
# Youngs Moduli (GPa) = 128.99572 85.28487 108.16244
#
# Poissons Ratio (x) = 0.24877 0.17399
# Poissons Ratio (y) = 0.37627 0.04072
# Poissons Ratio (z) = 0.20750 0.03211
#
# Static dielectric constant tensor:
#      x y z
#    x 4.517380 -0.020050 0.214390 
#    y -0.020050 3.711810 -0.181220 
#    z 0.214390 -0.181220 4.253020 
# 
# 
# High freq. dielectric constant tensor:
#      x y z
#    x 1.884400 -0.009440 0.005950 
#    y -0.009440 1.827950 -0.014200 
#    z 0.005950 -0.014200 1.880510 
# 
# From -- ./inp_files/297808.got.cif
#   From: 2010.06.25/outbox.cif.g09.slc.cpg/sg2_149_cif.got.tgz:297808.got - 2010.06.27 13:26:56.
