data_PCOD8021038
_publ_section_title
;
Structure prediction by ZEFSAII (Michael W. Deem and Ramdas Pophale) SiO2 
 PCOD8021038
Probable space group: P -1
;
_chemical_formula_sum "Si O2"
_cell_formula_units_Z 14
_cell_length_a 8.707183
_cell_length_b 13.293663
_cell_length_c 12.550130
_cell_angle_alpha 32.995269
_cell_angle_beta 102.136540
_cell_angle_gamma 121.336190
_cell_volume 590.619840
_symmetry_space_group_name_H-M "P -1"
_symmetry_group_IT_number 2
_symmetry_cell_setting 'triclinic'
loop_
_space_group_symop_operation_xyz
x,y,z
-x,-y,-z
loop_
_atom_site_type_symbol
_atom_site_label
_atom_site_fract_x
_atom_site_fract_y
_atom_site_fract_z
Si Si1 0.999299 0.211782 0.701454
Si Si2 0.138916 0.562591 0.217458
Si Si3 0.455999 0.041107 0.185035
Si Si4 0.610708 0.774085 0.792002
Si Si5 0.894776 0.724874 0.102445
Si Si6 0.050603 0.133081 0.498437
Si Si7 0.463815 0.268498 0.415481
O O1 0.120224 0.428822 0.441513
O O2 0.103814 0.330567 0.724001
O O3 0.760617 0.083987 0.790001
O O4 0.018535 0.009985 0.851938
O O5 0.062557 0.366040 0.286805
O O6 0.001851 0.642655 0.123469
O O7 0.374728 0.795142 0.026108
O O8 0.503480 0.198865 0.157245
O O9 0.456761 0.831522 0.408419
O O10 0.599759 0.860586 0.595828
O O11 0.500000 0.500000 0.000000
O O12 0.852450 0.934323 0.721368
O O13 0.655520 0.559864 0.175766
O O14 0.271526 0.221304 0.489037
O O15 0.000000 0.000000 0.500000
#
# Coordination Sequence:
#
# PCOD8021038 Si02
#       7
#     2   2   2   2   2   2   2
#     4  11  25  50  74 100 150 180 243 296 349 418
#     4  12  25  44  75 104 144 186 235 292 352 421
#     4  12  25  43  69 106 142 189 235 290 356 420
#     4  11  22  43  69  95 145 186 232 297 349 417
#     4  11  25  49  75 104 138 194 233 296 356 413
#     4  10  22  43  67 102 139 182 233 285 343 419
#     4  11  24  42  72 102 141 188 240 284 359 420
#
# _framework density 23.703911000000002
#
# number of rings (size 3 to 8) (size 9 to 14) (size 15 to 20)
#    0.000    0.857    2.857    4.286    2.000    1.714 
#    0.000    6.429    0.000    0.000    0.000    0.000 
#    0.000    0.000    0.000    0.000    0.000    0.000 
#
# Total GULP energy -173566.789056 kJ/mol
# GULP energy per Si atom -12397.627790 kJ/mol
# Density = 2.364996 g / cm^3
# Si number density = 23.703911 Si / 1000 Ang^3
#
#
#
# Elastic Constant Matrix: (Units=GPa)
#
#
# Indices 1 2 3 4 5 6 
#
# 1 149.1938 34.3956 43.4279 -15.9837 -4.6990 -2.5589
# 2 34.3956 81.0540 -5.2745 -11.2197 -9.8720 2.7893
# 3 43.4279 -5.2745 86.7176 -2.2673 -22.8464 -2.4845
# 4 -15.9837 -11.2197 -2.2673 30.6006 -6.1310 5.0526
# 5 -4.6990 -9.8720 -22.8464 -6.1310 49.8377 -7.4601
# 6 -2.5589 2.7893 -2.4845 5.0526 -7.4601 29.9186
#
#
#
# Elastic Compliance Matrix: (Units=1/GPa)
#
#
# Indices 1 2 3 4 5 6 
#
# 1 0.009512 -0.004303 -0.005549 0.002574 -0.002218 -0.000234
# 2 -0.004303 0.015863 0.004634 0.005147 0.005344 -0.000999
# 3 -0.005549 0.004634 0.016998 0.001405 0.008725 0.002443
# 4 0.002574 0.005147 0.001405 0.038025 0.005819 -0.005114
# 5 -0.002218 0.005344 0.008725 0.005819 0.026477 0.005656
# 6 -0.000234 -0.000999 0.002443 -0.005114 0.005656 0.035974
#
#
# Mechanical properties :
#
#
# Convention : Reuss Voigt Hill
#
# Bulk Modulus (GPa) = 31.31249 51.34037 41.32643
# Shear Modulus (GPa) = 30.50073 38.36581 34.43327
#
# Velocity S-wave (km/s) = 3.59100 4.02748 3.81549
# Velocity P-wave (km/s) = 5.51655 6.58282 6.07313
#
# Compressibility (1/GPa) = 0.03193614
#
# Stress axis : x y z
#
# Youngs Moduli (GPa) = 105.13200 63.04002 58.83077
#
# Poissons Ratio (x) = 0.27128 0.32645
# Poissons Ratio (y) = 0.45241 -0.27262
# Poissons Ratio (z) = 0.58337 -0.29212
#
# Static dielectric constant tensor:
#      x y z
#    x 4.735920 -0.232980 -0.251370 
#    y -0.232980 4.598220 0.080850 
#    z -0.251370 0.080850 4.556650 
# 
# 
# High freq. dielectric constant tensor:
#      x y z
#    x 1.942290 -0.007130 -0.001620 
#    y -0.007130 1.938810 -0.007630 
#    z -0.001620 -0.007630 1.947110 
# 
# From -- ./inp_files/503664.got.cif
#   From: 2010.06.25/outbox.cif.g09.slc.cpg/sg2_252_cif.got.tgz:503664.got - 2010.06.27 13:26:56.
