data_PCOD8021639
_publ_section_title
;
Structure prediction by ZEFSAII (Michael W. Deem and Ramdas Pophale) SiO2 
 PCOD8021639
Probable space group: P -1
;
_chemical_formula_sum "Si O2"
_cell_formula_units_Z 14
_cell_length_a 8.049971
_cell_length_b 10.711932
_cell_length_c 11.679411
_cell_angle_alpha 79.554910
_cell_angle_beta 78.786034
_cell_angle_gamma 137.038553
_cell_volume 589.112478
_symmetry_space_group_name_H-M "P -1"
_symmetry_group_IT_number 2
_symmetry_cell_setting 'triclinic'
loop_
_space_group_symop_operation_xyz
x,y,z
-x,-y,-z
loop_
_atom_site_type_symbol
_atom_site_label
_atom_site_fract_x
_atom_site_fract_y
_atom_site_fract_z
Si Si1 0.362740 0.263601 0.468945
Si Si2 0.985390 0.610610 0.398798
Si Si3 0.414035 0.595316 0.975241
Si Si4 0.858540 0.180853 0.157587
Si Si5 0.417511 0.027246 0.393810
Si Si6 0.866242 0.842470 0.706911
Si Si7 0.570005 0.167701 0.889003
O O1 0.247837 0.285119 0.378096
O O2 0.666999 0.474584 0.445950
O O3 0.379713 0.147760 0.410122
O O4 0.124597 0.097068 0.623283
O O5 0.129607 0.809723 0.413307
O O6 0.136551 0.669584 0.247380
O O7 0.000000 0.500000 0.500000
O O8 0.616653 0.766783 0.819932
O O9 0.500000 0.500000 0.000000
O O10 0.437919 0.706574 0.060123
O O11 0.086469 0.393816 0.015091
O O12 0.025270 0.215227 0.232184
O O13 0.652478 0.160168 0.242990
O O14 0.685546 0.973894 0.143298
O O15 0.500000 0.000000 0.500000
O O16 0.500000 0.000000 0.000000
#
# Coordination Sequence:
#
# PCOD8021639 Si02
#       7
#     2   2   2   2   2   2   2
#     4  11  22  41  63  95 136 169 227 285 333 405
#     4  11  23  40  68 103 129 179 228 280 347 405
#     4  10  24  43  68  96 133 189 227 266 349 419
#     4  10  22  44  65  98 132 181 223 279 347 409
#     4  11  20  38  70  95 129 168 227 288 337 397
#     4  10  23  41  63  93 136 179 220 278 340 405
#     4  11  26  43  69 107 140 170 234 301 339 401
#
# _framework density 23.764562999999999
#
# number of rings (size 3 to 8) (size 9 to 14) (size 15 to 20)
#    0.000    1.429    2.857    1.714    6.000    2.857 
#    0.000    7.143    0.000    0.000    0.000    0.000 
#    0.000    0.000    0.000    0.000    0.000    0.000 
#
# Total GULP energy -173436.502691 kJ/mol
# GULP energy per Si atom -12388.321621 kJ/mol
# Density = 2.371047 g / cm^3
# Si number density = 23.764563 Si / 1000 Ang^3
#
#
#
# Elastic Constant Matrix: (Units=GPa)
#
#
# Indices 1 2 3 4 5 6 
#
# 1 55.9095 19.1280 21.2720 -7.8936 5.1893 12.4346
# 2 19.1280 124.2354 35.0164 -16.5355 -21.5627 29.6275
# 3 21.2720 35.0164 150.8131 -26.3703 -26.3973 19.0519
# 4 -7.8936 -16.5355 -26.3703 38.8876 10.8123 -13.8682
# 5 5.1893 -21.5627 -26.3973 10.8123 39.3091 -1.7718
# 6 12.4346 29.6275 19.0519 -13.8682 -1.7718 53.6711
#
#
#
# Elastic Compliance Matrix: (Units=1/GPa)
#
#
# Indices 1 2 3 4 5 6 
#
# 1 0.021439 -0.002939 -0.002930 0.002424 -0.007163 -0.001915
# 2 -0.002939 0.010822 -0.000414 0.000404 0.005716 -0.004853
# 3 -0.002930 -0.000414 0.008760 0.003342 0.005070 -0.001171
# 4 0.002424 0.000404 0.003342 0.032705 -0.006567 0.006263
# 5 -0.007163 0.005716 0.005070 -0.006567 0.034558 -0.003852
# 6 -0.001915 -0.004853 -0.001171 0.006263 -0.003852 0.023661
#
#
# Mechanical properties :
#
#
# Convention : Reuss Voigt Hill
#
# Bulk Modulus (GPa) = 35.14220 53.53230 44.33725
# Shear Modulus (GPa) = 32.46859 43.40966 37.93913
#
# Velocity S-wave (km/s) = 3.70031 4.27858 3.99990
# Velocity P-wave (km/s) = 5.75118 6.85443 6.32690
#
# Compressibility (1/GPa) = 0.02845581
#
# Stress axis : x y z
#
# Youngs Moduli (GPa) = 46.64366 92.40772 114.15763
#
# Poissons Ratio (x) = 0.27159 0.33443
# Poissons Ratio (y) = 0.13709 0.04724
# Poissons Ratio (z) = 0.13664 0.03824
#
# Static dielectric constant tensor:
#      x y z
#    x 3.732000 -0.001990 -0.359900 
#    y -0.001990 4.414360 -0.464290 
#    z -0.359900 -0.464290 5.187470 
# 
# 
# High freq. dielectric constant tensor:
#      x y z
#    x 1.945270 0.015970 -0.012990 
#    y 0.015970 1.938710 -0.009890 
#    z -0.012990 -0.009890 1.962440 
# 
# From -- ./inp_files/390009.got.cif
#   From: 2010.06.25/outbox.cif.g09.slc.cpg/sg2_196_cif.got.tgz:390009.got - 2010.06.27 13:26:56.
