data_PCOD8021243
_publ_section_title
;
Structure prediction by ZEFSAII (Michael W. Deem and Ramdas Pophale) SiO2 
 PCOD8021243
Probable space group: P -1
;
_chemical_formula_sum "Si O2"
_cell_formula_units_Z 16
_cell_length_a 9.716584
_cell_length_b 29.520434
_cell_length_c 9.460926
_cell_angle_alpha 35.548408
_cell_angle_beta 62.419963
_cell_angle_gamma 35.831241
_cell_volume 753.828614
_symmetry_space_group_name_H-M "P -1"
_symmetry_group_IT_number 2
_symmetry_cell_setting 'triclinic'
loop_
_space_group_symop_operation_xyz
x,y,z
-x,-y,-z
loop_
_atom_site_type_symbol
_atom_site_label
_atom_site_fract_x
_atom_site_fract_y
_atom_site_fract_z
Si Si1 0.248205 0.090376 0.174646
Si Si2 0.916265 0.647638 0.768295
Si Si3 0.071704 0.894304 0.534915
Si Si4 0.844067 0.919218 0.318564
Si Si5 0.292817 0.968014 0.208462
Si Si6 0.776631 0.412428 0.671966
Si Si7 0.217416 0.616495 0.929616
Si Si8 0.295965 0.433565 0.893372
O O1 0.172779 0.041327 0.414154
O O2 0.563210 0.988979 0.321400
O O3 0.234973 0.070538 0.066749
O O4 0.041297 0.247794 0.915416
O O5 0.633133 0.809521 0.430949
O O6 0.992887 0.654038 0.864563
O O7 0.175198 0.542371 0.797967
O O8 0.859925 0.582036 0.991166
O O9 0.137122 0.957394 0.377515
O O10 0.929584 0.952495 0.299505
O O11 0.360314 0.719796 0.859661
O O12 0.109139 0.749656 0.638693
O O13 0.830847 0.963028 0.061106
O O14 0.500000 0.500000 0.500000
O O15 0.803495 0.489236 0.406507
O O16 0.735071 0.432565 0.808567
O O17 0.500000 0.500000 0.000000
#
# Coordination Sequence:
#
# PCOD8021243 Si02
#       8
#     2   2   2   2   2   2   2   2
#     4  12  24  42  66  97 131 174 215 273 328 385
#     4  10  22  44  66  97 130 171 217 267 329 388
#     4  11  23  44  65  96 133 174 216 269 331 384
#     4  12  24  41  66 101 131 171 219 272 321 386
#     4  11  25  42  68  95 133 175 218 266 329 393
#     4  12  24  42  66  95 126 172 218 268 327 388
#     4  12  26  41  68  95 130 169 221 273 322 391
#     4  10  22  43  69  92 134 173 213 269 328 389
#
# _framework density 21.224983000000002
#
# number of rings (size 3 to 8) (size 9 to 14) (size 15 to 20)
#    0.000    0.750    3.750    3.750    3.500    0.500 
#    0.000    1.250    0.000    0.000    0.000    0.000 
#    0.000    0.000    0.000    0.000    0.000    0.000 
#
# Total GULP energy -198363.317334 kJ/mol
# GULP energy per Si atom -12397.707333 kJ/mol
# Density = 2.117667 g / cm^3
# Si number density = 21.224983 Si / 1000 Ang^3
#
#
#
# Elastic Constant Matrix: (Units=GPa)
#
#
# Indices 1 2 3 4 5 6 
#
# 1 75.6539 7.8393 13.7743 4.1106 8.5112 8.9384
# 2 7.8393 82.8605 37.6385 11.5171 -3.3099 0.6402
# 3 13.7743 37.6385 96.1900 31.4857 10.0975 3.8724
# 4 4.1106 11.5171 31.4857 31.6432 2.7580 8.9046
# 5 8.5112 -3.3099 10.0975 2.7580 24.4490 5.1190
# 6 8.9384 0.6402 3.8724 8.9046 5.1190 38.7521
#
#
#
# Elastic Compliance Matrix: (Units=1/GPa)
#
#
# Indices 1 2 3 4 5 6 
#
# 1 0.014323 -0.000967 -0.001513 0.001155 -0.004021 -0.002871
# 2 -0.000967 0.015261 -0.006609 0.000765 0.005091 -0.000217
# 3 -0.001513 -0.006609 0.019382 -0.017010 -0.007161 0.003376
# 4 0.001155 0.000765 -0.017010 0.050824 0.003230 -0.010685
# 5 -0.004021 0.005091 -0.007161 0.003230 0.046704 -0.005353
# 6 -0.002871 -0.000217 0.003376 -0.010685 -0.005353 0.029296
#
#
# Mechanical properties :
#
#
# Convention : Reuss Voigt Hill
#
# Bulk Modulus (GPa) = 32.48012 41.46762 36.97387
# Shear Modulus (GPa) = 24.48214 31.99902 28.24058
#
# Velocity S-wave (km/s) = 3.39994 3.88701 3.65161
# Velocity P-wave (km/s) = 5.54516 6.30275 5.93606
#
# Compressibility (1/GPa) = 0.03078807
#
# Stress axis : x y z
#
# Youngs Moduli (GPa) = 69.81999 65.52743 51.59310
#
# Poissons Ratio (x) = 0.06335 0.07807
# Poissons Ratio (y) = 0.06750 0.34098
# Poissons Ratio (z) = 0.10565 0.43307
#
# Static dielectric constant tensor:
#      x y z
#    x 3.864370 0.122720 0.452010 
#    y 0.122720 3.845690 -0.632930 
#    z 0.452010 -0.632930 1.755740 
# 
# 
# High freq. dielectric constant tensor:
#      x y z
#    x 1.841690 -0.003970 0.000270 
#    y -0.003970 1.839420 0.001710 
#    z 0.000270 0.001710 1.834110 
# 
# From -- ./inp_files/227705.got.cif
#   From: 2010.06.25/outbox.cif.g09.slc.cpg/sg2_114_cif.got.tgz:227705.got - 2010.06.27 13:26:56.
