data_PCOD8021859
_publ_section_title
;
Structure prediction by ZEFSAII (Michael W. Deem and Ramdas Pophale) SiO2 
 PCOD8021859
Probable space group: P -1
;
_chemical_formula_sum "Si O2"
_cell_formula_units_Z 14
_cell_length_a 9.688646
_cell_length_b 9.178502
_cell_length_c 21.333520
_cell_angle_alpha 37.905456
_cell_angle_beta 33.405284
_cell_angle_gamma 44.692037
_cell_volume 633.993480
_symmetry_space_group_name_H-M "P -1"
_symmetry_group_IT_number 2
_symmetry_cell_setting 'triclinic'
loop_
_space_group_symop_operation_xyz
x,y,z
-x,-y,-z
loop_
_atom_site_type_symbol
_atom_site_label
_atom_site_fract_x
_atom_site_fract_y
_atom_site_fract_z
Si Si1 0.584255 0.361514 0.842696
Si Si2 0.996117 0.851030 0.691286
Si Si3 0.543154 0.673860 0.869832
Si Si4 0.894876 0.844728 0.876311
Si Si5 0.802974 0.773000 0.588828
Si Si6 0.792609 0.474975 0.383237
Si Si7 0.289811 0.983880 0.766757
O O1 0.674852 0.495203 0.825563
O O2 0.664731 0.545035 0.696949
O O3 0.733185 0.104746 0.858365
O O4 0.283939 0.348590 0.968312
O O5 0.716319 0.862088 0.765243
O O6 0.990031 0.801867 0.783958
O O7 0.167612 0.628693 0.667054
O O8 0.098303 0.101212 0.552603
O O9 0.293615 0.845609 0.879569
O O10 0.500000 0.500000 0.000000
O O11 0.144829 0.822664 0.830835
O O12 0.042173 0.695011 0.570987
O O13 0.585811 0.966990 0.638965
O O14 0.500000 0.500000 0.500000
O O15 0.858371 0.746860 0.266525
#
# Coordination Sequence:
#
# PCOD8021859 Si02
#       7
#     2   2   2   2   2   2   2
#     4  10  22  44  69  94 145 181 225 271 356 396
#     4  12  23  41  71 105 137 174 238 284 330 403
#     4  11  22  44  73 100 130 180 228 288 327 413
#     4  11  24  43  70 101 137 188 225 279 340 417
#     4  11  23  42  73  98 137 185 224 285 339 398
#     4  12  22  43  70 104 134 184 226 283 342 413
#     4  11  23  44  74  94 141 182 222 277 357 395
#
# _framework density 22.082246000000001
#
# number of rings (size 3 to 8) (size 9 to 14) (size 15 to 20)
#    0.000    0.857    7.143    1.286    0.000    3.429 
#    0.000    7.143    0.000    0.000    0.000    0.000 
#    0.000    0.000    0.000    0.000    0.000    0.000 
#
# Total GULP energy -173435.029452 kJ/mol
# GULP energy per Si atom -12388.216389 kJ/mol
# Density = 2.203199 g / cm^3
# Si number density = 22.082246 Si / 1000 Ang^3
#
#
#
# Elastic Constant Matrix: (Units=GPa)
#
#
# Indices 1 2 3 4 5 6 
#
# 1 127.7866 29.8729 63.8418 5.7712 -6.5756 -2.3589
# 2 29.8729 86.4096 29.0439 -7.6307 2.3861 -6.3630
# 3 63.8418 29.0439 169.5559 -10.9006 -13.1909 1.7719
# 4 5.7712 -7.6307 -10.9006 34.8649 0.2870 -5.9523
# 5 -6.5756 2.3861 -13.1909 0.2870 23.8020 0.8224
# 6 -2.3589 -6.3630 1.7719 -5.9523 0.8224 31.4224
#
#
#
# Elastic Compliance Matrix: (Units=1/GPa)
#
#
# Indices 1 2 3 4 5 6 
#
# 1 0.010494 -0.002783 -0.003603 -0.003529 0.001234 -0.000273
# 2 -0.002783 0.013635 -0.001325 0.003635 -0.003031 0.003395
# 3 -0.003603 -0.001325 0.007932 0.002659 0.003521 -0.000575
# 4 -0.003529 0.003635 0.002659 0.031989 -0.000472 0.006393
# 5 0.001234 -0.003031 0.003521 -0.000472 0.044683 -0.001979
# 6 -0.000273 0.003395 -0.000575 0.006393 -0.001979 0.033787
#
#
# Mechanical properties :
#
#
# Convention : Reuss Voigt Hill
#
# Bulk Modulus (GPa) = 60.09835 69.91883 65.00859
# Shear Modulus (GPa) = 30.58337 35.41743 33.00040
#
# Velocity S-wave (km/s) = 3.72556 4.00920 3.86998
# Velocity P-wave (km/s) = 6.76618 7.29131 7.03365
#
# Compressibility (1/GPa) = 0.01663939
#
# Stress axis : x y z
#
# Youngs Moduli (GPa) = 95.29512 73.34051 126.06938
#
# Poissons Ratio (x) = 0.20409 0.45417
# Poissons Ratio (y) = 0.26519 0.16710
# Poissons Ratio (z) = 0.34330 0.09721
#
# Static dielectric constant tensor:
#      x y z
#    x 3.858000 -0.014760 -0.208970 
#    y -0.014760 4.053620 -0.143420 
#    z -0.208970 -0.143420 4.639650 
# 
# 
# High freq. dielectric constant tensor:
#      x y z
#    x 1.847860 -0.008920 -0.021220 
#    y -0.008920 1.865360 -0.015010 
#    z -0.021220 -0.015010 1.889560 
# 
# From -- ./inp_files/587110.got.cif
#   From: 2010.06.25/outbox.cif.g09.slc.cpg/sg2_294_cif.got.tgz:587110.got - 2010.06.27 13:26:56.
