data_PCOD8021198
_publ_section_title
;
Structure prediction by ZEFSAII (Michael W. Deem and Ramdas Pophale) SiO2 
 PCOD8021198
Probable space group: P -1
;
_chemical_formula_sum "Si O2"
_cell_formula_units_Z 16
_cell_length_a 22.188240
_cell_length_b 23.519720
_cell_length_c 8.386708
_cell_angle_alpha 148.663257
_cell_angle_beta 138.702671
_cell_angle_gamma 19.246216
_cell_volume 710.488553
_symmetry_space_group_name_H-M "P -1"
_symmetry_group_IT_number 2
_symmetry_cell_setting 'triclinic'
loop_
_space_group_symop_operation_xyz
x,y,z
-x,-y,-z
loop_
_atom_site_type_symbol
_atom_site_label
_atom_site_fract_x
_atom_site_fract_y
_atom_site_fract_z
Si Si1 0.384419 0.267518 0.554899
Si Si2 0.321540 0.938359 0.572916
Si Si3 0.886718 0.056074 0.278919
Si Si4 0.033525 0.088949 0.233703
Si Si5 0.339840 0.098732 0.507384
Si Si6 0.931989 0.581862 0.741961
Si Si7 0.743281 0.419228 0.700368
Si Si8 0.637595 0.151579 0.203341
O O1 0.472938 0.235171 0.499938
O O2 0.227583 0.344980 0.368244
O O3 0.571006 0.018302 0.420575
O O4 0.277026 0.468333 0.934634
O O5 0.352128 0.848825 0.588398
O O6 0.246638 0.918465 0.262710
O O7 0.167982 0.197921 0.896256
O O8 0.758354 0.281369 0.471360
O O9 0.780814 0.079306 0.226638
O O10 0.000000 0.000000 0.500000
O O11 0.015370 0.855424 0.920287
O O12 0.912172 0.283022 0.590609
O O13 0.000000 0.000000 0.000000
O O14 0.122326 0.378561 0.749994
O O15 0.500000 0.000000 0.500000
O O16 0.307773 0.027019 0.165425
O O17 0.000000 0.500000 0.500000
O O18 0.570860 0.593156 0.652504
#
# Coordination Sequence:
#
# PCOD8021198 Si02
#       8
#     2   2   2   2   2   2   2   2
#     4  11  25  45  68 106 147 182 239 285 344 421
#     4  12  25  44  66 104 143 185 232 288 342 417
#     4  11  24  44  71  99 132 179 230 284 348 420
#     4  10  22  43  68  98 135 174 230 282 344 415
#     4  11  23  42  70 101 135 185 236 288 345 412
#     4  12  23  43  75  98 141 189 235 284 356 409
#     4  10  23  43  69 100 138 179 228 287 349 407
#     4  11  23  41  67  96 139 179 226 287 344 409
#
# _framework density 22.519715999999999
#
# number of rings (size 3 to 8) (size 9 to 14) (size 15 to 20)
#    0.000    1.000    2.500    4.500    3.500    2.500 
#    2.250    3.750    0.000    0.000    0.000    0.000 
#    0.000    0.000    0.000    0.000    0.000    0.000 
#
# Total GULP energy -198244.166695 kJ/mol
# GULP energy per Si atom -12390.260418 kJ/mol
# Density = 2.246846 g / cm^3
# Si number density = 22.519716 Si / 1000 Ang^3
#
#
#
# Elastic Constant Matrix: (Units=GPa)
#
#
# Indices 1 2 3 4 5 6 
#
# 1 186.5880 50.8651 67.7437 -15.0518 -22.1315 -28.0115
# 2 50.8651 116.5977 38.2915 -10.4299 4.4979 -14.4933
# 3 67.7437 38.2915 116.0860 -14.0696 -10.3696 -12.9004
# 4 -15.0518 -10.4299 -14.0696 39.3142 -0.7095 11.7706
# 5 -22.1315 4.4979 -10.3696 -0.7095 44.1299 -1.4024
# 6 -28.0115 -14.4933 -12.9004 11.7706 -1.4024 49.9409
#
#
#
# Elastic Compliance Matrix: (Units=1/GPa)
#
#
# Indices 1 2 3 4 5 6 
#
# 1 0.008057 -0.002158 -0.003272 0.000499 0.003596 0.003031
# 2 -0.002158 0.010556 -0.002247 0.000822 -0.002641 0.001005
# 3 -0.003272 -0.002247 0.011673 0.002350 0.001369 0.000013
# 4 0.000499 0.000822 0.002350 0.028360 0.000999 -0.005531
# 5 0.003596 -0.002641 0.001369 0.000999 0.025137 0.002075
# 6 0.003031 0.001005 0.000013 -0.005531 0.002075 0.023381
#
#
# Mechanical properties :
#
#
# Convention : Reuss Voigt Hill
#
# Bulk Modulus (GPa) = 66.96541 81.45246 74.20893
# Shear Modulus (GPa) = 39.21688 44.16843 41.69266
#
# Velocity S-wave (km/s) = 4.17759 4.43349 4.30744
# Velocity P-wave (km/s) = 7.28496 7.90289 7.60021
#
# Compressibility (1/GPa) = 0.01493308
#
# Stress axis : x y z
#
# Youngs Moduli (GPa) = 124.11013 94.73106 85.66503
#
# Poissons Ratio (x) = 0.20442 0.28026
# Poissons Ratio (y) = 0.26781 0.19253
# Poissons Ratio (z) = 0.40604 0.21290
#
# Static dielectric constant tensor:
#      x y z
#    x 4.215350 -0.006270 -0.100940 
#    y -0.006270 4.210780 0.057650 
#    z -0.100940 0.057650 4.238270 
# 
# 
# High freq. dielectric constant tensor:
#      x y z
#    x 1.905410 -0.011840 -0.000030 
#    y -0.011840 1.887910 -0.015010 
#    z -0.000030 -0.015010 1.890110 
# 
# From -- ./inp_files/350059.got.cif
#   From: 2010.06.25/outbox.cif.g09.slc.cpg/sg2_176_cif.got.tgz:350059.got - 2010.06.27 13:26:56.
