data_PCOD8021424
_publ_section_title
;
Structure prediction by ZEFSAII (Michael W. Deem and Ramdas Pophale) SiO2 
 PCOD8021424
Probable space group: P -1
;
_chemical_formula_sum "Si O2"
_cell_formula_units_Z 14
_cell_length_a 13.363417
_cell_length_b 26.315351
_cell_length_c 20.982617
_cell_angle_alpha 167.688536
_cell_angle_beta 22.944259
_cell_angle_gamma 156.237578
_cell_volume 602.566853
_symmetry_space_group_name_H-M "P -1"
_symmetry_group_IT_number 2
_symmetry_cell_setting 'triclinic'
loop_
_space_group_symop_operation_xyz
x,y,z
-x,-y,-z
loop_
_atom_site_type_symbol
_atom_site_label
_atom_site_fract_x
_atom_site_fract_y
_atom_site_fract_z
Si Si1 0.283348 0.549219 0.532691
Si Si2 0.232231 0.600501 0.284327
Si Si3 0.134659 0.763151 0.763274
Si Si4 0.854209 0.694814 0.400771
Si Si5 0.367574 0.024759 0.823421
Si Si6 0.045593 0.817972 0.306383
Si Si7 0.806777 0.086834 0.418290
O O1 0.323671 0.730843 0.671735
O O2 0.544875 0.623343 0.513488
O O3 0.017533 0.587455 0.771873
O O4 0.240560 0.266112 0.188453
O O5 0.152531 0.656793 0.328301
O O6 0.265097 0.844127 0.605371
O O7 0.500000 0.500000 0.000000
O O8 0.000000 0.500000 0.500000
O O9 0.312374 0.904076 0.776928
O O10 0.902862 0.895243 0.081546
O O11 0.858999 0.808631 0.466213
O O12 0.020739 0.886542 0.586077
O O13 0.983537 0.455584 0.037755
O O14 0.673380 0.097596 0.724294
O O15 0.000000 0.000000 0.500000
O O16 0.500000 0.000000 0.500000
#
# Coordination Sequence:
#
# PCOD8021424 Si02
#       7
#     2   2   2   2   2   2   2
#     4  11  23  46  72  99 141 185 236 288 351 424
#     4  12  25  43  68 103 141 182 231 293 353 411
#     4  12  24  43  73 103 137 188 234 289 353 420
#     4  10  25  46  68 103 144 185 233 297 353 416
#     4  11  23  45  69 103 136 183 238 285 348 422
#     4  10  22  43  72 102 141 187 230 285 354 426
#     4  12  27  46  68 104 144 180 240 302 349 418
#
# _framework density 23.233936
#
# number of rings (size 3 to 8) (size 9 to 14) (size 15 to 20)
#    0.000    0.857    2.857    3.857    2.000    3.429 
#    0.000    0.000    0.000    0.000    0.000    0.000 
#    0.000    0.000    0.000    0.000    0.000    0.000 
#
# Total GULP energy -173551.254983 kJ/mol
# GULP energy per Si atom -12396.518213 kJ/mol
# Density = 2.318105 g / cm^3
# Si number density = 23.233936 Si / 1000 Ang^3
#
#
#
# Elastic Constant Matrix: (Units=GPa)
#
#
# Indices 1 2 3 4 5 6 
#
# 1 109.3307 36.0440 37.9311 -1.1814 -12.0639 -11.1804
# 2 36.0440 131.3613 43.4515 -18.2131 9.7145 2.0027
# 3 37.9311 43.4515 87.1099 -11.2560 -12.6014 -4.7282
# 4 -1.1814 -18.2131 -11.2560 35.1222 -4.3375 -9.7695
# 5 -12.0639 9.7145 -12.6014 -4.3375 40.4457 14.0815
# 6 -11.1804 2.0027 -4.7282 -9.7695 14.0815 44.4557
#
#
#
# Elastic Compliance Matrix: (Units=1/GPa)
#
#
# Indices 1 2 3 4 5 6 
#
# 1 0.011572 -0.002333 -0.003634 -0.001254 0.002165 0.001668
# 2 -0.002333 0.010515 -0.004366 0.003615 -0.004428 0.000672
# 3 -0.003634 -0.004366 0.016501 0.003604 0.005457 0.000101
# 4 -0.001254 0.003615 0.003604 0.033520 0.001061 0.006935
# 5 0.002165 -0.004428 0.005457 0.001061 0.031140 -0.008306
# 6 0.001668 0.000672 0.000101 0.006935 -0.008306 0.027049
#
#
# Mechanical properties :
#
#
# Convention : Reuss Voigt Hill
#
# Bulk Modulus (GPa) = 55.79556 62.51721 59.15638
# Shear Modulus (GPa) = 31.86000 38.02975 34.94488
#
# Velocity S-wave (km/s) = 3.70708 4.05015 3.88241
# Velocity P-wave (km/s) = 6.51077 6.98840 6.75381
#
# Compressibility (1/GPa) = 0.01792257
#
# Stress axis : x y z
#
# Youngs Moduli (GPa) = 86.41460 95.09824 60.60365
#
# Poissons Ratio (x) = 0.22183 0.22022
# Poissons Ratio (y) = 0.20157 0.26462
# Poissons Ratio (z) = 0.31401 0.41524
#
# Static dielectric constant tensor:
#      x y z
#    x 4.450000 -0.253540 -0.345660 
#    y -0.253540 4.368260 -0.023700 
#    z -0.345660 -0.023700 4.328830 
# 
# 
# High freq. dielectric constant tensor:
#      x y z
#    x 1.917760 -0.004350 -0.015880 
#    y -0.004350 1.934280 -0.004670 
#    z -0.015880 -0.004670 1.915290 
# 
# From -- ./inp_files/612475.got.cif
#   From: 2010.06.25/outbox.cif.g09.slc.cpg/sg2_307_cif.got.tgz:612475.got - 2010.06.27 13:26:56.
