data_PCOD8021602
_publ_section_title
;
Structure prediction by ZEFSAII (Michael W. Deem and Ramdas Pophale) SiO2 
 PCOD8021602
Probable space group: P -1
;
_chemical_formula_sum "Si O2"
_cell_formula_units_Z 16
_cell_length_a 6.937189
_cell_length_b 21.888994
_cell_length_c 15.436177
_cell_angle_alpha 21.493564
_cell_angle_beta 99.321801
_cell_angle_gamma 88.239509
_cell_volume 733.043441
_symmetry_space_group_name_H-M "P -1"
_symmetry_group_IT_number 2
_symmetry_cell_setting 'triclinic'
loop_
_space_group_symop_operation_xyz
x,y,z
-x,-y,-z
loop_
_atom_site_type_symbol
_atom_site_label
_atom_site_fract_x
_atom_site_fract_y
_atom_site_fract_z
Si Si1 0.472706 0.518572 0.116033
Si Si2 0.881673 0.402879 0.877316
Si Si3 0.618665 0.205960 0.407582
Si Si4 0.904200 0.372571 0.620928
Si Si5 0.392620 0.115397 0.253586
Si Si6 0.965111 0.306035 0.514612
Si Si7 0.076322 0.978848 0.825514
Si Si8 0.566510 0.308281 0.884610
O O1 0.237520 0.619427 0.016862
O O2 0.474378 0.345657 0.290455
O O3 0.699153 0.434596 0.301618
O O4 0.461759 0.680897 0.838090
O O5 0.735225 0.391069 0.803464
O O6 0.885624 0.599961 0.627499
O O7 0.132085 0.233376 0.103585
O O8 0.569336 0.031004 0.628763
O O9 0.883361 0.125797 0.551685
O O10 0.992975 0.288660 0.642654
O O11 0.637739 0.516729 0.409930
O O12 0.000000 0.500000 0.500000
O O13 0.976200 0.187140 0.929815
O O14 0.500000 0.000000 0.500000
O O15 0.490257 0.248997 0.047856
O O16 0.083229 0.096117 0.755267
O O17 0.313211 0.878298 0.923492
#
# Coordination Sequence:
#
# PCOD8021602 Si02
#       8
#     2   2   2   2   2   2   2   2
#     4  10  23  43  70  97 142 177 218 282 345 408
#     4  12  22  43  69  99 134 181 221 277 342 402
#     4  10  22  44  65 102 138 177 223 279 339 405
#     4  12  24  48  72  96 138 176 227 289 340 397
#     4  12  25  40  68 103 139 179 233 279 332 405
#     4  11  24  46  68 104 135 173 229 280 343 405
#     4  11  25  43  70  99 136 180 227 279 339 406
#     4  12  25  45  67  99 135 177 230 279 340 404
#
# _framework density 21.826810999999999
#
# number of rings (size 3 to 8) (size 9 to 14) (size 15 to 20)
#    0.000    0.750    3.750    3.750    3.500    1.000 
#    0.000    3.750    0.000    0.000    0.000    0.000 
#    0.000    0.000    0.000    0.000    0.000    0.000 
#
# Total GULP energy -198332.083414 kJ/mol
# GULP energy per Si atom -12395.755213 kJ/mol
# Density = 2.177713 g / cm^3
# Si number density = 21.826811 Si / 1000 Ang^3
#
#
#
# Elastic Constant Matrix: (Units=GPa)
#
#
# Indices 1 2 3 4 5 6 
#
# 1 114.5372 45.7195 34.5042 -11.3248 0.1006 10.3203
# 2 45.7195 117.8188 40.2594 -19.8912 -1.0447 -1.6023
# 3 34.5042 40.2594 99.3632 -14.1746 1.8020 9.0358
# 4 -11.3248 -19.8912 -14.1746 47.1072 3.7710 -4.3686
# 5 0.1006 -1.0447 1.8020 3.7710 29.4616 -4.4757
# 6 10.3203 -1.6023 9.0358 -4.3686 -4.4757 30.6833
#
#
#
# Elastic Compliance Matrix: (Units=1/GPa)
#
#
# Indices 1 2 3 4 5 6 
#
# 1 0.011123 -0.003627 -0.002038 0.000263 -0.000589 -0.003379
# 2 -0.003627 0.011633 -0.003303 0.003302 0.000717 0.003375
# 3 -0.002038 -0.003303 0.012682 0.001762 -0.001598 -0.003204
# 4 0.000263 0.003302 0.001762 0.023663 -0.002633 0.002550
# 5 -0.000589 0.000717 -0.001598 -0.002633 0.035236 0.005471
# 6 -0.003379 0.003375 -0.003204 0.002550 0.005471 0.036008
#
#
# Mechanical properties :
#
#
# Convention : Reuss Voigt Hill
#
# Bulk Modulus (GPa) = 57.13117 63.63171 60.38144
# Shear Modulus (GPa) = 32.44325 35.53283 33.98804
#
# Velocity S-wave (km/s) = 3.85956 4.03916 3.95038
# Velocity P-wave (km/s) = 6.78920 7.13928 6.96644
#
# Compressibility (1/GPa) = 0.01750358
#
# Stress axis : x y z
#
# Youngs Moduli (GPa) = 89.90087 85.95952 78.85418
#
# Poissons Ratio (x) = 0.31177 0.16067
# Poissons Ratio (y) = 0.32606 0.26045
# Poissons Ratio (z) = 0.18318 0.28392
#
# Static dielectric constant tensor:
#      x y z
#    x 3.762930 0.020970 -0.069890 
#    y 0.020970 4.318890 -0.284500 
#    z -0.069890 -0.284500 3.937660 
# 
# 
# High freq. dielectric constant tensor:
#      x y z
#    x 1.845270 0.002160 0.001750 
#    y 0.002160 1.883720 -0.016710 
#    z 0.001750 -0.016710 1.861000 
# 
# From -- ./inp_files/126476.got.cif
#   From: 2010.06.25/outbox.cif.g09.slc.cpg/sg2_64_cif.got.tgz:126476.got - 2010.06.27 13:26:56.
