data_PCOD8021262
_publ_section_title
;
Structure prediction by ZEFSAII (Michael W. Deem and Ramdas Pophale) SiO2 
 PCOD8021262
Probable space group: P -1
;
_chemical_formula_sum "Si O2"
_cell_formula_units_Z 10
_cell_length_a 8.833786
_cell_length_b 11.550332
_cell_length_c 9.540473
_cell_angle_alpha 56.254376
_cell_angle_beta 50.034188
_cell_angle_gamma 96.660420
_cell_volume 415.970203
_symmetry_space_group_name_H-M "P -1"
_symmetry_group_IT_number 2
_symmetry_cell_setting 'triclinic'
loop_
_space_group_symop_operation_xyz
x,y,z
-x,-y,-z
loop_
_atom_site_type_symbol
_atom_site_label
_atom_site_fract_x
_atom_site_fract_y
_atom_site_fract_z
Si Si1 0.160922 0.856122 0.272284
Si Si2 0.192820 0.424699 0.063087
Si Si3 0.733823 0.582837 0.487049
Si Si4 0.371451 0.210761 0.762937
Si Si5 0.332675 0.790838 0.661804
O O1 0.967381 0.730505 0.607897
O O2 0.024017 0.698219 0.328122
O O3 0.500000 0.000000 0.000000
O O4 0.142494 0.010341 0.135605
O O5 0.986921 0.317863 0.119291
O O6 0.473036 0.477940 0.822572
O O7 0.291900 0.636234 0.892888
O O8 0.651023 0.409721 0.554602
O O9 0.796160 0.750157 0.238963
O O10 0.496475 0.164443 0.610208
O O11 0.500000 0.000000 0.500000
#
# Coordination Sequence:
#
# PCOD8021262 Si02
#       5
#     2   2   2   2   2
#     4  12  24  42  67 103 137 173 221 275 336 391
#     4  10  23  43  64 104 129 175 226 266 338 390
#     4  10  24  44  71  92 140 176 221 278 319 405
#     4  10  23  45  67 100 129 179 227 262 343 387
#     4  10  22  43  69  95 136 176 222 273 331 401
#
# _framework density 24.040182999999999
#
# number of rings (size 3 to 8) (size 9 to 14) (size 15 to 20)
#    0.000    1.600    2.000    1.200    0.000   12.800 
#    0.000    0.000    0.000    0.000    0.000    0.000 
#    0.000    0.000    0.000    0.000    0.000    0.000 
#
# Total GULP energy -123990.204389 kJ/mol
# GULP energy per Si atom -12399.020439 kJ/mol
# Density = 2.398547 g / cm^3
# Si number density = 24.040183 Si / 1000 Ang^3
#
#
#
# Elastic Constant Matrix: (Units=GPa)
#
#
# Indices 1 2 3 4 5 6 
#
# 1 79.2007 52.5790 64.6929 -4.5425 -0.8793 28.6211
# 2 52.5790 169.5527 66.6657 -27.4519 0.1432 12.8884
# 3 64.6929 66.6657 165.6819 -1.4918 43.2014 4.1474
# 4 -4.5425 -27.4519 -1.4918 34.8154 12.3367 -1.5831
# 5 -0.8793 0.1432 43.2014 12.3367 58.0731 -11.2293
# 6 28.6211 12.8884 4.1474 -1.5831 -11.2293 29.5168
#
#
#
# Elastic Compliance Matrix: (Units=1/GPa)
#
#
# Indices 1 2 3 4 5 6 
#
# 1 0.037700 -0.004405 -0.013552 -0.002381 0.005198 -0.030878
# 2 -0.004405 0.008970 -0.001899 0.006406 0.000162 0.001027
# 3 -0.013552 -0.001899 0.014368 0.001097 -0.009499 0.008396
# 4 -0.002381 0.006406 0.001097 0.036624 -0.009059 -0.002124
# 5 0.005198 0.000162 -0.009499 -0.009059 0.027486 0.006194
# 6 -0.030878 0.001027 0.008396 -0.002124 0.006194 0.064435
#
#
# Mechanical properties :
#
#
# Convention : Reuss Voigt Hill
#
# Bulk Modulus (GPa) = 46.89423 86.92340 66.90881
# Shear Modulus (GPa) = 21.15033 39.84756 30.49895
#
# Velocity S-wave (km/s) = 2.96934 4.07571 3.56570
# Velocity P-wave (km/s) = 5.59508 7.64098 6.69662
#
# Compressibility (1/GPa) = 0.02132459
#
# Stress axis : x y z
#
# Youngs Moduli (GPa) = 26.52528 111.48678 69.59991
#
# Poissons Ratio (x) = 0.49113 0.94321
# Poissons Ratio (y) = 0.11685 0.13219
# Poissons Ratio (z) = 0.35947 0.21174
#
# Static dielectric constant tensor:
#      x y z
#    x 4.462490 0.181620 0.224140 
#    y 0.181620 4.171670 -0.249090 
#    z 0.224140 -0.249090 4.642210 
# 
# 
# High freq. dielectric constant tensor:
#      x y z
#    x 1.948800 0.016400 0.009050 
#    y 0.016400 1.939210 -0.014290 
#    z 0.009050 -0.014290 1.971370 
# 
# From -- ./inp_files/94245.got.cif
#   From: 2010.06.25/outbox.cif.g09.slc.cpg/sg2_48_cif.got.tgz:94245.got - 2010.06.27 13:26:56.
