data_PCOD8021098
_publ_section_title
;
Structure prediction by ZEFSAII (Michael W. Deem and Ramdas Pophale) SiO2 
 PCOD8021098
Probable space group: P -1
;
_chemical_formula_sum "Si O2"
_cell_formula_units_Z 16
_cell_length_a 8.873156
_cell_length_b 17.759728
_cell_length_c 12.587186
_cell_angle_alpha 49.186365
_cell_angle_beta 29.572333
_cell_angle_gamma 54.823344
_cell_volume 740.734319
_symmetry_space_group_name_H-M "P -1"
_symmetry_group_IT_number 2
_symmetry_cell_setting 'triclinic'
loop_
_space_group_symop_operation_xyz
x,y,z
-x,-y,-z
loop_
_atom_site_type_symbol
_atom_site_label
_atom_site_fract_x
_atom_site_fract_y
_atom_site_fract_z
Si Si1 0.722119 0.477577 0.480157
Si Si2 0.068909 0.786677 0.847437
Si Si3 0.371083 0.303304 0.952079
Si Si4 0.712942 0.654399 0.799097
Si Si5 0.770158 0.782618 0.439412
Si Si6 0.971314 0.333853 0.807029
Si Si7 0.766958 0.110592 0.837591
Si Si8 0.819511 0.990256 0.725382
O O1 0.500000 0.500000 0.500000
O O2 0.546583 0.406331 0.734504
O O3 0.042497 0.435455 0.276304
O O4 0.785326 0.579854 0.408072
O O5 0.428532 0.798489 0.592596
O O6 0.914873 0.894096 0.825209
O O7 0.000552 0.750594 0.041809
O O8 0.935073 0.704292 0.924952
O O9 0.599388 0.216968 0.852140
O O10 0.264723 0.292732 0.148531
O O11 0.783546 0.733845 0.592395
O O12 0.367860 0.616274 0.030463
O O13 0.966389 0.716895 0.297491
O O14 0.946563 0.887110 0.257231
O O15 0.875231 0.089460 0.669048
O O16 0.533661 0.020787 0.085269
O O17 0.000000 0.000000 0.500000
#
# Coordination Sequence:
#
# PCOD8021098 Si02
#       8
#     2   2   2   2   2   2   2   2
#     4  12  25  41  66 101 131 181 227 276 328 388
#     4  10  25  41  66 101 133 172 219 275 336 386
#     4  11  23  43  67  98 134 177 226 276 322 399
#     4  11  24  42  68  95 133 182 222 273 331 392
#     4  11  24  43  70  97 136 182 211 277 333 395
#     4  11  24  45  63  97 139 174 225 273 330 394
#     4  10  22  43  67  98 128 172 221 260 338 391
#     4  10  24  43  72 101 131 170 220 275 327 406
#
# _framework density 21.600185
#
# number of rings (size 3 to 8) (size 9 to 14) (size 15 to 20)
#    0.000    1.250    3.750    0.375    5.250    8.000 
#    0.000    1.250    0.000    0.000    0.000    0.000 
#    0.000    0.000    0.000    0.000    0.000    0.000 
#
# Total GULP energy -198344.433562 kJ/mol
# GULP energy per Si atom -12396.527098 kJ/mol
# Density = 2.155102 g / cm^3
# Si number density = 21.600185 Si / 1000 Ang^3
#
#
#
# Elastic Constant Matrix: (Units=GPa)
#
#
# Indices 1 2 3 4 5 6 
#
# 1 139.2029 46.8421 76.2638 3.9998 -9.9763 27.8784
# 2 46.8421 84.9016 48.1226 2.0945 5.4525 24.1276
# 3 76.2638 48.1226 109.8825 11.7517 -9.0736 14.9198
# 4 3.9998 2.0945 11.7517 31.6424 7.8629 -1.0537
# 5 -9.9763 5.4525 -9.0736 7.8629 54.3330 -2.6996
# 6 27.8784 24.1276 14.9198 -1.0537 -2.6996 41.6966
#
#
#
# Elastic Compliance Matrix: (Units=1/GPa)
#
#
# Indices 1 2 3 4 5 6 
#
# 1 0.012905 -0.001427 -0.007688 0.000943 0.000845 -0.004973
# 2 -0.001427 0.018781 -0.006750 0.002174 -0.003971 -0.007701
# 3 -0.007688 -0.006750 0.017934 -0.005962 0.003257 0.002689
# 4 0.000943 0.002174 -0.005962 0.035090 -0.006082 0.000738
# 5 0.000845 -0.003971 0.003257 -0.006082 0.020469 0.001739
# 6 -0.004973 -0.007701 0.002689 0.000738 0.001739 0.030933
#
#
# Mechanical properties :
#
#
# Convention : Reuss Voigt Hill
#
# Bulk Modulus (GPa) = 55.89218 75.16044 65.52631
# Shear Modulus (GPa) = 28.76789 36.38495 32.57642
#
# Velocity S-wave (km/s) = 3.65339 4.10869 3.88771
# Velocity P-wave (km/s) = 6.61274 7.57497 7.11015
#
# Compressibility (1/GPa) = 0.01789159
#
# Stress axis : x y z
#
# Youngs Moduli (GPa) = 77.48793 53.24498 55.76095
#
# Poissons Ratio (x) = 0.07597 0.42867
# Poissons Ratio (y) = 0.11056 0.37637
# Poissons Ratio (z) = 0.59570 0.35939
#
# Static dielectric constant tensor:
#      x y z
#    x 4.253550 0.190070 -0.490490 
#    y 0.190070 3.950920 -0.202240 
#    z -0.490490 -0.202240 4.523850 
# 
# 
# High freq. dielectric constant tensor:
#      x y z
#    x 1.860790 0.015680 -0.018050 
#    y 0.015680 1.832140 0.010050 
#    z -0.018050 0.010050 1.859020 
# 
# From -- ./inp_files/38485.got.cif
#   From: 2010.06.25/outbox.cif.g09.slc.cpg/sg2_20_cif.got.tgz:38485.got - 2010.06.27 13:26:56.
