data_PCOD8021225
_publ_section_title
;
Structure prediction by ZEFSAII (Michael W. Deem and Ramdas Pophale) SiO2 
 PCOD8021225
Probable space group: P -1
;
_chemical_formula_sum "Si O2"
_cell_formula_units_Z 16
_cell_length_a 18.164969
_cell_length_b 5.143333
_cell_length_c 10.615704
_cell_angle_alpha 65.723348
_cell_angle_beta 51.488507
_cell_angle_gamma 56.674962
_cell_volume 644.835188
_symmetry_space_group_name_H-M "P -1"
_symmetry_group_IT_number 2
_symmetry_cell_setting 'triclinic'
loop_
_space_group_symop_operation_xyz
x,y,z
-x,-y,-z
loop_
_atom_site_type_symbol
_atom_site_label
_atom_site_fract_x
_atom_site_fract_y
_atom_site_fract_z
Si Si1 0.844831 0.485275 0.507606
Si Si2 0.222330 0.867663 0.660451
Si Si3 0.340315 0.645480 0.344941
Si Si4 0.755021 0.777421 0.803712
Si Si5 0.005636 0.978025 0.850347
Si Si6 0.940739 0.688995 0.766793
Si Si7 0.532552 0.068118 0.314720
Si Si8 0.335539 0.551923 0.844711
O O1 0.769538 0.319278 0.596529
O O2 0.828080 0.611088 0.642213
O O3 0.965829 0.250099 0.411015
O O4 0.816215 0.759041 0.377783
O O5 0.326536 0.710420 0.497040
O O6 0.127492 0.795323 0.721398
O O7 0.246974 0.738351 0.801488
O O8 0.435267 0.313593 0.290607
O O9 0.348011 0.928675 0.198510
O O10 0.826022 0.893309 0.795228
O O11 0.715879 0.546865 0.964435
O O12 0.943518 0.790612 0.890479
O O13 0.957496 0.336545 0.786556
O O14 0.000000 0.000000 0.000000
O O15 0.616968 0.211403 0.204737
O O16 0.500000 0.000000 0.500000
O O17 0.575221 0.751823 0.252191
#
# Coordination Sequence:
#
# PCOD8021225 Si02
#       8
#     2   2   2   2   2   2   2   2
#     4  10  23  45  72 103 144 198 245 288 348 434
#     4  10  22  43  69 102 136 187 238 302 352 422
#     4  11  24  45  73  98 143 187 247 292 357 431
#     4  11  28  44  70 109 150 193 233 300 364 426
#     4  11  23  40  67 104 145 187 236 298 357 417
#     4  11  24  44  69 103 145 195 244 283 350 434
#     4  12  27  48  78 106 137 187 244 302 363 433
#     4  12  28  46  74 109 144 179 242 305 368 424
#
# _framework density 24.812541
#
# number of rings (size 3 to 8) (size 9 to 14) (size 15 to 20)
#    0.000    1.000    2.500    2.625    7.000    2.500 
#    0.000    0.000    0.000    0.000    0.000    0.000 
#    0.000    0.000    0.000    0.000    0.000    0.000 
#
# Total GULP energy -198322.125167 kJ/mol
# GULP energy per Si atom -12395.132823 kJ/mol
# Density = 2.475607 g / cm^3
# Si number density = 24.812541 Si / 1000 Ang^3
#
#
#
# Elastic Constant Matrix: (Units=GPa)
#
#
# Indices 1 2 3 4 5 6 
#
# 1 74.7867 9.8429 32.2546 -10.5563 -3.8678 -4.6472
# 2 9.8429 78.1029 27.9082 -7.6528 10.9893 -15.1371
# 3 32.2546 27.9082 97.7505 -23.0716 12.4937 -19.3251
# 4 -10.5563 -7.6528 -23.0716 37.2729 -1.0522 8.8694
# 5 -3.8678 10.9893 12.4937 -1.0522 36.8589 -2.9866
# 6 -4.6472 -15.1371 -19.3251 8.8694 -2.9866 40.5060
#
#
#
# Elastic Compliance Matrix: (Units=1/GPa)
#
#
# Indices 1 2 3 4 5 6 
#
# 1 0.016151 -0.000661 -0.005493 0.001392 0.003709 -0.001046
# 2 -0.000661 0.015155 -0.002883 0.000108 -0.003288 0.003946
# 3 -0.005493 -0.002883 0.015792 0.006533 -0.004554 0.004061
# 4 0.001392 0.000108 0.006533 0.032160 -0.001493 -0.003835
# 5 0.003709 -0.003288 -0.004554 -0.001493 0.029965 -0.000440
# 6 -0.001046 0.003946 0.004061 -0.003835 -0.000440 0.028787
#
#
# Mechanical properties :
#
#
# Convention : Reuss Voigt Hill
#
# Bulk Modulus (GPa) = 34.45284 43.40573 38.92929
# Shear Modulus (GPa) = 30.16443 34.96988 32.56716
#
# Velocity S-wave (km/s) = 3.49046 3.75822 3.62681
# Velocity P-wave (km/s) = 5.49180 6.03024 5.76730
#
# Compressibility (1/GPa) = 0.02902518
#
# Stress axis : x y z
#
# Youngs Moduli (GPa) = 61.91735 65.98477 63.32134
#
# Poissons Ratio (x) = 0.04360 0.34781
# Poissons Ratio (y) = 0.04091 0.18255
# Poissons Ratio (z) = 0.34009 0.19023
#
# Static dielectric constant tensor:
#      x y z
#    x 4.416700 0.014880 -0.020410 
#    y 0.014880 4.697430 -0.056320 
#    z -0.020410 -0.056320 4.589580 
# 
# 
# High freq. dielectric constant tensor:
#      x y z
#    x 1.986420 -0.005030 0.005460 
#    y -0.005030 1.993720 -0.008580 
#    z 0.005460 -0.008580 1.982810 
# 
# From -- ./inp_files/55626.got.cif
#   From: 2010.06.25/outbox.cif.g09.slc.cpg/sg2_28_cif.got.tgz:55626.got - 2010.06.27 13:26:56.
