data_PCOD8021576
_publ_section_title
;
Structure prediction by ZEFSAII (Michael W. Deem and Ramdas Pophale) SiO2 
 PCOD8021576
Probable space group: P -1
;
_chemical_formula_sum "Si O2"
_cell_formula_units_Z 16
_cell_length_a 16.698111
_cell_length_b 11.636604
_cell_length_c 8.677264
_cell_angle_alpha 99.261671
_cell_angle_beta 50.819494
_cell_angle_gamma 138.850740
_cell_volume 676.724927
_symmetry_space_group_name_H-M "P -1"
_symmetry_group_IT_number 2
_symmetry_cell_setting 'triclinic'
loop_
_space_group_symop_operation_xyz
x,y,z
-x,-y,-z
loop_
_atom_site_type_symbol
_atom_site_label
_atom_site_fract_x
_atom_site_fract_y
_atom_site_fract_z
Si Si1 0.399621 0.134252 0.010297
Si Si2 0.953478 0.329453 0.749869
Si Si3 0.210527 0.515984 0.218314
Si Si4 0.089899 0.475657 0.022490
Si Si5 0.789474 0.984017 0.281687
Si Si6 0.046523 0.170547 0.750133
Si Si7 0.910101 0.024344 0.477511
Si Si8 0.399623 0.634252 0.510296
O O1 0.558305 0.272833 0.982174
O O2 0.499999 0.249999 0.750000
O O3 0.264852 0.888497 0.108354
O O4 0.254239 0.102506 0.222212
O O5 0.962453 0.436170 0.896894
O O6 0.111756 0.508490 0.462169
O O7 0.999999 0.249999 0.750004
O O8 0.186415 0.546391 0.087148
O O9 0.106633 0.289998 0.312519
O O10 0.893367 0.210002 0.187481
O O11 0.254241 0.602506 0.722213
O O12 0.813581 0.953608 0.412860
O O13 0.558307 0.772833 0.482171
O O14 0.888249 0.991513 0.037831
O O15 0.264856 0.388499 0.608349
O O16 0.037546 0.063829 0.603110
#
# Coordination Sequence:
#
# PCOD8021576 Si02
#       8
#     2   2   2   2   2   2   2   2
#     4  11  23  41  62  96 127 160 211 255 309 375
#     4  11  23  42  62  95 127 163 210 254 308 371
#     4  10  22  44  64  94 125 159 213 255 313 370
#     4  10  24  41  68  90 126 167 202 261 312 363
#     4  10  22  44  64  94 125 159 213 255 313 370
#     4  11  23  42  62  95 127 163 210 254 308 371
#     4  10  24  41  68  90 126 167 202 261 312 363
#     4  11  23  41  62  96 127 160 211 255 309 375
#
# _framework density 23.643284999999999
#
# number of rings (size 3 to 8) (size 9 to 14) (size 15 to 20)
#    0.000    1.500    2.500    1.500    0.000    8.000 
#    0.000    0.000    0.000    0.000    0.000    0.000 
#    0.000    0.000    0.000    0.000    0.000    0.000 
#
# Total GULP energy -198398.524465 kJ/mol
# GULP energy per Si atom -12399.907779 kJ/mol
# Density = 2.358947 g / cm^3
# Si number density = 23.643285 Si / 1000 Ang^3
#
#
#
# Elastic Constant Matrix: (Units=GPa)
#
#
# Indices 1 2 3 4 5 6 
#
# 1 38.4870 18.2278 15.9074 -0.5013 -12.4584 2.7077
# 2 18.2278 141.9941 50.4067 22.8894 -30.0248 0.4157
# 3 15.9074 50.4067 132.7309 22.7852 -11.1096 -10.8364
# 4 -0.5013 22.8894 22.7852 52.4998 12.8733 -14.0436
# 5 -12.4584 -30.0248 -11.1096 12.8733 36.4527 -2.6668
# 6 2.7077 0.4157 -10.8364 -14.0436 -2.6668 46.5801
#
#
#
# Elastic Compliance Matrix: (Units=1/GPa)
#
#
# Indices 1 2 3 4 5 6 
#
# 1 0.030560 -0.000924 -0.002552 -0.001003 0.009103 -0.002143
# 2 -0.000924 0.011415 -0.002255 -0.007224 0.010794 -0.002133
# 3 -0.002552 -0.002255 0.009461 -0.003072 0.001350 0.001521
# 4 -0.001003 -0.007224 -0.003072 0.029708 -0.017181 0.007381
# 5 0.009103 0.010794 0.001350 -0.017181 0.045703 -0.002875
# 6 -0.002143 -0.002133 0.001521 0.007381 -0.002875 0.024027
#
#
# Mechanical properties :
#
#
# Convention : Reuss Voigt Hill
#
# Bulk Modulus (GPa) = 25.01722 53.58844 39.30283
# Shear Modulus (GPa) = 28.46407 42.35119 35.40763
#
# Velocity S-wave (km/s) = 3.47349 4.23692 3.87405
# Velocity P-wave (km/s) = 5.16632 6.83007 6.05561
#
# Compressibility (1/GPa) = 0.03997247
#
# Stress axis : x y z
#
# Youngs Moduli (GPa) = 32.72279 87.60525 105.70157
#
# Poissons Ratio (x) = 0.08097 0.26980
# Poissons Ratio (y) = 0.03024 0.23832
# Poissons Ratio (z) = 0.08352 0.19752
#
# Static dielectric constant tensor:
#      x y z
#    x 4.239290 0.461800 -0.106190 
#    y 0.461800 4.938640 0.216770 
#    z -0.106190 0.216770 4.586570 
# 
# 
# High freq. dielectric constant tensor:
#      x y z
#    x 1.931950 0.033510 0.003070 
#    y 0.033510 1.949340 0.016640 
#    z 0.003070 0.016640 1.942470 
# 
# From -- ./inp_files/333367.got.cif
#   From: 2010.06.25/outbox.cif.g09.slc.cpg/sg2_167_cif.got.tgz:333367.got - 2010.06.27 13:26:56.
