data_PCOD8021677
_publ_section_title
;
Structure prediction by ZEFSAII (Michael W. Deem and Ramdas Pophale) SiO2 
 PCOD8021677
Probable space group: P -1
;
_chemical_formula_sum "Si O2"
_cell_formula_units_Z 16
_cell_length_a 29.085685
_cell_length_b 9.902047
_cell_length_c 9.153151
_cell_angle_alpha 43.304808
_cell_angle_beta 135.308230
_cell_angle_gamma 153.106648
_cell_volume 801.423055
_symmetry_space_group_name_H-M "P -1"
_symmetry_group_IT_number 2
_symmetry_cell_setting 'triclinic'
loop_
_space_group_symop_operation_xyz
x,y,z
-x,-y,-z
loop_
_atom_site_type_symbol
_atom_site_label
_atom_site_fract_x
_atom_site_fract_y
_atom_site_fract_z
Si Si1 0.523851 0.102139 0.139380
Si Si2 0.219256 0.814198 0.997581
Si Si3 0.042414 0.112101 0.172476
Si Si4 0.563208 0.498157 0.547225
Si Si5 0.967484 0.347701 0.393050
Si Si6 0.413590 0.219606 0.916096
Si Si7 0.289877 0.242124 0.064354
Si Si8 0.929342 0.208369 0.965570
O O1 0.507249 0.856289 0.378473
O O2 0.443607 0.070277 0.051671
O O3 0.641724 0.459685 0.124759
O O4 0.500000 0.000000 0.000000
O O5 0.139826 0.803198 0.783083
O O6 0.302558 0.966107 0.941131
O O7 0.158943 0.468572 0.153105
O O8 0.274027 0.001988 0.126996
O O9 0.045458 0.916339 0.422100
O O10 0.970647 0.087055 0.124925
O O11 0.000000 0.000000 0.000000
O O12 0.500000 0.500000 0.500000
O O13 0.598476 0.673724 0.337467
O O14 0.660489 0.671267 0.732195
O O15 0.000000 0.500000 0.500000
O O16 0.066388 0.647496 0.283715
O O17 0.500000 0.500000 0.000000
O O18 0.180962 0.086703 0.977261
O O19 0.000000 0.500000 0.000000
#
# Coordination Sequence:
#
# PCOD8021677 Si02
#       8
#     2   2   2   2   2   2   2   2
#     4  10  22  44  66  95 134 167 223 267 321 390
#     4  11  24  44  66  95 138 171 217 276 324 385
#     4  11  23  43  69  94 135 173 216 272 328 388
#     4  11  23  44  68  93 134 175 216 270 328 386
#     4  11  23  45  65  95 136 170 216 271 327 388
#     4  12  24  44  69  99 135 171 219 272 328 388
#     4  11  22  46  65  96 136 171 217 275 322 388
#     4  11  23  44  66  96 135 169 220 275 320 388
#
# _framework density 19.964487999999999
#
# number of rings (size 3 to 8) (size 9 to 14) (size 15 to 20)
#    0.000    1.000    8.750    0.000    1.750    4.000 
#    6.750    0.000    0.000    0.000    0.000    0.000 
#    0.000    0.000    0.000    0.000    0.000    0.000 
#
# Total GULP energy -198294.517597 kJ/mol
# GULP energy per Si atom -12393.407350 kJ/mol
# Density = 1.991905 g / cm^3
# Si number density = 19.964488 Si / 1000 Ang^3
#
#
#
# Elastic Constant Matrix: (Units=GPa)
#
#
# Indices 1 2 3 4 5 6 
#
# 1 152.4116 56.3203 42.0225 -18.0469 5.4194 11.1546
# 2 56.3203 125.2651 38.4945 -19.2269 5.7429 3.8757
# 3 42.0225 38.4945 98.9147 -27.3135 8.3847 -1.3104
# 4 -18.0469 -19.2269 -27.3135 39.8254 -9.0682 -4.3265
# 5 5.4194 5.7429 8.3847 -9.0682 36.9603 -1.3632
# 6 11.1546 3.8757 -1.3104 -4.3265 -1.3632 50.1001
#
#
#
# Elastic Compliance Matrix: (Units=1/GPa)
#
#
# Indices 1 2 3 4 5 6 
#
# 1 0.008488 -0.002957 -0.002289 0.000628 -0.000173 -0.001671
# 2 -0.002957 0.010308 -0.002157 0.002119 -0.000159 -0.000017
# 3 -0.002289 -0.002157 0.014105 0.007644 -0.000591 0.001690
# 4 0.000628 0.002119 0.007644 0.033378 0.006143 0.002946
# 5 -0.000173 -0.000159 -0.000591 0.006143 0.028797 0.001350
# 6 -0.001671 -0.000017 0.001690 0.002946 0.001350 0.020669
#
#
# Mechanical properties :
#
#
# Convention : Reuss Voigt Hill
#
# Bulk Modulus (GPa) = 55.26433 72.25177 63.75805
# Shear Modulus (GPa) = 36.60768 41.36078 38.98423
#
# Velocity S-wave (km/s) = 4.28675 4.55655 4.42371
# Velocity P-wave (km/s) = 7.22793 7.99697 7.62216
#
# Compressibility (1/GPa) = 0.01809485
#
# Stress axis : x y z
#
# Youngs Moduli (GPa) = 117.81647 97.00802 70.89679
#
# Poissons Ratio (x) = 0.28682 0.16231
# Poissons Ratio (y) = 0.34834 0.15293
# Poissons Ratio (z) = 0.26973 0.20926
#
# Static dielectric constant tensor:
#      x y z
#    x 4.149120 -0.545630 -1.101030 
#    y -0.545630 4.373210 0.590190 
#    z -1.101030 0.590190 6.325580 
# 
# 
# High freq. dielectric constant tensor:
#      x y z
#    x 1.797220 -0.008160 -0.009170 
#    y -0.008160 1.790400 -0.007960 
#    z -0.009170 -0.007960 1.765660 
# 
# From -- ./inp_files/215202.got.cif
#   From: 2010.06.25/outbox.cif.g09.slc.cpg/sg2_108_cif.got.tgz:215202.got - 2010.06.27 13:26:56.
