data_PCOD8021106
_publ_section_title
;
Structure prediction by ZEFSAII (Michael W. Deem and Ramdas Pophale) SiO2 
 PCOD8021106
Probable space group: P -1
;
_chemical_formula_sum "Si O2"
_cell_formula_units_Z 14
_cell_length_a 9.465149
_cell_length_b 11.533269
_cell_length_c 7.848477
_cell_angle_alpha 70.490784
_cell_angle_beta 69.957395
_cell_angle_gamma 51.561005
_cell_volume 621.874753
_symmetry_space_group_name_H-M "P -1"
_symmetry_group_IT_number 2
_symmetry_cell_setting 'triclinic'
loop_
_space_group_symop_operation_xyz
x,y,z
-x,-y,-z
loop_
_atom_site_type_symbol
_atom_site_label
_atom_site_fract_x
_atom_site_fract_y
_atom_site_fract_z
Si Si1 0.492585 0.838139 0.904133
Si Si2 0.009734 0.374887 0.844116
Si Si3 0.152421 0.304340 0.338652
Si Si4 0.659553 0.190585 0.342381
Si Si5 0.588326 0.699950 0.278417
Si Si6 0.820529 0.375684 0.256035
Si Si7 0.794875 0.890435 0.298277
O O1 0.705010 0.778383 0.834677
O O2 0.458173 0.749615 0.814433
O O3 0.363570 0.016391 0.826605
O O4 0.456594 0.803656 0.125041
O O5 0.223500 0.312008 0.796845
O O6 0.015175 0.238174 0.813685
O O7 0.902833 0.526054 0.700481
O O8 0.910442 0.411946 0.047428
O O9 0.251883 0.205538 0.515269
O O10 0.972416 0.305574 0.376697
O O11 0.526764 0.228619 0.537396
O O12 0.775408 0.259284 0.279977
O O13 0.807170 0.008537 0.350068
O O14 0.637253 0.532427 0.314849
#
# Coordination Sequence:
#
# PCOD8021106 Si02
#       7
#     2   2   2   2   2   2   2
#     4  10  22  43  67  99 131 174 223 268 332 390
#     4  11  22  41  72  97 132 172 227 278 322 393
#     4  11  20  43  69  96 130 173 229 275 321 389
#     4  10  26  43  64 102 139 173 217 272 336 402
#     4  11  21  44  71  98 130 180 225 269 331 390
#     4  11  23  44  66  99 136 172 223 275 332 394
#     4  10  25  40  63 103 136 173 220 270 340 389
#
# _framework density 22.512571999999999
#
# number of rings (size 3 to 8) (size 9 to 14) (size 15 to 20)
#    0.857    0.571    2.857    3.000    2.000    4.571 
#    2.571    0.000    0.000    0.000    0.000    0.000 
#    0.000    0.000    0.000    0.000    0.000    0.000 
#
# Total GULP energy -173448.687632 kJ/mol
# GULP energy per Si atom -12389.191974 kJ/mol
# Density = 2.246133 g / cm^3
# Si number density = 22.512572 Si / 1000 Ang^3
#
#
#
# Elastic Constant Matrix: (Units=GPa)
#
#
# Indices 1 2 3 4 5 6 
#
# 1 63.0751 30.5061 36.3717 -13.4769 2.1419 2.3817
# 2 30.5061 141.0521 24.2522 -22.6264 9.4852 9.6219
# 3 36.3717 24.2522 88.9523 -6.5737 11.8544 4.7574
# 4 -13.4769 -22.6264 -6.5737 37.2703 -0.0714 9.3235
# 5 2.1419 9.4852 11.8544 -0.0714 21.9633 1.6965
# 6 2.3817 9.6219 4.7574 9.3235 1.6965 21.1065
#
#
#
# Elastic Compliance Matrix: (Units=1/GPa)
#
#
# Indices 1 2 3 4 5 6 
#
# 1 0.023456 -0.002717 -0.008803 0.005868 0.003836 -0.002324
# 2 -0.002717 0.009371 -0.000217 0.006272 -0.003148 -0.006434
# 3 -0.008803 -0.000217 0.016004 -0.000032 -0.007540 -0.001895
# 4 0.005868 0.006272 -0.000032 0.037773 -0.001590 -0.020072
# 5 0.003836 -0.003148 -0.007540 -0.001590 0.050632 -0.000666
# 6 -0.002324 -0.006434 -0.001895 -0.020072 -0.000666 0.059921
#
#
# Mechanical properties :
#
#
# Convention : Reuss Voigt Hill
#
# Bulk Modulus (GPa) = 39.43747 52.81551 46.12649
# Shear Modulus (GPa) = 21.82602 29.53132 25.67867
#
# Velocity S-wave (km/s) = 3.11706 3.62577 3.38100
# Velocity P-wave (km/s) = 5.52366 6.40622 5.98124
#
# Compressibility (1/GPa) = 0.02535659
#
# Stress axis : x y z
#
# Youngs Moduli (GPa) = 42.63294 106.70981 62.48280
#
# Poissons Ratio (x) = 0.28998 0.55006
# Poissons Ratio (y) = 0.11585 0.01354
# Poissons Ratio (z) = 0.37531 0.02313
#
# Static dielectric constant tensor:
#      x y z
#    x 3.624070 0.000970 0.227410 
#    y 0.000970 4.429500 0.146090 
#    z 0.227410 0.146090 3.974560 
# 
# 
# High freq. dielectric constant tensor:
#      x y z
#    x 1.846590 0.000270 0.021470 
#    y 0.000270 1.907540 0.005610 
#    z 0.021470 0.005610 1.886540 
# 
# From -- ./inp_files/256688.got.cif
#   From: 2010.06.25/outbox.cif.g09.slc.cpg/sg2_129_cif.got.tgz:256688.got - 2010.06.27 13:26:56.
