data_PCOD8021145
_publ_section_title
;
Structure prediction by ZEFSAII (Michael W. Deem and Ramdas Pophale) SiO2 
 PCOD8021145
Probable space group: P -1
;
_chemical_formula_sum "Si O2"
_cell_formula_units_Z 14
_cell_length_a 8.080315
_cell_length_b 11.496847
_cell_length_c 8.446328
_cell_angle_alpha 82.603173
_cell_angle_beta 62.735647
_cell_angle_gamma 66.837885
_cell_volume 639.984360
_symmetry_space_group_name_H-M "P -1"
_symmetry_group_IT_number 2
_symmetry_cell_setting 'triclinic'
loop_
_space_group_symop_operation_xyz
x,y,z
-x,-y,-z
loop_
_atom_site_type_symbol
_atom_site_label
_atom_site_fract_x
_atom_site_fract_y
_atom_site_fract_z
Si Si1 0.000091 0.539798 0.671950
Si Si2 0.963029 0.016692 0.699784
Si Si3 0.743590 0.677615 0.191981
Si Si4 0.678302 0.937634 0.313640
Si Si5 0.584023 0.604661 0.978827
Si Si6 0.569496 0.124981 0.038882
Si Si7 0.106571 0.217049 0.159661
O O1 0.189560 0.439459 0.696663
O O2 0.000000 0.500000 0.500000
O O3 0.810940 0.530377 0.842827
O O4 0.983995 0.685797 0.670201
O O5 0.107452 0.081449 0.698083
O O6 0.014144 0.875888 0.777590
O O7 0.729864 0.098800 0.828761
O O8 0.000000 0.000000 0.500000
O O9 0.655943 0.805776 0.308899
O O10 0.578667 0.653870 0.154491
O O11 0.919798 0.695633 0.001289
O O12 0.500000 0.000000 0.500000
O O13 0.660301 0.021857 0.152169
O O14 0.470125 0.732529 0.903838
O O15 0.500000 0.500000 0.000000
O O16 0.349004 0.128982 0.080398
#
# Coordination Sequence:
#
# PCOD8021145 Si02
#       7
#     2   2   2   2   2   2   2
#     4  10  23  41  66  97 129 171 218 269 328 390
#     4  12  26  39  67  98 128 178 221 273 327 395
#     4  10  23  43  69  90 134 173 217 263 336 386
#     4  12  27  41  67  97 135 174 220 275 332 391
#     4  10  24  42  70  93 128 174 214 273 327 393
#     4  10  23  44  65  96 136 167 221 272 337 385
#     4  10  22  43  68  92 135 175 214 275 328 394
#
# _framework density 21.875536
#
# number of rings (size 3 to 8) (size 9 to 14) (size 15 to 20)
#    0.000    1.714    1.429    3.429   14.000    1.143 
#    0.000    0.714    0.000    0.000    0.000    0.000 
#    0.000    0.000    0.000    0.000    0.000    0.000 
#
# Total GULP energy -173437.725140 kJ/mol
# GULP energy per Si atom -12388.408939 kJ/mol
# Density = 2.182575 g / cm^3
# Si number density = 21.875536 Si / 1000 Ang^3
#
#
#
# Elastic Constant Matrix: (Units=GPa)
#
#
# Indices 1 2 3 4 5 6 
#
# 1 100.4842 62.5127 31.0204 8.7573 10.0098 22.0121
# 2 62.5127 97.8012 27.3580 14.3117 1.3027 10.0861
# 3 31.0204 27.3580 103.6378 21.6494 12.6996 -4.1237
# 4 8.7573 14.3117 21.6494 40.0082 2.8036 6.2263
# 5 10.0098 1.3027 12.6996 2.8036 31.3394 -3.0240
# 6 22.0121 10.0861 -4.1237 6.2263 -3.0240 50.0844
#
#
#
# Elastic Compliance Matrix: (Units=1/GPa)
#
#
# Indices 1 2 3 4 5 6 
#
# 1 0.020026 -0.011503 -0.003197 0.003016 -0.005612 -0.007462
# 2 -0.011503 0.018159 -0.000885 -0.004090 0.003843 0.002066
# 3 -0.003197 -0.000885 0.012632 -0.006090 -0.003209 0.003186
# 4 0.003016 -0.004090 -0.006090 0.029946 -0.001469 -0.004815
# 5 -0.005612 0.003843 -0.003209 -0.001469 0.035335 0.003745
# 6 -0.007462 0.002066 0.003186 -0.004815 0.003745 0.023917
#
#
# Mechanical properties :
#
#
# Convention : Reuss Voigt Hill
#
# Bulk Modulus (GPa) = 50.89731 60.41172 55.65452
# Shear Modulus (GPa) = 28.13250 36.35521 32.24386
#
# Velocity S-wave (km/s) = 3.59001 4.08108 3.84340
# Velocity P-wave (km/s) = 6.36408 7.06279 6.72252
#
# Compressibility (1/GPa) = 0.01964740
#
# Stress axis : x y z
#
# Youngs Moduli (GPa) = 49.93630 55.06924 79.16706
#
# Poissons Ratio (x) = 0.63345 0.25307
# Poissons Ratio (y) = 0.57441 0.07006
# Poissons Ratio (z) = 0.15963 0.04873
#
# Static dielectric constant tensor:
#      x y z
#    x 3.802610 0.389160 0.358680 
#    y 0.389160 4.701980 0.585920 
#    z 0.358680 0.585920 4.455940 
# 
# 
# High freq. dielectric constant tensor:
#      x y z
#    x 1.838670 0.012070 0.011190 
#    y 0.012070 1.881900 0.013230 
#    z 0.011190 0.013230 1.850510 
# 
# From -- ./inp_files/186493.got.cif
#   From: 2010.06.25/outbox.cif.g09.slc.cpg/sg2_94_cif.got.tgz:186493.got - 2010.06.27 13:26:56.
