data_PCOD8021340
_publ_section_title
;
Structure prediction by ZEFSAII (Michael W. Deem and Ramdas Pophale) SiO2 
 PCOD8021340
Probable space group: P -1
;
_chemical_formula_sum "Si O2"
_cell_formula_units_Z 12
_cell_length_a 17.206487
_cell_length_b 4.913624
_cell_length_c 21.881774
_cell_angle_alpha 79.734126
_cell_angle_beta 162.459370
_cell_angle_gamma 102.609040
_cell_volume 541.291068
_symmetry_space_group_name_H-M "P -1"
_symmetry_group_IT_number 2
_symmetry_cell_setting 'triclinic'
loop_
_space_group_symop_operation_xyz
x,y,z
-x,-y,-z
loop_
_atom_site_type_symbol
_atom_site_label
_atom_site_fract_x
_atom_site_fract_y
_atom_site_fract_z
Si Si1 0.724416 0.947205 0.827892
Si Si2 0.392357 0.408231 0.584275
Si Si3 0.823958 0.320345 0.135618
Si Si4 0.083763 0.793386 0.521134
Si Si5 0.453918 0.395140 0.184491
Si Si6 0.269098 0.255961 0.856420
O O1 0.616053 0.234002 0.740612
O O2 0.512226 0.724717 0.640054
O O3 0.756660 0.816862 0.925382
O O4 0.000000 0.000000 0.000000
O O5 0.353431 0.412990 0.629818
O O6 0.124234 0.273747 0.354477
O O7 0.865821 0.603463 0.195666
O O8 0.685488 0.387203 0.966948
O O9 0.650892 0.039716 0.047587
O O10 0.389286 0.796395 0.733460
O O11 0.000000 0.500000 0.500000
O O12 0.932948 0.836957 0.344713
O O13 0.000000 0.000000 0.500000
O O14 0.500000 0.500000 0.000000
#
# Coordination Sequence:
#
# PCOD8021340 Si02
#       6
#     2   2   2   2   2   2
#     4  10  22  44  73 101 139 177 225 283 352 413
#     4  10  22  43  70  96 139 174 227 279 348 402
#     4  12  24  44  69  97 136 181 233 281 349 409
#     4  12  26  44  68  97 137 183 234 281 338 409
#     4  10  26  41  73  98 135 184 231 277 350 404
#     4  12  26  45  63  98 139 180 235 297 338 401
#
# _framework density 22.169217
#
# number of rings (size 3 to 8) (size 9 to 14) (size 15 to 20)
#    1.000    0.000    1.667    5.000    4.667    2.667 
#    0.000    1.667    0.000    0.000    0.000    0.000 
#    0.000    0.000    0.000    0.000    0.000    0.000 
#
# Total GULP energy -148660.208247 kJ/mol
# GULP energy per Si atom -12388.350687 kJ/mol
# Density = 2.211876 g / cm^3
# Si number density = 22.169217 Si / 1000 Ang^3
#
#
#
# Elastic Constant Matrix: (Units=GPa)
#
#
# Indices 1 2 3 4 5 6 
#
# 1 108.9338 42.1607 61.2219 -12.6655 14.1384 15.2016
# 2 42.1607 134.6565 30.5694 -9.3829 2.1518 -1.6389
# 3 61.2219 30.5694 120.5922 -9.2000 3.3975 7.5070
# 4 -12.6655 -9.3829 -9.2000 36.9117 3.0489 6.1742
# 5 14.1384 2.1518 3.3975 3.0489 37.1828 -5.7641
# 6 15.2016 -1.6389 7.5070 6.1742 -5.7641 36.0171
#
#
#
# Elastic Compliance Matrix: (Units=1/GPa)
#
#
# Indices 1 2 3 4 5 6 
#
# 1 0.016866 -0.003399 -0.006604 0.005209 -0.007273 -0.007954
# 2 -0.003399 0.008664 -0.000596 0.000450 0.001127 0.002056
# 3 -0.006604 -0.000596 0.011744 0.000299 0.001526 0.000505
# 4 0.005209 0.000450 0.000299 0.030975 -0.005890 -0.008493
# 5 -0.007273 0.001127 0.001526 -0.005890 0.031306 0.008823
# 6 -0.007954 0.002056 0.000505 -0.008493 0.008823 0.033978
#
#
# Mechanical properties :
#
#
# Convention : Reuss Voigt Hill
#
# Bulk Modulus (GPa) = 62.19964 70.23184 66.21574
# Shear Modulus (GPa) = 31.23232 37.37102 34.30167
#
# Velocity S-wave (km/s) = 3.75749 4.11020 3.93780
# Velocity P-wave (km/s) = 6.85147 7.36707 7.11394
#
# Compressibility (1/GPa) = 0.01607726
#
# Stress axis : x y z
#
# Youngs Moduli (GPa) = 59.28976 115.41574 85.14737
#
# Poissons Ratio (x) = 0.39234 0.56227
# Poissons Ratio (y) = 0.20155 0.05075
# Poissons Ratio (z) = 0.39152 0.06879
#
# Static dielectric constant tensor:
#      x y z
#    x 3.889730 0.042550 -0.065180 
#    y 0.042550 4.264310 -0.117900 
#    z -0.065180 -0.117900 3.824080 
# 
# 
# High freq. dielectric constant tensor:
#      x y z
#    x 1.848280 0.002580 0.000440 
#    y 0.002580 1.898150 -0.009170 
#    z 0.000440 -0.009170 1.857230 
# 
# From -- ./inp_files/91452.got.cif
#   From: 2010.06.25/outbox.cif.g09.slc.cpg/sg2_46_cif.got.tgz:91452.got - 2010.06.27 13:26:56.
