data_PCOD8021217
_publ_section_title
;
Structure prediction by ZEFSAII (Michael W. Deem and Ramdas Pophale) SiO2 
 PCOD8021217
Probable space group: P -1
;
_chemical_formula_sum "Si O2"
_cell_formula_units_Z 16
_cell_length_a 11.436527
_cell_length_b 20.545323
_cell_length_c 8.175354
_cell_angle_alpha 116.118250
_cell_angle_beta 62.079207
_cell_angle_gamma 156.381926
_cell_volume 679.676407
_symmetry_space_group_name_H-M "P -1"
_symmetry_group_IT_number 2
_symmetry_cell_setting 'triclinic'
loop_
_space_group_symop_operation_xyz
x,y,z
-x,-y,-z
loop_
_atom_site_type_symbol
_atom_site_label
_atom_site_fract_x
_atom_site_fract_y
_atom_site_fract_z
Si Si1 0.724810 0.310348 0.150590
Si Si2 0.620441 0.343518 0.934978
Si Si3 0.456377 0.056432 0.239316
Si Si4 0.761562 0.831237 0.555283
Si Si5 0.722075 0.076706 0.306223
Si Si6 0.281639 0.061508 0.672318
Si Si7 0.635072 0.630027 0.844124
Si Si8 0.795657 0.706798 0.201563
O O1 0.606294 0.171424 0.115407
O O2 0.548477 0.281255 0.343481
O O3 0.071169 0.482826 0.160609
O O4 0.678669 0.309134 0.991202
O O5 0.413401 0.205929 0.778811
O O6 0.471548 0.342110 0.110294
O O7 0.655565 0.083454 0.184741
O O8 0.435572 0.100946 0.455885
O O9 0.143764 0.870385 0.185742
O O10 0.675727 0.719144 0.383681
O O11 0.000000 0.000000 0.500000
O O12 0.926281 0.892410 0.686368
O O13 0.074263 0.257610 0.318914
O O14 0.500000 0.000000 0.500000
O O15 0.668317 0.963427 0.225000
O O16 0.367434 0.443107 0.781375
O O17 0.724956 0.680150 0.029260
#
# Coordination Sequence:
#
# PCOD8021217 Si02
#       8
#     2   2   2   2   2   2   2   2
#     4  11  25  43  67 102 137 179 223 278 340 395
#     4  11  27  44  65 103 141 175 224 282 339 395
#     4  10  23  44  69  99 132 179 228 275 332 405
#     4  11  20  42  71 100 128 177 229 272 330 400
#     4  10  24  44  68 100 133 174 227 272 336 402
#     4  10  22  43  69 101 132 176 228 271 337 395
#     4  11  25  45  65 100 139 176 221 282 338 398
#     4  10  24  42  69 102 132 179 225 273 341 398
#
# _framework density 23.540611999999999
#
# number of rings (size 3 to 8) (size 9 to 14) (size 15 to 20)
#    0.000    1.500    2.500    1.500    5.250    6.000 
#    0.000    8.750    0.000    0.000    0.000    0.000 
#    0.000    0.000    0.000    0.000    0.000    0.000 
#
# Total GULP energy -198307.456499 kJ/mol
# GULP energy per Si atom -12394.216031 kJ/mol
# Density = 2.348703 g / cm^3
# Si number density = 23.540612 Si / 1000 Ang^3
#
#
#
# Elastic Constant Matrix: (Units=GPa)
#
#
# Indices 1 2 3 4 5 6 
#
# 1 152.5231 68.7404 22.7663 -6.2529 -6.4354 -4.5374
# 2 68.7404 179.7867 56.1031 -5.3017 -14.3226 -7.6810
# 3 22.7663 56.1031 65.5957 6.1533 -16.8774 -5.3930
# 4 -6.2529 -5.3017 6.1533 40.9619 -2.8757 -10.0657
# 5 -6.4354 -14.3226 -16.8774 -2.8757 30.1056 -2.1461
# 6 -4.5374 -7.6810 -5.3930 -10.0657 -2.1461 37.6909
#
#
#
# Elastic Compliance Matrix: (Units=1/GPa)
#
#
# Indices 1 2 3 4 5 6 
#
# 1 0.007970 -0.002880 -0.000265 0.001064 0.000332 0.000638
# 2 -0.002880 0.008845 -0.006629 0.001966 0.000138 0.001040
# 3 -0.000265 -0.006629 0.024059 -0.003380 0.010078 0.001731
# 4 0.001064 0.001966 -0.003380 0.027347 0.002414 0.007486
# 5 0.000332 0.000138 0.010078 0.002414 0.039548 0.004407
# 6 0.000638 0.001040 0.001731 0.007486 0.004407 0.029318
#
#
# Mechanical properties :
#
#
# Convention : Reuss Voigt Hill
#
# Bulk Modulus (GPa) = 46.88981 77.01392 61.95187
# Shear Modulus (GPa) = 30.53548 38.43806 34.48677
#
# Velocity S-wave (km/s) = 3.60549 4.04523 3.83167
# Velocity P-wave (km/s) = 6.10694 7.38951 6.77862
#
# Compressibility (1/GPa) = 0.02132659
#
# Stress axis : x y z
#
# Youngs Moduli (GPa) = 125.46473 113.05531 41.56427
#
# Poissons Ratio (x) = 0.32555 0.01103
# Poissons Ratio (y) = 0.36128 0.27554
# Poissons Ratio (z) = 0.03329 0.74946
#
# Static dielectric constant tensor:
#      x y z
#    x 5.014080 0.018110 0.100590 
#    y 0.018110 4.346780 -0.145880 
#    z 0.100590 -0.145880 3.934530 
# 
# 
# High freq. dielectric constant tensor:
#      x y z
#    x 1.954620 -0.005280 -0.001750 
#    y -0.005280 1.932120 -0.012020 
#    z -0.001750 -0.012020 1.913000 
# 
# From -- ./inp_files/283132.got.cif
#   From: 2010.06.25/outbox.cif.g09.slc.cpg/sg2_142_cif.got.tgz:283132.got - 2010.06.27 13:26:56.
