data_PCOD8021913
_publ_section_title
;
Structure prediction by ZEFSAII (Michael W. Deem and Ramdas Pophale) SiO2 
 PCOD8021913
Probable space group: P -1
;
_chemical_formula_sum "Si O2"
_cell_formula_units_Z 16
_cell_length_a 11.337717
_cell_length_b 15.911232
_cell_length_c 14.452993
_cell_angle_alpha 137.419477
_cell_angle_beta 33.471691
_cell_angle_gamma 112.636978
_cell_volume 767.583052
_symmetry_space_group_name_H-M "P -1"
_symmetry_group_IT_number 2
_symmetry_cell_setting 'triclinic'
loop_
_space_group_symop_operation_xyz
x,y,z
-x,-y,-z
loop_
_atom_site_type_symbol
_atom_site_label
_atom_site_fract_x
_atom_site_fract_y
_atom_site_fract_z
Si Si1 0.416817 0.818823 0.533511
Si Si2 0.901275 0.106094 0.011542
Si Si3 0.341253 0.404969 0.961459
Si Si4 0.276320 0.971524 0.117015
Si Si5 0.386802 0.681626 0.915002
Si Si6 0.995419 0.372978 0.953534
Si Si7 0.145566 0.594024 0.734583
Si Si8 0.266804 0.705614 0.218175
O O1 0.290434 0.829118 0.721869
O O2 0.483138 0.673350 0.310960
O O3 0.707617 0.779487 0.330457
O O4 0.211802 0.973419 0.731628
O O5 0.893469 0.246575 0.092114
O O6 0.790724 0.047690 0.959981
O O7 0.532675 0.323664 0.857421
O O8 0.190281 0.589854 0.195996
O O9 0.127848 0.372689 0.094576
O O10 0.381513 0.819152 0.985208
O O11 0.005002 0.117599 0.460612
O O12 0.500000 0.000000 0.000000
O O13 0.623915 0.517816 0.580136
O O14 0.427848 0.674177 0.992075
O O15 0.109639 0.703494 0.100907
O O16 0.000000 0.500000 0.000000
O O17 0.797066 0.472995 0.252271
#
# Coordination Sequence:
#
# PCOD8021913 Si02
#       8
#     2   2   2   2   2   2   2   2
#     4  10  23  42  67 101 124 173 213 277 331 377
#     4  11  23  44  68  97 133 165 222 276 326 391
#     4  10  22  44  70  92 131 171 219 275 324 391
#     4  12  27  45  66  93 138 178 215 269 328 398
#     4  12  25  43  66  97 134 172 223 269 323 397
#     4  11  23  38  69 100 130 163 212 271 335 386
#     4  11  23  42  68  99 127 168 220 280 330 375
#     4  11  24  45  65  94 134 177 221 262 327 395
#
# _framework density 20.844650999999999
#
# number of rings (size 3 to 8) (size 9 to 14) (size 15 to 20)
#    0.000    1.000    2.500    4.500    3.500    3.500 
#    4.500    0.000    0.000    0.000    0.000    0.000 
#    0.000    0.000    0.000    0.000    0.000    0.000 
#
# Total GULP energy -198347.883144 kJ/mol
# GULP energy per Si atom -12396.742697 kJ/mol
# Density = 2.079721 g / cm^3
# Si number density = 20.844651 Si / 1000 Ang^3
#
#
#
# Elastic Constant Matrix: (Units=GPa)
#
#
# Indices 1 2 3 4 5 6 
#
# 1 112.9422 39.2958 44.4993 -17.0739 2.9552 10.4896
# 2 39.2958 100.2842 24.4485 -6.9663 -13.1922 21.6548
# 3 44.4993 24.4485 98.6184 -4.0022 4.7452 5.9318
# 4 -17.0739 -6.9663 -4.0022 22.9488 -9.1733 9.1540
# 5 2.9552 -13.1922 4.7452 -9.1733 23.2962 3.4127
# 6 10.4896 21.6548 5.9318 9.1540 3.4127 31.9907
#
#
#
# Elastic Compliance Matrix: (Units=1/GPa)
#
#
# Indices 1 2 3 4 5 6 
#
# 1 0.014051 -0.000581 -0.005388 0.015036 0.006104 -0.008169
# 2 -0.000581 0.021608 -0.003901 0.025659 0.026710 -0.023905
# 3 -0.005388 -0.003901 0.013289 -0.008231 -0.008232 0.005177
# 4 0.015036 0.025659 -0.008231 0.111858 0.067127 -0.059942
# 5 0.006104 0.026710 -0.008232 0.067127 0.092361 -0.047616
# 6 -0.008169 -0.023905 0.005177 -0.059942 -0.047616 0.071391
#
#
# Mechanical properties :
#
#
# Convention : Reuss Voigt Hill
#
# Bulk Modulus (GPa) = 34.23683 58.70357 46.47020
# Shear Modulus (GPa) = 14.12287 29.22055 21.67171
#
# Velocity S-wave (km/s) = 2.60576 3.74816 3.22790
# Velocity P-wave (km/s) = 5.05111 6.85238 6.01951
#
# Compressibility (1/GPa) = 0.02920831
#
# Stress axis : x y z
#
# Youngs Moduli (GPa) = 71.16770 46.27870 75.24885
#
# Poissons Ratio (x) = 0.02689 0.40547
# Poissons Ratio (y) = 0.04135 0.29353
# Poissons Ratio (z) = 0.38348 0.18052
#
# Static dielectric constant tensor:
#      x y z
#    x 4.051480 0.026910 0.053640 
#    y 0.026910 3.720430 -0.019660 
#    z 0.053640 -0.019660 3.929910 
# 
# 
# High freq. dielectric constant tensor:
#      x y z
#    x 1.834110 -0.003800 0.004750 
#    y -0.003800 1.813350 -0.001820 
#    z 0.004750 -0.001820 1.823260 
# 
# From -- ./inp_files/455383.got.cif
#   From: 2010.06.25/outbox.cif.g09.slc.cpg/sg2_228_cif.got.tgz:455383.got - 2010.06.27 13:26:56.
