data_PCOD8021829
_publ_section_title
;
Structure prediction by ZEFSAII (Michael W. Deem and Ramdas Pophale) SiO2 
 PCOD8021829
Probable space group: P -1
;
_chemical_formula_sum "Si O2"
_cell_formula_units_Z 16
_cell_length_a 15.021645
_cell_length_b 22.956913
_cell_length_c 17.443018
_cell_angle_alpha 20.858527
_cell_angle_beta 149.310786
_cell_angle_gamma 160.892744
_cell_volume 687.264588
_symmetry_space_group_name_H-M "P -1"
_symmetry_group_IT_number 2
_symmetry_cell_setting 'triclinic'
loop_
_space_group_symop_operation_xyz
x,y,z
-x,-y,-z
loop_
_atom_site_type_symbol
_atom_site_label
_atom_site_fract_x
_atom_site_fract_y
_atom_site_fract_z
Si Si1 0.891287 0.506921 0.485294
Si Si2 0.506027 0.985741 0.661157
Si Si3 0.739004 0.877500 0.738517
Si Si4 0.276801 0.764818 0.915845
Si Si5 0.240469 0.835403 0.062199
Si Si6 0.114870 0.416291 0.025265
Si Si7 0.440990 0.403062 0.205721
Si Si8 0.664612 0.780974 0.253428
O O1 0.740398 0.258166 0.731142
O O2 0.679857 0.492891 0.322138
O O3 0.000000 0.500000 0.500000
O O4 0.161448 0.778748 0.394936
O O5 0.443246 0.992908 0.695406
O O6 0.367684 0.708559 0.885366
O O7 0.357937 0.004943 0.470112
O O8 0.695357 0.808399 0.700548
O O9 0.555903 0.642025 0.950616
O O10 0.056704 0.083340 0.747286
O O11 0.465474 0.744599 0.098204
O O12 0.000000 0.500000 0.000000
O O13 0.167449 0.787983 0.880277
O O14 0.971797 0.585569 0.121913
O O15 0.500000 0.000000 0.000000
O O16 0.228907 0.021385 0.843116
O O17 0.223975 0.310225 0.223546
O O18 0.500000 0.500000 0.500000
#
# Coordination Sequence:
#
# PCOD8021829 Si02
#       8
#     2   2   2   2   2   2   2   2
#     4  12  25  46  75 101 141 191 235 288 353 425
#     4  11  24  45  75 102 141 192 235 285 358 425
#     4  11  23  41  70 102 135 181 238 283 344 423
#     4  10  22  44  69 101 143 185 229 283 354 422
#     4  12  26  46  69 103 142 183 233 290 359 413
#     4  11  24  45  68 103 147 183 234 297 349 416
#     4  11  24  43  68 106 138 178 234 290 347 415
#     4  12  24  44  70 102 132 185 236 286 341 429
#
# _framework density 23.280697
#
# number of rings (size 3 to 8) (size 9 to 14) (size 15 to 20)
#    0.000    0.750    3.750    4.500    0.000    2.500 
#    6.750    1.250    0.000    0.000    0.000    0.000 
#    0.000    0.000    0.000    0.000    0.000    0.000 
#
# Total GULP energy -198260.136381 kJ/mol
# GULP energy per Si atom -12391.258524 kJ/mol
# Density = 2.322771 g / cm^3
# Si number density = 23.280697 Si / 1000 Ang^3
#
#
#
# Elastic Constant Matrix: (Units=GPa)
#
#
# Indices 1 2 3 4 5 6 
#
# 1 83.7452 28.9772 35.8809 11.4549 -6.4134 2.7092
# 2 28.9772 145.9350 35.3274 28.0186 -1.4617 13.4151
# 3 35.8809 35.3274 104.5152 10.0651 -9.2504 11.5884
# 4 11.4549 28.0186 10.0651 50.7121 3.4889 8.1628
# 5 -6.4134 -1.4617 -9.2504 3.4889 24.2808 0.6958
# 6 2.7092 13.4151 11.5884 8.1628 0.6958 34.3985
#
#
#
# Elastic Compliance Matrix: (Units=1/GPa)
#
#
# Indices 1 2 3 4 5 6 
#
# 1 0.014735 -0.001615 -0.004256 -0.001971 0.002419 0.001322
# 2 -0.001615 0.008464 -0.001764 -0.003687 -0.000010 -0.001705
# 3 -0.004256 -0.001764 0.012315 -0.000250 0.003587 -0.003139
# 4 -0.001971 -0.003687 -0.000250 0.023130 -0.004055 -0.003730
# 5 0.002419 -0.000010 0.003587 -0.004055 0.043810 -0.001319
# 6 0.001322 -0.001705 -0.003139 -0.003730 -0.001319 0.031601
#
#
# Mechanical properties :
#
#
# Convention : Reuss Voigt Hill
#
# Bulk Modulus (GPa) = 49.39095 59.39629 54.39362
# Shear Modulus (GPa) = 32.03657 37.47892 34.75774
#
# Velocity S-wave (km/s) = 3.71361 4.01667 3.86811
# Velocity P-wave (km/s) = 6.29677 6.86149 6.58519
#
# Compressibility (1/GPa) = 0.02024662
#
# Stress axis : x y z
#
# Youngs Moduli (GPa) = 67.86556 118.14324 81.20380
#
# Poissons Ratio (x) = 0.19074 0.34557
# Poissons Ratio (y) = 0.10957 0.14321
# Poissons Ratio (z) = 0.28881 0.20836
#
# Static dielectric constant tensor:
#      x y z
#    x 5.189480 0.491860 -0.272480 
#    y 0.491860 4.741920 -0.047590 
#    z -0.272480 -0.047590 4.019500 
# 
# 
# High freq. dielectric constant tensor:
#      x y z
#    x 1.912080 0.004540 -0.002390 
#    y 0.004540 1.951940 0.003080 
#    z -0.002390 0.003080 1.907230 
# 
# From -- ./inp_files/574405.got.cif
#   From: 2010.06.25/outbox.cif.g09.slc.cpg/sg2_288_cif.got.tgz:574405.got - 2010.06.27 13:26:56.
