data_PCOD8021995
_publ_section_title
;
Structure prediction by ZEFSAII (Michael W. Deem and Ramdas Pophale) SiO2 
 PCOD8021995
Probable space group: P -1
;
_chemical_formula_sum "Si O2"
_cell_formula_units_Z 14
_cell_length_a 8.824784
_cell_length_b 8.896889
_cell_length_c 24.344750
_cell_angle_alpha 28.611382
_cell_angle_beta 140.520557
_cell_angle_gamma 129.740854
_cell_volume 577.327825
_symmetry_space_group_name_H-M "P -1"
_symmetry_group_IT_number 2
_symmetry_cell_setting 'triclinic'
loop_
_space_group_symop_operation_xyz
x,y,z
-x,-y,-z
loop_
_atom_site_type_symbol
_atom_site_label
_atom_site_fract_x
_atom_site_fract_y
_atom_site_fract_z
Si Si1 0.814035 0.166265 0.938959
Si Si2 0.070496 0.129179 0.586836
Si Si3 0.927482 0.755221 0.209023
Si Si4 0.281468 0.275408 0.402757
Si Si5 0.339464 0.827944 0.660481
Si Si6 0.874736 0.718394 0.849448
Si Si7 0.634751 0.617617 0.325772
O O1 0.884523 0.519424 0.858861
O O2 0.543449 0.203816 0.826329
O O3 0.808208 0.966605 0.057187
O O4 0.000000 0.000000 0.000000
O O5 0.296316 0.133148 0.689229
O O6 0.892766 0.457389 0.427344
O O7 0.160228 0.071608 0.567691
O O8 0.932958 0.829416 0.662033
O O9 0.742084 0.521373 0.251919
O O10 0.180125 0.574622 0.315491
O O11 0.990919 0.963972 0.213096
O O12 0.505210 0.347356 0.406489
O O13 0.359009 0.960953 0.561753
O O14 0.603249 0.805125 0.766689
O O15 0.000000 0.500000 0.000000
#
# Coordination Sequence:
#
# PCOD8021995 Si02
#       7
#     2   2   2   2   2   2   2
#     4  11  23  44  72  99 137 184 227 280 349 408
#     4  10  23  40  67 102 136 180 231 279 347 409
#     4  10  22  44  71  99 137 178 232 287 336 403
#     4  11  22  42  69  99 141 180 230 283 342 406
#     4  11  24  44  70 102 135 181 234 285 334 411
#     4  10  24  43  71 102 133 180 234 283 340 410
#     4  11  23  43  67 100 143 181 224 288 347 411
#
# _framework density 24.249654
#
# number of rings (size 3 to 8) (size 9 to 14) (size 15 to 20)
#    0.000    1.429    1.429    3.857    2.000    5.714 
#    0.000   12.857    0.000    0.000    0.000    0.000 
#    0.000    0.000    0.000    0.000    0.000    0.000 
#
# Total GULP energy -173524.039167 kJ/mol
# GULP energy per Si atom -12394.574226 kJ/mol
# Density = 2.419446 g / cm^3
# Si number density = 24.249654 Si / 1000 Ang^3
#
#
#
# Elastic Constant Matrix: (Units=GPa)
#
#
# Indices 1 2 3 4 5 6 
#
# 1 88.4555 45.7070 43.0431 2.0553 -1.0632 4.0929
# 2 45.7070 198.2453 54.2390 8.5354 -10.0463 3.9871
# 3 43.0431 54.2390 123.1203 9.8666 -2.5440 12.6191
# 4 2.0553 8.5354 9.8666 40.2363 2.9448 3.9589
# 5 -1.0632 -10.0463 -2.5440 2.9448 32.6795 -0.5974
# 6 4.0929 3.9871 12.6191 3.9589 -0.5974 35.6676
#
#
#
# Elastic Compliance Matrix: (Units=1/GPa)
#
#
# Indices 1 2 3 4 5 6 
#
# 1 0.014463 -0.002270 -0.004129 0.000805 -0.000622 -0.000045
# 2 -0.002270 0.006200 -0.001865 -0.000907 0.001775 0.000358
# 3 -0.004129 -0.001865 0.010837 -0.001778 0.000242 -0.002950
# 4 0.000805 -0.000907 -0.001778 0.025867 -0.002764 -0.002279
# 5 -0.000622 0.001775 0.000242 -0.002764 0.031405 0.000620
# 6 -0.000045 0.000358 -0.002950 -0.002279 0.000620 0.029309
#
#
# Mechanical properties :
#
#
# Convention : Reuss Voigt Hill
#
# Bulk Modulus (GPa) = 66.79182 77.31105 72.05143
# Shear Modulus (GPa) = 35.81659 39.50546 37.66102
#
# Velocity S-wave (km/s) = 3.84734 4.04061 3.94516
# Velocity P-wave (km/s) = 6.88035 7.32934 7.10839
#
# Compressibility (1/GPa) = 0.01497189
#
# Stress axis : x y z
#
# Youngs Moduli (GPa) = 69.14036 161.29825 92.27551
#
# Poissons Ratio (x) = 0.36618 0.38101
# Poissons Ratio (y) = 0.15696 0.17208
# Poissons Ratio (z) = 0.28549 0.30079
#
# Static dielectric constant tensor:
#      x y z
#    x 3.372020 -0.800210 -0.001390 
#    y -0.800210 5.255920 -0.137430 
#    z -0.001390 -0.137430 4.312810 
# 
# 
# High freq. dielectric constant tensor:
#      x y z
#    x 1.952260 -0.008830 0.015130 
#    y -0.008830 1.984390 0.003210 
#    z 0.015130 0.003210 1.960180 
# 
# From -- ./inp_files/606584.got.cif
#   From: 2010.06.25/outbox.cif.g09.slc.cpg/sg2_304_cif.got.tgz:606584.got - 2010.06.27 13:26:56.
