data_PCOD8021391
_publ_section_title
;
Structure prediction by ZEFSAII (Michael W. Deem and Ramdas Pophale) SiO2 
 PCOD8021391
Probable space group: P -1
;
_chemical_formula_sum "Si O2"
_cell_formula_units_Z 12
_cell_length_a 13.120544
_cell_length_b 10.018374
_cell_length_c 13.522342
_cell_angle_alpha 48.361297
_cell_angle_beta 31.032178
_cell_angle_gamma 35.293409
_cell_volume 525.756378
_symmetry_space_group_name_H-M "P -1"
_symmetry_group_IT_number 2
_symmetry_cell_setting 'triclinic'
loop_
_space_group_symop_operation_xyz
x,y,z
-x,-y,-z
loop_
_atom_site_type_symbol
_atom_site_label
_atom_site_fract_x
_atom_site_fract_y
_atom_site_fract_z
Si Si1 0.739208 0.934703 0.202366
Si Si2 0.158373 0.238571 0.462679
Si Si3 0.926596 0.987489 0.210386
Si Si4 0.525223 0.496723 0.362585
Si Si5 0.023214 0.202020 0.381179
Si Si6 0.875525 0.567111 0.964047
O O1 0.940387 0.660646 0.145851
O O2 0.451568 0.058636 0.345621
O O3 0.760459 0.955335 0.291983
O O4 0.815529 0.082160 0.018032
O O5 0.000000 0.500000 0.500000
O O6 0.163746 0.204064 0.358029
O O7 0.999205 0.168650 0.678062
O O8 0.768035 0.246082 0.251581
O O9 0.500000 0.500000 0.500000
O O10 0.272418 0.561415 0.490978
O O11 0.587586 0.656453 0.183685
O O12 0.155753 0.218238 0.166273
O O13 0.000000 0.000000 0.500000
O O14 0.000000 0.500000 0.000000
#
# Coordination Sequence:
#
# PCOD8021391 Si02
#       6
#     2   2   2   2   2   2
#     4  10  23  43  70  97 126 176 232 264 325 406
#     4  12  25  41  66  99 141 169 214 280 344 387
#     4  10  22  43  71  94 128 178 226 271 322 402
#     4  11  22  43  69  94 129 177 230 272 323 402
#     4  12  27  41  63 103 139 171 218 279 345 386
#     4  11  24  43  72  91 128 182 230 268 323 400
#
# _framework density 22.824259000000001
#
# number of rings (size 3 to 8) (size 9 to 14) (size 15 to 20)
#    0.000    1.000    1.667    4.500    4.667    2.667 
#    0.000    0.000    0.000    0.000    0.000    0.000 
#    0.000    0.000    0.000    0.000    0.000    0.000 
#
# Total GULP energy -148707.354332 kJ/mol
# GULP energy per Si atom -12392.279528 kJ/mol
# Density = 2.277231 g / cm^3
# Si number density = 22.824259 Si / 1000 Ang^3
#
#
#
# Elastic Constant Matrix: (Units=GPa)
#
#
# Indices 1 2 3 4 5 6 
#
# 1 110.0496 7.2899 35.9039 -8.4885 17.2366 7.6199
# 2 7.2899 64.1416 36.0512 -27.6027 12.8368 7.5019
# 3 35.9039 36.0512 133.1921 -36.2440 9.4632 -5.6641
# 4 -8.4885 -27.6027 -36.2440 50.9199 -4.0293 5.3869
# 5 17.2366 12.8368 9.4632 -4.0293 40.9232 1.3856
# 6 7.6199 7.5019 -5.6641 5.3869 1.3856 32.8795
#
#
#
# Elastic Compliance Matrix: (Units=1/GPa)
#
#
# Indices 1 2 3 4 5 6 
#
# 1 0.010965 0.002149 -0.003169 0.000764 -0.004365 -0.003518
# 2 0.002149 0.024751 -0.004134 0.011225 -0.006323 -0.008430
# 3 -0.003169 -0.004134 0.010841 0.004695 0.000493 0.002755
# 4 0.000764 0.011225 0.004695 0.029765 -0.001770 -0.006731
# 5 -0.004365 -0.006323 0.000493 -0.001770 0.027914 0.001653
# 6 -0.003518 -0.008430 0.002755 -0.006731 0.001653 0.034661
#
#
# Mechanical properties :
#
#
# Convention : Reuss Voigt Hill
#
# Bulk Modulus (GPa) = 27.58674 51.76370 39.67522
# Shear Modulus (GPa) = 31.00089 40.15372 35.57730
#
# Velocity S-wave (km/s) = 3.68943 4.19890 3.95238
# Velocity P-wave (km/s) = 5.50110 6.79972 6.18459
#
# Compressibility (1/GPa) = 0.03624930
#
# Stress axis : x y z
#
# Youngs Moduli (GPa) = 91.20288 40.40186 92.24539
#
# Poissons Ratio (x) = -0.08682 0.29232
# Poissons Ratio (y) = -0.19598 0.38130
# Poissons Ratio (z) = 0.28901 0.16700
#
# Static dielectric constant tensor:
#      x y z
#    x 4.169300 0.041230 -0.039240 
#    y 0.041230 4.261830 -0.689430 
#    z -0.039240 -0.689430 5.034640 
# 
# 
# High freq. dielectric constant tensor:
#      x y z
#    x 1.900220 0.008450 0.003060 
#    y 0.008450 1.892590 -0.017950 
#    z 0.003060 -0.017950 1.925710 
# 
# From -- ./inp_files/419044.got.cif
#   From: 2010.06.25/outbox.cif.g09.slc.cpg/sg2_210_cif.got.tgz:419044.got - 2010.06.27 13:26:56.
