data_PCOD8021987
_publ_section_title
;
Structure prediction by ZEFSAII (Michael W. Deem and Ramdas Pophale) SiO2 
 PCOD8021987
Probable space group: P -1
;
_chemical_formula_sum "Si O2"
_cell_formula_units_Z 16
_cell_length_a 20.039229
_cell_length_b 5.550366
_cell_length_c 11.897304
_cell_angle_alpha 123.633260
_cell_angle_beta 138.432540
_cell_angle_gamma 60.772553
_cell_volume 724.452999
_symmetry_space_group_name_H-M "P -1"
_symmetry_group_IT_number 2
_symmetry_cell_setting 'triclinic'
loop_
_space_group_symop_operation_xyz
x,y,z
-x,-y,-z
loop_
_atom_site_type_symbol
_atom_site_label
_atom_site_fract_x
_atom_site_fract_y
_atom_site_fract_z
Si Si1 0.077863 0.949997 0.238606
Si Si2 0.525154 0.667314 0.807410
Si Si3 0.645878 0.675335 0.539353
Si Si4 0.419799 0.283567 0.866338
Si Si5 0.897900 0.381041 0.022211
Si Si6 0.029218 0.806098 0.380246
Si Si7 0.669739 0.356278 0.727860
Si Si8 0.220811 0.376263 0.505301
O O1 0.075672 0.954917 0.371434
O O2 0.184733 0.058536 0.365992
O O3 0.087647 0.644077 0.102485
O O4 0.974191 0.134181 0.114826
O O5 0.454730 0.410154 0.671274
O O6 0.600786 0.579859 0.778399
O O7 0.453398 0.970826 0.768909
O O8 0.590176 0.731164 0.015301
O O9 0.653414 0.511431 0.625819
O O10 0.742934 0.540643 0.551910
O O11 0.637672 0.030266 0.617798
O O12 0.308818 0.402467 0.712002
O O13 0.500000 0.500000 0.000000
O O14 0.927145 0.690723 0.178108
O O15 0.784948 0.350636 0.911967
O O16 0.119326 0.565282 0.472484
O O17 0.000000 0.000000 0.500000
#
# Coordination Sequence:
#
# PCOD8021987 Si02
#       8
#     2   2   2   2   2   2   2   2
#     4  10  22  44  71  96 140 178 241 288 358 430
#     4  11  27  45  69 105 145 190 244 304 357 437
#     4  12  25  46  72 109 143 194 240 299 369 430
#     4  11  25  45  69  99 143 194 246 288 358 435
#     4  10  23  42  68 107 132 188 233 298 356 431
#     4  11  26  42  69 104 144 184 236 301 362 435
#     4  12  27  43  77 107 149 186 241 309 368 423
#     4  11  24  43  74  95 137 191 237 295 359 437
#
# _framework density 22.085628
#
# number of rings (size 3 to 8) (size 9 to 14) (size 15 to 20)
#    0.000    1.000    2.500    2.625    5.250    5.000 
#    0.000    0.000    0.000    0.000    0.000    0.000 
#    0.000    0.000    0.000    0.000    0.000    0.000 
#
# Total GULP energy -198288.528037 kJ/mol
# GULP energy per Si atom -12393.033002 kJ/mol
# Density = 2.203536 g / cm^3
# Si number density = 22.085628 Si / 1000 Ang^3
#
#
#
# Elastic Constant Matrix: (Units=GPa)
#
#
# Indices 1 2 3 4 5 6 
#
# 1 140.2140 48.7160 83.4727 23.2176 -6.8406 -8.3630
# 2 48.7160 80.6765 55.8897 11.0771 -1.7045 11.3523
# 3 83.4727 55.8897 156.0642 3.8798 4.8582 -6.8056
# 4 23.2176 11.0771 3.8798 30.7858 -5.9517 -2.0972
# 5 -6.8406 -1.7045 4.8582 -5.9517 43.8217 2.0318
# 6 -8.3630 11.3523 -6.8056 -2.0972 2.0318 32.6614
#
#
#
# Elastic Compliance Matrix: (Units=1/GPa)
#
#
# Indices 1 2 3 4 5 6 
#
# 1 0.013066 -0.003426 -0.005496 -0.007472 0.001370 0.002826
# 2 -0.003426 0.020490 -0.005831 -0.004563 0.000732 -0.009553
# 3 -0.005496 -0.005831 0.011528 0.004659 -0.001889 0.003438
# 4 -0.007472 -0.004563 0.004659 0.040041 0.003439 0.003001
# 5 0.001370 0.000732 -0.001889 0.003439 0.023811 -0.001558
# 6 0.002826 -0.009553 0.003438 0.003001 -0.001558 0.035667
#
#
# Mechanical properties :
#
#
# Convention : Reuss Voigt Hill
#
# Bulk Modulus (GPa) = 64.18904 83.67905 73.93405
# Shear Modulus (GPa) = 27.88588 34.04554 30.96571
#
# Velocity S-wave (km/s) = 3.55720 3.93048 3.74849
# Velocity P-wave (km/s) = 6.78221 7.65304 7.23075
#
# Compressibility (1/GPa) = 0.01557898
#
# Stress axis : x y z
#
# Youngs Moduli (GPa) = 76.53159 48.80488 86.74382
#
# Poissons Ratio (x) = 0.16720 0.47670
# Poissons Ratio (y) = 0.26219 0.50583
# Poissons Ratio (z) = 0.42058 0.28460
#
# Static dielectric constant tensor:
#      x y z
#    x 3.978420 0.033280 0.097370 
#    y 0.033280 3.941640 0.028250 
#    z 0.097370 0.028250 4.344200 
# 
# 
# High freq. dielectric constant tensor:
#      x y z
#    x 1.873800 -0.000160 0.005930 
#    y -0.000160 1.860240 -0.001820 
#    z 0.005930 -0.001820 1.884740 
# 
# From -- ./inp_files/369316.got.cif
#   From: 2010.06.25/outbox.cif.g09.slc.cpg/sg2_185_cif.got.tgz:369316.got - 2010.06.27 13:26:56.
