data_PCOD8021013
_publ_section_title
;
Structure prediction by ZEFSAII (Michael W. Deem and Ramdas Pophale) SiO2 
 PCOD8021013
Probable space group: P -1
;
_chemical_formula_sum "Si O2"
_cell_formula_units_Z 14
_cell_length_a 8.768080
_cell_length_b 11.970654
_cell_length_c 14.544373
_cell_angle_alpha 152.338426
_cell_angle_beta 80.281338
_cell_angle_gamma 90.295434
_cell_volume 662.864150
_symmetry_space_group_name_H-M "P -1"
_symmetry_group_IT_number 2
_symmetry_cell_setting 'triclinic'
loop_
_space_group_symop_operation_xyz
x,y,z
-x,-y,-z
loop_
_atom_site_type_symbol
_atom_site_label
_atom_site_fract_x
_atom_site_fract_y
_atom_site_fract_z
Si Si1 0.687311 0.200869 0.352380
Si Si2 0.680755 0.944226 0.476315
Si Si3 0.879105 0.244967 0.742722
Si Si4 0.109595 0.218948 0.845191
Si Si5 0.678957 0.648758 0.440671
Si Si6 0.811891 0.647401 0.615868
Si Si7 0.807228 0.079223 0.058410
O O1 0.513960 0.231324 0.436340
O O2 0.707255 0.475098 0.537463
O O3 0.709041 0.071771 0.156284
O O4 0.826631 0.024975 0.275401
O O5 0.793541 0.814696 0.285497
O O6 0.725245 0.745410 0.410405
O O7 0.500000 0.000000 0.500000
O O8 0.705453 0.206044 0.705945
O O9 0.926781 0.235452 0.840391
O O10 0.881385 0.527239 0.916890
O O11 0.000000 0.000000 0.500000
O O12 0.772476 0.730679 0.575087
O O13 0.742369 0.346834 0.209726
O O14 0.000000 0.500000 0.500000
O O15 0.757120 0.894847 0.861887
O O16 0.000000 0.000000 0.000000
#
# Coordination Sequence:
#
# PCOD8021013 Si02
#       7
#     2   2   2   2   2   2   2
#     4  11  24  42  67  97 137 166 220 274 337 394
#     4  11  23  43  66  96 136 176 222 266 330 397
#     4   9  22  41  63  92 131 172 222 272 322 382
#     4  10  22  43  66  97 130 177 221 273 326 396
#     4  11  25  43  65  98 138 172 216 278 330 394
#     4  11  23  44  67  95 125 173 223 271 329 390
#     4  11  23  41  68  98 126 170 223 273 331 393
#
# _framework density 21.120466
#
# number of rings (size 3 to 8) (size 9 to 14) (size 15 to 20)
#    0.000    1.429    4.286    1.714    2.000    9.714 
#    2.571    0.000    0.000    0.000    0.000    0.000 
#    0.000    0.000    0.000    0.000    0.000    0.000 
#
# Total GULP energy -173473.815758 kJ/mol
# GULP energy per Si atom -12390.986840 kJ/mol
# Density = 2.107239 g / cm^3
# Si number density = 21.120466 Si / 1000 Ang^3
#
#
#
# Elastic Constant Matrix: (Units=GPa)
#
#
# Indices 1 2 3 4 5 6 
#
# 1 92.5101 7.0938 27.4469 -1.8680 27.5692 -19.3628
# 2 7.0938 126.1598 38.8278 1.0246 18.3275 -15.4660
# 3 27.4469 38.8278 139.5129 -13.0096 30.8334 -9.5722
# 4 -1.8680 1.0246 -13.0096 20.4241 -11.4518 -10.5353
# 5 27.5692 18.3275 30.8334 -11.4518 31.7343 -6.1254
# 6 -19.3628 -15.4660 -9.5722 -10.5353 -6.1254 34.5706
#
#
#
# Elastic Compliance Matrix: (Units=1/GPa)
#
#
# Indices 1 2 3 4 5 6 
#
# 1 0.016662 0.002277 -0.000421 -0.004702 -0.015924 0.005980
# 2 0.002277 0.009696 -0.001844 -0.003687 -0.006573 0.002814
# 3 -0.000421 -0.001844 0.009591 0.003339 -0.006397 0.001479
# 4 -0.004702 -0.003687 0.003339 0.090589 0.041770 0.031649
# 5 -0.015924 -0.006573 -0.006397 0.041770 0.072745 0.011987
# 6 0.005980 0.002814 0.001479 0.031649 0.011987 0.045713
#
#
# Mechanical properties :
#
#
# Convention : Reuss Voigt Hill
#
# Bulk Modulus (GPa) = 27.79865 56.10220 41.95043
# Shear Modulus (GPa) = 19.45811 36.33342 27.89577
#
# Velocity S-wave (km/s) = 3.03857 4.15214 3.63821
# Velocity P-wave (km/s) = 5.04986 7.04327 6.12816
#
# Compressibility (1/GPa) = 0.03597297
#
# Stress axis : x y z
#
# Youngs Moduli (GPa) = 60.01619 103.13627 104.26938
#
# Poissons Ratio (x) = -0.23486 0.04385
# Poissons Ratio (y) = -0.13667 0.19232
# Poissons Ratio (z) = 0.02524 0.19023
#
# Static dielectric constant tensor:
#      x y z
#    x 6.237230 -0.455020 0.616600 
#    y -0.455020 3.849820 -0.100720 
#    z 0.616600 -0.100720 4.050750 
# 
# 
# High freq. dielectric constant tensor:
#      x y z
#    x 1.832720 -0.015300 0.006140 
#    y -0.015300 1.824170 -0.000180 
#    z 0.006140 -0.000180 1.835300 
# 
# From -- ./inp_files/501131.got.cif
#   From: 2010.06.25/outbox.cif.g09.slc.cpg/sg2_251_cif.got.tgz:501131.got - 2010.06.27 13:26:56.
