data_PCOD8021182
_publ_section_title
;
Structure prediction by ZEFSAII (Michael W. Deem and Ramdas Pophale) SiO2 
 PCOD8021182
Probable space group: P -1
;
_chemical_formula_sum "Si O2"
_cell_formula_units_Z 14
_cell_length_a 16.374930
_cell_length_b 21.482850
_cell_length_c 6.081578
_cell_angle_alpha 85.814959
_cell_angle_beta 94.526171
_cell_angle_gamma 162.611887
_cell_volume 637.324546
_symmetry_space_group_name_H-M "P -1"
_symmetry_group_IT_number 2
_symmetry_cell_setting 'triclinic'
loop_
_space_group_symop_operation_xyz
x,y,z
-x,-y,-z
loop_
_atom_site_type_symbol
_atom_site_label
_atom_site_fract_x
_atom_site_fract_y
_atom_site_fract_z
Si Si1 0.791453 0.336890 0.806646
Si Si2 0.539188 0.966732 0.880141
Si Si3 0.749664 0.645686 0.623659
Si Si4 0.541642 0.653978 0.015035
Si Si5 0.978468 0.033644 0.285365
Si Si6 0.901798 0.645329 0.343311
Si Si7 0.037766 0.618520 0.541043
O O1 0.881272 0.337909 0.704075
O O2 0.789947 0.393223 0.622141
O O3 0.502685 0.118407 0.924107
O O4 0.000000 0.500000 0.000000
O O5 0.310704 0.803714 0.686384
O O6 0.823406 0.156018 0.787773
O O7 0.500000 0.000000 0.000000
O O8 0.500000 0.500000 0.500000
O O9 0.636308 0.527685 0.846499
O O10 0.991409 0.872108 0.658995
O O11 0.870733 0.686155 0.460375
O O12 0.783701 0.799409 0.888251
O O13 0.344670 0.545905 0.829607
O O14 0.680037 0.804430 0.172804
O O15 0.000000 0.000000 0.500000
O O16 0.919112 0.601930 0.535595
#
# Coordination Sequence:
#
# PCOD8021182 Si02
#       7
#     2   2   2   2   2   2   2
#     4   9  20  41  68  95 132 187 227 288 356 410
#     4  11  23  42  72  95 138 188 231 288 354 412
#     4  12  25  47  74 104 145 186 239 300 357 425
#     4  11  25  44  76 102 142 187 240 294 360 429
#     4  11  23  48  76 101 139 189 233 298 365 416
#     4  12  26  41  71 109 138 187 241 287 355 428
#     4  10  22  43  68  96 143 182 231 293 349 421
#
# _framework density 21.966833000000001
#
# number of rings (size 3 to 8) (size 9 to 14) (size 15 to 20)
#    0.000    1.143    4.286    0.857    2.000    0.000 
#    0.000   18.571    0.000    0.000    0.000    0.000 
#    0.000    0.000    0.000    0.000    0.000    0.000 
#
# Total GULP energy -173478.736306 kJ/mol
# GULP energy per Si atom -12391.338308 kJ/mol
# Density = 2.191684 g / cm^3
# Si number density = 21.966833 Si / 1000 Ang^3
#
#
#
# Elastic Constant Matrix: (Units=GPa)
#
#
# Indices 1 2 3 4 5 6 
#
# 1 132.0613 69.1689 50.3938 -7.0327 -21.5589 -7.4837
# 2 69.1689 117.1953 55.5526 -3.0437 -1.1331 -14.4909
# 3 50.3938 55.5526 116.2313 -7.6199 -14.9693 -8.7011
# 4 -7.0327 -3.0437 -7.6199 50.6683 -7.8016 -0.5383
# 5 -21.5589 -1.1331 -14.9693 -7.8016 34.8603 0.7827
# 6 -7.4837 -14.4909 -8.7011 -0.5383 0.7827 36.5912
#
#
#
# Elastic Compliance Matrix: (Units=1/GPa)
#
#
# Indices 1 2 3 4 5 6 
#
# 1 0.013152 -0.007150 -0.001139 0.002446 0.007972 -0.000547
# 2 -0.007150 0.015442 -0.004971 -0.001780 -0.006533 0.003585
# 3 -0.001139 -0.004971 0.012291 0.002150 0.004878 0.000649
# 4 0.002446 -0.001780 0.002150 0.021399 0.007157 0.000468
# 5 0.007972 -0.006533 0.004878 0.007157 0.037111 -0.000485
# 6 -0.000547 0.003585 0.000649 0.000468 -0.000485 0.028808
#
#
# Mechanical properties :
#
#
# Convention : Reuss Voigt Hill
#
# Bulk Modulus (GPa) = 69.60336 79.52427 74.56381
# Shear Modulus (GPa) = 31.34564 37.11545 34.23054
#
# Velocity S-wave (km/s) = 3.78160 4.11495 3.95179
# Velocity P-wave (km/s) = 7.12894 7.67187 7.40538
#
# Compressibility (1/GPa) = 0.01436712
#
# Stress axis : x y z
#
# Youngs Moduli (GPa) = 76.03213 64.75637 81.36135
#
# Poissons Ratio (x) = 0.46298 0.09268
# Poissons Ratio (y) = 0.54360 0.40442
# Poissons Ratio (z) = 0.08661 0.32188
#
# Static dielectric constant tensor:
#      x y z
#    x 4.485570 -0.707740 0.089720 
#    y -0.707740 4.633560 -0.476320 
#    z 0.089720 -0.476320 4.798900 
# 
# 
# High freq. dielectric constant tensor:
#      x y z
#    x 1.851440 -0.024050 -0.003550 
#    y -0.024050 1.866790 -0.009400 
#    z -0.003550 -0.009400 1.889160 
# 
# From -- ./inp_files/100612.got.cif
#   From: 2010.06.25/outbox.cif.g09.slc.cpg/sg2_51_cif.got.tgz:100612.got - 2010.06.27 13:26:56.
