data_PCOD8021437
_publ_section_title
;
Structure prediction by ZEFSAII (Michael W. Deem and Ramdas Pophale) SiO2 
 PCOD8021437
Probable space group: P -1
;
_chemical_formula_sum "Si O2"
_cell_formula_units_Z 14
_cell_length_a 17.339488
_cell_length_b 9.679458
_cell_length_c 5.488742
_cell_angle_alpha 67.401251
_cell_angle_beta 114.619701
_cell_angle_gamma 136.757226
_cell_volume 568.892762
_symmetry_space_group_name_H-M "P -1"
_symmetry_group_IT_number 2
_symmetry_cell_setting 'triclinic'
loop_
_space_group_symop_operation_xyz
x,y,z
-x,-y,-z
loop_
_atom_site_type_symbol
_atom_site_label
_atom_site_fract_x
_atom_site_fract_y
_atom_site_fract_z
Si Si1 0.687528 0.455384 0.908348
Si Si2 0.920750 0.261391 0.320751
Si Si3 0.431943 0.939704 0.202806
Si Si4 0.523994 0.615749 0.199352
Si Si5 0.164356 0.582881 0.575751
Si Si6 0.745126 0.846902 0.582326
Si Si7 0.265584 0.956190 0.153675
O O1 0.770456 0.487863 0.202680
O O2 0.667618 0.307926 0.770923
O O3 0.561821 0.343892 0.937987
O O4 0.749961 0.673756 0.724053
O O5 0.890762 0.391808 0.287760
O O6 0.058406 0.406290 0.379893
O O7 0.871006 0.070363 0.560447
O O8 0.860244 0.168193 0.043444
O O9 0.371515 0.033181 0.061430
O O10 0.500000 0.000000 0.500000
O O11 0.500000 0.000000 0.000000
O O12 0.500000 0.500000 0.500000
O O13 0.664232 0.806822 0.275930
O O14 0.500000 0.500000 0.000000
O O15 0.256916 0.800944 0.423109
O O16 0.694968 0.852012 0.769040
#
# Coordination Sequence:
#
# PCOD8021437 Si02
#       7
#     2   2   2   2   2   2   2
#     4  11  24  45  70 106 141 180 239 301 351 424
#     4  10  22  43  72  96 142 189 241 289 362 427
#     4  12  27  44  71 105 143 187 239 295 353 429
#     4  10  24  42  66  97 143 188 222 281 363 433
#     4  10  22  44  70 103 135 191 243 296 350 422
#     4  10  25  43  69 104 142 188 233 294 368 427
#     4  11  23  45  68 101 141 190 237 291 362 434
#
# _framework density 24.609206
#
# number of rings (size 3 to 8) (size 9 to 14) (size 15 to 20)
#    0.000    1.429    1.429    2.143    8.000    5.143 
#    0.000    0.714    0.000    0.000    0.000    0.000 
#    0.000    0.000    0.000    0.000    0.000    0.000 
#
# Total GULP energy -173564.868516 kJ/mol
# GULP energy per Si atom -12397.490608 kJ/mol
# Density = 2.455319 g / cm^3
# Si number density = 24.609206 Si / 1000 Ang^3
#
#
#
# Elastic Constant Matrix: (Units=GPa)
#
#
# Indices 1 2 3 4 5 6 
#
# 1 62.4041 12.9500 39.4197 10.1492 12.2368 -5.2061
# 2 12.9500 90.1941 35.1569 11.6071 6.0808 -8.2521
# 3 39.4197 35.1569 152.4183 23.7481 20.2904 -10.7752
# 4 10.1492 11.6071 23.7481 57.8370 -5.5260 -2.0608
# 5 12.2368 6.0808 20.2904 -5.5260 48.6917 6.5086
# 6 -5.2061 -8.2521 -10.7752 -2.0608 6.5086 49.0452
#
#
#
# Elastic Compliance Matrix: (Units=1/GPa)
#
#
# Indices 1 2 3 4 5 6 
#
# 1 0.019908 -0.000620 -0.004107 -0.001977 -0.003640 0.001507
# 2 -0.000620 0.012448 -0.002256 -0.001487 -0.000839 0.001582
# 3 -0.004107 -0.002256 0.009077 -0.002787 -0.002980 0.001457
# 4 -0.001977 -0.001487 -0.002787 0.019448 0.004159 -0.000807
# 5 -0.003640 -0.000839 -0.002980 0.004159 0.023828 -0.004170
# 6 0.001507 0.001582 0.001457 -0.000807 -0.004170 0.021655
#
#
# Mechanical properties :
#
#
# Convention : Reuss Voigt Hill
#
# Bulk Modulus (GPa) = 36.40488 53.34107 44.87298
# Shear Modulus (GPa) = 38.61420 45.61412 42.11416
#
# Velocity S-wave (km/s) = 3.96548 4.30995 4.14130
# Velocity P-wave (km/s) = 5.98264 6.81834 6.41412
#
# Compressibility (1/GPa) = 0.02746884
#
# Stress axis : x y z
#
# Youngs Moduli (GPa) = 50.22999 80.33328 110.16633
#
# Poissons Ratio (x) = 0.04980 0.45242
# Poissons Ratio (y) = 0.03114 0.24851
# Poissons Ratio (z) = 0.20628 0.18121
#
# Static dielectric constant tensor:
#      x y z
#    x 4.785160 0.023140 -0.055050 
#    y 0.023140 4.919610 0.112340 
#    z -0.055050 0.112340 4.456910 
# 
# 
# High freq. dielectric constant tensor:
#      x y z
#    x 1.956790 0.004830 -0.001070 
#    y 0.004830 2.001580 -0.003960 
#    z -0.001070 -0.003960 1.993220 
# 
# From -- ./inp_files/95362.got.cif
#   From: 2010.06.25/outbox.cif.g09.slc.cpg/sg2_48_cif.got.tgz:95362.got - 2010.06.27 13:26:56.
