data_PCOD8021240
_publ_section_title
;
Structure prediction by ZEFSAII (Michael W. Deem and Ramdas Pophale) SiO2 
 PCOD8021240
Probable space group: P -1
;
_chemical_formula_sum "Si O2"
_cell_formula_units_Z 14
_cell_length_a 9.776450
_cell_length_b 7.497620
_cell_length_c 21.789180
_cell_angle_alpha 124.796240
_cell_angle_beta 147.591908
_cell_angle_gamma 68.620199
_cell_volume 677.528236
_symmetry_space_group_name_H-M "P -1"
_symmetry_group_IT_number 2
_symmetry_cell_setting 'triclinic'
loop_
_space_group_symop_operation_xyz
x,y,z
-x,-y,-z
loop_
_atom_site_type_symbol
_atom_site_label
_atom_site_fract_x
_atom_site_fract_y
_atom_site_fract_z
Si Si1 0.679978 0.093436 0.144613
Si Si2 0.767341 0.866420 0.698229
Si Si3 0.557608 0.312096 0.941548
Si Si4 0.140234 0.446996 0.224031
Si Si5 0.773708 0.220013 0.572871
Si Si6 0.497187 0.233748 0.660745
Si Si7 0.292479 0.402964 0.736870
O O1 0.629013 0.329830 0.189843
O O2 0.985063 0.119191 0.249201
O O3 0.597614 0.932149 0.140004
O O4 0.500000 0.000000 0.000000
O O5 0.802787 0.751287 0.753092
O O6 0.500382 0.716989 0.534682
O O7 0.729862 0.116546 0.746285
O O8 0.466177 0.334450 0.842519
O O9 0.500000 0.500000 0.000000
O O10 0.871068 0.341943 0.064919
O O11 0.113276 0.661236 0.297071
O O12 0.376897 0.536330 0.282995
O O13 0.982536 0.315975 0.617301
O O14 0.711750 0.946022 0.497545
O O15 0.342139 0.286146 0.670505
#
# Coordination Sequence:
#
# PCOD8021240 Si02
#       7
#     2   2   2   2   2   2   2
#     4  12  22  41  69  96 126 173 218 265 315 385
#     4  10  23  40  68  95 129 164 223 263 319 381
#     4  12  23  39  70  95 129 168 222 263 318 386
#     4  12  21  43  67  98 124 174 222 262 315 394
#     4  10  22  43  69  91 134 169 219 266 314 390
#     4  10  27  40  67  97 135 169 209 273 334 369
#     4  12  25  45  62 102 134 166 215 275 322 379
#
# _framework density 20.663343999999999
#
# number of rings (size 3 to 8) (size 9 to 14) (size 15 to 20)
#    0.857    0.000    5.714    2.143    0.000    1.714 
#    0.000    2.143    0.000    0.000    0.000    0.000 
#    0.000    0.000    0.000    0.000    0.000    0.000 
#
# Total GULP energy -173574.828913 kJ/mol
# GULP energy per Si atom -12398.202065 kJ/mol
# Density = 2.061631 g / cm^3
# Si number density = 20.663344 Si / 1000 Ang^3
#
#
#
# Elastic Constant Matrix: (Units=GPa)
#
#
# Indices 1 2 3 4 5 6 
#
# 1 115.4555 26.9158 43.1919 3.1676 8.5110 12.2300
# 2 26.9158 101.4741 31.3209 13.3124 10.8518 17.7998
# 3 43.1919 31.3209 94.3110 -3.1286 21.3115 1.6830
# 4 3.1676 13.3124 -3.1286 18.6413 0.2432 5.1085
# 5 8.5110 10.8518 21.3115 0.2432 26.7456 8.5685
# 6 12.2300 17.7998 1.6830 5.1085 8.5685 37.7281
#
#
#
# Elastic Compliance Matrix: (Units=1/GPa)
#
#
# Indices 1 2 3 4 5 6 
#
# 1 0.011035 -0.000781 -0.005241 -0.001331 0.002037 -0.003257
# 2 -0.000781 0.013367 -0.004239 -0.008858 -0.000240 -0.004610
# 3 -0.005241 -0.004239 0.017208 0.005624 -0.011939 0.004881
# 4 -0.001331 -0.008858 0.005624 0.062270 0.000296 -0.004139
# 5 0.002037 -0.000240 -0.011939 0.000296 0.050005 -0.011411
# 6 -0.003257 -0.004610 0.004881 -0.004139 -0.011411 0.032671
#
#
# Mechanical properties :
#
#
# Convention : Reuss Voigt Hill
#
# Bulk Modulus (GPa) = 47.41810 57.12198 52.27004
# Shear Modulus (GPa) = 23.35270 30.61047 26.98158
#
# Velocity S-wave (km/s) = 3.36542 3.85306 3.61746
# Velocity P-wave (km/s) = 6.17245 6.89194 6.54209
#
# Compressibility (1/GPa) = 0.02108899
#
# Stress axis : x y z
#
# Youngs Moduli (GPa) = 90.61707 74.81313 58.11128
#
# Poissons Ratio (x) = 0.05846 0.30454
# Poissons Ratio (y) = 0.07081 0.24631
# Poissons Ratio (z) = 0.47490 0.31710
#
# Static dielectric constant tensor:
#      x y z
#    x 3.641160 0.127010 0.356950 
#    y 0.127010 3.961770 -0.001670 
#    z 0.356950 -0.001670 3.969900 
# 
# 
# High freq. dielectric constant tensor:
#      x y z
#    x 1.798590 0.012810 0.021820 
#    y 0.012810 1.811880 0.004760 
#    z 0.021820 0.004760 1.805860 
# 
# From -- ./inp_files/554644.got.cif
#   From: 2010.06.25/outbox.cif.g09.slc.cpg/sg2_278_cif.got.tgz:554644.got - 2010.06.27 13:26:56.
