data_PCOD8021983
_publ_section_title
;
Structure prediction by ZEFSAII (Michael W. Deem and Ramdas Pophale) SiO2 
 PCOD8021983
Probable space group: P -1
;
_chemical_formula_sum "Si O2"
_cell_formula_units_Z 16
_cell_length_a 11.242712
_cell_length_b 9.013762
_cell_length_c 8.595578
_cell_angle_alpha 132.910234
_cell_angle_beta 85.878014
_cell_angle_gamma 86.401659
_cell_volume 628.855945
_symmetry_space_group_name_H-M "P -1"
_symmetry_group_IT_number 2
_symmetry_cell_setting 'triclinic'
loop_
_space_group_symop_operation_xyz
x,y,z
-x,-y,-z
loop_
_atom_site_type_symbol
_atom_site_label
_atom_site_fract_x
_atom_site_fract_y
_atom_site_fract_z
Si Si1 0.874000 0.389222 0.513295
Si Si2 0.940839 0.423764 0.199266
Si Si3 0.690391 0.125275 0.392483
Si Si4 0.910209 0.975627 0.774642
Si Si5 0.487526 0.278219 0.037483
Si Si6 0.452010 0.285326 0.685914
Si Si7 0.201712 0.186627 0.617503
Si Si8 0.327392 0.038301 0.050613
O O1 0.858414 0.478593 0.402616
O O2 0.750137 0.332260 0.553671
O O3 0.923661 0.543523 0.740139
O O4 0.967789 0.179553 0.326738
O O5 0.886886 0.596595 0.201831
O O6 0.936915 0.203238 0.969339
O O7 0.571730 0.131884 0.515578
O O8 0.655360 0.107737 0.205574
O O9 0.785419 0.929356 0.301015
O O10 0.855717 0.965946 0.600787
O O11 0.812813 0.907457 0.855397
O O12 0.434960 0.277933 0.868111
O O13 0.382238 0.244541 0.147641
O O14 0.533921 0.490445 0.218541
O O15 0.598419 0.091433 0.911608
O O16 0.332704 0.227971 0.574113
#
# Coordination Sequence:
#
# PCOD8021983 Si02
#       8
#     2   2   2   2   2   2   2   2
#     4  10  24  45  69 100 132 174 226 277 328 390
#     4  10  22  44  71  95 130 174 225 274 330 393
#     4  12  25  43  65  97 141 172 220 275 329 392
#     4  11  23  44  74  95 134 177 222 276 333 390
#     4  10  24  43  66  98 136 175 225 265 334 404
#     4  11  24  44  66  97 139 178 212 275 336 398
#     4  11  25  43  67  98 137 176 218 272 340 395
#     4  11  23  41  67 100 131 173 224 274 325 396
#
# _framework density 25.443027000000001
#
# number of rings (size 3 to 8) (size 9 to 14) (size 15 to 20)
#    0.000    1.250    2.500    2.250    3.500    6.500 
#    0.000    1.250    0.000    0.000    0.000    0.000 
#    0.000    0.000    0.000    0.000    0.000    0.000 
#
# Total GULP energy -198410.527820 kJ/mol
# GULP energy per Si atom -12400.657989 kJ/mol
# Density = 2.538512 g / cm^3
# Si number density = 25.443027 Si / 1000 Ang^3
#
#
#
# Elastic Constant Matrix: (Units=GPa)
#
#
# Indices 1 2 3 4 5 6 
#
# 1 66.0972 8.2232 14.8978 4.0863 24.4372 9.0761
# 2 8.2232 95.9759 7.9130 15.0706 15.8308 -6.4040
# 3 14.8978 7.9130 85.9871 23.1807 23.9473 -2.5112
# 4 4.0863 15.0706 23.1807 30.8141 8.9164 2.5930
# 5 24.4372 15.8308 23.9473 8.9164 39.3521 2.7509
# 6 9.0761 -6.4040 -2.5112 2.5930 2.7509 37.4038
#
#
#
# Elastic Compliance Matrix: (Units=1/GPa)
#
#
# Indices 1 2 3 4 5 6 
#
# 1 0.020298 -0.000244 -0.000724 0.001857 -0.012190 -0.004248
# 2 -0.000244 0.012274 0.002067 -0.006394 -0.004812 0.003097
# 3 -0.000724 0.002067 0.017127 -0.011634 -0.008385 0.003103
# 4 0.001857 -0.006394 -0.011634 0.044912 -0.001304 -0.005344
# 5 -0.012190 -0.004812 -0.008385 -0.001304 0.040407 -0.001310
# 6 -0.004248 0.003097 0.003103 -0.005344 -0.001310 0.028971
#
#
# Mechanical properties :
#
#
# Convention : Reuss Voigt Hill
#
# Bulk Modulus (GPa) = 19.26887 34.45869 26.86378
# Shear Modulus (GPa) = 27.91877 35.98243 31.95060
#
# Velocity S-wave (km/s) = 3.31615 3.76471 3.54753
# Velocity P-wave (km/s) = 4.71723 5.69827 5.23080
#
# Compressibility (1/GPa) = 0.05189717
#
# Stress axis : x y z
#
# Youngs Moduli (GPa) = 49.26565 81.47273 58.38710
#
# Poissons Ratio (x) = 0.01986 0.04228
# Poissons Ratio (y) = 0.01201 -0.12068
# Poissons Ratio (z) = 0.03567 -0.16840
#
# Static dielectric constant tensor:
#      x y z
#    x 4.679850 0.184430 0.311970 
#    y 0.184430 4.740420 0.148610 
#    z 0.311970 0.148610 4.263390 
# 
# 
# High freq. dielectric constant tensor:
#      x y z
#    x 2.019140 0.004080 0.023500 
#    y 0.004080 2.030860 0.012940 
#    z 0.023500 0.012940 1.997020 
# 
# From -- ./inp_files/245974.got.cif
#   From: 2010.06.25/outbox.cif.g09.slc.cpg/sg2_123_cif.got.tgz:245974.got - 2010.06.27 13:26:56.
