data_PCOD8021874
_publ_section_title
;
Structure prediction by ZEFSAII (Michael W. Deem and Ramdas Pophale) SiO2 
 PCOD8021874
Probable space group: P -1
;
_chemical_formula_sum "Si O2"
_cell_formula_units_Z 16
_cell_length_a 14.113871
_cell_length_b 16.889184
_cell_length_c 6.647941
_cell_angle_alpha 89.391781
_cell_angle_beta 94.576442
_cell_angle_gamma 152.846753
_cell_volume 714.520366
_symmetry_space_group_name_H-M "P -1"
_symmetry_group_IT_number 2
_symmetry_cell_setting 'triclinic'
loop_
_space_group_symop_operation_xyz
x,y,z
-x,-y,-z
loop_
_atom_site_type_symbol
_atom_site_label
_atom_site_fract_x
_atom_site_fract_y
_atom_site_fract_z
Si Si1 0.673829 0.218415 0.445965
Si Si2 0.655643 0.108496 0.832990
Si Si3 0.796728 0.869795 0.090003
Si Si4 0.486601 0.396599 0.281792
Si Si5 0.068872 0.711958 0.779738
Si Si6 0.361003 0.642077 0.455770
Si Si7 0.216153 0.993801 0.682136
Si Si8 0.188220 0.238648 0.563488
O O1 0.679450 0.201687 0.686910
O O2 0.836368 0.287426 0.342102
O O3 0.734053 0.355945 0.427522
O O4 0.436416 0.029265 0.322860
O O5 0.880812 0.259426 0.973122
O O6 0.500000 0.000000 0.000000
O O7 0.815826 0.846391 0.314797
O O8 0.788479 0.958470 0.113613
O O9 0.589762 0.682494 0.951578
O O10 0.000000 0.000000 0.000000
O O11 0.554027 0.366038 0.399006
O O12 0.299428 0.303300 0.368231
O O13 0.684630 0.601579 0.291238
O O14 0.169671 0.868393 0.718887
O O15 0.817175 0.524873 0.719249
O O16 0.550045 0.824049 0.365604
O O17 0.044612 0.900728 0.500531
#
# Coordination Sequence:
#
# PCOD8021874 Si02
#       8
#     2   2   2   2   2   2   2   2
#     4  10  22  44  69  97 134 177 223 279 333 399
#     4   9  19  41  69  94 128 173 218 270 337 392
#     4  12  24  42  68  99 132 182 226 271 341 404
#     4  11  24  44  70 100 134 177 229 280 336 405
#     4  11  25  46  66 100 135 179 221 278 339 394
#     4  12  24  44  69 100 136 175 227 280 335 400
#     4  12  24  44  69  98 139 177 224 279 334 401
#     4  11  23  48  69  94 140 177 222 288 338 394
#
# _framework density 22.392643
#
# number of rings (size 3 to 8) (size 9 to 14) (size 15 to 20)
#    0.000    1.000    3.750    4.125    1.750    0.500 
#    6.750    0.000    0.000    0.000    0.000    0.000 
#    0.000    0.000    0.000    0.000    0.000    0.000 
#
# Total GULP energy -198351.899497 kJ/mol
# GULP energy per Si atom -12396.993719 kJ/mol
# Density = 2.234168 g / cm^3
# Si number density = 22.392643 Si / 1000 Ang^3
#
#
#
# Elastic Constant Matrix: (Units=GPa)
#
#
# Indices 1 2 3 4 5 6 
#
# 1 106.2754 28.7931 23.0156 6.8989 0.2653 -12.7054
# 2 28.7931 103.5679 22.3442 14.6560 1.3825 4.2795
# 3 23.0156 22.3442 112.2939 18.9867 14.4504 13.3535
# 4 6.8989 14.6560 18.9867 33.0098 0.2258 3.9526
# 5 0.2653 1.3825 14.4504 0.2258 32.4931 5.4788
# 6 -12.7054 4.2795 13.3535 3.9526 5.4788 27.7186
#
#
#
# Elastic Compliance Matrix: (Units=1/GPa)
#
#
# Indices 1 2 3 4 5 6 
#
# 1 0.011631 -0.002901 -0.002559 -0.000520 -0.000026 0.007091
# 2 -0.002901 0.011240 -0.000798 -0.003662 0.000300 -0.002218
# 3 -0.002559 -0.000798 0.011605 -0.005150 -0.004215 -0.005073
# 4 -0.000520 -0.003662 -0.005150 0.035302 0.002669 -0.002754
# 5 -0.000026 0.000300 -0.004215 0.002669 0.033466 -0.005023
# 6 0.007091 -0.002218 -0.005073 -0.002754 -0.005023 0.043499
#
#
# Mechanical properties :
#
#
# Convention : Reuss Voigt Hill
#
# Bulk Modulus (GPa) = 45.53403 52.27146 48.90275
# Shear Modulus (GPa) = 30.01609 35.17658 32.59633
#
# Velocity S-wave (km/s) = 3.66518 3.96776 3.81947
# Velocity P-wave (km/s) = 6.18788 6.66218 6.42941
#
# Compressibility (1/GPa) = 0.02196159
#
# Stress axis : x y z
#
# Youngs Moduli (GPa) = 85.97636 88.96931 86.17206
#
# Poissons Ratio (x) = 0.25807 0.22049
# Poissons Ratio (y) = 0.24938 0.06874
# Poissons Ratio (z) = 0.21999 0.07097
#
# Static dielectric constant tensor:
#      x y z
#    x 4.167450 -0.055090 0.001880 
#    y -0.055090 4.082640 0.521420 
#    z 0.001880 0.521420 4.426850 
# 
# 
# High freq. dielectric constant tensor:
#      x y z
#    x 1.885390 -0.009090 0.002870 
#    y -0.009090 1.887800 0.026030 
#    z 0.002870 0.026030 1.877440 
# 
# From -- ./inp_files/99779.got.cif
#   From: 2010.06.25/outbox.cif.g09.slc.cpg/sg2_50_cif.got.tgz:99779.got - 2010.06.27 13:26:56.
