data_PCOD8021468
_publ_section_title
;
Structure prediction by ZEFSAII (Michael W. Deem and Ramdas Pophale) SiO2 
 PCOD8021468
Probable space group: P -1
;
_chemical_formula_sum "Si O2"
_cell_formula_units_Z 16
_cell_length_a 8.518410
_cell_length_b 5.403854
_cell_length_c 19.647848
_cell_angle_alpha 108.331733
_cell_angle_beta 118.306781
_cell_angle_gamma 55.312959
_cell_volume 653.515156
_symmetry_space_group_name_H-M "P -1"
_symmetry_group_IT_number 2
_symmetry_cell_setting 'triclinic'
loop_
_space_group_symop_operation_xyz
x,y,z
-x,-y,-z
loop_
_atom_site_type_symbol
_atom_site_label
_atom_site_fract_x
_atom_site_fract_y
_atom_site_fract_z
Si Si1 0.200105 0.378493 0.574480
Si Si2 0.861922 0.801582 0.757980
Si Si3 0.866714 0.350124 0.980851
Si Si4 0.256748 0.346837 0.882168
Si Si5 0.691124 0.283662 0.475835
Si Si6 0.990829 0.324453 0.643213
Si Si7 0.548657 0.310166 0.826366
Si Si8 0.171474 0.902497 0.761880
O O1 0.322142 0.537603 0.582118
O O2 0.119454 0.465582 0.643826
O O3 0.000000 0.500000 0.500000
O O4 0.325392 0.012722 0.566330
O O5 0.050733 0.626073 0.833285
O O6 0.824642 0.573758 0.682634
O O7 0.942450 0.965608 0.737530
O O8 0.651338 0.019600 0.772526
O O9 0.725676 0.386291 0.889815
O O10 0.717314 0.557360 0.028886
O O11 0.000000 0.500000 0.000000
O O12 0.000000 0.000000 0.000000
O O13 0.463686 0.251433 0.873698
O O14 0.228633 0.056773 0.848993
O O15 0.500000 0.500000 0.500000
O O16 0.895788 0.203429 0.555915
O O17 0.160040 0.046501 0.698261
O O18 0.360425 0.563038 0.766487
#
# Coordination Sequence:
#
# PCOD8021468 Si02
#       8
#     2   2   2   2   2   2   2   2
#     4  10  22  43  73  96 135 179 226 285 345 407
#     4  10  22  44  65  96 142 180 233 288 345 424
#     4  12  26  44  78 102 140 189 236 293 361 404
#     4  10  23  44  67 101 138 180 240 292 352 407
#     4  11  24  45  71 105 139 173 234 295 341 414
#     4  10  23  43  67  95 138 184 227 278 359 410
#     4  11  24  44  71 101 141 182 241 288 349 416
#     4  10  24  42  67  97 140 184 234 286 348 420
#
# _framework density 24.482984999999999
#
# number of rings (size 3 to 8) (size 9 to 14) (size 15 to 20)
#    0.000    1.500    1.250    3.000    8.750    2.500 
#    9.000    0.000    0.000    0.000    0.000    0.000 
#    0.000    0.000    0.000    0.000    0.000    0.000 
#
# Total GULP energy -198296.556325 kJ/mol
# GULP energy per Si atom -12393.534770 kJ/mol
# Density = 2.442726 g / cm^3
# Si number density = 24.482985 Si / 1000 Ang^3
#
#
#
# Elastic Constant Matrix: (Units=GPa)
#
#
# Indices 1 2 3 4 5 6 
#
# 1 89.5204 50.1421 15.2425 2.8167 -26.9949 -1.6539
# 2 50.1421 126.4429 35.9068 20.5417 -24.3084 -5.2516
# 3 15.2425 35.9068 104.2389 20.6133 -20.9367 -6.2604
# 4 2.8167 20.5417 20.6133 44.0496 -3.1194 -9.8653
# 5 -26.9949 -24.3084 -20.9367 -3.1194 44.2658 7.5693
# 6 -1.6539 -5.2516 -6.2604 -9.8653 7.5693 43.3173
#
#
#
# Elastic Compliance Matrix: (Units=1/GPa)
#
#
# Indices 1 2 3 4 5 6 
#
# 1 0.016349 -0.005514 0.000658 0.001546 0.007518 -0.000911
# 2 -0.005514 0.011685 -0.002061 -0.004078 0.001851 -0.000344
# 3 0.000658 -0.002061 0.012008 -0.004440 0.004691 -0.000320
# 4 0.001546 -0.004078 -0.004440 0.027676 -0.002412 0.005648
# 5 0.007518 0.001851 0.004691 -0.002412 0.031059 -0.004787
# 6 -0.000911 -0.000344 -0.000320 0.005648 -0.004787 0.025085
#
#
# Mechanical properties :
#
#
# Convention : Reuss Voigt Hill
#
# Bulk Modulus (GPa) = 38.15691 58.08721 48.12206
# Shear Modulus (GPa) = 34.14578 40.92061 37.53319
#
# Velocity S-wave (km/s) = 3.73858 4.09270 3.91964
# Velocity P-wave (km/s) = 5.85277 6.79048 6.33899
#
# Compressibility (1/GPa) = 0.02620757
#
# Stress axis : x y z
#
# Youngs Moduli (GPa) = 61.16754 85.58323 83.27773
#
# Poissons Ratio (x) = 0.47189 -0.05482
# Poissons Ratio (y) = 0.33726 0.17166
# Poissons Ratio (z) = -0.04027 0.17641
#
# Static dielectric constant tensor:
#      x y z
#    x 4.747450 0.359580 -0.520690 
#    y 0.359580 4.552930 -0.012490 
#    z -0.520690 -0.012490 7.639880 
# 
# 
# High freq. dielectric constant tensor:
#      x y z
#    x 1.964400 0.007530 -0.011050 
#    y 0.007530 1.975490 0.015790 
#    z -0.011050 0.015790 1.980650 
# 
# From -- ./inp_files/553635.got.cif
#   From: 2010.06.25/outbox.cif.g09.slc.cpg/sg2_277_cif.got.tgz:553635.got - 2010.06.27 13:26:56.
