data_PCOD8021845
_publ_section_title
;
Structure prediction by ZEFSAII (Michael W. Deem and Ramdas Pophale) SiO2 
 PCOD8021845
Probable space group: P -1
;
_chemical_formula_sum "Si O2"
_cell_formula_units_Z 16
_cell_length_a 6.815041
_cell_length_b 11.484489
_cell_length_c 12.005332
_cell_angle_alpha 106.880411
_cell_angle_beta 60.475337
_cell_angle_gamma 115.001041
_cell_volume 736.971816
_symmetry_space_group_name_H-M "P -1"
_symmetry_group_IT_number 2
_symmetry_cell_setting 'triclinic'
loop_
_space_group_symop_operation_xyz
x,y,z
-x,-y,-z
loop_
_atom_site_type_symbol
_atom_site_label
_atom_site_fract_x
_atom_site_fract_y
_atom_site_fract_z
Si Si1 0.127573 0.507355 0.286048
Si Si2 0.729695 0.130640 0.345218
Si Si3 0.305720 0.865034 0.050019
Si Si4 0.537593 0.719298 0.114140
Si Si5 0.943631 0.668133 0.544086
Si Si6 0.030555 0.723782 0.881678
Si Si7 0.780856 0.867094 0.523751
Si Si8 0.180052 0.122328 0.722981
O O1 0.359236 0.584212 0.171100
O O2 0.202472 0.435470 0.350618
O O3 0.951857 0.404560 0.220222
O O4 0.991075 0.599828 0.399672
O O5 0.458755 0.101811 0.373799
O O6 0.803960 0.247418 0.446548
O O7 0.895570 0.160883 0.196829
O O8 0.772953 0.009675 0.357173
O O9 0.406165 0.790355 0.091167
O O10 0.088455 0.903261 0.170164
O O11 0.211727 0.765337 0.946150
O O12 0.500000 0.000000 0.000000
O O13 0.628049 0.807971 0.219984
O O14 0.755787 0.694763 0.983613
O O15 0.797526 0.763067 0.581239
O O16 0.771822 0.800988 0.386120
O O17 0.000000 0.000000 0.500000
#
# Coordination Sequence:
#
# PCOD8021845 Si02
#       8
#     2   2   2   2   2   2   2   2
#     4  10  22  44  69  89 137 177 217 268 317 387
#     4  11  23  41  63  96 138 166 212 272 328 391
#     4  11  24  41  67  97 132 171 218 273 328 382
#     4  11  23  42  67  93 132 175 220 269 321 381
#     4  10  23  44  65  97 131 174 216 266 330 384
#     4  10  24  42  63  97 124 175 226 262 325 380
#     4  12  25  38  67 100 128 169 216 267 333 388
#     4  11  24  39  64 100 132 170 215 264 332 394
#
# _framework density 21.710464999999999
#
# number of rings (size 3 to 8) (size 9 to 14) (size 15 to 20)
#    0.000    1.250    1.250    3.750    5.250    4.500 
#    0.000   17.500    0.000    0.000    0.000    0.000 
#    0.000    0.000    0.000    0.000    0.000    0.000 
#
# Total GULP energy -198394.042022 kJ/mol
# GULP energy per Si atom -12399.627626 kJ/mol
# Density = 2.166105 g / cm^3
# Si number density = 21.710465 Si / 1000 Ang^3
#
#
#
# Elastic Constant Matrix: (Units=GPa)
#
#
# Indices 1 2 3 4 5 6 
#
# 1 125.6097 56.2221 45.5632 -1.0220 16.9300 1.1905
# 2 56.2221 111.7491 42.9510 -8.2417 5.8775 -2.0312
# 3 45.5632 42.9510 105.4180 -0.3015 9.6869 7.7006
# 4 -1.0220 -8.2417 -0.3015 43.8115 1.2871 2.4331
# 5 16.9300 5.8775 9.6869 1.2871 26.8382 -6.2002
# 6 1.1905 -2.0312 7.7006 2.4331 -6.2002 30.2886
#
#
#
# Elastic Compliance Matrix: (Units=1/GPa)
#
#
# Indices 1 2 3 4 5 6 
#
# 1 0.011771 -0.004689 -0.002557 -0.000385 -0.005752 -0.001273
# 2 -0.004689 0.012743 -0.003482 0.002092 0.001815 0.002127
# 3 -0.002557 -0.003482 0.012577 -0.000320 -0.003057 -0.003931
# 4 -0.000385 0.002092 -0.000320 0.023367 -0.001679 -0.001984
# 5 -0.005752 0.001815 -0.003057 -0.001679 0.044049 0.010277
# 6 -0.001273 0.002127 -0.003931 -0.001984 0.010277 0.036471
#
#
# Mechanical properties :
#
#
# Convention : Reuss Voigt Hill
#
# Bulk Modulus (GPa) = 63.95162 70.24992 67.10077
# Shear Modulus (GPa) = 29.82486 33.39037 31.60761
#
# Velocity S-wave (km/s) = 3.71044 3.92597 3.81973
# Velocity P-wave (km/s) = 6.91932 7.27866 7.10126
#
# Compressibility (1/GPa) = 0.01563682
#
# Stress axis : x y z
#
# Youngs Moduli (GPa) = 84.95146 78.47289 79.51078
#
# Poissons Ratio (x) = 0.36793 0.20331
# Poissons Ratio (y) = 0.39830 0.27684
# Poissons Ratio (z) = 0.21723 0.27322
#
# Static dielectric constant tensor:
#      x y z
#    x 3.840120 0.127810 0.196130 
#    y 0.127810 3.997770 -0.104700 
#    z 0.196130 -0.104700 4.205340 
# 
# 
# High freq. dielectric constant tensor:
#      x y z
#    x 1.844930 0.006750 0.013400 
#    y 0.006750 1.855860 -0.004620 
#    z 0.013400 -0.004620 1.871030 
# 
# From -- ./inp_files/101147.got.cif
#   From: 2010.06.25/outbox.cif.g09.slc.cpg/sg2_51_cif.got.tgz:101147.got - 2010.06.27 13:26:56.
