data_PCOD8021103
_publ_section_title
;
Structure prediction by ZEFSAII (Michael W. Deem and Ramdas Pophale) SiO2 
 PCOD8021103
Probable space group: P -1
;
_chemical_formula_sum "Si O2"
_cell_formula_units_Z 14
_cell_length_a 6.445944
_cell_length_b 20.838734
_cell_length_c 6.107536
_cell_angle_alpha 55.144853
_cell_angle_beta 77.422108
_cell_angle_gamma 64.743557
_cell_volume 608.486426
_symmetry_space_group_name_H-M "P -1"
_symmetry_group_IT_number 2
_symmetry_cell_setting 'triclinic'
loop_
_space_group_symop_operation_xyz
x,y,z
-x,-y,-z
loop_
_atom_site_type_symbol
_atom_site_label
_atom_site_fract_x
_atom_site_fract_y
_atom_site_fract_z
Si Si1 0.727298 0.094264 0.053357
Si Si2 0.273792 0.790620 0.792253
Si Si3 0.642796 0.801906 0.397270
Si Si4 0.110981 0.096419 0.646168
Si Si5 0.938277 0.326386 0.709492
Si Si6 0.917024 0.570430 0.199073
Si Si7 0.709928 0.480748 0.154342
O O1 0.664780 0.147998 0.180898
O O2 0.759253 0.998456 0.285374
O O3 0.508265 0.135512 0.871754
O O4 0.960520 0.097165 0.892868
O O5 0.493301 0.755213 0.646269
O O6 0.042625 0.846972 0.618055
O O7 0.229579 0.715591 0.071213
O O8 0.703104 0.863474 0.426185
O O9 0.875097 0.731952 0.388416
O O10 0.755459 0.405687 0.467123
O O11 0.088106 0.345936 0.835572
O O12 0.689494 0.563990 0.145363
O O13 0.000000 0.500000 0.500000
O O14 0.079199 0.550895 0.993730
O O15 0.500000 0.500000 0.000000
#
# Coordination Sequence:
#
# PCOD8021103 Si02
#       7
#     2   2   2   2   2   2   2
#     4  10  22  43  67  98 135 187 231 282 337 398
#     4  11  25  43  66 102 134 182 232 274 349 391
#     4  11  25  43  66 101 137 178 234 277 342 399
#     4  10  22  43  68  95 141 179 237 284 326 409
#     4  11  25  47  68  99 146 171 218 293 331 402
#     4   9  22  47  70 100 133 172 215 268 344 402
#     4  10  23  49  74 101 130 175 226 266 336 417
#
# _framework density 23.007909000000001
#
# number of rings (size 3 to 8) (size 9 to 14) (size 15 to 20)
#    0.000    1.714    1.429    0.857    4.000    2.857 
#   20.571    0.000    0.000    0.000    0.000    0.000 
#    0.000    0.000    0.000    0.000    0.000    0.000 
#
# Total GULP energy -173462.440028 kJ/mol
# GULP energy per Si atom -12390.174288 kJ/mol
# Density = 2.295554 g / cm^3
# Si number density = 23.007909 Si / 1000 Ang^3
#
#
#
# Elastic Constant Matrix: (Units=GPa)
#
#
# Indices 1 2 3 4 5 6 
#
# 1 148.3273 50.8515 61.6522 -10.6102 17.9700 28.9863
# 2 50.8515 95.6178 41.4805 -9.7118 -5.7234 30.5667
# 3 61.6522 41.4805 128.7958 -8.5986 -1.7738 12.5062
# 4 -10.6102 -9.7118 -8.5986 27.5101 6.7919 6.3355
# 5 17.9700 -5.7234 -1.7738 6.7919 33.1699 10.2474
# 6 28.9863 30.5667 12.5062 6.3355 10.2474 43.3042
#
#
#
# Elastic Compliance Matrix: (Units=1/GPa)
#
#
# Indices 1 2 3 4 5 6 
#
# 1 0.011179 -0.003258 -0.003800 0.004359 -0.006748 -0.003126
# 2 -0.003258 0.018388 -0.002670 0.005434 0.007580 -0.012616
# 3 -0.003800 -0.002670 0.010385 0.000164 0.001818 0.000975
# 4 0.004359 0.005434 0.000164 0.044391 -0.006902 -0.011663
# 5 -0.006748 0.007580 0.001818 -0.006902 0.039627 -0.009726
# 6 -0.003126 -0.012616 0.000975 -0.011663 -0.009726 0.037817
#
#
# Mechanical properties :
#
#
# Convention : Reuss Voigt Hill
#
# Bulk Modulus (GPa) = 48.79393 75.63437 62.21415
# Shear Modulus (GPa) = 26.58510 35.38061 30.98285
#
# Velocity S-wave (km/s) = 3.40292 3.92568 3.67361
# Velocity P-wave (km/s) = 6.05750 7.31386 6.71513
#
# Compressibility (1/GPa) = 0.02049435
#
# Stress axis : x y z
#
# Youngs Moduli (GPa) = 89.45555 54.38210 96.29722
#
# Poissons Ratio (x) = 0.17720 0.36593
# Poissons Ratio (y) = 0.29148 0.25714
# Poissons Ratio (z) = 0.33993 0.14521
#
# Static dielectric constant tensor:
#      x y z
#    x 4.503070 0.427700 -0.131870 
#    y 0.427700 4.302600 0.070060 
#    z -0.131870 0.070060 4.202420 
# 
# 
# High freq. dielectric constant tensor:
#      x y z
#    x 1.915200 0.017120 0.000480 
#    y 0.017120 1.905170 0.006400 
#    z 0.000480 0.006400 1.923300 
# 
# From -- ./inp_files/6437.got.cif
#   From: 2010.06.25/outbox.cif.g09.slc.cpg/sg2_4_cif.got.tgz:6437.got - 2010.06.27 13:26:56.
