data_PCOD8021492
_publ_section_title
;
Structure prediction by ZEFSAII (Michael W. Deem and Ramdas Pophale) SiO2 
 PCOD8021492
Probable space group: P -1
;
_chemical_formula_sum "Si O2"
_cell_formula_units_Z 16
_cell_length_a 12.071154
_cell_length_b 10.942682
_cell_length_c 11.036992
_cell_angle_alpha 118.239863
_cell_angle_beta 54.691600
_cell_angle_gamma 144.647328
_cell_volume 688.371277
_symmetry_space_group_name_H-M "P -1"
_symmetry_group_IT_number 2
_symmetry_cell_setting 'triclinic'
loop_
_space_group_symop_operation_xyz
x,y,z
-x,-y,-z
loop_
_atom_site_type_symbol
_atom_site_label
_atom_site_fract_x
_atom_site_fract_y
_atom_site_fract_z
Si Si1 0.834612 0.521166 0.445378
Si Si2 0.884539 0.791001 0.044654
Si Si3 0.959853 0.379748 0.156896
Si Si4 0.813533 0.021647 0.572661
Si Si5 0.595758 0.400540 0.320445
Si Si6 0.442228 0.485249 0.270378
Si Si7 0.083924 0.011139 0.265805
Si Si8 0.295907 0.764885 0.975639
O O1 0.844566 0.363171 0.338657
O O2 0.786076 0.566594 0.370389
O O3 0.658211 0.437181 0.612717
O O4 0.064150 0.749808 0.448105
O O5 0.640621 0.640533 0.129923
O O6 0.969891 0.843138 0.151430
O O7 0.934833 0.683165 0.897016
O O8 0.000000 0.000000 0.000000
O O9 0.795299 0.226695 0.081018
O O10 0.129509 0.625544 0.123804
O O11 0.912075 0.962996 0.423462
O O12 0.569910 0.823675 0.604229
O O13 0.817090 0.021554 0.718246
O O14 0.503469 0.474285 0.361743
O O15 0.664988 0.366867 0.142688
O O16 0.266738 0.251995 0.212571
O O17 0.500000 0.000000 0.000000
#
# Coordination Sequence:
#
# PCOD8021492 Si02
#       8
#     2   2   2   2   2   2   2   2
#     4  10  19  33  54  82 117 143 184 240 292 349
#     4  12  25  41  59  79 118 163 203 243 274 334
#     4  10  23  36  53  86 117 152 193 233 295 351
#     4   9  17  31  56  87 116 146 176 240 291 349
#     4  10  17  28  51  85 113 147 178 220 295 357
#     4  10  20  36  57  80 109 150 198 242 278 340
#     4   9  20  34  55  85 116 146 194 235 290 338
#     4  10  20  33  54  83 122 152 173 234 303 357
#
# _framework density 23.243269999999999
#
# number of rings (size 3 to 8) (size 9 to 14) (size 15 to 20)
#    0.000    2.000    1.250    3.375    7.000    0.500 
#    0.000    0.625    0.000    3.000    0.000    0.000 
#    0.000    0.000    0.000    0.000    0.000    0.000 
#
# Total GULP energy -198267.694329 kJ/mol
# GULP energy per Si atom -12391.730896 kJ/mol
# Density = 2.319037 g / cm^3
# Si number density = 23.243270 Si / 1000 Ang^3
#
#
#
# Elastic Constant Matrix: (Units=GPa)
#
#
# Indices 1 2 3 4 5 6 
#
# 1 34.7650 24.1234 28.9388 -2.5427 -26.3032 -4.8366
# 2 24.1234 96.5812 28.0124 -6.2337 -21.5710 16.7571
# 3 28.9388 28.0124 79.5509 -2.5087 -43.4599 -8.2341
# 4 -2.5427 -6.2337 -2.5087 32.2808 3.5616 -7.9158
# 5 -26.3032 -21.5710 -43.4599 3.5616 35.1815 4.2601
# 6 -4.8366 16.7571 -8.2341 -7.9158 4.2601 34.0309
#
#
#
# Elastic Compliance Matrix: (Units=1/GPa)
#
#
# Indices 1 2 3 4 5 6 
#
# 1 0.075459 -0.009881 0.012072 0.000527 0.063930 0.010630
# 2 -0.009881 0.015226 -0.003245 -0.000366 -0.000853 -0.009665
# 3 0.012072 -0.003245 0.041259 -0.001389 0.057443 0.005782
# 4 0.000527 -0.000366 -0.001389 0.033579 -0.005972 0.008477
# 5 0.063930 -0.000853 0.057443 -0.005972 0.146822 0.003636
# 6 0.010630 -0.009665 0.005782 0.008477 0.003636 0.038571
#
#
# Mechanical properties :
#
#
# Convention : Reuss Voigt Hill
#
# Bulk Modulus (GPa) = 7.70207 41.44960 24.57584
# Shear Modulus (GPa) = 12.61666 28.95346 20.78506
#
# Velocity S-wave (km/s) = 2.33235 3.53323 2.99363
# Velocity P-wave (km/s) = 3.25177 5.87509 4.74819
#
# Compressibility (1/GPa) = 0.12983521
#
# Stress axis : x y z
#
# Youngs Moduli (GPa) = 13.25227 65.67719 24.23738
#
# Poissons Ratio (x) = 0.64895 -0.29259
# Poissons Ratio (y) = 0.13094 0.07865
# Poissons Ratio (z) = -0.15998 0.21313
#
# Static dielectric constant tensor:
#      x y z
#    x 3.779290 0.423790 -0.485460 
#    y 0.423790 4.111770 0.070270 
#    z -0.485460 0.070270 4.248730 
# 
# 
# High freq. dielectric constant tensor:
#      x y z
#    x 1.863820 0.033310 -0.046930 
#    y 0.033310 1.918850 0.011670 
#    z -0.046930 0.011670 1.916050 
# 
# From -- ./inp_files/424951.got.cif
#   From: 2010.06.25/outbox.cif.g09.slc.cpg/sg2_213_cif.got.tgz:424951.got - 2010.06.27 13:26:56.
