data_PCOD8021464
_publ_section_title
;
Structure prediction by ZEFSAII (Michael W. Deem and Ramdas Pophale) SiO2 
 PCOD8021464
Probable space group: P -1
;
_chemical_formula_sum "Si O2"
_cell_formula_units_Z 14
_cell_length_a 9.584373
_cell_length_b 12.933339
_cell_length_c 19.033489
_cell_angle_alpha 27.862827
_cell_angle_beta 150.027596
_cell_angle_gamma 138.374763
_cell_volume 549.168243
_symmetry_space_group_name_H-M "P -1"
_symmetry_group_IT_number 2
_symmetry_cell_setting 'triclinic'
loop_
_space_group_symop_operation_xyz
x,y,z
-x,-y,-z
loop_
_atom_site_type_symbol
_atom_site_label
_atom_site_fract_x
_atom_site_fract_y
_atom_site_fract_z
Si Si1 0.915168 0.305191 0.129203
Si Si2 0.424429 0.039027 0.023660
Si Si3 0.863995 0.288899 0.596217
Si Si4 0.722935 0.536454 0.515168
Si Si5 0.944698 0.199153 0.908508
Si Si6 0.352892 0.390327 0.064286
Si Si7 0.819364 0.152601 0.507612
O O1 0.620198 0.215504 0.033059
O O2 0.866142 0.415511 0.117412
O O3 0.157122 0.103289 0.354244
O O4 0.000000 0.500000 0.000000
O O5 0.378216 0.813197 0.186798
O O6 0.102518 0.134746 0.832294
O O7 0.500000 0.000000 0.000000
O O8 0.646561 0.388070 0.501971
O O9 0.739615 0.164525 0.549076
O O10 0.000000 0.500000 0.500000
O O11 0.500000 0.500000 0.500000
O O12 0.981383 0.412331 0.747405
O O13 0.863635 0.765353 0.415638
O O14 0.173542 0.195094 0.073473
O O15 0.000000 0.000000 0.000000
O O16 0.569603 0.287411 0.277868
O O17 0.500000 0.500000 0.000000
#
# Coordination Sequence:
#
# PCOD8021464 Si02
#       7
#     2   2   2   2   2   2   2
#     4  12  27  49  76 115 153 202 258 316 394 463
#     4  12  23  45  75 106 150 195 251 314 371 461
#     4  10  22  43  73 108 149 198 250 314 384 453
#     4  11  23  44  75 116 148 196 260 315 382 461
#     4  12  25  48  77 108 148 205 254 313 389 453
#     4  12  27  52  76 107 161 202 255 325 390 462
#     4  11  25  52  74 109 159 203 252 320 393 459
#
# _framework density 25.493099000000001
#
# number of rings (size 3 to 8) (size 9 to 14) (size 15 to 20)
#    0.000    0.571    4.286    4.286    2.000    1.143 
#    7.714    0.000    0.000    0.000    0.000    0.000 
#    0.000    0.000    0.000    0.000    0.000    0.000 
#
# Total GULP energy -173436.621559 kJ/mol
# GULP energy per Si atom -12388.330111 kJ/mol
# Density = 2.543508 g / cm^3
# Si number density = 25.493099 Si / 1000 Ang^3
#
#
#
# Elastic Constant Matrix: (Units=GPa)
#
#
# Indices 1 2 3 4 5 6 
#
# 1 205.4455 62.2152 33.0950 -18.9536 0.1827 -24.2357
# 2 62.2152 137.5986 28.8626 -3.6231 6.5321 -15.3313
# 3 33.0950 28.8626 60.7874 -18.9145 -10.5886 -11.2056
# 4 -18.9536 -3.6231 -18.9145 45.6787 -3.4830 -0.4627
# 5 0.1827 6.5321 -10.5886 -3.4830 44.6037 -13.1967
# 6 -24.2357 -15.3313 -11.2056 -0.4627 -13.1967 58.0487
#
#
#
# Elastic Compliance Matrix: (Units=1/GPa)
#
#
# Indices 1 2 3 4 5 6 
#
# 1 0.006163 -0.002314 -0.001154 0.001974 0.000765 0.001929
# 2 -0.002314 0.009274 -0.004240 -0.002170 -0.002501 0.000079
# 3 -0.001154 -0.004240 0.024774 0.010172 0.008862 0.005277
# 4 0.001974 -0.002170 0.010172 0.027245 0.005973 0.003790
# 5 0.000765 -0.002501 0.008862 0.005973 0.027631 0.007698
# 6 0.001929 0.000079 0.005277 0.003790 0.007698 0.020852
#
#
# Mechanical properties :
#
#
# Convention : Reuss Voigt Hill
#
# Bulk Modulus (GPa) = 40.33064 72.46413 56.39739
# Shear Modulus (GPa) = 35.81201 48.31013 42.06107
#
# Velocity S-wave (km/s) = 3.75210 4.35791 4.06630
# Velocity P-wave (km/s) = 5.88435 7.33543 6.64959
#
# Compressibility (1/GPa) = 0.02479504
#
# Stress axis : x y z
#
# Youngs Moduli (GPa) = 162.25788 107.83415 40.36549
#
# Poissons Ratio (x) = 0.24953 0.04657
# Poissons Ratio (y) = 0.37547 0.17114
# Poissons Ratio (z) = 0.18721 0.45719
#
# Static dielectric constant tensor:
#      x y z
#    x 6.348390 0.980130 -2.929250 
#    y 0.980130 5.745070 -2.958150 
#    z -2.929250 -2.958150 12.764070 
# 
# 
# High freq. dielectric constant tensor:
#      x y z
#    x 2.048660 0.002890 -0.008720 
#    y 0.002890 2.010720 -0.011230 
#    z -0.008720 -0.011230 2.043180 
# 
# From -- ./inp_files/559618.got.cif
#   From: 2010.06.25/outbox.cif.g09.slc.cpg/sg2_280_cif.got.tgz:559618.got - 2010.06.27 13:26:56.
