data_PCOD8021187
_publ_section_title
;
Structure prediction by ZEFSAII (Michael W. Deem and Ramdas Pophale) SiO2 
 PCOD8021187
Probable space group: P -1
;
_chemical_formula_sum "Si O2"
_cell_formula_units_Z 14
_cell_length_a 8.546180
_cell_length_b 6.988111
_cell_length_c 14.237990
_cell_angle_alpha 68.814300
_cell_angle_beta 55.471406
_cell_angle_gamma 95.215787
_cell_volume 602.829568
_symmetry_space_group_name_H-M "P -1"
_symmetry_group_IT_number 2
_symmetry_cell_setting 'triclinic'
loop_
_space_group_symop_operation_xyz
x,y,z
-x,-y,-z
loop_
_atom_site_type_symbol
_atom_site_label
_atom_site_fract_x
_atom_site_fract_y
_atom_site_fract_z
Si Si1 0.357471 0.754353 0.982146
Si Si2 0.297714 0.472798 0.520879
Si Si3 0.228503 0.558264 0.876030
Si Si4 0.445893 0.250140 0.903738
Si Si5 0.785904 0.310225 0.643913
Si Si6 0.935607 0.404062 0.261519
Si Si7 0.020727 0.031355 0.598606
O O1 0.531215 0.720098 0.995896
O O2 0.137487 0.575155 0.115775
O O3 0.392784 0.727720 0.863460
O O4 0.351742 0.993693 0.954937
O O5 0.500000 0.500000 0.500000
O O6 0.363318 0.690415 0.391923
O O7 0.120075 0.477266 0.651549
O O8 0.219215 0.245330 0.526668
O O9 0.287046 0.342588 0.896099
O O10 0.244899 0.653982 0.747151
O O11 0.000000 0.500000 0.000000
O O12 0.681321 0.364820 0.762506
O O13 0.000000 0.500000 0.500000
O O14 0.817585 0.079373 0.690147
O O15 0.969854 0.182814 0.316873
O O16 0.000000 0.000000 0.500000
#
# Coordination Sequence:
#
# PCOD8021187 Si02
#       7
#     2   2   2   2   2   2   2
#     4  10  24  43  69  99 134 179 236 282 342 408
#     4  11  24  43  68 103 140 178 232 289 354 416
#     4  10  24  42  65  98 137 179 227 281 340 410
#     4  11  23  43  69 100 137 178 232 288 341 413
#     4  10  22  43  68  97 136 186 227 282 350 414
#     4  11  24  44  69  97 141 185 224 286 354 411
#     4  11  24  44  70  98 137 187 233 281 347 422
#
# _framework density 23.223811999999999
#
# number of rings (size 3 to 8) (size 9 to 14) (size 15 to 20)
#    0.000    1.429    1.429    3.000    2.000   13.143 
#    2.571    0.000    0.000    0.000    0.000    0.000 
#    0.000    0.000    0.000    0.000    0.000    0.000 
#
# Total GULP energy -173442.877646 kJ/mol
# GULP energy per Si atom -12388.776975 kJ/mol
# Density = 2.317095 g / cm^3
# Si number density = 23.223812 Si / 1000 Ang^3
#
#
#
# Elastic Constant Matrix: (Units=GPa)
#
#
# Indices 1 2 3 4 5 6 
#
# 1 139.6878 65.9162 38.6526 -12.0920 35.0069 -19.0732
# 2 65.9162 129.1199 49.3681 -3.6111 21.2515 -8.4294
# 3 38.6526 49.3681 74.7469 -7.8335 23.2822 -2.8673
# 4 -12.0920 -3.6111 -7.8335 36.4434 -0.2005 8.4060
# 5 35.0069 21.2515 23.2822 -0.2005 50.5385 6.2792
# 6 -19.0732 -8.4294 -2.8673 8.4060 6.2792 53.7313
#
#
#
# Elastic Compliance Matrix: (Units=1/GPa)
#
#
# Indices 1 2 3 4 5 6 
#
# 1 0.011762 -0.004311 -0.000842 0.002375 -0.006414 0.003832
# 2 -0.004311 0.012164 -0.006177 -0.001599 0.000683 0.000219
# 3 -0.000842 -0.006177 0.020145 0.003409 -0.006085 -0.000015
# 4 0.002375 -0.001599 0.003409 0.029629 -0.001975 -0.003630
# 5 -0.006414 0.000683 -0.006085 -0.001975 0.027407 -0.005388
# 6 0.003832 0.000219 -0.000015 -0.003630 -0.005388 0.021203
#
#
# Mechanical properties :
#
#
# Convention : Reuss Voigt Hill
#
# Bulk Modulus (GPa) = 46.69998 72.38093 59.54045
# Shear Modulus (GPa) = 32.87187 40.78383 36.82785
#
# Velocity S-wave (km/s) = 3.76631 4.19516 3.98651
# Velocity P-wave (km/s) = 6.25026 7.39595 6.84711
#
# Compressibility (1/GPa) = 0.02141329
#
# Stress axis : x y z
#
# Youngs Moduli (GPa) = 85.02025 82.20866 49.63921
#
# Poissons Ratio (x) = 0.35436 0.04178
# Poissons Ratio (y) = 0.36648 0.30662
# Poissons Ratio (z) = 0.07155 0.50780
#
# Static dielectric constant tensor:
#      x y z
#    x 5.059760 -0.003630 0.803330 
#    y -0.003630 4.422260 0.271540 
#    z 0.803330 0.271540 4.520080 
# 
# 
# High freq. dielectric constant tensor:
#      x y z
#    x 1.939980 -0.006230 0.028860 
#    y -0.006230 1.918250 0.012120 
#    z 0.028860 0.012120 1.909250 
# 
# From -- ./inp_files/488120.got.cif
#   From: 2010.06.25/outbox.cif.g09.slc.cpg/sg2_245_cif.got.tgz:488120.got - 2010.06.27 13:26:56.
