data_PCOD8021652
_publ_section_title
;
Structure prediction by ZEFSAII (Michael W. Deem and Ramdas Pophale) SiO2 
 PCOD8021652
Probable space group: P -1
;
_chemical_formula_sum "Si O2"
_cell_formula_units_Z 16
_cell_length_a 14.534666
_cell_length_b 8.911024
_cell_length_c 10.983605
_cell_angle_alpha 93.807373
_cell_angle_beta 150.012111
_cell_angle_gamma 79.563538
_cell_volume 687.316022
_symmetry_space_group_name_H-M "P -1"
_symmetry_group_IT_number 2
_symmetry_cell_setting 'triclinic'
loop_
_space_group_symop_operation_xyz
x,y,z
-x,-y,-z
loop_
_atom_site_type_symbol
_atom_site_label
_atom_site_fract_x
_atom_site_fract_y
_atom_site_fract_z
Si Si1 0.661490 0.545806 0.835634
Si Si2 0.046889 0.101773 0.389057
Si Si3 0.982489 0.622565 0.095710
Si Si4 0.534054 0.255827 0.604437
Si Si5 0.125354 0.030022 0.036023
Si Si6 0.354524 0.251899 0.648810
Si Si7 0.653715 0.407286 0.340872
Si Si8 0.275087 0.840287 0.800167
O O1 0.666555 0.365946 0.809143
O O2 0.573023 0.661593 0.631095
O O3 0.547135 0.603242 0.831148
O O4 0.879472 0.559867 0.089119
O O5 0.156353 0.211501 0.449739
O O6 0.976082 0.989891 0.208154
O O7 0.863515 0.200471 0.256878
O O8 0.188351 0.002572 0.644614
O O9 0.189790 0.637014 0.374699
O O10 0.857176 0.793390 0.924199
O O11 0.000000 0.500000 0.000000
O O12 0.381734 0.243727 0.533675
O O13 0.665528 0.085059 0.718569
O O14 0.000000 0.000000 0.000000
O O15 0.350427 0.422432 0.703389
O O16 0.532661 0.138670 0.914777
O O17 0.693669 0.297044 0.266926
#
# Coordination Sequence:
#
# PCOD8021652 Si02
#       8
#     2   2   2   2   2   2   2   2
#     4  10  23  43  67  98 143 178 213 281 341 401
#     4  11  26  45  70  99 139 177 220 291 336 399
#     4  12  25  43  68  98 139 183 220 277 350 402
#     4  10  22  44  66 102 140 170 225 279 334 411
#     4  12  25  42  70 103 138 176 228 283 340 411
#     4  11  24  42  74  98 133 182 227 272 346 399
#     4  11  25  43  70 103 135 178 231 277 333 409
#     4  11  24  49  66  96 141 174 233 282 333 394
#
# _framework density 23.278956999999998
#
# number of rings (size 3 to 8) (size 9 to 14) (size 15 to 20)
#    0.000    1.000    2.500    4.500    5.250    3.000 
#    0.000    0.000    0.000    0.000    0.000    0.000 
#    0.000    0.000    0.000    0.000    0.000    0.000 
#
# Total GULP energy -198425.098744 kJ/mol
# GULP energy per Si atom -12401.568672 kJ/mol
# Density = 2.322597 g / cm^3
# Si number density = 23.278957 Si / 1000 Ang^3
#
#
#
# Elastic Constant Matrix: (Units=GPa)
#
#
# Indices 1 2 3 4 5 6 
#
# 1 156.2913 63.9035 19.1999 15.8051 26.1512 -1.1123
# 2 63.9035 108.7473 14.0481 -4.8104 13.5632 -8.3482
# 3 19.1999 14.0481 49.5071 -2.8014 0.5473 -8.1852
# 4 15.8051 -4.8104 -2.8014 31.6815 6.2031 3.7714
# 5 26.1512 13.5632 0.5473 6.2031 43.8359 5.3685
# 6 -1.1123 -8.3482 -8.1852 3.7714 5.3685 42.1746
#
#
#
# Elastic Compliance Matrix: (Units=1/GPa)
#
#
# Indices 1 2 3 4 5 6 
#
# 1 0.010057 -0.005393 -0.002701 -0.005343 -0.003492 -0.000404
# 2 -0.005393 0.013073 -0.000995 0.004681 -0.001730 0.002054
# 3 -0.002701 -0.000995 0.022280 0.002562 0.000822 0.003722
# 4 -0.005343 0.004681 0.002562 0.035975 -0.003197 -0.001527
# 5 -0.003492 -0.001730 0.000822 -0.003197 0.026281 -0.003334
# 6 -0.000404 0.002054 0.003722 -0.001527 -0.003334 0.025390
#
#
# Mechanical properties :
#
#
# Convention : Reuss Voigt Hill
#
# Bulk Modulus (GPa) = 36.71823 56.53875 46.62849
# Shear Modulus (GPa) = 31.18962 38.03137 34.61049
#
# Velocity S-wave (km/s) = 3.66433 4.04632 3.86005
# Velocity P-wave (km/s) = 5.80607 6.79489 6.31985
#
# Compressibility (1/GPa) = 0.02723443
#
# Stress axis : x y z
#
# Youngs Moduli (GPa) = 99.43697 76.49075 44.88327
#
# Poissons Ratio (x) = 0.41248 0.12121
# Poissons Ratio (y) = 0.53622 0.04465
# Poissons Ratio (z) = 0.26853 0.07609
#
# Static dielectric constant tensor:
#      x y z
#    x 4.748030 0.606630 -0.548610 
#    y 0.606630 5.093670 -1.231370 
#    z -0.548610 -1.231370 5.763730 
# 
# 
# High freq. dielectric constant tensor:
#      x y z
#    x 1.930580 0.004170 0.009430 
#    y 0.004170 1.915430 -0.012600 
#    z 0.009430 -0.012600 1.925450 
# 
# From -- ./inp_files/447568.got.cif
#   From: 2010.06.25/outbox.cif.g09.slc.cpg/sg2_224_cif.got.tgz:447568.got - 2010.06.27 13:26:56.
