data_PCOD8021266
_publ_section_title
;
Structure prediction by ZEFSAII (Michael W. Deem and Ramdas Pophale) SiO2 
 PCOD8021266
Probable space group: P -1
;
_chemical_formula_sum "Si O2"
_cell_formula_units_Z 16
_cell_length_a 10.123642
_cell_length_b 5.429482
_cell_length_c 28.228852
_cell_angle_alpha 52.559006
_cell_angle_beta 145.537382
_cell_angle_gamma 115.131689
_cell_volume 686.936909
_symmetry_space_group_name_H-M "P -1"
_symmetry_group_IT_number 2
_symmetry_cell_setting 'triclinic'
loop_
_space_group_symop_operation_xyz
x,y,z
-x,-y,-z
loop_
_atom_site_type_symbol
_atom_site_label
_atom_site_fract_x
_atom_site_fract_y
_atom_site_fract_z
Si Si1 0.832689 0.699980 0.225014
Si Si2 0.925983 0.865471 0.945085
Si Si3 0.830218 0.635043 0.071596
Si Si4 0.914814 0.159776 0.383119
Si Si5 0.582961 0.379139 0.108806
Si Si6 0.204660 0.026285 0.251072
Si Si7 0.485872 0.885807 0.261167
Si Si8 0.350045 0.813880 0.600045
O O1 0.938615 0.480086 0.325758
O O2 0.650598 0.517079 0.163417
O O3 0.713471 0.026625 0.175525
O O4 0.050884 0.752317 0.249012
O O5 0.641512 0.002710 0.839615
O O6 0.072043 0.040634 0.929942
O O7 0.000000 0.500000 0.000000
O O8 0.000000 0.000000 0.000000
O O9 0.641254 0.630095 0.057886
O O10 0.048517 0.359533 0.176888
O O11 0.700894 0.616074 0.983280
O O12 0.800244 0.227887 0.392578
O O13 0.746292 0.972246 0.325195
O O14 0.175001 0.948173 0.489932
O O15 0.448682 0.966485 0.361229
O O16 0.295311 0.070062 0.219722
O O17 0.508228 0.531314 0.327664
#
# Coordination Sequence:
#
# PCOD8021266 Si02
#       8
#     2   2   2   2   2   2   2   2
#     4  11  25  43  68 105 133 176 222 290 330 391
#     4  12  27  38  63  99 135 170 217 270 323 389
#     4  10  22  45  65  96 134 183 219 269 329 410
#     4  10  25  42  68  97 135 171 229 285 339 402
#     4  10  25  42  70  94 138 178 225 267 338 400
#     4  10  22  43  69  96 133 176 228 274 335 404
#     4  11  23  43  68  93 135 181 221 272 338 412
#     4  10  22  46  68  96 128 183 226 273 348 406
#
# _framework density 23.291803000000002
#
# number of rings (size 3 to 8) (size 9 to 14) (size 15 to 20)
#    0.000    1.500    1.250    1.875    8.750    7.000 
#    0.000    0.625    0.000    0.000    0.000    0.000 
#    0.000    0.000    0.000    0.000    0.000    0.000 
#
# Total GULP energy -198280.882636 kJ/mol
# GULP energy per Si atom -12392.555165 kJ/mol
# Density = 2.323879 g / cm^3
# Si number density = 23.291803 Si / 1000 Ang^3
#
#
#
# Elastic Constant Matrix: (Units=GPa)
#
#
# Indices 1 2 3 4 5 6 
#
# 1 24.7997 15.5880 29.3570 4.8506 8.8537 -5.5636
# 2 15.5880 138.2773 72.8619 4.6466 1.5767 0.5031
# 3 29.3570 72.8619 191.1095 12.7172 4.3263 16.2611
# 4 4.8506 4.6466 12.7172 41.2032 7.7172 2.1902
# 5 8.8537 1.5767 4.3263 7.7172 30.1802 4.5344
# 6 -5.5636 0.5031 16.2611 2.1902 4.5344 25.5239
#
#
#
# Elastic Compliance Matrix: (Units=1/GPa)
#
#
# Indices 1 2 3 4 5 6 
#
# 1 0.069413 -0.001399 -0.011794 -0.001638 -0.022200 0.026757
# 2 -0.001399 0.009192 -0.003440 0.000072 0.000154 0.001672
# 3 -0.011794 -0.003440 0.009110 -0.001313 0.004008 -0.008907
# 4 -0.001638 0.000072 -0.001313 0.025998 -0.005876 -0.000709
# 5 -0.022200 0.000154 0.004008 -0.005876 0.042743 -0.014485
# 6 0.026757 0.001672 -0.008907 -0.000709 -0.014485 0.053287
#
#
# Mechanical properties :
#
#
# Convention : Reuss Voigt Hill
#
# Bulk Modulus (GPa) = 18.36623 65.53334 41.94978
# Shear Modulus (GPa) = 19.14531 35.14008 27.14270
#
# Velocity S-wave (km/s) = 2.87012 3.88840 3.41740
# Velocity P-wave (km/s) = 4.34579 6.95388 5.79837
#
# Compressibility (1/GPa) = 0.05444776
#
# Stress axis : x y z
#
# Youngs Moduli (GPa) = 14.40653 108.79006 109.76463
#
# Poissons Ratio (x) = 0.15224 1.29460
# Poissons Ratio (y) = 0.02016 0.37760
# Poissons Ratio (z) = 0.16992 0.37425
#
# Static dielectric constant tensor:
#      x y z
#    x 4.154140 0.333100 -0.009040 
#    y 0.333100 4.138550 0.244410 
#    z -0.009040 0.244410 4.491200 
# 
# 
# High freq. dielectric constant tensor:
#      x y z
#    x 1.907850 0.017850 0.002990 
#    y 0.017850 1.927100 0.010060 
#    z 0.002990 0.010060 1.929560 
# 
# From -- ./inp_files/113110.got.cif
#   From: 2010.06.25/outbox.cif.g09.slc.cpg/sg2_57_cif.got.tgz:113110.got - 2010.06.27 13:26:56.
