data_PCOD8021037
_publ_section_title
;
Structure prediction by ZEFSAII (Michael W. Deem and Ramdas Pophale) SiO2 
 PCOD8021037
Probable space group: P -1
;
_chemical_formula_sum "Si O2"
_cell_formula_units_Z 16
_cell_length_a 12.427118
_cell_length_b 8.869875
_cell_length_c 19.956620
_cell_angle_alpha 151.330806
_cell_angle_beta 138.550990
_cell_angle_gamma 50.272764
_cell_volume 697.395370
_symmetry_space_group_name_H-M "P -1"
_symmetry_group_IT_number 2
_symmetry_cell_setting 'triclinic'
loop_
_space_group_symop_operation_xyz
x,y,z
-x,-y,-z
loop_
_atom_site_type_symbol
_atom_site_label
_atom_site_fract_x
_atom_site_fract_y
_atom_site_fract_z
Si Si1 0.394951 0.143683 0.688625
Si Si2 0.680076 0.637419 0.031467
Si Si3 0.508341 0.252894 0.544779
Si Si4 0.058861 0.425359 0.638133
Si Si5 0.942379 0.345662 0.121337
Si Si6 0.701694 0.191170 0.354779
Si Si7 0.072915 0.092920 0.856079
Si Si8 0.847754 0.473625 0.823894
O O1 0.210815 0.218164 0.613956
O O2 0.467235 0.913077 0.578920
O O3 0.397321 0.960638 0.688334
O O4 0.504562 0.471309 0.867676
O O5 0.764099 0.395735 0.026846
O O6 0.784005 0.713588 0.042606
O O7 0.656663 0.972556 0.185324
O O8 0.350156 0.455589 0.545504
O O9 0.658314 0.491112 0.727844
O O10 0.500000 0.000000 0.500000
O O11 0.054533 0.554209 0.761563
O O12 0.896179 0.206410 0.463217
O O13 0.076216 0.717269 0.708211
O O14 0.066900 0.574825 0.226799
O O15 0.000000 0.000000 0.000000
O O16 0.896775 0.183183 0.780749
O O17 0.090901 0.201102 0.984168
#
# Coordination Sequence:
#
# PCOD8021037 Si02
#       8
#     2   2   2   2   2   2   2   2
#     4  12  28  48  72 103 146 183 238 292 351 422
#     4  11  27  45  70 105 143 186 237 292 351 414
#     4  12  28  46  72 101 145 185 237 288 358 419
#     4  12  26  44  72 104 141 185 236 287 357 412
#     4  11  23  40  73 102 138 182 235 282 347 417
#     4  12  28  47  73 104 146 184 237 295 350 417
#     4  10  23  42  71 101 143 183 232 289 348 422
#     4  10  22  43  67 102 138 183 234 283 347 416
#
# _framework density 22.942509999999999
#
# number of rings (size 3 to 8) (size 9 to 14) (size 15 to 20)
#    0.000    0.750    2.500    3.375   10.500    1.000 
#    0.000    0.000    0.000    0.000    0.000    0.000 
#    0.000    0.000    0.000    0.000    0.000    0.000 
#
# Total GULP energy -198436.838842 kJ/mol
# GULP energy per Si atom -12402.302428 kJ/mol
# Density = 2.289029 g / cm^3
# Si number density = 22.942510 Si / 1000 Ang^3
#
#
#
# Elastic Constant Matrix: (Units=GPa)
#
#
# Indices 1 2 3 4 5 6 
#
# 1 88.7045 30.2824 35.2203 -0.5848 -3.3800 -9.4983
# 2 30.2824 84.5249 28.4259 8.8893 -7.3440 -18.2539
# 3 35.2203 28.4259 97.3562 -5.0850 1.2180 -7.7696
# 4 -0.5848 8.8893 -5.0850 38.7607 -8.0904 1.5964
# 5 -3.3800 -7.3440 1.2180 -8.0904 37.4130 7.4024
# 6 -9.4983 -18.2539 -7.7696 1.5964 7.4024 41.1714
#
#
#
# Elastic Compliance Matrix: (Units=1/GPa)
#
#
# Indices 1 2 3 4 5 6 
#
# 1 0.014199 -0.003575 -0.004006 0.000620 0.000690 0.000787
# 2 -0.003575 0.015894 -0.003126 -0.004156 0.000885 0.005634
# 3 -0.004006 -0.003126 0.012772 0.002121 -0.000971 0.000192
# 4 0.000620 -0.004156 0.002121 0.028438 0.006010 -0.003483
# 5 0.000690 0.000885 -0.000971 0.006010 0.029312 -0.005135
# 6 0.000787 0.005634 0.000192 -0.003483 -0.005135 0.028063
#
#
# Mechanical properties :
#
#
# Convention : Reuss Voigt Hill
#
# Bulk Modulus (GPa) = 46.61982 50.93809 48.77895
# Shear Modulus (GPa) = 31.79813 35.24615 33.52214
#
# Velocity S-wave (km/s) = 3.72693 3.92379 3.82663
# Velocity P-wave (km/s) = 6.23574 6.54056 6.38997
#
# Compressibility (1/GPa) = 0.02145011
#
# Stress axis : x y z
#
# Youngs Moduli (GPa) = 70.42628 62.91841 78.29692
#
# Poissons Ratio (x) = 0.22494 0.31369
# Poissons Ratio (y) = 0.25179 0.24474
# Poissons Ratio (z) = 0.28216 0.19667
#
# Static dielectric constant tensor:
#      x y z
#    x 4.353740 0.062480 0.216650 
#    y 0.062480 4.326040 -0.068750 
#    z 0.216650 -0.068750 3.765780 
# 
# 
# High freq. dielectric constant tensor:
#      x y z
#    x 1.916840 0.003340 -0.002420 
#    y 0.003340 1.912350 0.002730 
#    z -0.002420 0.002730 1.902230 
# 
# From -- ./inp_files/594322.got.cif
#   From: 2010.06.25/outbox.cif.g09.slc.cpg/sg2_298_cif.got.tgz:594322.got - 2010.06.27 13:26:56.
