data_PCOD8021709
_publ_section_title
;
Structure prediction by ZEFSAII (Michael W. Deem and Ramdas Pophale) SiO2 
 PCOD8021709
Probable space group: P -1
;
_chemical_formula_sum "Si O2"
_cell_formula_units_Z 16
_cell_length_a 5.169604
_cell_length_b 13.095608
_cell_length_c 22.457572
_cell_angle_alpha 155.290008
_cell_angle_beta 85.945058
_cell_angle_gamma 93.356708
_cell_volume 633.898333
_symmetry_space_group_name_H-M "P -1"
_symmetry_group_IT_number 2
_symmetry_cell_setting 'triclinic'
loop_
_space_group_symop_operation_xyz
x,y,z
-x,-y,-z
loop_
_atom_site_type_symbol
_atom_site_label
_atom_site_fract_x
_atom_site_fract_y
_atom_site_fract_z
Si Si1 0.666666 0.253599 0.924991
Si Si2 0.687804 0.151730 0.271209
Si Si3 0.590620 0.376234 0.505075
Si Si4 0.318247 0.458842 0.285376
Si Si5 0.294729 0.238471 0.744252
Si Si6 0.096572 0.005576 0.105400
Si Si7 0.855057 0.484604 0.223058
Si Si8 0.220114 0.966089 0.314239
O O1 0.815089 0.078621 0.875718
O O2 0.769035 0.227786 0.842803
O O3 0.379510 0.135737 0.871188
O O4 0.685983 0.532938 0.090378
O O5 0.789469 0.243915 0.383931
O O6 0.447906 0.340437 0.362696
O O7 0.850411 0.171849 0.217922
O O8 0.708951 0.366927 0.564347
O O9 0.313301 0.233013 0.432506
O O10 0.605479 0.458386 0.254191
O O11 0.102595 0.568448 0.301622
O O12 0.279508 0.176102 0.153933
O O13 0.224649 0.320517 0.722373
O O14 0.577961 0.112011 0.677309
O O15 0.074979 0.045797 0.664598
O O16 0.044383 0.770686 0.941634
#
# Coordination Sequence:
#
# PCOD8021709 Si02
#       8
#     2   2   2   2   2   2   2   2
#     4  10  23  39  69 106 140 173 222 291 364 420
#     4  10  22  44  67 109 142 186 213 292 361 423
#     4  10  24  45  69 100 149 183 237 271 347 432
#     4  12  24  46  67 104 138 195 226 285 342 418
#     4  11  25  45  69  97 138 180 242 291 337 397
#     4  11  24  39  73 105 146 173 225 290 366 420
#     4  11  27  44  72  98 141 183 245 288 341 398
#     4  11  25  44  68 101 136 188 229 284 343 413
#
# _framework density 25.240639000000002
#
# number of rings (size 3 to 8) (size 9 to 14) (size 15 to 20)
#    0.000    1.250    1.250    3.000   10.500    2.500 
#    2.250    3.750    0.000    0.000    0.000    0.000 
#    0.000    0.000    0.000    0.000    0.000    0.000 
#
# Total GULP energy -198224.436439 kJ/mol
# GULP energy per Si atom -12389.027277 kJ/mol
# Density = 2.518319 g / cm^3
# Si number density = 25.240639 Si / 1000 Ang^3
#
#
#
# Elastic Constant Matrix: (Units=GPa)
#
#
# Indices 1 2 3 4 5 6 
#
# 1 71.9935 15.6231 31.7486 -18.9813 -2.6581 -2.0206
# 2 15.6231 99.3389 39.2449 -22.1747 5.2261 -6.1706
# 3 31.7486 39.2449 85.1611 -13.5315 11.3192 -0.4715
# 4 -18.9813 -22.1747 -13.5315 52.9548 -0.8880 7.9906
# 5 -2.6581 5.2261 11.3192 -0.8880 25.7068 -6.8214
# 6 -2.0206 -6.1706 -0.4715 7.9906 -6.8214 44.5084
#
#
#
# Elastic Compliance Matrix: (Units=1/GPa)
#
#
# Indices 1 2 3 4 5 6 
#
# 1 0.018415 0.000831 -0.007132 0.005099 0.005255 0.000766
# 2 0.000831 0.013200 -0.005772 0.004189 0.000384 0.001113
# 3 -0.007132 -0.005772 0.018102 -0.000160 -0.008110 -0.002146
# 4 0.005099 0.004189 -0.000160 0.022926 -0.000353 -0.003360
# 5 0.005255 0.000384 -0.008110 -0.000353 0.044818 0.007138
# 6 0.000766 0.001113 -0.002146 -0.003360 0.007138 0.024331
#
#
# Mechanical properties :
#
#
# Convention : Reuss Voigt Hill
#
# Bulk Modulus (GPa) = 39.10819 47.74743 43.42781
# Shear Modulus (GPa) = 28.65943 35.95912 32.30928
#
# Velocity S-wave (km/s) = 3.37330 3.77855 3.58166
# Velocity P-wave (km/s) = 5.54075 6.16397 5.86065
#
# Compressibility (1/GPa) = 0.02557009
#
# Stress axis : x y z
#
# Youngs Moduli (GPa) = 54.30398 75.75626 55.24280
#
# Poissons Ratio (x) = -0.06293 0.39400
# Poissons Ratio (y) = -0.04511 0.31887
# Poissons Ratio (z) = 0.38730 0.43727
#
# Static dielectric constant tensor:
#      x y z
#    x 4.481510 -0.075120 0.295630 
#    y -0.075120 4.854870 -0.141030 
#    z 0.295630 -0.141030 4.586350 
# 
# 
# High freq. dielectric constant tensor:
#      x y z
#    x 1.988930 -0.007440 0.012370 
#    y -0.007440 2.022380 -0.003050 
#    z 0.012370 -0.003050 2.008650 
# 
# From -- ./inp_files/367603.got.cif
#   From: 2010.06.25/outbox.cif.g09.slc.cpg/sg2_184_cif.got.tgz:367603.got - 2010.06.27 13:26:56.
