data_PCOD8021873
_publ_section_title
;
Structure prediction by ZEFSAII (Michael W. Deem and Ramdas Pophale) SiO2 
 PCOD8021873
Probable space group: P -1
;
_chemical_formula_sum "Si O2"
_cell_formula_units_Z 14
_cell_length_a 10.693979
_cell_length_b 8.917151
_cell_length_c 10.907368
_cell_angle_alpha 85.650181
_cell_angle_beta 36.355339
_cell_angle_gamma 83.451575
_cell_volume 612.328138
_symmetry_space_group_name_H-M "P -1"
_symmetry_group_IT_number 2
_symmetry_cell_setting 'triclinic'
loop_
_space_group_symop_operation_xyz
x,y,z
-x,-y,-z
loop_
_atom_site_type_symbol
_atom_site_label
_atom_site_fract_x
_atom_site_fract_y
_atom_site_fract_z
Si Si1 0.307702 0.880364 0.780435
Si Si2 0.100310 0.618814 0.994633
Si Si3 0.749518 0.828674 0.831519
Si Si4 0.697979 0.796389 0.322607
Si Si5 0.316639 0.836305 0.060395
Si Si6 0.573577 0.635475 0.190613
Si Si7 0.125783 0.643704 0.420156
O O1 0.550704 0.850597 0.549172
O O2 0.220314 0.051248 0.811015
O O3 0.178643 0.748257 0.831903
O O4 0.269167 0.837301 0.954855
O O5 0.902037 0.698594 0.224925
O O6 0.292800 0.528391 0.922595
O O7 0.000000 0.500000 0.000000
O O8 0.975982 0.761517 0.609516
O O9 0.765366 0.005542 0.823942
O O10 0.568966 0.800631 0.877054
O O11 0.681756 0.757656 0.017064
O O12 0.577422 0.700599 0.322638
O O13 0.191116 0.710039 0.234014
O O14 0.336202 0.608638 0.338878
O O15 0.000000 0.500000 0.500000
#
# Coordination Sequence:
#
# PCOD8021873 Si02
#       7
#     2   2   2   2   2   2   2
#     4  11  23  42  71  99 135 170 232 274 326 402
#     4  10  24  42  66  95 136 178 220 272 333 390
#     4  10  22  44  69  97 134 171 226 277 335 394
#     4  10  23  46  68  99 130 179 225 279 328 388
#     4  10  23  44  68  98 133 177 221 279 327 401
#     4  10  23  44  69  97 136 175 219 279 332 400
#     4  11  26  42  70 103 135 174 222 270 344 404
#
# _framework density 22.863558000000001
#
# number of rings (size 3 to 8) (size 9 to 14) (size 15 to 20)
#    0.000    1.714    1.429    0.857    4.000    8.000 
#    5.143    0.000    0.000    0.000    0.000    0.000 
#    0.000    0.000    0.000    0.000    0.000    0.000 
#
# Total GULP energy -173508.725701 kJ/mol
# GULP energy per Si atom -12393.480407 kJ/mol
# Density = 2.281152 g / cm^3
# Si number density = 22.863558 Si / 1000 Ang^3
#
#
#
# Elastic Constant Matrix: (Units=GPa)
#
#
# Indices 1 2 3 4 5 6 
#
# 1 95.8288 47.0029 53.7476 -1.5041 -16.3045 -3.9634
# 2 47.0029 132.1545 55.4170 -13.3472 -29.5795 -1.6959
# 3 53.7476 55.4170 112.7295 5.9296 -17.0232 -5.3002
# 4 -1.5041 -13.3472 5.9296 46.5696 -6.6181 -15.4546
# 5 -16.3045 -29.5795 -17.0232 -6.6181 37.2544 3.5407
# 6 -3.9634 -1.6959 -5.3002 -15.4546 3.5407 29.3198
#
#
#
# Elastic Compliance Matrix: (Units=1/GPa)
#
#
# Indices 1 2 3 4 5 6 
#
# 1 0.015308 -0.002346 -0.005807 0.001320 0.002294 0.001302
# 2 -0.002346 0.012450 -0.004033 0.005697 0.007863 0.001727
# 3 -0.005807 -0.004033 0.013781 -0.003161 0.000011 -0.000195
# 4 0.001320 0.005697 -0.003161 0.029447 0.007504 0.014552
# 5 0.002294 0.007863 0.000011 0.007504 0.035385 0.000449
# 6 0.001302 0.001727 -0.000195 0.014552 0.000449 0.041964
#
#
# Mechanical properties :
#
#
# Convention : Reuss Voigt Hill
#
# Bulk Modulus (GPa) = 58.25148 72.56087 65.40618
# Shear Modulus (GPa) = 28.02258 34.93176 31.47717
#
# Velocity S-wave (km/s) = 3.50472 3.91299 3.71447
# Velocity P-wave (km/s) = 6.47384 7.22639 6.86044
#
# Compressibility (1/GPa) = 0.01716695
#
# Stress axis : x y z
#
# Youngs Moduli (GPa) = 65.32614 80.32201 72.56528
#
# Poissons Ratio (x) = 0.18843 0.42139
# Poissons Ratio (y) = 0.15325 0.29264
# Poissons Ratio (z) = 0.37935 0.32392
#
# Static dielectric constant tensor:
#      x y z
#    x 4.070140 -0.244620 -0.305580 
#    y -0.244620 5.086380 0.037900 
#    z -0.305580 0.037900 4.149870 
# 
# 
# High freq. dielectric constant tensor:
#      x y z
#    x 1.886870 0.003940 -0.017950 
#    y 0.003940 1.930720 0.001810 
#    z -0.017950 0.001810 1.905650 
# 
# From -- ./inp_files/26961.got.cif
#   From: 2010.06.25/outbox.cif.g09.slc.cpg/sg2_14_cif.got.tgz:26961.got - 2010.06.27 13:26:56.
