data_PCOD8021853
_publ_section_title
;
Structure prediction by ZEFSAII (Michael W. Deem and Ramdas Pophale) SiO2 
 PCOD8021853
Probable space group: P -1
;
_chemical_formula_sum "Si O2"
_cell_formula_units_Z 16
_cell_length_a 14.036858
_cell_length_b 11.310820
_cell_length_c 14.745384
_cell_angle_alpha 28.846270
_cell_angle_beta 108.448765
_cell_angle_gamma 127.241400
_cell_volume 747.263182
_symmetry_space_group_name_H-M "P -1"
_symmetry_group_IT_number 2
_symmetry_cell_setting 'triclinic'
loop_
_space_group_symop_operation_xyz
x,y,z
-x,-y,-z
loop_
_atom_site_type_symbol
_atom_site_label
_atom_site_fract_x
_atom_site_fract_y
_atom_site_fract_z
Si Si1 0.986251 0.828543 0.019843
Si Si2 0.433535 0.157310 0.518370
Si Si3 0.441235 0.119109 0.231609
Si Si4 0.728479 0.944415 0.101693
Si Si5 0.019600 0.761669 0.397354
Si Si6 0.665335 0.776798 0.386454
Si Si7 0.722796 0.316217 0.702196
Si Si8 0.750913 0.099807 0.523329
O O1 0.958252 0.950700 0.843549
O O2 0.847772 0.418947 0.267291
O O3 0.129421 0.922938 0.986616
O O4 0.000000 0.000000 0.000000
O O5 0.597908 0.522075 0.342806
O O6 0.317403 0.042275 0.636537
O O7 0.435993 0.862932 0.714308
O O8 0.387656 0.202061 0.378466
O O9 0.391228 0.969183 0.215830
O O10 0.305143 0.848505 0.440356
O O11 0.500000 0.500000 0.000000
O O12 0.753898 0.051742 0.144133
O O13 0.686497 0.113121 0.920845
O O14 0.159713 0.974539 0.361106
O O15 0.000000 0.500000 0.500000
O O16 0.882946 0.533356 0.574026
O O17 0.500000 0.500000 0.500000
O O18 0.714454 0.584905 0.543860
#
# Coordination Sequence:
#
# PCOD8021853 Si02
#       8
#     2   2   2   2   2   2   2   2
#     4  12  22  39  69  94 130 178 218 269 330 398
#     4  11  25  47  64  98 141 175 222 276 339 386
#     4  12  25  42  67 101 143 172 214 283 339 396
#     4  11  22  42  71  97 129 178 225 275 324 388
#     4  12  22  39  65  97 132 171 223 268 327 405
#     4  10  22  44  69  93 133 178 230 275 316 396
#     4  12  21  42  70 102 130 172 233 270 326 398
#     4  12  26  42  65 100 136 172 213 276 343 396
#
# _framework density 21.411465
#
# number of rings (size 3 to 8) (size 9 to 14) (size 15 to 20)
#    0.000    0.500    7.500    1.875    1.750    2.000 
#    2.250    1.250    0.000    0.000    0.000    0.000 
#    0.000    0.000    0.000    0.000    0.000    0.000 
#
# Total GULP energy -198355.087185 kJ/mol
# GULP energy per Si atom -12397.192949 kJ/mol
# Density = 2.136273 g / cm^3
# Si number density = 21.411465 Si / 1000 Ang^3
#
#
#
# Elastic Constant Matrix: (Units=GPa)
#
#
# Indices 1 2 3 4 5 6 
#
# 1 134.5972 39.8437 32.0777 10.7920 -0.1949 2.3233
# 2 39.8437 85.6249 31.1662 26.6311 17.1166 15.4229
# 3 32.0777 31.1662 104.6710 30.5049 2.3444 -1.1032
# 4 10.7920 26.6311 30.5049 37.3772 7.6894 1.8086
# 5 -0.1949 17.1166 2.3444 7.6894 31.8844 9.8462
# 6 2.3233 15.4229 -1.1032 1.8086 9.8462 32.2436
#
#
#
# Elastic Compliance Matrix: (Units=1/GPa)
#
#
# Indices 1 2 3 4 5 6 
#
# 1 0.009116 -0.004631 -0.001988 0.001840 0.002005 0.000775
# 2 -0.004631 0.019971 -0.001532 -0.010056 -0.006098 -0.006845
# 3 -0.001988 -0.001532 0.013426 -0.009717 0.001751 0.001346
# 4 0.001840 -0.010056 -0.009717 0.042206 -0.005151 0.003550
# 5 0.002005 -0.006098 0.001751 -0.005151 0.038422 -0.008612
# 6 0.000775 -0.006845 0.001346 0.003550 -0.008612 0.036709
#
#
# Mechanical properties :
#
#
# Convention : Reuss Voigt Hill
#
# Bulk Modulus (GPa) = 38.15135 59.00758 48.57947
# Shear Modulus (GPa) = 27.04316 35.08808 31.06562
#
# Velocity S-wave (km/s) = 3.55776 4.05254 3.81318
# Velocity P-wave (km/s) = 5.89353 7.03677 6.49037
#
# Compressibility (1/GPa) = 0.02621139
#
# Stress axis : x y z
#
# Youngs Moduli (GPa) = 109.69442 50.07247 74.48216
#
# Poissons Ratio (x) = 0.23189 0.14805
# Poissons Ratio (y) = 0.50801 0.11411
# Poissons Ratio (z) = 0.21805 0.07671
#
# Static dielectric constant tensor:
#      x y z
#    x 4.038650 -0.156680 0.398350 
#    y -0.156680 3.960810 0.521500 
#    z 0.398350 0.521500 2.395280 
# 
# 
# High freq. dielectric constant tensor:
#      x y z
#    x 1.852670 0.011370 -0.011000 
#    y 0.011370 1.832580 0.032680 
#    z -0.011000 0.032680 1.833730 
# 
# From -- ./inp_files/461263.got.cif
#   From: 2010.06.25/outbox.cif.g09.slc.cpg/sg2_231_cif.got.tgz:461263.got - 2010.06.27 13:26:56.
