data_PCOD8021630
_publ_section_title
;
Structure prediction by ZEFSAII (Michael W. Deem and Ramdas Pophale) SiO2 
 PCOD8021630
Probable space group: P -1
;
_chemical_formula_sum "Si O2"
_cell_formula_units_Z 14
_cell_length_a 9.189700
_cell_length_b 6.325682
_cell_length_c 10.885496
_cell_angle_alpha 88.414136
_cell_angle_beta 80.242683
_cell_angle_gamma 105.551825
_cell_volume 599.016262
_symmetry_space_group_name_H-M "P -1"
_symmetry_group_IT_number 2
_symmetry_cell_setting 'triclinic'
loop_
_space_group_symop_operation_xyz
x,y,z
-x,-y,-z
loop_
_atom_site_type_symbol
_atom_site_label
_atom_site_fract_x
_atom_site_fract_y
_atom_site_fract_z
Si Si1 0.176683 0.214451 0.689461
Si Si2 0.505752 0.816337 0.270974
Si Si3 0.476991 0.170148 0.102072
Si Si4 0.003529 0.532131 0.143895
Si Si5 0.232661 0.546680 0.465935
Si Si6 0.023034 0.760174 0.631570
Si Si7 0.332080 0.521205 0.096765
O O1 0.314936 0.131201 0.724405
O O2 0.074971 0.277612 0.812019
O O3 0.252916 0.420087 0.588552
O O4 0.058623 0.023567 0.629897
O O5 0.397456 0.705790 0.401661
O O6 0.467804 0.647927 0.166438
O O7 0.480204 0.055256 0.235512
O O8 0.322811 0.258581 0.110882
O O9 0.618128 0.390630 0.051424
O O10 0.500000 0.000000 0.000000
O O11 0.928268 0.315654 0.240148
O O12 0.182281 0.592765 0.155591
O O13 0.000000 0.500000 0.000000
O O14 0.123111 0.702500 0.507241
O O15 0.155123 0.368472 0.373225
#
# Coordination Sequence:
#
# PCOD8021630 Si02
#       7
#     2   2   2   2   2   2   2
#     4  11  26  42  70 106 139 177 233 288 338 407
#     4  11  23  42  70 105 135 178 226 285 349 405
#     4   9  22  38  66  93 133 173 235 273 334 405
#     4  11  26  43  69  99 143 182 230 282 345 407
#     4  10  22  46  70  98 141 181 230 279 353 403
#     4  10  23  45  68 100 136 185 229 283 337 418
#     4  10  22  44  65  95 138 188 222 284 339 407
#
# _framework density 23.371653999999999
#
# number of rings (size 3 to 8) (size 9 to 14) (size 15 to 20)
#    0.000    1.714    1.429    0.857    8.000    5.714 
#    0.000    0.000    0.000    0.000    0.000    0.000 
#    0.000    0.000    0.000    0.000    0.000    0.000 
#
# Total GULP energy -173452.506795 kJ/mol
# GULP energy per Si atom -12389.464771 kJ/mol
# Density = 2.331846 g / cm^3
# Si number density = 23.371654 Si / 1000 Ang^3
#
#
#
# Elastic Constant Matrix: (Units=GPa)
#
#
# Indices 1 2 3 4 5 6 
#
# 1 125.8659 47.9238 34.8749 -0.0740 -12.6379 -11.3275
# 2 47.9238 119.1704 46.2342 -7.9116 -6.8284 -17.5061
# 3 34.8749 46.2342 114.2422 -8.1729 -10.4007 -5.1893
# 4 -0.0740 -7.9116 -8.1729 36.1441 0.0996 4.3377
# 5 -12.6379 -6.8284 -10.4007 0.0996 31.0759 -1.1615
# 6 -11.3275 -17.5061 -5.1893 4.3377 -1.1615 30.8501
#
#
#
# Elastic Compliance Matrix: (Units=1/GPa)
#
#
# Indices 1 2 3 4 5 6 
#
# 1 0.010009 -0.003046 -0.001553 -0.001242 0.002959 0.001971
# 2 -0.003046 0.011783 -0.003502 0.001201 0.000355 0.004824
# 3 -0.001553 -0.003502 0.010935 0.001803 0.002220 -0.000888
# 4 -0.001242 0.001201 0.001803 0.028756 0.000139 -0.003509
# 5 0.002959 0.000355 0.002220 0.000139 0.034313 0.002934
# 6 0.001971 0.004824 -0.000888 -0.003509 0.002934 0.036330
#
#
# Mechanical properties :
#
#
# Convention : Reuss Voigt Hill
#
# Bulk Modulus (GPa) = 60.50637 68.59380 64.55009
# Shear Modulus (GPa) = 32.50216 34.96372 33.73294
#
# Velocity S-wave (km/s) = 3.73321 3.87200 3.80324
# Velocity P-wave (km/s) = 6.67289 7.02870 6.85311
#
# Compressibility (1/GPa) = 0.01652718
#
# Stress axis : x y z
#
# Youngs Moduli (GPa) = 99.91310 84.86483 91.44763
#
# Poissons Ratio (x) = 0.25849 0.14198
# Poissons Ratio (y) = 0.30432 0.32021
# Poissons Ratio (z) = 0.15512 0.29716
#
# Static dielectric constant tensor:
#      x y z
#    x 4.062510 -0.222950 -0.137830 
#    y -0.222950 4.349370 -0.356800 
#    z -0.137830 -0.356800 4.326010 
# 
# 
# High freq. dielectric constant tensor:
#      x y z
#    x 1.906980 -0.018150 -0.012590 
#    y -0.018150 1.918480 -0.015100 
#    z -0.012590 -0.015100 1.931550 
# 
# From -- ./inp_files/373041.got.cif
#   From: 2010.06.25/outbox.cif.g09.slc.cpg/sg2_187_cif.got.tgz:373041.got - 2010.06.27 13:26:56.
