data_PCOD8021371
_publ_section_title
;
Structure prediction by ZEFSAII (Michael W. Deem and Ramdas Pophale) SiO2 
 PCOD8021371
Probable space group: P -1
;
_chemical_formula_sum "Si O2"
_cell_formula_units_Z 16
_cell_length_a 10.993339
_cell_length_b 5.059514
_cell_length_c 11.917994
_cell_angle_alpha 74.697320
_cell_angle_beta 95.853752
_cell_angle_gamma 98.672409
_cell_volume 630.731067
_symmetry_space_group_name_H-M "P -1"
_symmetry_group_IT_number 2
_symmetry_cell_setting 'triclinic'
loop_
_space_group_symop_operation_xyz
x,y,z
-x,-y,-z
loop_
_atom_site_type_symbol
_atom_site_label
_atom_site_fract_x
_atom_site_fract_y
_atom_site_fract_z
Si Si1 0.105575 0.310468 0.785339
Si Si2 0.108289 0.706146 0.936394
Si Si3 0.097159 0.532146 0.406119
Si Si4 0.662178 0.247476 0.906821
Si Si5 0.673559 0.832679 0.309677
Si Si6 0.537188 0.217046 0.115397
Si Si7 0.742469 0.953725 0.541656
Si Si8 0.549468 0.568381 0.692973
O O1 0.160265 0.543145 0.854836
O O2 0.209572 0.318816 0.697558
O O3 0.976574 0.392699 0.718827
O O4 0.070733 0.001015 0.864308
O O5 0.199868 0.765777 0.042719
O O6 0.000000 0.500000 0.000000
O O7 0.153646 0.250602 0.419264
O O8 0.000000 0.500000 0.500000
O O9 0.210259 0.765763 0.420817
O O10 0.660327 0.413706 0.771029
O O11 0.595789 0.940332 0.913205
O O12 0.591405 0.384917 0.989967
O O13 0.713636 0.019616 0.401939
O O14 0.554594 0.622300 0.366524
O O15 0.635388 0.000857 0.178672
O O16 0.529975 0.380701 0.210354
O O17 0.612746 0.830535 0.601563
#
# Coordination Sequence:
#
# PCOD8021371 Si02
#       8
#     2   2   2   2   2   2   2   2
#     4  12  27  48  76 102 146 189 250 292 364 433
#     4  12  28  46  72 106 145 190 239 306 359 425
#     4  12  28  50  77 105 143 195 245 297 358 428
#     4  10  23  41  69 100 142 187 241 281 364 425
#     4  11  25  45  73 107 142 192 243 295 360 437
#     4  10  22  43  71 101 142 187 239 290 356 438
#     4  12  29  47  78 108 147 188 243 304 364 431
#     4  11  26  43  71 107 149 187 234 304 368 425
#
# _framework density 25.367387999999998
#
# number of rings (size 3 to 8) (size 9 to 14) (size 15 to 20)
#    0.000    0.750    2.500    3.000   12.250    0.500 
#    0.000    0.000    0.000    0.000    0.000    0.000 
#    0.000    0.000    0.000    0.000    0.000    0.000 
#
# Total GULP energy -198391.079169 kJ/mol
# GULP energy per Si atom -12399.442448 kJ/mol
# Density = 2.530965 g / cm^3
# Si number density = 25.367388 Si / 1000 Ang^3
#
#
#
# Elastic Constant Matrix: (Units=GPa)
#
#
# Indices 1 2 3 4 5 6 
#
# 1 66.5048 -2.1500 23.9041 -3.9889 22.8093 19.0800
# 2 -2.1500 77.9210 10.8508 2.2138 18.9261 8.9443
# 3 23.9041 10.8508 86.9716 3.7970 19.3382 13.2434
# 4 -3.9889 2.2138 3.7970 34.1003 11.4372 -5.7802
# 5 22.8093 18.9261 19.3382 11.4372 43.5140 9.7134
# 6 19.0800 8.9443 13.2434 -5.7802 9.7134 35.6845
#
#
#
# Elastic Compliance Matrix: (Units=1/GPa)
#
#
# Indices 1 2 3 4 5 6 
#
# 1 0.023369 0.004938 -0.003234 0.005613 -0.012607 -0.008192
# 2 0.004938 0.015554 -0.000919 0.001987 -0.008683 -0.003512
# 3 -0.003234 -0.000919 0.013614 -0.001213 -0.003090 -0.002449
# 4 0.005613 0.001987 -0.001213 0.035862 -0.014171 0.006617
# 5 -0.012607 -0.008683 -0.003090 -0.014171 0.039106 -0.002876
# 6 -0.008192 -0.003512 -0.002449 0.006617 -0.002876 0.036047
#
#
# Mechanical properties :
#
#
# Convention : Reuss Voigt Hill
#
# Bulk Modulus (GPa) = 18.48142 32.95635 25.71888
# Shear Modulus (GPa) = 27.77500 35.91260 31.84380
#
# Velocity S-wave (km/s) = 3.31253 3.76666 3.54687
# Velocity P-wave (km/s) = 4.68314 5.65126 5.18983
#
# Compressibility (1/GPa) = 0.05410840
#
# Stress axis : x y z
#
# Youngs Moduli (GPa) = 42.79132 64.29420 73.45197
#
# Poissons Ratio (x) = -0.31749 0.23751
# Poissons Ratio (y) = -0.21131 0.06750
# Poissons Ratio (z) = 0.13837 0.05908
#
# Static dielectric constant tensor:
#      x y z
#    x 4.601240 0.126270 0.411410 
#    y 0.126270 4.704170 0.253090 
#    z 0.411410 0.253090 5.103580 
# 
# 
# High freq. dielectric constant tensor:
#      x y z
#    x 2.014970 0.005940 0.011080 
#    y 0.005940 2.008810 0.002490 
#    z 0.011080 0.002490 2.024960 
# 
# From -- ./inp_files/94637.got.cif
#   From: 2010.06.25/outbox.cif.g09.slc.cpg/sg2_48_cif.got.tgz:94637.got - 2010.06.27 13:26:56.
