data_PCOD8021515
_publ_section_title
;
Structure prediction by ZEFSAII (Michael W. Deem and Ramdas Pophale) SiO2 
 PCOD8021515
Probable space group: P -1
;
_chemical_formula_sum "Si O2"
_cell_formula_units_Z 12
_cell_length_a 9.876516
_cell_length_b 11.154191
_cell_length_c 11.484054
_cell_angle_alpha 71.126513
_cell_angle_beta 110.407686
_cell_angle_gamma 50.373912
_cell_volume 597.616241
_symmetry_space_group_name_H-M "P -1"
_symmetry_group_IT_number 2
_symmetry_cell_setting 'triclinic'
loop_
_space_group_symop_operation_xyz
x,y,z
-x,-y,-z
loop_
_atom_site_type_symbol
_atom_site_label
_atom_site_fract_x
_atom_site_fract_y
_atom_site_fract_z
Si Si1 0.132582 0.302296 0.190864
Si Si2 0.122555 0.599197 0.504593
Si Si3 0.251365 0.640259 0.956447
Si Si4 0.435534 0.546852 0.283548
Si Si5 0.114198 0.847561 0.297505
Si Si6 0.290622 0.238037 0.514526
O O1 0.210830 0.313835 0.331197
O O2 0.397962 0.040291 0.294444
O O3 0.000000 0.500000 0.000000
O O4 0.911927 0.358837 0.140262
O O5 0.902906 0.720026 0.494522
O O6 0.379879 0.468030 0.692184
O O7 0.982316 0.814889 0.317553
O O8 0.242204 0.404366 0.515472
O O9 0.351838 0.530119 0.150724
O O10 0.500000 0.500000 0.000000
O O11 0.070179 0.897494 0.819843
O O12 0.168064 0.792392 0.193605
O O13 0.604549 0.331903 0.491320
#
# Coordination Sequence:
#
# PCOD8021515 Si02
#       6
#     2   2   2   2   2   2
#     4  11  27  40  62  88 128 169 194 239 314 364
#     4   9  19  41  68  88 114 163 203 258 299 340
#     4  12  25  39  62  94 126 156 202 253 301 363
#     4   9  20  38  64  90 119 148 206 253 302 346
#     4   9  21  38  63  93 115 157 201 254 307 337
#     4  10  22  44  61  86 128 158 207 245 295 374
#
# _framework density 20.079778000000001
#
# number of rings (size 3 to 8) (size 9 to 14) (size 15 to 20)
#    1.000    1.000    0.000    2.500    4.667    2.000 
#    0.000    1.667    0.000    0.000    0.000    0.000 
#    0.000    0.000    0.000    0.000    0.000    0.000 
#
# Total GULP energy -148698.929366 kJ/mol
# GULP energy per Si atom -12391.577447 kJ/mol
# Density = 2.003408 g / cm^3
# Si number density = 20.079778 Si / 1000 Ang^3
#
#
#
# Elastic Constant Matrix: (Units=GPa)
#
#
# Indices 1 2 3 4 5 6 
#
# 1 87.2886 10.1721 23.4725 -15.8879 -4.3877 -5.8381
# 2 10.1721 82.1593 43.3867 -5.4012 0.2031 -9.3574
# 3 23.4725 43.3867 100.7106 -4.2662 -13.1867 4.0837
# 4 -15.8879 -5.4012 -4.2662 34.9477 6.5889 -3.7678
# 5 -4.3877 0.2031 -13.1867 6.5889 31.0096 -5.7647
# 6 -5.8381 -9.3574 4.0837 -3.7678 -5.7647 40.6818
#
#
#
# Elastic Compliance Matrix: (Units=1/GPa)
#
#
# Indices 1 2 3 4 5 6 
#
# 1 0.013615 0.000904 -0.003462 0.006296 -0.000323 0.003047
# 2 0.000904 0.017053 -0.008033 0.003176 -0.003201 0.004699
# 3 -0.003462 -0.008033 0.014991 -0.002439 0.005853 -0.003246
# 4 0.006296 0.003176 -0.002439 0.033331 -0.006497 0.004045
# 5 -0.000323 -0.003201 0.005853 -0.006497 0.036693 0.003228
# 6 0.003047 0.004699 -0.003246 0.004045 0.003228 0.027257
#
#
# Mechanical properties :
#
#
# Convention : Reuss Voigt Hill
#
# Bulk Modulus (GPa) = 40.85046 47.13568 43.99307
# Shear Modulus (GPa) = 29.02238 34.20299 31.61268
#
# Velocity S-wave (km/s) = 3.80591 4.13165 3.97212
# Velocity P-wave (km/s) = 6.30091 6.80337 6.55696
#
# Compressibility (1/GPa) = 0.02447953
#
# Stress axis : x y z
#
# Youngs Moduli (GPa) = 73.44622 58.63980 66.70490
#
# Poissons Ratio (x) = -0.05302 0.23093
# Poissons Ratio (y) = -0.06641 0.53581
# Poissons Ratio (z) = 0.25427 0.47102
#
# Static dielectric constant tensor:
#      x y z
#    x 3.587640 -0.002600 0.036190 
#    y -0.002600 3.497650 0.074780 
#    z 0.036190 0.074780 3.518970 
# 
# 
# High freq. dielectric constant tensor:
#      x y z
#    x 1.787770 -0.008210 -0.000030 
#    y -0.008210 1.788920 -0.000680 
#    z -0.000030 -0.000680 1.774310 
# 
# From -- ./inp_files/333930.got.cif
#   From: 2010.06.25/outbox.cif.g09.slc.cpg/sg2_167_cif.got.tgz:333930.got - 2010.06.27 13:26:56.
