data_PCOD8021128
_publ_section_title
;
Structure prediction by ZEFSAII (Michael W. Deem and Ramdas Pophale) SiO2 
 PCOD8021128
Probable space group: P -1
;
_chemical_formula_sum "Si O2"
_cell_formula_units_Z 14
_cell_length_a 8.235796
_cell_length_b 16.769943
_cell_length_c 16.265047
_cell_angle_alpha 143.684627
_cell_angle_beta 32.944872
_cell_angle_gamma 146.590169
_cell_volume 629.765649
_symmetry_space_group_name_H-M "P -1"
_symmetry_group_IT_number 2
_symmetry_cell_setting 'triclinic'
loop_
_space_group_symop_operation_xyz
x,y,z
-x,-y,-z
loop_
_atom_site_type_symbol
_atom_site_label
_atom_site_fract_x
_atom_site_fract_y
_atom_site_fract_z
Si Si1 0.386528 0.890837 0.033966
Si Si2 0.295227 0.964576 0.823031
Si Si3 0.825899 0.724339 0.714603
Si Si4 0.398571 0.370940 0.866924
Si Si5 0.713391 0.547525 0.184731
Si Si6 0.064929 0.862656 0.388288
Si Si7 0.778366 0.178915 0.541558
O O1 0.647426 0.827816 0.879472
O O2 0.005558 0.750455 0.067702
O O3 0.500000 0.000000 0.000000
O O4 0.446283 0.000048 0.179766
O O5 0.123513 0.790073 0.713833
O O6 0.527254 0.076330 0.743463
O O7 0.000000 0.000000 0.000000
O O8 0.542224 0.551873 0.716072
O O9 0.984948 0.737766 0.568433
O O10 0.505811 0.464742 0.813423
O O11 0.596894 0.278057 0.723835
O O12 0.500000 0.500000 0.000000
O O13 0.875945 0.721817 0.289909
O O14 0.000000 0.500000 0.000000
O O15 0.976606 0.812766 0.479824
O O16 0.000000 0.000000 0.500000
O O17 0.500000 0.000000 0.500000
#
# Coordination Sequence:
#
# PCOD8021128 Si02
#       7
#     2   2   2   2   2   2   2
#     4  11  24  42  71 104 142 188 247 288 352 436
#     4  10  22  43  68 103 135 186 239 283 351 420
#     4  11  25  44  72 105 142 191 238 302 358 417
#     4  12  27  46  72 105 145 193 234 298 362 421
#     4  12  24  49  72 101 147 188 243 292 358 431
#     4  12  26  47  74 101 143 194 234 294 366 428
#     4  12  26  47  72 106 148 182 245 299 357 431
#
# _framework density 22.230492999999999
#
# number of rings (size 3 to 8) (size 9 to 14) (size 15 to 20)
#    0.000    0.571    4.286    3.429    6.000    1.143 
#    0.000    0.000    0.000    0.000    0.000    0.000 
#    0.000    0.000    0.000    0.000    0.000    0.000 
#
# Total GULP energy -173492.290814 kJ/mol
# GULP energy per Si atom -12392.306487 kJ/mol
# Density = 2.217990 g / cm^3
# Si number density = 22.230493 Si / 1000 Ang^3
#
#
#
# Elastic Constant Matrix: (Units=GPa)
#
#
# Indices 1 2 3 4 5 6 
#
# 1 151.3694 53.9980 63.4024 14.6750 17.0211 -2.6697
# 2 53.9980 143.3007 65.3492 -2.4518 12.2503 -5.4645
# 3 63.4024 65.3492 123.7341 15.5002 13.3288 -1.3285
# 4 14.6750 -2.4518 15.5002 43.8883 -7.3136 3.3426
# 5 17.0211 12.2503 13.3288 -7.3136 33.0837 3.8647
# 6 -2.6697 -5.4645 -1.3285 3.3426 3.8647 44.0565
#
#
#
# Elastic Compliance Matrix: (Units=1/GPa)
#
#
# Indices 1 2 3 4 5 6 
#
# 1 0.009195 -0.001800 -0.003026 -0.002755 -0.003543 0.000762
# 2 -0.001800 0.009844 -0.004555 0.002633 -0.000396 0.000810
# 3 -0.003026 -0.004555 0.012895 -0.004302 -0.002929 0.000224
# 4 -0.002755 0.002633 -0.004302 0.026994 0.008465 -0.002761
# 5 -0.003543 -0.000396 -0.002929 0.008465 0.035730 -0.004129
# 6 0.000762 0.000810 0.000224 -0.002761 -0.004129 0.023423
#
#
# Mechanical properties :
#
#
# Convention : Reuss Voigt Hill
#
# Bulk Modulus (GPa) = 75.92107 87.10037 81.51072
# Shear Modulus (GPa) = 35.40284 39.91602 37.65943
#
# Velocity S-wave (km/s) = 3.99499 4.24199 4.12034
# Velocity P-wave (km/s) = 7.45022 7.95351 7.70598
#
# Compressibility (1/GPa) = 0.01317157
#
# Stress axis : x y z
#
# Youngs Moduli (GPa) = 108.75659 101.58930 77.55101
#
# Poissons Ratio (x) = 0.18287 0.23466
# Poissons Ratio (y) = 0.19577 0.35323
# Poissons Ratio (z) = 0.32908 0.46272
#
# Static dielectric constant tensor:
#      x y z
#    x 5.179310 -0.213950 0.460590 
#    y -0.213950 4.416520 -0.188230 
#    z 0.460590 -0.188230 4.305600 
# 
# 
# High freq. dielectric constant tensor:
#      x y z
#    x 1.888510 0.001110 0.014670 
#    y 0.001110 1.880380 -0.004380 
#    z 0.014670 -0.004380 1.877840 
# 
# From -- ./inp_files/562086.got.cif
#   From: 2010.06.25/outbox.cif.g09.slc.cpg/sg2_282_cif.got.tgz:562086.got - 2010.06.27 13:26:56.
