data_PCOD8021861
_publ_section_title
;
Structure prediction by ZEFSAII (Michael W. Deem and Ramdas Pophale) SiO2 
 PCOD8021861
Probable space group: P -1
;
_chemical_formula_sum "Si O2"
_cell_formula_units_Z 14
_cell_length_a 16.617589
_cell_length_b 22.773174
_cell_length_c 14.727904
_cell_angle_alpha 19.680501
_cell_angle_beta 29.529385
_cell_angle_gamma 20.155353
_cell_volume 642.159658
_symmetry_space_group_name_H-M "P -1"
_symmetry_group_IT_number 2
_symmetry_cell_setting 'triclinic'
loop_
_space_group_symop_operation_xyz
x,y,z
-x,-y,-z
loop_
_atom_site_type_symbol
_atom_site_label
_atom_site_fract_x
_atom_site_fract_y
_atom_site_fract_z
Si Si1 0.751319 0.904582 0.391632
Si Si2 0.127447 0.489434 0.267666
Si Si3 0.405724 0.725355 0.136274
Si Si4 0.654958 0.890677 0.245618
Si Si5 0.799703 0.796616 0.852426
Si Si6 0.043048 0.712746 0.563736
Si Si7 0.875032 0.278440 0.229425
O O1 0.931401 0.638743 0.547743
O O2 0.851005 0.867956 0.446184
O O3 0.500000 0.000000 0.500000
O O4 0.724405 0.108171 0.069310
O O5 0.325737 0.280654 0.449975
O O6 0.904645 0.735857 0.180742
O O7 0.220548 0.571953 0.990302
O O8 0.245871 0.700586 0.374179
O O9 0.660325 0.446350 0.267751
O O10 0.441471 0.859926 0.973887
O O11 0.480956 0.962211 0.232195
O O12 0.908815 0.839920 0.605251
O O13 0.909153 0.765349 0.886502
O O14 0.836942 0.564824 0.141306
O O15 0.000000 0.000000 0.500000
#
# Coordination Sequence:
#
# PCOD8021861 Si02
#       7
#     2   2   2   2   2   2   2
#     4  11  19  42  71  94 134 176 221 267 332 392
#     4  10  22  44  69  95 131 173 222 266 329 394
#     4  11  24  41  69  99 131 180 219 275 328 391
#     4  10  24  43  73  95 130 179 220 271 332 394
#     4  11  24  42  65  95 134 179 216 274 339 388
#     4  11  23  39  65 103 133 168 233 267 326 400
#     4  12  27  44  66  99 134 173 220 278 333 393
#
# _framework density 21.801431000000001
#
# number of rings (size 3 to 8) (size 9 to 14) (size 15 to 20)
#    0.000    1.143    2.857    3.857    4.000    2.857 
#    0.000    2.143    0.000    0.000    0.000    0.000 
#    0.000    0.000    0.000    0.000    0.000    0.000 
#
# Total GULP energy -173530.105487 kJ/mol
# GULP energy per Si atom -12395.007535 kJ/mol
# Density = 2.175181 g / cm^3
# Si number density = 21.801431 Si / 1000 Ang^3
#
#
#
# Elastic Constant Matrix: (Units=GPa)
#
#
# Indices 1 2 3 4 5 6 
#
# 1 60.9325 25.1301 15.3204 -4.7703 11.4015 -14.9730
# 2 25.1301 104.6643 46.7413 -12.4969 -10.8895 -1.4405
# 3 15.3204 46.7413 111.1695 7.0481 -0.8514 -2.2967
# 4 -4.7703 -12.4969 7.0481 36.3731 6.8170 -5.6132
# 5 11.4015 -10.8895 -0.8514 6.8170 26.3094 -4.3413
# 6 -14.9730 -1.4405 -2.2967 -5.6132 -4.3413 38.2496
#
#
#
# Elastic Compliance Matrix: (Units=1/GPa)
#
#
# Indices 1 2 3 4 5 6 
#
# 1 0.023947 -0.005888 -0.001067 0.005009 -0.012765 0.008375
# 2 -0.005888 0.014664 -0.005557 0.003863 0.007327 -0.000688
# 3 -0.001067 -0.005557 0.011738 -0.004336 -0.000435 -0.000608
# 4 0.005009 0.003863 -0.004336 0.032746 -0.008254 0.005715
# 5 -0.012765 0.007327 -0.000435 -0.008254 0.048626 -0.000440
# 6 0.008375 -0.000688 -0.000608 0.005715 -0.000440 0.030149
#
#
# Mechanical properties :
#
#
# Convention : Reuss Voigt Hill
#
# Bulk Modulus (GPa) = 39.48719 50.12779 44.80749
# Shear Modulus (GPa) = 25.59708 32.82470 29.21089
#
# Velocity S-wave (km/s) = 3.43023 3.88444 3.66438
# Velocity P-wave (km/s) = 5.81723 6.56973 6.20490
#
# Compressibility (1/GPa) = 0.02532467
#
# Stress axis : x y z
#
# Youngs Moduli (GPa) = 41.75913 68.19483 85.19497
#
# Poissons Ratio (x) = 0.40153 0.09089
# Poissons Ratio (y) = 0.24588 0.47343
# Poissons Ratio (z) = 0.04455 0.37896
#
# Static dielectric constant tensor:
#      x y z
#    x 4.170170 0.129090 0.249390 
#    y 0.129090 3.903370 -0.071000 
#    z 0.249390 -0.071000 4.139730 
# 
# 
# High freq. dielectric constant tensor:
#      x y z
#    x 1.846770 0.004330 0.028490 
#    y 0.004330 1.852010 -0.008190 
#    z 0.028490 -0.008190 1.863670 
# 
# From -- ./inp_files/174899.got.cif
#   From: 2010.06.25/outbox.cif.g09.slc.cpg/sg2_88_cif.got.tgz:174899.got - 2010.06.27 13:26:56.
