data_PCOD8021894
_publ_section_title
;
Structure prediction by ZEFSAII (Michael W. Deem and Ramdas Pophale) SiO2 
 PCOD8021894
Probable space group: P -1
;
_chemical_formula_sum "Si O2"
_cell_formula_units_Z 14
_cell_length_a 18.473634
_cell_length_b 7.310434
_cell_length_c 11.612999
_cell_angle_alpha 77.476134
_cell_angle_beta 141.714586
_cell_angle_gamma 128.317583
_cell_volume 634.157383
_symmetry_space_group_name_H-M "P -1"
_symmetry_group_IT_number 2
_symmetry_cell_setting 'triclinic'
loop_
_space_group_symop_operation_xyz
x,y,z
-x,-y,-z
loop_
_atom_site_type_symbol
_atom_site_label
_atom_site_fract_x
_atom_site_fract_y
_atom_site_fract_z
Si Si1 0.906716 0.841425 0.524670
Si Si2 0.604967 0.362467 0.873031
Si Si3 0.819363 0.962529 0.984262
Si Si4 0.991274 0.304070 0.939653
Si Si5 0.697708 0.305807 0.216505
Si Si6 0.348658 0.833623 0.243341
Si Si7 0.781458 0.051498 0.476417
O O1 0.732716 0.510025 0.327123
O O2 0.852189 0.956942 0.511975
O O3 0.000000 0.000000 0.500000
O O4 0.035323 0.870534 0.758551
O O5 0.685037 0.632022 0.868625
O O6 0.569577 0.142968 0.776594
O O7 0.425053 0.215537 0.725013
O O8 0.743855 0.453536 0.130089
O O9 0.908971 0.050451 0.957121
O O10 0.714761 0.029425 0.864215
O O11 0.874547 0.189678 0.696188
O O12 0.000000 0.500000 0.000000
O O13 0.190318 0.502051 0.123240
O O14 0.817837 0.272587 0.407615
O O15 0.500000 0.000000 0.000000
O O16 0.500000 0.000000 0.500000
#
# Coordination Sequence:
#
# PCOD8021894 Si02
#       7
#     2   2   2   2   2   2   2
#     4  12  26  45  71 106 139 192 240 287 360 418
#     4  11  24  42  68 106 134 187 233 283 362 406
#     4  11  25  45  71 101 143 177 234 295 342 428
#     4  10  22  44  70 101 138 182 231 286 362 410
#     4  10  24  44  68 101 142 184 235 289 352 417
#     4  11  25  43  70 102 138 181 231 291 353 422
#     4  11  26  45  72 101 146 187 238 294 351 430
#
# _framework density 22.076539
#
# number of rings (size 3 to 8) (size 9 to 14) (size 15 to 20)
#    0.000    1.143    1.429    4.286    2.000   12.000 
#    0.000    0.000    0.000    0.000    0.000    0.000 
#    0.000    0.000    0.000    0.000    0.000    0.000 
#
# Total GULP energy -173545.859753 kJ/mol
# GULP energy per Si atom -12396.132840 kJ/mol
# Density = 2.202629 g / cm^3
# Si number density = 22.076539 Si / 1000 Ang^3
#
#
#
# Elastic Constant Matrix: (Units=GPa)
#
#
# Indices 1 2 3 4 5 6 
#
# 1 127.4543 51.4389 61.6503 -16.0175 -12.6465 -14.0955
# 2 51.4389 140.3558 67.4061 -18.4477 -1.1433 -1.3174
# 3 61.6503 67.4061 174.7982 -23.5230 -20.7326 -6.6050
# 4 -16.0175 -18.4477 -23.5230 41.3776 2.4436 -4.5680
# 5 -12.6465 -1.1433 -20.7326 2.4436 37.6354 5.9519
# 6 -14.0955 -1.3174 -6.6050 -4.5680 5.9519 36.5892
#
#
#
# Elastic Compliance Matrix: (Units=1/GPa)
#
#
# Indices 1 2 3 4 5 6 
#
# 1 0.010774 -0.002572 -0.002198 0.002083 0.001618 0.003658
# 2 -0.002572 0.009645 -0.002857 0.001743 -0.002165 -0.000589
# 3 -0.002198 -0.002857 0.008362 0.002450 0.003577 0.000284
# 4 0.002083 0.001743 0.002450 0.027706 -0.000462 0.004842
# 5 0.001618 -0.002165 0.003577 -0.000462 0.029632 -0.003687
# 6 0.003658 -0.000589 0.000284 0.004842 -0.003687 0.029974
#
#
# Mechanical properties :
#
#
# Convention : Reuss Voigt Hill
#
# Bulk Modulus (GPa) = 73.91644 89.28876 81.60260
# Shear Modulus (GPa) = 36.80386 40.59464 38.69925
#
# Velocity S-wave (km/s) = 4.08745 4.29279 4.19138
# Velocity P-wave (km/s) = 7.47201 8.06868 7.77607
#
# Compressibility (1/GPa) = 0.01352879
#
# Stress axis : x y z
#
# Youngs Moduli (GPa) = 92.81826 103.67821 119.58356
#
# Poissons Ratio (x) = 0.26663 0.26281
# Poissons Ratio (y) = 0.23870 0.34163
# Poissons Ratio (z) = 0.20399 0.29619
#
# Static dielectric constant tensor:
#      x y z
#    x 4.104090 0.312840 -0.162710 
#    y 0.312840 4.539850 -0.159910 
#    z -0.162710 -0.159910 4.197070 
# 
# 
# High freq. dielectric constant tensor:
#      x y z
#    x 1.866380 0.001190 -0.013510 
#    y 0.001190 1.882040 -0.001430 
#    z -0.013510 -0.001430 1.885170 
# 
# From -- ./inp_files/469384.got.cif
#   From: 2010.06.25/outbox.cif.g09.slc.cpg/sg2_235_cif.got.tgz:469384.got - 2010.06.27 13:26:56.
