data_PCOD8021419
_publ_section_title
;
Structure prediction by ZEFSAII (Michael W. Deem and Ramdas Pophale) SiO2 
 PCOD8021419
Probable space group: P -1
;
_chemical_formula_sum "Si O2"
_cell_formula_units_Z 14
_cell_length_a 8.313540
_cell_length_b 9.088229
_cell_length_c 13.905675
_cell_angle_alpha 142.640802
_cell_angle_beta 69.558697
_cell_angle_gamma 114.533950
_cell_volume 579.632439
_symmetry_space_group_name_H-M "P -1"
_symmetry_group_IT_number 2
_symmetry_cell_setting 'triclinic'
loop_
_space_group_symop_operation_xyz
x,y,z
-x,-y,-z
loop_
_atom_site_type_symbol
_atom_site_label
_atom_site_fract_x
_atom_site_fract_y
_atom_site_fract_z
Si Si1 0.790002 0.862754 0.584285
Si Si2 0.182994 0.328580 0.307862
Si Si3 0.489175 0.243403 0.570262
Si Si4 0.436492 0.489483 0.886231
Si Si5 0.063538 0.565461 0.726172
Si Si6 0.345096 0.024172 0.976130
Si Si7 0.771613 0.401081 0.850397
O O1 0.784167 0.763922 0.642096
O O2 0.600823 0.798941 0.537125
O O3 0.916218 0.720667 0.425860
O O4 0.853189 0.162235 0.728243
O O5 0.313555 0.596348 0.401910
O O6 0.204463 0.119825 0.118740
O O7 0.991350 0.371570 0.339058
O O8 0.382804 0.402409 0.743053
O O9 0.500000 0.000000 0.500000
O O10 0.558209 0.774173 0.018617
O O11 0.571338 0.323488 0.808402
O O12 0.255741 0.461843 0.971459
O O13 0.910498 0.582907 0.844974
O O14 0.248572 0.761677 0.811528
O O15 0.500000 0.000000 0.000000
#
# Coordination Sequence:
#
# PCOD8021419 Si02
#       7
#     2   2   2   2   2   2   2
#     4  12  25  42  68 103 148 185 232 285 355 420
#     4  11  24  43  65 104 142 186 237 284 348 419
#     4  11  21  44  70 102 139 187 234 290 347 414
#     4  10  22  43  72 101 139 177 242 281 354 413
#     4  12  24  46  72 103 144 184 234 294 349 412
#     4  11  23  45  74 101 141 182 234 294 354 420
#     4  11  23  44  71 102 138 187 231 294 343 416
#
# _framework density 24.153237000000001
#
# number of rings (size 3 to 8) (size 9 to 14) (size 15 to 20)
#    0.000    0.857    4.286    4.286    0.000    1.143 
#    0.000    9.286    0.000    0.000    0.000    0.000 
#    0.000    0.000    0.000    0.000    0.000    0.000 
#
# Total GULP energy -173459.513897 kJ/mol
# GULP energy per Si atom -12389.965278 kJ/mol
# Density = 2.409826 g / cm^3
# Si number density = 24.153237 Si / 1000 Ang^3
#
#
#
# Elastic Constant Matrix: (Units=GPa)
#
#
# Indices 1 2 3 4 5 6 
#
# 1 122.1470 43.3279 41.2854 6.0490 9.2000 -28.9454
# 2 43.3279 127.1115 53.2793 -8.2143 6.1044 -19.0820
# 3 41.2854 53.2793 76.1550 5.0241 5.0407 -12.1722
# 4 6.0490 -8.2143 5.0241 28.5135 -9.1043 -5.7342
# 5 9.2000 6.1044 5.0407 -9.1043 39.6723 -3.4005
# 6 -28.9454 -19.0820 -12.1722 -5.7342 -3.4005 36.4247
#
#
#
# Elastic Compliance Matrix: (Units=1/GPa)
#
#
# Indices 1 2 3 4 5 6 
#
# 1 0.011931 -0.001202 -0.004303 -0.001248 -0.001717 0.007057
# 2 -0.001202 0.012625 -0.008034 0.006520 0.001206 0.004113
# 3 -0.004303 -0.008034 0.021361 -0.006145 -0.002031 -0.001647
# 4 -0.001248 0.006520 -0.006145 0.043369 0.010722 0.008199
# 5 -0.001717 0.001206 -0.002031 0.010722 0.028389 0.002927
# 6 0.007057 0.004113 -0.001647 0.008199 0.002927 0.036230
#
#
# Mechanical properties :
#
#
# Convention : Reuss Voigt Hill
#
# Bulk Modulus (GPa) = 53.08007 66.79985 59.93996
# Shear Modulus (GPa) = 26.70052 33.42351 30.06201
#
# Velocity S-wave (km/s) = 3.32846 3.72400 3.53177
# Velocity P-wave (km/s) = 6.06594 6.79762 6.44217
#
# Compressibility (1/GPa) = 0.01883946
#
# Stress axis : x y z
#
# Youngs Moduli (GPa) = 83.81468 79.20806 46.81423
#
# Poissons Ratio (x) = 0.09521 0.20146
# Poissons Ratio (y) = 0.10075 0.37608
# Poissons Ratio (z) = 0.36068 0.63632
#
# Static dielectric constant tensor:
#      x y z
#    x 4.326300 -0.481630 -0.343460 
#    y -0.481630 4.409110 0.076350 
#    z -0.343460 0.076350 4.857120 
# 
# 
# High freq. dielectric constant tensor:
#      x y z
#    x 1.951360 -0.029280 -0.012470 
#    y -0.029280 1.952830 -0.003820 
#    z -0.012470 -0.003820 1.963480 
# 
# From -- ./inp_files/491710.got.cif
#   From: 2010.06.25/outbox.cif.g09.slc.cpg/sg2_246_cif.got.tgz:491710.got - 2010.06.27 13:26:56.
