data_PCOD8021579
_publ_section_title
;
Structure prediction by ZEFSAII (Michael W. Deem and Ramdas Pophale) SiO2 
 PCOD8021579
Probable space group: P -1
;
_chemical_formula_sum "Si O2"
_cell_formula_units_Z 16
_cell_length_a 23.388988
_cell_length_b 7.669932
_cell_length_c 8.777596
_cell_angle_alpha 54.625374
_cell_angle_beta 143.385701
_cell_angle_gamma 113.307570
_cell_volume 758.017199
_symmetry_space_group_name_H-M "P -1"
_symmetry_group_IT_number 2
_symmetry_cell_setting 'triclinic'
loop_
_space_group_symop_operation_xyz
x,y,z
-x,-y,-z
loop_
_atom_site_type_symbol
_atom_site_label
_atom_site_fract_x
_atom_site_fract_y
_atom_site_fract_z
Si Si1 0.222898 0.235453 0.088754
Si Si2 0.378354 0.926556 0.415182
Si Si3 0.729119 0.052575 0.388227
Si Si4 0.706143 0.407910 0.410886
Si Si5 0.922534 0.365629 0.833380
Si Si6 0.968451 0.925198 0.308188
Si Si7 0.599014 0.885843 0.950955
Si Si8 0.867868 0.317463 0.406345
O O1 0.321469 0.140561 0.262662
O O2 0.224525 0.150637 0.308342
O O3 0.132976 0.161599 0.843028
O O4 0.210902 0.494214 0.928093
O O5 0.327611 0.715034 0.450534
O O6 0.485488 0.891339 0.732069
O O7 0.380036 0.959621 0.221301
O O8 0.691498 0.260794 0.306384
O O9 0.812929 0.111524 0.425227
O O10 0.640445 0.981522 0.142243
O O11 0.818552 0.436708 0.655375
O O12 0.644497 0.640243 0.139774
O O13 0.914253 0.401233 0.616795
O O14 0.000000 0.500000 0.000000
O O15 0.957504 0.115110 0.065234
O O16 0.048625 0.737318 0.511591
O O17 0.000000 0.000000 0.500000
#
# Coordination Sequence:
#
# PCOD8021579 Si02
#       8
#     2   2   2   2   2   2   2   2
#     4  11  23  45  63  91 132 168 213 274 324 383
#     4  10  22  44  66  98 134 161 225 272 320 401
#     4  10  24  42  66  96 130 170 220 268 327 391
#     4  10  22  44  64  94 138 167 220 270 325 390
#     4  11  23  41  66  96 131 178 216 271 332 387
#     4  12  25  40  63  96 129 170 221 267 323 395
#     4  11  24  40  72  97 125 181 213 272 338 383
#     4  11  24  43  64  92 132 170 218 274 322 394
#
# _framework density 21.107700000000001
#
# number of rings (size 3 to 8) (size 9 to 14) (size 15 to 20)
#    0.000    1.250    3.750    3.375    3.500    4.000 
#    0.000    5.625    0.000    0.000    0.000    0.000 
#    0.000    0.000    0.000    0.000    0.000    0.000 
#
# Total GULP energy -198471.393277 kJ/mol
# GULP energy per Si atom -12404.462080 kJ/mol
# Density = 2.105966 g / cm^3
# Si number density = 21.107700 Si / 1000 Ang^3
#
#
#
# Elastic Constant Matrix: (Units=GPa)
#
#
# Indices 1 2 3 4 5 6 
#
# 1 107.4826 49.7295 62.4983 8.2893 14.1343 9.9593
# 2 49.7295 77.4045 59.0725 -1.9679 0.5511 3.2247
# 3 62.4983 59.0725 143.9312 1.2134 10.4217 -2.0196
# 4 8.2893 -1.9679 1.2134 35.0541 -1.6530 2.2045
# 5 14.1343 0.5511 10.4217 -1.6530 40.6741 -4.0577
# 6 9.9593 3.2247 -2.0196 2.2045 -4.0577 25.4735
#
#
#
# Elastic Compliance Matrix: (Units=1/GPa)
#
#
# Indices 1 2 3 4 5 6 
#
# 1 0.016649 -0.007633 -0.003752 -0.004096 -0.005522 -0.006365
# 2 -0.007633 0.022722 -0.006339 0.003496 0.004106 -0.000043
# 3 -0.003752 -0.006339 0.011309 -0.000105 -0.001215 0.002981
# 4 -0.004096 0.003496 -0.000105 0.029879 0.002514 -0.001035
# 5 -0.005522 0.004106 -0.001215 0.002514 0.027431 0.005695
# 6 -0.006365 -0.000043 0.002981 -0.001035 0.005695 0.042984
#
#
# Mechanical properties :
#
#
# Convention : Reuss Voigt Hill
#
# Bulk Modulus (GPa) = 65.64424 74.60209 70.12316
# Shear Modulus (GPa) = 26.11014 30.74154 28.42584
#
# Velocity S-wave (km/s) = 3.52091 3.82044 3.67373
# Velocity P-wave (km/s) = 6.90625 7.40819 7.16162
#
# Compressibility (1/GPa) = 0.01523363
#
# Stress axis : x y z
#
# Youngs Moduli (GPa) = 60.06516 44.01069 88.42544
#
# Poissons Ratio (x) = 0.33592 0.33173
# Poissons Ratio (y) = 0.45846 0.56050
# Poissons Ratio (z) = 0.22534 0.27897
#
# Static dielectric constant tensor:
#      x y z
#    x 3.840750 0.296570 0.026660 
#    y 0.296570 4.094230 -0.077740 
#    z 0.026660 -0.077740 4.000820 
# 
# 
# High freq. dielectric constant tensor:
#      x y z
#    x 1.828890 0.014650 0.000230 
#    y 0.014650 1.822250 -0.011120 
#    z 0.000230 -0.011120 1.836400 
# 
# From -- ./inp_files/352067.got.cif
#   From: 2010.06.25/outbox.cif.g09.slc.cpg/sg2_177_cif.got.tgz:352067.got - 2010.06.27 13:26:56.
