data_PCOD8021357
_publ_section_title
;
Structure prediction by ZEFSAII (Michael W. Deem and Ramdas Pophale) SiO2 
 PCOD8021357
Probable space group: P -1
;
_chemical_formula_sum "Si O2"
_cell_formula_units_Z 16
_cell_length_a 10.313183
_cell_length_b 18.971296
_cell_length_c 7.821461
_cell_angle_alpha 112.310454
_cell_angle_beta 79.936343
_cell_angle_gamma 147.122179
_cell_volume 736.230805
_symmetry_space_group_name_H-M "P -1"
_symmetry_group_IT_number 2
_symmetry_cell_setting 'triclinic'
loop_
_space_group_symop_operation_xyz
x,y,z
-x,-y,-z
loop_
_atom_site_type_symbol
_atom_site_label
_atom_site_fract_x
_atom_site_fract_y
_atom_site_fract_z
Si Si1 0.537565 0.354966 0.843864
Si Si2 0.242335 0.157077 0.166810
Si Si3 0.503733 0.572357 0.782612
Si Si4 0.322136 0.971083 0.612590
Si Si5 0.402369 0.758096 0.024337
Si Si6 0.068972 0.116364 0.532650
Si Si7 0.904192 0.669203 0.619774
Si Si8 0.028796 0.444982 0.311921
O O1 0.564717 0.287706 0.875252
O O2 0.257431 0.239367 0.744447
O O3 0.687853 0.421077 0.693400
O O4 0.612029 0.467511 0.039249
O O5 0.345936 0.275871 0.138445
O O6 0.206091 0.175722 0.375378
O O7 0.447105 0.190674 0.136533
O O8 0.000000 0.000000 0.000000
O O9 0.712354 0.609686 0.749203
O O10 0.263558 0.440646 0.600640
O O11 0.169497 0.945434 0.484157
O O12 0.119920 0.831935 0.655493
O O13 0.500000 0.000000 0.500000
O O14 0.500636 0.112891 0.813416
O O15 0.121094 0.623509 0.895929
O O16 0.000000 0.000000 0.500000
O O17 0.044088 0.666818 0.670535
O O18 0.000000 0.500000 0.500000
#
# Coordination Sequence:
#
# PCOD8021357 Si02
#       8
#     2   2   2   2   2   2   2   2
#     4  11  24  42  74 103 133 178 244 295 348 415
#     4  11  19  41  71  97 132 178 239 289 342 413
#     4  10  22  43  70  99 134 179 235 296 350 404
#     4  12  28  44  69 103 148 189 224 293 367 418
#     4  11  24  45  68 101 138 184 233 294 350 418
#     4  12  22  42  71 105 132 180 243 290 340 423
#     4  11  25  46  68  96 144 186 230 289 359 421
#     4  12  27  43  70 104 142 185 233 288 363 435
#
# _framework density 21.732316999999998
#
# number of rings (size 3 to 8) (size 9 to 14) (size 15 to 20)
#    0.000    0.750    3.750    4.125    5.250    3.000 
#    0.000    0.000    0.000    0.000    0.000    0.000 
#    0.000    0.000    0.000    0.000    0.000    0.000 
#
# Total GULP energy -198277.727753 kJ/mol
# GULP energy per Si atom -12392.357985 kJ/mol
# Density = 2.168285 g / cm^3
# Si number density = 21.732317 Si / 1000 Ang^3
#
#
#
# Elastic Constant Matrix: (Units=GPa)
#
#
# Indices 1 2 3 4 5 6 
#
# 1 138.6814 29.0145 54.9706 -3.6146 -4.8549 4.4066
# 2 29.0145 69.1163 27.1273 2.6016 -5.7855 2.3364
# 3 54.9706 27.1273 139.6259 8.5586 -13.9517 8.8393
# 4 -3.6146 2.6016 8.5586 40.1177 9.6937 -7.2960
# 5 -4.8549 -5.7855 -13.9517 9.6937 44.9986 -2.4166
# 6 4.4066 2.3364 8.8393 -7.2960 -2.4166 34.8849
#
#
#
# Elastic Compliance Matrix: (Units=1/GPa)
#
#
# Indices 1 2 3 4 5 6 
#
# 1 0.009080 -0.002675 -0.003263 0.001913 -0.000777 0.000205
# 2 -0.002675 0.016529 -0.001893 -0.001361 0.001517 -0.000469
# 3 -0.003263 -0.001893 0.009459 -0.003324 0.002927 -0.002350
# 4 0.001913 -0.001361 -0.003324 0.028681 -0.006844 0.006216
# 5 -0.000777 0.001517 0.002927 -0.006844 0.024691 -0.000466
# 6 0.000205 -0.000469 -0.002350 0.006216 -0.000466 0.030534
#
#
# Mechanical properties :
#
#
# Convention : Reuss Voigt Hill
#
# Bulk Modulus (GPa) = 51.53218 63.29427 57.41322
# Shear Modulus (GPa) = 35.43460 39.75432 37.59446
#
# Velocity S-wave (km/s) = 4.04233 4.28164 4.16370
# Velocity P-wave (km/s) = 6.74914 7.32332 7.04208
#
# Compressibility (1/GPa) = 0.01940535
#
# Stress axis : x y z
#
# Youngs Moduli (GPa) = 110.13325 60.50139 105.71388
#
# Poissons Ratio (x) = 0.16184 0.34493
# Poissons Ratio (y) = 0.29461 0.20016
# Poissons Ratio (z) = 0.35935 0.11455
#
# Static dielectric constant tensor:
#      x y z
#    x 4.046610 0.092800 0.082060 
#    y 0.092800 4.235920 0.209560 
#    z 0.082060 0.209560 4.098490 
# 
# 
# High freq. dielectric constant tensor:
#      x y z
#    x 1.857500 0.007100 -0.010260 
#    y 0.007100 1.854730 0.003920 
#    z -0.010260 0.003920 1.865650 
# 
# From -- ./inp_files/218267.got.cif
#   From: 2010.06.25/outbox.cif.g09.slc.cpg/sg2_110_cif.got.tgz:218267.got - 2010.06.27 13:26:56.
