data_PCOD8021500
_publ_section_title
;
Structure prediction by ZEFSAII (Michael W. Deem and Ramdas Pophale) SiO2 
 PCOD8021500
Probable space group: P -1
;
_chemical_formula_sum "Si O2"
_cell_formula_units_Z 12
_cell_length_a 5.583277
_cell_length_b 4.912364
_cell_length_c 20.807934
_cell_angle_alpha 127.852767
_cell_angle_beta 77.181505
_cell_angle_gamma 91.937287
_cell_volume 435.490668
_symmetry_space_group_name_H-M "P -1"
_symmetry_group_IT_number 2
_symmetry_cell_setting 'triclinic'
loop_
_space_group_symop_operation_xyz
x,y,z
-x,-y,-z
loop_
_atom_site_type_symbol
_atom_site_label
_atom_site_fract_x
_atom_site_fract_y
_atom_site_fract_z
Si Si1 0.329404 0.209893 0.989510
Si Si2 0.544510 0.591276 0.438759
Si Si3 0.925312 0.331830 0.596750
Si Si4 0.095720 0.556157 0.864942
Si Si5 0.516741 0.087897 0.830581
Si Si6 0.206379 0.607515 0.247595
O O1 0.480819 0.341145 0.935222
O O2 0.187446 0.927896 0.920705
O O3 0.129597 0.484338 0.077552
O O4 0.500000 0.000000 0.000000
O O5 0.500000 0.500000 0.500000
O O6 0.334173 0.452818 0.384506
O O7 0.834702 0.453374 0.383576
O O8 0.500000 0.000000 0.500000
O O9 0.876066 0.202465 0.653243
O O10 0.000000 0.000000 0.500000
O O11 0.284189 0.208036 0.816420
O O12 0.015564 0.570087 0.796529
O O13 0.744234 0.128021 0.774638
O O14 0.556456 0.688193 0.795148
#
# Coordination Sequence:
#
# PCOD8021500 Si02
#       6
#     2   2   2   2   2   2
#     4  11  23  47  75 105 147 192 249 301 370 457
#     4  10  22  43  76 105 143 182 247 306 370 443
#     4  10  25  50  76 112 149 201 255 313 381 454
#     4  11  25  45  74 104 147 194 243 303 380 437
#     4  12  26  48  68 110 145 191 247 303 379 442
#     4  12  29  46  73 106 152 192 248 314 374 446
#
# _framework density 27.555126999999999
#
# number of rings (size 3 to 8) (size 9 to 14) (size 15 to 20)
#    0.000    1.000    3.333    1.000    4.667    8.000 
#    3.000    0.000    0.000    0.000    0.000    0.000 
#    0.000    0.000    0.000    0.000    0.000    0.000 
#
# Total GULP energy -148688.512700 kJ/mol
# GULP energy per Si atom -12390.709392 kJ/mol
# Density = 2.749241 g / cm^3
# Si number density = 27.555127 Si / 1000 Ang^3
#
#
#
# Elastic Constant Matrix: (Units=GPa)
#
#
# Indices 1 2 3 4 5 6 
#
# 1 185.4114 14.5437 47.0898 -24.7793 1.8646 -21.9985
# 2 14.5437 98.4850 16.7326 -33.2116 2.8627 -7.8981
# 3 47.0898 16.7326 205.9868 -47.0341 3.0753 5.3936
# 4 -24.7793 -33.2116 -47.0341 49.8476 -0.1911 -8.8250
# 5 1.8646 2.8627 3.0753 -0.1911 44.8979 -11.4368
# 6 -21.9985 -7.8981 5.3936 -8.8250 -11.4368 38.9733
#
#
#
# Elastic Compliance Matrix: (Units=1/GPa)
#
#
# Indices 1 2 3 4 5 6 
#
# 1 0.006704 0.000941 -0.000821 0.004136 0.001097 0.005347
# 2 0.000941 0.014476 0.001273 0.012428 0.000603 0.006280
# 3 -0.000821 0.001273 0.006435 0.006559 -0.000390 0.000275
# 4 0.004136 0.012428 0.006559 0.038968 0.002167 0.013405
# 5 0.001097 0.000603 -0.000390 0.002167 0.024374 0.008439
# 6 0.005347 0.006280 0.000275 0.013405 0.008439 0.035423
#
#
# Mechanical properties :
#
#
# Convention : Reuss Voigt Hill
#
# Bulk Modulus (GPa) = 32.89304 71.84615 52.36960
# Shear Modulus (GPa) = 37.38933 54.17823 45.78378
#
# Velocity S-wave (km/s) = 3.68760 4.43897 4.08061
# Velocity P-wave (km/s) = 5.48582 7.23898 6.42250
#
# Compressibility (1/GPa) = 0.03040157
#
# Stress axis : x y z
#
# Youngs Moduli (GPa) = 149.15933 69.08194 155.39179
#
# Poissons Ratio (x) = -0.06501 0.12760
# Poissons Ratio (y) = -0.14037 -0.19786
# Poissons Ratio (z) = 0.12248 -0.08796
#
# Static dielectric constant tensor:
#      x y z
#    x 7.095890 1.261490 0.658630 
#    y 1.261490 4.577920 -0.454890 
#    z 0.658630 -0.454890 6.589920 
# 
# 
# High freq. dielectric constant tensor:
#      x y z
#    x 2.142070 0.001340 -0.002680 
#    y 0.001340 2.093140 -0.024020 
#    z -0.002680 -0.024020 2.124530 
# 
# From -- ./inp_files/6711.got.cif
#   From: 2010.06.25/outbox.cif.g09.slc.cpg/sg2_4_cif.got.tgz:6711.got - 2010.06.27 13:26:56.
