data_PCOD8021832
_publ_section_title
;
Structure prediction by ZEFSAII (Michael W. Deem and Ramdas Pophale) SiO2 
 PCOD8021832
Probable space group: P -1
;
_chemical_formula_sum "Si O2"
_cell_formula_units_Z 14
_cell_length_a 9.287648
_cell_length_b 21.396082
_cell_length_c 9.540991
_cell_angle_alpha 43.681439
_cell_angle_beta 53.742260
_cell_angle_gamma 28.643445
_cell_volume 622.312901
_symmetry_space_group_name_H-M "P -1"
_symmetry_group_IT_number 2
_symmetry_cell_setting 'triclinic'
loop_
_space_group_symop_operation_xyz
x,y,z
-x,-y,-z
loop_
_atom_site_type_symbol
_atom_site_label
_atom_site_fract_x
_atom_site_fract_y
_atom_site_fract_z
Si Si1 0.302799 0.633184 0.783458
Si Si2 0.740864 0.716345 0.562330
Si Si3 0.417946 0.444089 0.547517
Si Si4 0.627874 0.047224 0.856865
Si Si5 0.648686 0.152974 0.945416
Si Si6 0.691417 0.830801 0.681012
Si Si7 0.186593 0.840783 0.708568
O O1 0.513943 0.563854 0.640565
O O2 0.181591 0.774101 0.691396
O O3 0.996360 0.707802 0.795957
O O4 0.500000 0.500000 0.000000
O O5 0.530703 0.834309 0.367374
O O6 0.791914 0.770715 0.562157
O O7 0.540475 0.716127 0.746022
O O8 0.068841 0.555696 0.577543
O O9 0.500000 0.500000 0.500000
O O10 0.593935 0.282789 0.756839
O O11 0.538231 0.137313 0.903179
O O12 0.994227 0.887634 0.880386
O O13 0.500000 0.000000 0.000000
O O14 0.506548 0.169427 0.141250
O O15 0.000000 0.000000 0.000000
O O16 0.500000 0.000000 0.500000
O O17 0.000000 0.000000 0.500000
#
# Coordination Sequence:
#
# PCOD8021832 Si02
#       7
#     2   2   2   2   2   2   2
#     4  12  28  46  74 108 150 192 244 314 382 444
#     4  11  25  45  73  99 150 193 242 308 374 436
#     4  12  28  50  72 108 154 198 253 311 377 447
#     4  11  24  44  76 112 142 191 250 308 371 449
#     4  12  28  47  79 110 148 200 255 308 376 453
#     4  12  25  49  75 109 150 196 252 309 379 457
#     4  10  22  44  69 102 140 185 240 297 366 443
#
# _framework density 22.496721999999998
#
# number of rings (size 3 to 8) (size 9 to 14) (size 15 to 20)
#    0.000    0.571    1.429    6.857    8.000    2.857 
#    0.000    0.000    0.000    0.000    0.000    0.000 
#    0.000    0.000    0.000    0.000    0.000    0.000 
#
# Total GULP energy -173522.943177 kJ/mol
# GULP energy per Si atom -12394.495941 kJ/mol
# Density = 2.244552 g / cm^3
# Si number density = 22.496722 Si / 1000 Ang^3
#
#
#
# Elastic Constant Matrix: (Units=GPa)
#
#
# Indices 1 2 3 4 5 6 
#
# 1 67.6012 20.3980 20.8577 -16.4905 -12.7301 1.1121
# 2 20.3980 149.3487 47.1687 3.0037 -11.8141 -18.9201
# 3 20.8577 47.1687 117.8062 -6.7504 -5.3636 -1.1071
# 4 -16.4905 3.0037 -6.7504 37.3510 -3.4627 2.0232
# 5 -12.7301 -11.8141 -5.3636 -3.4627 41.3726 3.7555
# 6 1.1121 -18.9201 -1.1071 2.0232 3.7555 64.1608
#
#
#
# Elastic Compliance Matrix: (Units=1/GPa)
#
#
# Indices 1 2 3 4 5 6 
#
# 1 0.019314 -0.001953 -0.001862 0.008993 0.006040 -0.001580
# 2 -0.001953 0.008359 -0.003055 -0.002128 0.000989 0.002455
# 3 -0.001862 -0.003055 0.010111 0.001295 0.000041 -0.000737
# 4 0.008993 -0.002128 0.001295 0.031740 0.005171 -0.002065
# 5 0.006040 0.000989 0.000041 0.005171 0.026890 -0.001549
# 6 -0.001580 0.002455 -0.000737 -0.002065 -0.001549 0.016480
#
#
# Mechanical properties :
#
#
# Convention : Reuss Voigt Hill
#
# Bulk Modulus (GPa) = 41.59184 56.84499 49.21841
# Shear Modulus (GPa) = 37.13373 44.99901 41.06637
#
# Velocity S-wave (km/s) = 4.06720 4.47726 4.27715
# Velocity P-wave (km/s) = 6.37058 7.21463 6.80570
#
# Compressibility (1/GPa) = 0.02404318
#
# Stress axis : x y z
#
# Youngs Moduli (GPa) = 51.77723 119.62477 98.90660
#
# Poissons Ratio (x) = 0.23362 0.18417
# Poissons Ratio (y) = 0.10112 0.30217
# Poissons Ratio (z) = 0.09641 0.36547
#
# Static dielectric constant tensor:
#      x y z
#    x 4.183890 -0.438380 -0.205850 
#    y -0.438380 6.313880 1.404710 
#    z -0.205850 1.404710 4.616790 
# 
# 
# High freq. dielectric constant tensor:
#      x y z
#    x 1.903220 -0.002770 -0.000980 
#    y -0.002770 1.910740 0.014380 
#    z -0.000980 0.014380 1.879270 
# 
# From -- ./inp_files/223149.got.cif
#   From: 2010.06.25/outbox.cif.g09.slc.cpg/sg2_112_cif.got.tgz:223149.got - 2010.06.27 13:26:56.
