data_PCOD8021235
_publ_section_title
;
Structure prediction by ZEFSAII (Michael W. Deem and Ramdas Pophale) SiO2 
 PCOD8021235
Probable space group: P -1
;
_chemical_formula_sum "Si O2"
_cell_formula_units_Z 16
_cell_length_a 19.308577
_cell_length_b 12.720309
_cell_length_c 9.444403
_cell_angle_alpha 138.257088
_cell_angle_beta 132.235815
_cell_angle_gamma 26.903736
_cell_volume 698.651132
_symmetry_space_group_name_H-M "P -1"
_symmetry_group_IT_number 2
_symmetry_cell_setting 'triclinic'
loop_
_space_group_symop_operation_xyz
x,y,z
-x,-y,-z
loop_
_atom_site_type_symbol
_atom_site_label
_atom_site_fract_x
_atom_site_fract_y
_atom_site_fract_z
Si Si1 0.549367 0.610685 0.145676
Si Si2 0.552528 0.119334 0.000423
Si Si3 0.330725 0.532955 0.332550
Si Si4 0.122604 0.926362 0.998903
Si Si5 0.468088 0.880225 0.586117
Si Si6 0.021740 0.821610 0.251901
Si Si7 0.830473 0.915539 0.302313
Si Si8 0.133041 0.226251 0.482790
O O1 0.526480 0.764856 0.394650
O O2 0.500000 0.500000 0.000000
O O3 0.437058 0.822653 0.082824
O O4 0.727515 0.382643 0.118765
O O5 0.406943 0.400126 0.152890
O O6 0.709080 0.943864 0.122393
O O7 0.530754 0.961895 0.809915
O O8 0.462974 0.347219 0.446100
O O9 0.257568 0.803276 0.507770
O O10 0.203066 0.566503 0.216147
O O11 0.170286 0.022059 0.238580
O O12 0.063534 0.044288 0.879476
O O13 0.000000 0.000000 0.000000
O O14 0.285163 0.128415 0.593818
O O15 0.954296 0.764671 0.192647
O O16 0.000000 0.000000 0.500000
O O17 0.914875 0.751901 0.399400
O O18 0.000000 0.500000 0.500000
#
# Coordination Sequence:
#
# PCOD8021235 Si02
#       8
#     2   2   2   2   2   2   2   2
#     4  12  24  46  73 105 144 188 247 300 351 432
#     4  12  25  43  73 104 144 189 241 299 365 427
#     4  11  23  45  78 101 142 187 249 300 348 437
#     4  12  25  46  77 108 143 196 245 297 363 434
#     4  12  27  47  70 109 147 191 241 302 373 427
#     4  10  22  43  69 107 141 177 239 303 354 417
#     4  11  24  47  74 108 138 196 250 296 362 431
#     4  12  29  48  70 105 155 191 236 301 378 445
#
# _framework density 22.901271999999999
#
# number of rings (size 3 to 8) (size 9 to 14) (size 15 to 20)
#    0.000    0.500    2.500    7.125    3.500    0.000 
#    2.250    1.250    0.000    0.000    0.000    0.000 
#    0.000    0.000    0.000    0.000    0.000    0.000 
#
# Total GULP energy -198455.577519 kJ/mol
# GULP energy per Si atom -12403.473595 kJ/mol
# Density = 2.284915 g / cm^3
# Si number density = 22.901272 Si / 1000 Ang^3
#
#
#
# Elastic Constant Matrix: (Units=GPa)
#
#
# Indices 1 2 3 4 5 6 
#
# 1 138.2886 47.5905 52.3981 -15.1304 -7.7934 -0.8002
# 2 47.5905 115.9191 19.5092 -29.9197 -4.1703 9.8812
# 3 52.3981 19.5092 117.0654 -24.4626 -5.4877 4.5210
# 4 -15.1304 -29.9197 -24.4626 32.7649 6.2865 -5.5872
# 5 -7.7934 -4.1703 -5.4877 6.2865 47.0624 -14.0108
# 6 -0.8002 9.8812 4.5210 -5.5872 -14.0108 47.2652
#
#
#
# Elastic Compliance Matrix: (Units=1/GPa)
#
#
# Indices 1 2 3 4 5 6 
#
# 1 0.010132 -0.004118 -0.004326 -0.002339 0.001611 0.001647
# 2 -0.004118 0.013060 0.002083 0.011502 -0.001433 -0.002064
# 3 -0.004326 0.002083 0.011979 0.008820 -0.000543 -0.000773
# 4 -0.002339 0.011502 0.008820 0.047546 -0.004383 0.001033
# 5 0.001611 -0.001433 -0.000543 -0.004383 0.023986 0.006971
# 6 0.001647 -0.002064 -0.000773 0.001033 0.006971 0.023879
#
#
# Mechanical properties :
#
#
# Convention : Reuss Voigt Hill
#
# Bulk Modulus (GPa) = 44.54507 67.80764 56.17636
# Shear Modulus (GPa) = 33.15965 42.20351 37.68158
#
# Velocity S-wave (km/s) = 3.80931 4.29750 4.06074
# Velocity P-wave (km/s) = 6.23225 7.36869 6.82417
#
# Compressibility (1/GPa) = 0.02244917
#
# Stress axis : x y z
#
# Youngs Moduli (GPa) = 98.69969 76.56968 83.48093
#
# Poissons Ratio (x) = 0.31530 0.36111
# Poissons Ratio (y) = 0.40643 -0.17387
# Poissons Ratio (z) = 0.42694 -0.15948
#
# Static dielectric constant tensor:
#      x y z
#    x 4.706650 -0.295690 -0.138990 
#    y -0.295690 4.126960 -0.179980 
#    z -0.138990 -0.179980 4.282370 
# 
# 
# High freq. dielectric constant tensor:
#      x y z
#    x 1.918150 -0.005530 -0.010680 
#    y -0.005530 1.900440 -0.014090 
#    z -0.010680 -0.014090 1.916920 
# 
# From -- ./inp_files/333820.got.cif
#   From: 2010.06.25/outbox.cif.g09.slc.cpg/sg2_167_cif.got.tgz:333820.got - 2010.06.27 13:26:56.
