data_PCOD8021887
_publ_section_title
;
Structure prediction by ZEFSAII (Michael W. Deem and Ramdas Pophale) SiO2 
 PCOD8021887
Probable space group: P -1
;
_chemical_formula_sum "Si O2"
_cell_formula_units_Z 16
_cell_length_a 9.409937
_cell_length_b 7.370106
_cell_length_c 14.748769
_cell_angle_alpha 144.080743
_cell_angle_beta 108.275340
_cell_angle_gamma 75.280129
_cell_volume 569.788822
_symmetry_space_group_name_H-M "P -1"
_symmetry_group_IT_number 2
_symmetry_cell_setting 'triclinic'
loop_
_space_group_symop_operation_xyz
x,y,z
-x,-y,-z
loop_
_atom_site_type_symbol
_atom_site_label
_atom_site_fract_x
_atom_site_fract_y
_atom_site_fract_z
Si Si1 0.277564 0.791378 0.820667
Si Si2 0.433094 0.355893 0.263638
Si Si3 0.632142 0.012573 0.432789
Si Si4 0.828793 0.914306 0.591420
Si Si5 0.166633 0.862498 0.636304
Si Si6 0.146462 0.349942 0.104891
Si Si7 0.369628 0.972920 0.250004
Si Si8 0.810529 0.420844 0.086591
O O1 0.457509 0.791148 0.849125
O O2 0.240609 0.595572 0.825134
O O3 0.218423 0.666055 0.657827
O O4 0.203863 0.135250 0.946536
O O5 0.450865 0.726482 0.417154
O O6 0.260263 0.244842 0.165515
O O7 0.470621 0.215877 0.312553
O O8 0.732495 0.809382 0.440695
O O9 0.741566 0.206578 0.465335
O O10 0.498960 0.817360 0.277845
O O11 0.829835 0.287874 0.759184
O O12 0.751426 0.821882 0.633823
O O13 0.992688 0.776808 0.552824
O O14 0.183668 0.227989 0.801530
O O15 0.974627 0.265103 0.054540
O O16 0.299529 0.725042 0.068288
#
# Coordination Sequence:
#
# PCOD8021887 Si02
#       8
#     2   2   2   2   2   2   2   2
#     4  12  23  42  70 103 140 181 217 283 350 400
#     4  11  25  43  67  98 139 179 230 277 336 408
#     4  11  25  48  66  93 143 184 228 286 332 401
#     4  10  24  44  72  98 134 182 228 283 344 401
#     4  11  25  46  71 104 137 177 230 285 341 409
#     4  10  22  44  69  99 140 173 218 287 345 403
#     4  12  23  42  68 101 136 177 227 280 339 409
#     4  11  26  43  72 108 137 173 230 282 347 413
#
# _framework density 28.080579
#
# number of rings (size 3 to 8) (size 9 to 14) (size 15 to 20)
#    0.000    1.000    2.500    3.375    1.750    5.500 
#    0.000    0.625    0.000    0.000    0.000    0.000 
#    0.000    0.000    0.000    0.000    0.000    0.000 
#
# Total GULP energy -198300.846093 kJ/mol
# GULP energy per Si atom -12393.802881 kJ/mol
# Density = 2.801667 g / cm^3
# Si number density = 28.080579 Si / 1000 Ang^3
#
#
#
# Elastic Constant Matrix: (Units=GPa)
#
#
# Indices 1 2 3 4 5 6 
#
# 1 196.9697 43.9367 54.0390 -28.6501 -1.8492 -1.3337
# 2 43.9367 109.2210 20.0067 -39.4998 12.6301 3.0119
# 3 54.0390 20.0067 117.9800 -38.3396 6.4358 -0.5079
# 4 -28.6501 -39.4998 -38.3396 33.9427 -3.1148 -3.5422
# 5 -1.8492 12.6301 6.4358 -3.1148 50.8922 -8.5712
# 6 -1.3337 3.0119 -0.5079 -3.5422 -8.5712 36.6344
#
#
#
# Elastic Compliance Matrix: (Units=1/GPa)
#
#
# Indices 1 2 3 4 5 6 
#
# 1 0.006293 -0.002213 -0.002564 0.000021 0.001215 0.000662
# 2 -0.002213 0.019591 0.007272 0.028799 -0.004058 0.000245
# 3 -0.002564 0.007272 0.016707 0.025117 -0.002230 0.001447
# 4 0.000021 0.028799 0.025117 0.091647 -0.003707 0.005976
# 5 0.001215 -0.004058 -0.002230 -0.003707 0.021605 0.005043
# 6 0.000662 0.000245 0.001447 0.005976 0.005043 0.029079
#
#
# Mechanical properties :
#
#
# Convention : Reuss Voigt Hill
#
# Bulk Modulus (GPa) = 21.01583 73.34836 47.18210
# Shear Modulus (GPa) = 25.53740 44.70639 35.12190
#
# Velocity S-wave (km/s) = 3.01895 3.99441 3.54044
# Velocity P-wave (km/s) = 4.43311 6.88848 5.79239
#
# Compressibility (1/GPa) = 0.04758318
#
# Stress axis : x y z
#
# Youngs Moduli (GPa) = 158.91078 51.04278 59.85511
#
# Poissons Ratio (x) = 0.11295 0.15344
# Poissons Ratio (y) = 0.35165 -0.43529
# Poissons Ratio (z) = 0.40738 -0.37120
#
# Static dielectric constant tensor:
#      x y z
#    x 5.371860 -0.087780 -0.135820 
#    y -0.087780 5.124790 -0.145680 
#    z -0.135820 -0.145680 5.151050 
# 
# 
# High freq. dielectric constant tensor:
#      x y z
#    x 2.149910 -0.002640 -0.006360 
#    y -0.002640 2.149260 -0.002210 
#    z -0.006360 -0.002210 2.143860 
# 
# From -- ./inp_files/495932.got.cif
#   From: 2010.06.25/outbox.cif.g09.slc.cpg/sg2_248_cif.got.tgz:495932.got - 2010.06.27 13:26:56.
