data_PCOD8021135
_publ_section_title
;
Structure prediction by ZEFSAII (Michael W. Deem and Ramdas Pophale) SiO2 
 PCOD8021135
Probable space group: P -1
;
_chemical_formula_sum "Si O2"
_cell_formula_units_Z 14
_cell_length_a 8.603133
_cell_length_b 19.179459
_cell_length_c 9.025471
_cell_angle_alpha 22.941827
_cell_angle_beta 60.540324
_cell_angle_gamma 66.865778
_cell_volume 497.473678
_symmetry_space_group_name_H-M "P -1"
_symmetry_group_IT_number 2
_symmetry_cell_setting 'triclinic'
loop_
_space_group_symop_operation_xyz
x,y,z
-x,-y,-z
loop_
_atom_site_type_symbol
_atom_site_label
_atom_site_fract_x
_atom_site_fract_y
_atom_site_fract_z
Si Si1 0.247906 0.912269 0.444890
Si Si2 0.926390 0.542062 0.110173
Si Si3 0.709840 0.851788 0.527043
Si Si4 0.212039 0.464870 0.325198
Si Si5 0.934261 0.092420 0.158266
Si Si6 0.434438 0.228333 0.555564
Si Si7 0.372470 0.620621 0.247645
O O1 0.220856 0.896226 0.666178
O O2 0.354719 0.747116 0.656020
O O3 0.048159 0.926451 0.450142
O O4 0.401788 0.087033 0.985664
O O5 0.788193 0.360672 0.594999
O O6 0.096196 0.601368 0.027950
O O7 0.811342 0.699009 0.843472
O O8 0.000000 0.500000 0.000000
O O9 0.707786 0.853999 0.345570
O O10 0.816560 0.045653 0.154830
O O11 0.499882 0.807070 0.769663
O O12 0.397111 0.426644 0.234881
O O13 0.252315 0.515250 0.377083
O O14 0.082932 0.270527 0.743213
O O15 0.500000 0.500000 0.500000
#
# Coordination Sequence:
#
# PCOD8021135 Si02
#       7
#     2   2   2   2   2   2   2
#     4   9  22  42  68 103 142 184 234 293 369 416
#     4  11  24  49  71 108 142 194 238 297 353 436
#     4  11  25  47  69 107 147 184 237 297 358 424
#     4  11  24  48  74 103 144 196 239 289 364 427
#     4  10  24  45  76 103 136 189 241 298 352 431
#     4  10  22  43  68 105 142 186 233 299 351 427
#     4  10  26  46  68 102 148 189 234 290 361 432
#
# _framework density 28.142192999999999
#
# number of rings (size 3 to 8) (size 9 to 14) (size 15 to 20)
#    0.000    1.714    1.429    0.429   14.000    4.571 
#    5.143    0.000    0.000    0.000    0.000    0.000 
#    0.000    0.000    0.000    0.000    0.000    0.000 
#
# Total GULP energy -173443.141493 kJ/mol
# GULP energy per Si atom -12388.795821 kJ/mol
# Density = 2.807814 g / cm^3
# Si number density = 28.142193 Si / 1000 Ang^3
#
#
#
# Elastic Constant Matrix: (Units=GPa)
#
#
# Indices 1 2 3 4 5 6 
#
# 1 141.1411 69.4640 24.7609 -19.3017 -5.7929 -4.8520
# 2 69.4640 170.5032 45.5852 15.3191 -8.8389 -29.0673
# 3 24.7609 45.5852 105.4536 16.2285 -23.0420 -1.0358
# 4 -19.3017 15.3191 16.2285 52.6064 -8.2875 5.9900
# 5 -5.7929 -8.8389 -23.0420 -8.2875 43.2638 -7.5236
# 6 -4.8520 -29.0673 -1.0358 5.9900 -7.5236 74.3513
#
#
#
# Elastic Compliance Matrix: (Units=1/GPa)
#
#
# Indices 1 2 3 4 5 6 
#
# 1 0.010348 -0.004653 -0.001186 0.005797 0.000642 -0.001562
# 2 -0.004653 0.009367 -0.002302 -0.004156 -0.000097 0.003651
# 3 -0.001186 -0.002302 0.012360 -0.002718 0.005427 -0.000037
# 4 0.005797 -0.004156 -0.002718 0.023922 0.002548 -0.002954
# 5 0.000642 -0.000097 0.005427 0.002548 0.027012 0.002608
# 6 -0.001562 0.003651 -0.000037 -0.002954 0.002608 0.015276
#
#
# Mechanical properties :
#
#
# Convention : Reuss Voigt Hill
#
# Bulk Modulus (GPa) = 63.31515 77.41312 70.36413
# Shear Modulus (GPa) = 41.72479 52.53017 47.12748
#
# Velocity S-wave (km/s) = 3.85469 4.32510 4.09665
# Velocity P-wave (km/s) = 6.50835 7.24635 6.88724
#
# Compressibility (1/GPa) = 0.01579401
#
# Stress axis : x y z
#
# Youngs Moduli (GPa) = 96.63301 106.75802 80.90487
#
# Poissons Ratio (x) = 0.49673 0.09592
# Poissons Ratio (y) = 0.44962 0.18627
# Poissons Ratio (z) = 0.11456 0.24579
#
# Static dielectric constant tensor:
#      x y z
#    x 8.482490 -2.995200 -0.570320 
#    y -2.995200 7.498160 0.679320 
#    z -0.570320 0.679320 5.793220 
# 
# 
# High freq. dielectric constant tensor:
#      x y z
#    x 2.179050 -0.035930 -0.005940 
#    y -0.035930 2.131800 0.008550 
#    z -0.005940 0.008550 2.164620 
# 
# From -- ./inp_files/216300.got.cif
#   From: 2010.06.25/outbox.cif.g09.slc.cpg/sg2_109_cif.got.tgz:216300.got - 2010.06.27 13:26:56.
