data_PCOD8021288
_publ_section_title
;
Structure prediction by ZEFSAII (Michael W. Deem and Ramdas Pophale) SiO2 
 PCOD8021288
Probable space group: P -1
;
_chemical_formula_sum "Si O2"
_cell_formula_units_Z 14
_cell_length_a 16.607622
_cell_length_b 6.653457
_cell_length_c 9.092208
_cell_angle_alpha 122.252331
_cell_angle_beta 76.180490
_cell_angle_gamma 66.281545
_cell_volume 630.479445
_symmetry_space_group_name_H-M "P -1"
_symmetry_group_IT_number 2
_symmetry_cell_setting 'triclinic'
loop_
_space_group_symop_operation_xyz
x,y,z
-x,-y,-z
loop_
_atom_site_type_symbol
_atom_site_label
_atom_site_fract_x
_atom_site_fract_y
_atom_site_fract_z
Si Si1 0.013511 0.242562 0.796453
Si Si2 0.102310 0.256456 0.460623
Si Si3 0.176435 0.628162 0.668206
Si Si4 0.185255 0.680911 0.022589
Si Si5 0.426482 0.236541 0.749174
Si Si6 0.534653 0.326891 0.072687
Si Si7 0.401993 0.245452 0.286312
O O1 0.061389 0.195231 0.597334
O O2 0.895846 0.342409 0.864704
O O3 0.093430 0.914039 0.712360
O O4 0.000000 0.500000 0.000000
O O5 0.166568 0.367303 0.535120
O O6 0.000000 0.500000 0.500000
O O7 0.182222 0.944454 0.205926
O O8 0.147875 0.751904 0.895959
O O9 0.299933 0.485503 0.528435
O O10 0.306082 0.348708 0.851407
O O11 0.411510 0.541461 0.826361
O O12 0.500000 0.000000 0.500000
O O13 0.487485 0.052437 0.800053
O O14 0.429038 0.432021 0.253661
O O15 0.500000 0.500000 0.000000
O O16 0.620668 0.947800 0.880097
#
# Coordination Sequence:
#
# PCOD8021288 Si02
#       7
#     2   2   2   2   2   2   2
#     4  12  26  47  73 104 140 186 233 290 357 418
#     4  12  26  48  73 104 142 184 237 291 352 417
#     4  12  25  46  74 101 143 180 235 288 354 414
#     4  12  25  47  71 105 144 184 235 292 347 416
#     4  11  23  43  66  99 141 178 226 282 342 413
#     4   9  21  42  66  94 136 174 234 280 339 404
#     4  10  22  43  69  99 131 185 226 284 344 411
#
# _framework density 22.205324000000001
#
# number of rings (size 3 to 8) (size 9 to 14) (size 15 to 20)
#    0.000    0.857    4.286    2.571    0.000    7.429 
#    5.143    0.000    0.000    0.000    0.000    0.000 
#    0.000    0.000    0.000    0.000    0.000    0.000 
#
# Total GULP energy -173523.816128 kJ/mol
# GULP energy per Si atom -12394.558295 kJ/mol
# Density = 2.215478 g / cm^3
# Si number density = 22.205324 Si / 1000 Ang^3
#
#
#
# Elastic Constant Matrix: (Units=GPa)
#
#
# Indices 1 2 3 4 5 6 
#
# 1 110.3139 61.6084 50.1728 -0.5019 -12.0074 4.8183
# 2 61.6084 100.8452 47.2664 -12.3081 -8.3887 19.8618
# 3 50.1728 47.2664 140.4660 -10.7922 0.5416 2.2648
# 4 -0.5019 -12.3081 -10.7922 37.1970 -0.2310 -6.0047
# 5 -12.0074 -8.3887 0.5416 -0.2310 50.7945 3.7649
# 6 4.8183 19.8618 2.2648 -6.0047 3.7649 30.2364
#
#
#
# Elastic Compliance Matrix: (Units=1/GPa)
#
#
# Indices 1 2 3 4 5 6 
#
# 1 0.015337 -0.008792 -0.002807 -0.003071 0.001991 0.002684
# 2 -0.008792 0.019366 -0.002925 0.003741 0.001954 -0.010601
# 3 -0.002807 -0.002925 0.009231 0.002028 -0.001403 0.002255
# 4 -0.003071 0.003741 0.002028 0.029269 -0.000273 0.003726
# 5 0.001991 0.001954 -0.001403 -0.000273 0.020801 -0.004140
# 6 0.002684 -0.010601 0.002255 0.003726 -0.004140 0.040695
#
#
# Mechanical properties :
#
#
# Convention : Reuss Voigt Hill
#
# Bulk Modulus (GPa) = 67.17853 74.41338 70.79596
# Shear Modulus (GPa) = 29.63689 36.48409 33.06049
#
# Velocity S-wave (km/s) = 3.65728 4.05783 3.86275
# Velocity P-wave (km/s) = 6.93926 7.45244 7.20043
#
# Compressibility (1/GPa) = 0.01488571
#
# Stress axis : x y z
#
# Youngs Moduli (GPa) = 65.20025 51.63775 108.33280
#
# Poissons Ratio (x) = 0.45401 0.30405
# Poissons Ratio (y) = 0.57326 0.31689
# Poissons Ratio (z) = 0.18299 0.15105
#
# Static dielectric constant tensor:
#      x y z
#    x 15.135790 -15.020430 5.110940 
#    y -15.020430 26.037650 -6.898120 
#    z 5.110940 -6.898120 6.547370 
# 
# 
# High freq. dielectric constant tensor:
#      x y z
#    x 1.874980 0.012270 0.003460 
#    y 0.012270 1.867690 -0.007200 
#    z 0.003460 -0.007200 1.893170 
# 
# From -- ./inp_files/324103.got.cif
#   From: 2010.06.25/outbox.cif.g09.slc.cpg/sg2_163_cif.got.tgz:324103.got - 2010.06.27 13:26:56.
