data_PCOD8021940
_publ_section_title
;
Structure prediction by ZEFSAII (Michael W. Deem and Ramdas Pophale) SiO2 
 PCOD8021940
Probable space group: P -1
;
_chemical_formula_sum "Si O2"
_cell_formula_units_Z 12
_cell_length_a 11.429200
_cell_length_b 8.509338
_cell_length_c 8.710544
_cell_angle_alpha 65.292530
_cell_angle_beta 65.425114
_cell_angle_gamma 43.153776
_cell_volume 517.908015
_symmetry_space_group_name_H-M "P -1"
_symmetry_group_IT_number 2
_symmetry_cell_setting 'triclinic'
loop_
_space_group_symop_operation_xyz
x,y,z
-x,-y,-z
loop_
_atom_site_type_symbol
_atom_site_label
_atom_site_fract_x
_atom_site_fract_y
_atom_site_fract_z
Si Si1 0.326122 0.089234 0.193706
Si Si2 0.177578 0.857682 0.870924
Si Si3 0.570652 0.095113 0.276717
Si Si4 0.051559 0.121356 0.517727
Si Si5 0.666975 0.621140 0.139094
Si Si6 0.715735 0.614484 0.462311
O O1 0.438533 0.120058 0.224098
O O2 0.168758 0.143463 0.344069
O O3 0.456330 0.822774 0.169708
O O4 0.255420 0.267775 0.016435
O O5 0.312684 0.861558 0.885372
O O6 0.265952 0.591739 0.918319
O O7 0.151558 0.969502 0.674953
O O8 0.000000 0.000000 0.000000
O O9 0.460043 0.288388 0.394494
O O10 0.706226 0.832398 0.381522
O O11 0.882851 0.386075 0.551509
O O12 0.000000 0.000000 0.500000
O O13 0.729326 0.532444 0.314629
#
# Coordination Sequence:
#
# PCOD8021940 Si02
#       6
#     2   2   2   2   2   2
#     4  10  25  46  72  98 133 183 222 270 342 396
#     4  12  28  44  67 103 138 173 227 281 332 390
#     4  10  24  45  70  98 134 183 218 275 338 398
#     4  12  26  43  71 103 132 177 229 277 330 398
#     4  10  23  46  68  99 134 179 222 275 331 404
#     4  10  22  44  70  99 133 178 223 273 337 399
#
# _framework density 23.170137
#
# number of rings (size 3 to 8) (size 9 to 14) (size 15 to 20)
#    0.000    1.333    1.667    3.000    7.000    8.000 
#    0.000    0.000    0.000    0.000    0.000    0.000 
#    0.000    0.000    0.000    0.000    0.000    0.000 
#
# Total GULP energy -148762.238613 kJ/mol
# GULP energy per Si atom -12396.853218 kJ/mol
# Density = 2.311740 g / cm^3
# Si number density = 23.170137 Si / 1000 Ang^3
#
#
#
# Elastic Constant Matrix: (Units=GPa)
#
#
# Indices 1 2 3 4 5 6 
#
# 1 111.0604 40.1304 28.4459 17.9847 -29.5107 1.3852
# 2 40.1304 180.0804 22.4140 9.6107 -21.1421 2.7190
# 3 28.4459 22.4140 74.0149 17.9825 -22.2469 -7.8856
# 4 17.9847 9.6107 17.9825 38.8699 -12.4180 5.3933
# 5 -29.5107 -21.1421 -22.2469 -12.4180 40.9548 4.7915
# 6 1.3852 2.7190 -7.8856 5.3933 4.7915 21.2041
#
#
#
# Elastic Compliance Matrix: (Units=1/GPa)
#
#
# Indices 1 2 3 4 5 6 
#
# 1 0.012163 -0.001551 -0.002024 -0.001883 0.006568 -0.002354
# 2 -0.001551 0.006246 -0.001015 0.000472 0.001888 -0.001624
# 3 -0.002024 -0.001015 0.018642 -0.006871 0.005151 0.007779
# 4 -0.001883 0.000472 -0.006871 0.033579 0.006807 -0.012572
# 5 0.006568 0.001888 0.005151 0.006807 0.035995 -0.008621
# 6 -0.002354 -0.001624 0.007779 -0.012572 -0.008621 0.055561
#
#
# Mechanical properties :
#
#
# Convention : Reuss Voigt Hill
#
# Bulk Modulus (GPa) = 35.88059 60.79292 48.33675
# Shear Modulus (GPa) = 27.67663 38.48345 33.08004
#
# Velocity S-wave (km/s) = 3.45990 4.07984 3.78259
# Velocity P-wave (km/s) = 5.61075 6.96334 6.32331
#
# Compressibility (1/GPa) = 0.02787022
#
# Stress axis : x y z
#
# Youngs Moduli (GPa) = 82.21967 160.09780 53.64115
#
# Poissons Ratio (x) = 0.24837 0.10855
# Poissons Ratio (y) = 0.12755 0.05447
# Poissons Ratio (z) = 0.16639 0.16257
#
# Static dielectric constant tensor:
#      x y z
#    x 3.945160 0.035640 -0.005710 
#    y 0.035640 4.362410 -0.030460 
#    z -0.005710 -0.030460 4.375000 
# 
# 
# High freq. dielectric constant tensor:
#      x y z
#    x 1.892870 0.002690 -0.002090 
#    y 0.002690 1.932200 0.000890 
#    z -0.002090 0.000890 1.922690 
# 
# From -- ./inp_files/236074.got.cif
#   From: 2010.06.25/outbox.cif.g09.slc.cpg/sg2_119_cif.got.tgz:236074.got - 2010.06.27 13:26:56.
