data_PCOD8021060
_publ_section_title
;
Structure prediction by ZEFSAII (Michael W. Deem and Ramdas Pophale) SiO2 
 PCOD8021060
Probable space group: P -1
;
_chemical_formula_sum "Si O2"
_cell_formula_units_Z 12
_cell_length_a 6.507301
_cell_length_b 14.219250
_cell_length_c 8.972331
_cell_angle_alpha 41.240724
_cell_angle_beta 90.898408
_cell_angle_gamma 89.710469
_cell_volume 547.042046
_symmetry_space_group_name_H-M "P -1"
_symmetry_group_IT_number 2
_symmetry_cell_setting 'triclinic'
loop_
_space_group_symop_operation_xyz
x,y,z
-x,-y,-z
loop_
_atom_site_type_symbol
_atom_site_label
_atom_site_fract_x
_atom_site_fract_y
_atom_site_fract_z
Si Si1 0.769739 0.747956 0.646260
Si Si2 0.489775 0.966314 0.213459
Si Si3 0.844036 0.256203 0.516508
Si Si4 0.131434 0.360278 0.634059
Si Si5 0.458716 0.456178 0.293786
Si Si6 0.374261 0.244457 0.039697
O O1 0.677085 0.863437 0.389889
O O2 0.663895 0.595854 0.792295
O O3 0.726092 0.796040 0.756066
O O4 0.014447 0.729329 0.646569
O O5 0.274342 0.890006 0.328493
O O6 0.502533 0.109060 0.140804
O O7 0.500000 0.000000 0.000000
O O8 0.690550 0.392218 0.370300
O O9 0.996481 0.252390 0.664655
O O10 0.342088 0.400766 0.505190
O O11 0.000000 0.500000 0.500000
O O12 0.188618 0.282341 0.880780
O O13 0.467692 0.627006 0.092655
#
# Coordination Sequence:
#
# PCOD8021060 Si02
#       6
#     2   2   2   2   2   2
#     4  10  24  44  64  95 131 168 210 261 323 379
#     4  11  25  44  67  91 128 172 213 264 315 381
#     4  10  22  45  63  91 133 165 216 259 314 383
#     4  11  23  40  66  97 124 168 217 259 310 376
#     4  10  22  43  67  93 131 167 213 266 312 374
#     4  12  23  41  67  98 130 166 212 267 319 371
#
# _framework density 21.936156
#
# number of rings (size 3 to 8) (size 9 to 14) (size 15 to 20)
#    0.000    1.333    1.667    4.500    2.333    4.000 
#    6.000    0.000    0.000    0.000    0.000    0.000 
#    0.000    0.000    0.000    0.000    0.000    0.000 
#
# Total GULP energy -148832.431648 kJ/mol
# GULP energy per Si atom -12402.702637 kJ/mol
# Density = 2.188623 g / cm^3
# Si number density = 21.936156 Si / 1000 Ang^3
#
#
#
# Elastic Constant Matrix: (Units=GPa)
#
#
# Indices 1 2 3 4 5 6 
#
# 1 130.5240 45.5690 35.3943 -4.3540 -14.9571 -16.3088
# 2 45.5690 146.6752 45.0879 -9.5077 -15.5138 -15.2030
# 3 35.3943 45.0879 72.8218 1.3092 -8.2909 -7.5658
# 4 -4.3540 -9.5077 1.3092 54.2805 0.1960 -8.6172
# 5 -14.9571 -15.5138 -8.2909 0.1960 22.0916 -2.0017
# 6 -16.3088 -15.2030 -7.5658 -8.6172 -2.0017 32.3946
#
#
#
# Elastic Compliance Matrix: (Units=1/GPa)
#
#
# Indices 1 2 3 4 5 6 
#
# 1 0.010123 -0.001023 -0.003231 0.001416 0.005324 0.004567
# 2 -0.001023 0.009567 -0.004542 0.002291 0.004646 0.003810
# 3 -0.003231 -0.004542 0.018341 -0.001466 0.001539 0.000230
# 4 0.001416 0.002291 -0.001466 0.020065 0.002468 0.006936
# 5 0.005324 0.004646 0.001539 0.002468 0.053521 0.009184
# 6 0.004567 0.003810 0.000230 0.006936 0.009184 0.037423
#
#
# Mechanical properties :
#
#
# Convention : Reuss Voigt Hill
#
# Bulk Modulus (GPa) = 48.93276 66.90260 57.91768
# Shear Modulus (GPa) = 28.82741 36.68466 32.75603
#
# Velocity S-wave (km/s) = 3.62905 4.09386 3.86844
# Velocity P-wave (km/s) = 6.31786 7.27401 6.81273
#
# Compressibility (1/GPa) = 0.02043621
#
# Stress axis : x y z
#
# Youngs Moduli (GPa) = 98.78576 104.52715 54.52363
#
# Poissons Ratio (x) = 0.10697 0.17619
# Poissons Ratio (y) = 0.10110 0.24767
# Poissons Ratio (z) = 0.31921 0.47480
#
# Static dielectric constant tensor:
#      x y z
#    x 3.968500 -0.000350 -0.056270 
#    y -0.000350 4.229780 -0.023260 
#    z -0.056270 -0.023260 3.851760 
# 
# 
# High freq. dielectric constant tensor:
#      x y z
#    x 1.862190 -0.004670 -0.003410 
#    y -0.004670 1.882570 0.001940 
#    z -0.003410 0.001940 1.846830 
# 
# From -- ./inp_files/26129.got.cif
#   From: 2010.06.25/outbox.cif.g09.slc.cpg/sg2_14_cif.got.tgz:26129.got - 2010.06.27 13:26:56.
