data_PCOD8021387
_publ_section_title
;
Structure prediction by ZEFSAII (Michael W. Deem and Ramdas Pophale) SiO2 
 PCOD8021387
Probable space group: P -1
;
_chemical_formula_sum "Si O2"
_cell_formula_units_Z 14
_cell_length_a 16.909947
_cell_length_b 5.176680
_cell_length_c 19.632665
_cell_angle_alpha 81.246349
_cell_angle_beta 161.179020
_cell_angle_gamma 100.570878
_cell_volume 543.780596
_symmetry_space_group_name_H-M "P -1"
_symmetry_group_IT_number 2
_symmetry_cell_setting 'triclinic'
loop_
_space_group_symop_operation_xyz
x,y,z
-x,-y,-z
loop_
_atom_site_type_symbol
_atom_site_label
_atom_site_fract_x
_atom_site_fract_y
_atom_site_fract_z
Si Si1 0.975033 0.609076 0.393606
Si Si2 0.895340 0.033139 0.626969
Si Si3 0.624557 0.711703 0.297658
Si Si4 0.911168 0.319118 0.101281
Si Si5 0.148643 0.133224 0.177794
Si Si6 0.290860 0.960934 0.774106
Si Si7 0.661720 0.250124 0.544172
O O1 0.933124 0.857989 0.399201
O O2 0.944267 0.710858 0.287334
O O3 0.254594 0.530852 0.628336
O O4 0.794503 0.353177 0.280182
O O5 0.656907 0.101274 0.473165
O O6 0.798503 0.828382 0.497086
O O7 0.088531 0.944793 0.843064
O O8 0.594591 0.941770 0.208960
O O9 0.357665 0.587516 0.114034
O O10 0.969907 0.295050 0.069745
O O11 0.140120 0.497477 0.314913
O O12 0.388051 0.321204 0.336232
O O13 0.244066 0.912555 0.310724
O O14 0.000000 0.000000 0.000000
O O15 0.500000 0.000000 0.000000
#
# Coordination Sequence:
#
# PCOD8021387 Si02
#       7
#     2   2   2   2   2   2   2
#     4  12  26  50  73 107 152 198 252 315 375 447
#     4  11  25  45  72 102 153 189 255 305 380 438
#     4  12  27  44  74 107 149 196 253 314 379 448
#     4  11  25  46  71 111 145 199 247 310 378 449
#     4  10  22  43  71 105 147 194 246 304 375 446
#     4  12  28  49  77 110 148 201 257 315 380 450
#     4  10  23  42  70 105 147 192 249 307 370 448
#
# _framework density 25.745681000000001
#
# number of rings (size 3 to 8) (size 9 to 14) (size 15 to 20)
#    0.000    0.857    1.429    4.286    4.000    5.143 
#    0.000    0.000    0.000    0.000    0.000    0.000 
#    0.000    0.000    0.000    0.000    0.000    0.000 
#
# Total GULP energy -173493.982746 kJ/mol
# GULP energy per Si atom -12392.427339 kJ/mol
# Density = 2.568708 g / cm^3
# Si number density = 25.745681 Si / 1000 Ang^3
#
#
#
# Elastic Constant Matrix: (Units=GPa)
#
#
# Indices 1 2 3 4 5 6 
#
# 1 154.5480 38.7202 39.8955 3.6043 11.5635 -18.1548
# 2 38.7202 107.5122 20.4408 5.1663 15.9301 -11.2018
# 3 39.8955 20.4408 76.7897 17.6143 33.7412 -22.5421
# 4 3.6043 5.1663 17.6143 26.6044 0.5640 0.8854
# 5 11.5635 15.9301 33.7412 0.5640 49.9141 3.5669
# 6 -18.1548 -11.2018 -22.5421 0.8854 3.5669 35.4791
#
#
#
# Elastic Compliance Matrix: (Units=1/GPa)
#
#
# Indices 1 2 3 4 5 6 
#
# 1 0.008219 -0.002490 -0.005669 0.003083 0.002726 -0.000533
# 2 -0.002490 0.011088 0.002827 -0.003732 -0.005162 0.004635
# 3 -0.005669 0.002827 0.045114 -0.029992 -0.031934 0.030614
# 4 0.003083 -0.003732 -0.029992 0.058034 0.021688 -0.022285
# 5 0.002726 -0.005162 -0.031934 0.021688 0.044215 -0.025511
# 6 -0.000533 0.004635 0.030614 -0.022285 -0.025511 0.051948
#
#
# Mechanical properties :
#
#
# Convention : Reuss Voigt Hill
#
# Bulk Modulus (GPa) = 18.60232 59.66254 39.13243
# Shear Modulus (GPa) = 20.22649 38.38573 29.30611
#
# Velocity S-wave (km/s) = 2.80594 3.86548 3.37752
# Velocity P-wave (km/s) = 4.21175 6.56862 5.51750
#
# Compressibility (1/GPa) = 0.05375675
#
# Stress axis : x y z
#
# Youngs Moduli (GPa) = 121.66622 90.19071 22.16621
#
# Poissons Ratio (x) = 0.22457 0.12566
# Poissons Ratio (y) = 0.30294 -0.06266
# Poissons Ratio (z) = 0.68972 -0.25497
#
# Static dielectric constant tensor:
#      x y z
#    x 5.314140 0.172400 0.253020 
#    y 0.172400 4.720220 -0.223350 
#    z 0.253020 -0.223350 4.646650 
# 
# 
# High freq. dielectric constant tensor:
#      x y z
#    x 2.067010 0.010470 0.001430 
#    y 0.010470 2.018620 -0.005880 
#    z 0.001430 -0.005880 2.013790 
# 
# From -- ./inp_files/599015.got.cif
#   From: 2010.06.25/outbox.cif.g09.slc.cpg/sg2_300_cif.got.tgz:599015.got - 2010.06.27 13:26:56.
