data_PCOD8021836
_publ_section_title
;
Structure prediction by ZEFSAII (Michael W. Deem and Ramdas Pophale) SiO2 
 PCOD8021836
Probable space group: P -1
;
_chemical_formula_sum "Si O2"
_cell_formula_units_Z 14
_cell_length_a 14.147412
_cell_length_b 7.651603
_cell_length_c 6.581169
_cell_angle_alpha 91.830072
_cell_angle_beta 88.313412
_cell_angle_gamma 123.021183
_cell_volume 596.971012
_symmetry_space_group_name_H-M "P -1"
_symmetry_group_IT_number 2
_symmetry_cell_setting 'triclinic'
loop_
_space_group_symop_operation_xyz
x,y,z
-x,-y,-z
loop_
_atom_site_type_symbol
_atom_site_label
_atom_site_fract_x
_atom_site_fract_y
_atom_site_fract_z
Si Si1 0.239473 0.857701 0.336982
Si Si2 0.794534 0.674229 0.120259
Si Si3 0.657394 0.309455 0.417306
Si Si4 0.915005 0.054080 0.411278
Si Si5 0.597601 0.465754 0.816281
Si Si6 0.938087 0.570442 0.860563
Si Si7 0.541334 0.788908 0.836047
O O1 0.302174 0.844988 0.532952
O O2 0.163106 0.946979 0.404413
O O3 0.170266 0.631646 0.233560
O O4 0.332385 0.009305 0.171213
O O5 0.752603 0.489437 0.277230
O O6 0.835849 0.889374 0.239448
O O7 0.695079 0.625071 0.971693
O O8 0.900505 0.701720 0.994579
O O9 0.649470 0.415963 0.624959
O O10 0.537371 0.177337 0.307909
O O11 0.981326 0.284491 0.320185
O O12 0.000000 0.000000 0.500000
O O13 0.537164 0.583043 0.751010
O O14 0.507389 0.251263 0.932553
O O15 0.000000 0.500000 0.000000
#
# Coordination Sequence:
#
# PCOD8021836 Si02
#       7
#     2   2   2   2   2   2   2
#     4  12  25  44  71 102 145 181 228 296 359 407
#     4  11  24  44  74  98 138 188 231 286 350 417
#     4  11  22  46  68 106 144 182 226 289 354 422
#     4  12  27  46  74 102 138 191 248 289 349 421
#     4  10  22  44  69 104 142 181 234 282 342 432
#     4  12  26  46  68 104 142 180 240 303 351 408
#     4  10  24  40  70 105 140 185 230 280 348 434
#
# _framework density 23.451723999999999
#
# number of rings (size 3 to 8) (size 9 to 14) (size 15 to 20)
#    0.000    0.857    1.429    5.143    4.000    2.857 
#    2.571    0.000    0.000    0.000    0.000    0.000 
#    0.000    0.000    0.000    0.000    0.000    0.000 
#
# Total GULP energy -173698.852577 kJ/mol
# GULP energy per Si atom -12407.060898 kJ/mol
# Density = 2.339835 g / cm^3
# Si number density = 23.451724 Si / 1000 Ang^3
#
#
#
# Elastic Constant Matrix: (Units=GPa)
#
#
# Indices 1 2 3 4 5 6 
#
# 1 109.9384 5.4775 14.6139 -10.2064 11.0692 -1.2438
# 2 5.4775 101.2380 15.2309 -8.9877 4.9433 24.0343
# 3 14.6139 15.2309 55.6284 -7.4289 -0.9453 5.6145
# 4 -10.2064 -8.9877 -7.4289 35.3916 -13.5620 -5.4442
# 5 11.0692 4.9433 -0.9453 -13.5620 36.2152 -7.0090
# 6 -1.2438 24.0343 5.6145 -5.4442 -7.0090 37.8506
#
#
#
# Elastic Compliance Matrix: (Units=1/GPa)
#
#
# Indices 1 2 3 4 5 6 
#
# 1 0.009809 -0.000022 -0.002465 0.001446 -0.002429 0.000460
# 2 -0.000022 0.012350 -0.002607 0.000091 -0.003270 -0.008048
# 3 -0.002465 -0.002607 0.019942 0.003947 0.003060 -0.000250
# 4 0.001446 0.000091 0.003947 0.036265 0.014649 0.007333
# 5 -0.002429 -0.003270 0.003060 0.014649 0.036377 0.010386
# 6 0.000460 -0.008048 -0.000250 0.007333 0.010386 0.034560
#
#
# Mechanical properties :
#
#
# Convention : Reuss Voigt Hill
#
# Bulk Modulus (GPa) = 31.33591 37.49438 34.41514
# Shear Modulus (GPa) = 29.38956 37.32366 33.35661
#
# Velocity S-wave (km/s) = 3.54389 3.99370 3.77550
# Velocity P-wave (km/s) = 5.48966 6.10646 5.80626
#
# Compressibility (1/GPa) = 0.03191227
#
# Stress axis : x y z
#
# Youngs Moduli (GPa) = 101.94928 80.97473 50.14523
#
# Poissons Ratio (x) = 0.00179 0.12363
# Poissons Ratio (y) = 0.00225 0.13070
# Poissons Ratio (z) = 0.25135 0.21106
#
# Static dielectric constant tensor:
#      x y z
#    x 4.210450 -0.006510 -0.024940 
#    y -0.006510 3.992220 -0.231160 
#    z -0.024940 -0.231160 4.271480 
# 
# 
# High freq. dielectric constant tensor:
#      x y z
#    x 1.945870 0.005720 0.000070 
#    y 0.005720 1.925410 -0.014680 
#    z 0.000070 -0.014680 1.928310 
# 
# From -- ./inp_files/90470.got.cif
#   From: 2010.06.25/outbox.cif.g09.slc.cpg/sg2_46_cif.got.tgz:90470.got - 2010.06.27 13:26:56.
