data_PCOD8021129
_publ_section_title
;
Structure prediction by ZEFSAII (Michael W. Deem and Ramdas Pophale) SiO2 
 PCOD8021129
Probable space group: P -1
;
_chemical_formula_sum "Si O2"
_cell_formula_units_Z 14
_cell_length_a 14.275640
_cell_length_b 9.199294
_cell_length_c 15.164658
_cell_angle_alpha 40.594804
_cell_angle_beta 152.330990
_cell_angle_gamma 140.726683
_cell_volume 566.697798
_symmetry_space_group_name_H-M "P -1"
_symmetry_group_IT_number 2
_symmetry_cell_setting 'triclinic'
loop_
_space_group_symop_operation_xyz
x,y,z
-x,-y,-z
loop_
_atom_site_type_symbol
_atom_site_label
_atom_site_fract_x
_atom_site_fract_y
_atom_site_fract_z
Si Si1 0.129367 0.356729 0.411021
Si Si2 0.722866 0.822903 0.792142
Si Si3 0.041833 0.647627 0.053959
Si Si4 0.232357 0.172718 0.978398
Si Si5 0.229228 0.714092 0.473616
Si Si6 0.318011 0.980490 0.784467
Si Si7 0.289164 0.650206 0.745412
O O1 0.093154 0.468504 0.423840
O O2 0.317026 0.239549 0.631604
O O3 0.908164 0.151201 0.295417
O O4 0.180233 0.554227 0.283956
O O5 0.809700 0.625611 0.912089
O O6 0.835751 0.887668 0.950157
O O7 0.468048 0.740032 0.625044
O O8 0.825683 0.057536 0.710110
O O9 0.000000 0.500000 0.000000
O O10 0.173088 0.913723 0.004750
O O11 0.479108 0.332910 0.105124
O O12 0.136993 0.373085 0.768022
O O13 0.186543 0.715742 0.541838
O O14 0.335960 0.830896 0.782669
O O15 0.500000 0.000000 0.000000
#
# Coordination Sequence:
#
# PCOD8021129 Si02
#       7
#     2   2   2   2   2   2   2
#     4  11  27  47  69 110 142 195 248 291 376 445
#     4  10  22  44  69  98 144 189 230 301 366 420
#     4  12  27  42  71 107 150 193 239 304 369 442
#     4  10  22  43  68 103 136 184 255 285 363 433
#     4  10  23  44  73 105 138 186 253 297 355 438
#     4  11  28  48  73 101 154 194 235 307 376 432
#     4  10  24  42  73 106 137 195 244 304 356 430
#
# _framework density 24.704523999999999
#
# number of rings (size 3 to 8) (size 9 to 14) (size 15 to 20)
#    0.000    1.429    1.429    1.286   14.000    1.714 
#    0.000    1.429    0.000    0.000    0.000    0.000 
#    0.000    0.000    0.000    0.000    0.000    0.000 
#
# Total GULP energy -173509.484232 kJ/mol
# GULP energy per Si atom -12393.534588 kJ/mol
# Density = 2.464830 g / cm^3
# Si number density = 24.704524 Si / 1000 Ang^3
#
#
#
# Elastic Constant Matrix: (Units=GPa)
#
#
# Indices 1 2 3 4 5 6 
#
# 1 107.2380 58.3108 61.1272 -11.9968 -34.4575 -24.1852
# 2 58.3108 145.5061 77.7061 -18.8445 -23.3779 -15.8057
# 3 61.1272 77.7061 193.0528 -23.3715 -27.0169 -15.0401
# 4 -11.9968 -18.8445 -23.3715 49.5558 1.8259 -2.4597
# 5 -34.4575 -23.3779 -27.0169 1.8259 44.6213 6.5037
# 6 -24.1852 -15.8057 -15.0401 -2.4597 6.5037 50.3478
#
#
#
# Elastic Compliance Matrix: (Units=1/GPa)
#
#
# Indices 1 2 3 4 5 6 
#
# 1 0.016537 -0.003310 -0.002034 0.001714 0.008973 0.005222
# 2 -0.003310 0.010050 -0.002586 0.001803 0.000960 0.000757
# 3 -0.002034 -0.002586 0.007317 0.001940 0.001380 0.000314
# 4 0.001714 0.001803 0.001940 0.022255 0.002127 0.002781
# 5 0.008973 0.000960 0.001380 0.002127 0.030417 0.001199
# 6 0.005222 0.000757 0.000314 0.002781 0.001199 0.022682
#
#
# Mechanical properties :
#
#
# Convention : Reuss Voigt Hill
#
# Bulk Modulus (GPa) = 55.41724 93.34279 74.38002
# Shear Modulus (GPa) = 38.12990 45.48185 41.80587
#
# Velocity S-wave (km/s) = 3.93292 4.29538 4.11814
# Velocity P-wave (km/s) = 6.56541 7.90355 7.26535
#
# Compressibility (1/GPa) = 0.01804493
#
# Stress axis : x y z
#
# Youngs Moduli (GPa) = 60.47125 99.50539 136.66780
#
# Poissons Ratio (x) = 0.32937 0.27794
# Poissons Ratio (y) = 0.20016 0.35336
# Poissons Ratio (z) = 0.12298 0.25727
#
# Static dielectric constant tensor:
#      x y z
#    x 4.390780 0.251610 -0.053330 
#    y 0.251610 4.460630 -0.137640 
#    z -0.053330 -0.137640 5.013490 
# 
# 
# High freq. dielectric constant tensor:
#      x y z
#    x 1.984730 0.016340 0.010060 
#    y 0.016340 1.991340 0.001450 
#    z 0.010060 0.001450 2.011460 
# 
# From -- ./inp_files/529322.got.cif
#   From: 2010.06.25/outbox.cif.g09.slc.cpg/sg2_265_cif.got.tgz:529322.got - 2010.06.27 13:26:56.
