data_PCOD8021525
_publ_section_title
;
Structure prediction by ZEFSAII (Michael W. Deem and Ramdas Pophale) SiO2 
 PCOD8021525
Probable space group: P -1
;
_chemical_formula_sum "Si O2"
_cell_formula_units_Z 16
_cell_length_a 18.231233
_cell_length_b 9.321126
_cell_length_c 6.629440
_cell_angle_alpha 132.836909
_cell_angle_beta 78.847465
_cell_angle_gamma 89.731641
_cell_volume 795.854927
_symmetry_space_group_name_H-M "P -1"
_symmetry_group_IT_number 2
_symmetry_cell_setting 'triclinic'
loop_
_space_group_symop_operation_xyz
x,y,z
-x,-y,-z
loop_
_atom_site_type_symbol
_atom_site_label
_atom_site_fract_x
_atom_site_fract_y
_atom_site_fract_z
Si Si1 0.078555 0.392928 0.952880
Si Si2 0.924181 0.933291 0.045412
Si Si3 0.591901 0.645503 0.704655
Si Si4 0.672190 0.320214 0.627992
Si Si5 0.664241 0.020964 0.006499
Si Si6 0.829795 0.936097 0.700485
Si Si7 0.167827 0.742302 0.307218
Si Si8 0.425160 0.635227 0.892981
O O1 0.057836 0.279194 0.054333
O O2 0.128795 0.239032 0.629966
O O3 0.129286 0.552002 0.134238
O O4 0.000000 0.500000 0.000000
O O5 0.881566 0.100827 0.372768
O O6 0.872421 0.914286 0.866149
O O7 0.000000 0.000000 0.000000
O O8 0.659270 0.499420 0.645971
O O9 0.513140 0.650162 0.867348
O O10 0.585068 0.571467 0.406843
O O11 0.609389 0.864446 0.909383
O O12 0.748277 0.326283 0.716113
O O13 0.677759 0.112109 0.305992
O O14 0.602192 0.352089 0.850700
O O15 0.622988 0.187391 0.038323
O O16 0.743387 0.912057 0.761593
O O17 0.829567 0.154428 0.814015
#
# Coordination Sequence:
#
# PCOD8021525 Si02
#       8
#     2   2   2   2   2   2   2   2
#     4  11  26  43  65  97 122 163 212 251 314 372
#     4  11  24  44  67  91 127 161 203 256 309 375
#     4  10  24  39  65  94 125 164 214 253 309 373
#     4  11  23  39  63  93 127 164 209 258 309 363
#     4  11  23  40  63  94 126 166 211 254 311 368
#     4  11  24  41  63  92 127 164 207 256 307 370
#     4  11  24  42  64  92 129 164 205 258 309 366
#     4  10  22  44  62  91 129 167 204 260 312 363
#
# _framework density 20.104165999999999
#
# number of rings (size 3 to 8) (size 9 to 14) (size 15 to 20)
#    0.000    1.250    2.500    2.250    3.500    6.500 
#    0.000    0.000    0.000    0.000    0.000    0.000 
#    0.000    0.000    0.000    0.000    0.000    0.000 
#
# Total GULP energy -198464.427293 kJ/mol
# GULP energy per Si atom -12404.026706 kJ/mol
# Density = 2.005841 g / cm^3
# Si number density = 20.104166 Si / 1000 Ang^3
#
#
#
# Elastic Constant Matrix: (Units=GPa)
#
#
# Indices 1 2 3 4 5 6 
#
# 1 113.0904 42.2551 35.1365 7.2222 3.8619 -1.3416
# 2 42.2551 68.0586 27.6705 -12.3979 16.9380 8.9166
# 3 35.1365 27.6705 78.5100 -5.0717 3.3869 13.4776
# 4 7.2222 -12.3979 -5.0717 29.2532 6.0123 5.5042
# 5 3.8619 16.9380 3.3869 6.0123 37.7512 3.0812
# 6 -1.3416 8.9166 13.4776 5.5042 3.0812 37.4870
#
#
#
# Elastic Compliance Matrix: (Units=1/GPa)
#
#
# Indices 1 2 3 4 5 6 
#
# 1 0.015577 -0.012234 -0.004822 -0.012277 0.005750 0.006531
# 2 -0.012234 0.032130 -0.002247 0.021164 -0.015591 -0.009098
# 3 -0.004822 -0.002247 0.017086 0.004452 -0.000217 -0.006417
# 4 -0.012277 0.021164 0.004452 0.052776 -0.015942 -0.013513
# 5 0.005750 -0.015591 -0.000217 -0.015942 0.035174 0.003442
# 6 0.006531 -0.009098 -0.006417 -0.013513 0.003442 0.033082
#
#
# Mechanical properties :
#
#
# Convention : Reuss Voigt Hill
#
# Bulk Modulus (GPa) = 38.18748 52.19811 45.19279
# Shear Modulus (GPa) = 21.44459 31.20474 26.32466
#
# Velocity S-wave (km/s) = 3.26954 3.94401 3.62251
# Velocity P-wave (km/s) = 5.76968 6.83816 6.32652
#
# Compressibility (1/GPa) = 0.02618659
#
# Stress axis : x y z
#
# Youngs Moduli (GPa) = 64.19765 31.12353 58.52842
#
# Poissons Ratio (x) = 0.38077 0.28222
# Poissons Ratio (y) = 0.78539 0.13152
# Poissons Ratio (z) = 0.30955 0.06994
#
# Static dielectric constant tensor:
#      x y z
#    x 4.971420 -0.268230 -0.398170 
#    y -0.268230 3.859420 -0.036550 
#    z -0.398170 -0.036550 3.922220 
# 
# 
# High freq. dielectric constant tensor:
#      x y z
#    x 1.801850 -0.007320 -0.006340 
#    y -0.007320 1.789530 -0.003150 
#    z -0.006340 -0.003150 1.793440 
# 
# From -- ./inp_files/10575.got.cif
#   From: 2010.06.25/outbox.cif.g09.slc.cpg/sg2_6_cif.got.tgz:10575.got - 2010.06.27 13:26:56.
