data_PCOD8021399
_publ_section_title
;
Structure prediction by ZEFSAII (Michael W. Deem and Ramdas Pophale) SiO2 
 PCOD8021399
Probable space group: P -1
;
_chemical_formula_sum "Si O2"
_cell_formula_units_Z 14
_cell_length_a 8.910325
_cell_length_b 9.185499
_cell_length_c 12.570429
_cell_angle_alpha 52.704758
_cell_angle_beta 120.731641
_cell_angle_gamma 124.744235
_cell_volume 650.571364
_symmetry_space_group_name_H-M "P -1"
_symmetry_group_IT_number 2
_symmetry_cell_setting 'triclinic'
loop_
_space_group_symop_operation_xyz
x,y,z
-x,-y,-z
loop_
_atom_site_type_symbol
_atom_site_label
_atom_site_fract_x
_atom_site_fract_y
_atom_site_fract_z
Si Si1 0.005186 0.301823 0.855851
Si Si2 0.194727 0.990527 0.541327
Si Si3 0.583661 0.691383 0.678255
Si Si4 0.414338 0.933578 0.846147
Si Si5 0.317818 0.687689 0.118454
Si Si6 0.255254 0.108096 0.137050
Si Si7 0.160129 0.604556 0.595919
O O1 0.865930 0.358565 0.855957
O O2 0.119444 0.490622 0.743335
O O3 0.894230 0.117996 0.819376
O O4 0.154026 0.255791 0.003949
O O5 0.286834 0.938073 0.700430
O O6 0.163199 0.822974 0.516023
O O7 0.329332 0.199221 0.448298
O O8 0.000000 0.000000 0.500000
O O9 0.647928 0.510954 0.799449
O O10 0.655463 0.843339 0.735263
O O11 0.358980 0.612986 0.619501
O O12 0.582226 0.865444 0.901844
O O13 0.497356 0.151499 0.831127
O O14 0.285423 0.774089 0.955015
O O15 0.000000 0.500000 0.500000
#
# Coordination Sequence:
#
# PCOD8021399 Si02
#       7
#     2   2   2   2   2   2   2
#     4  10  23  43  69 101 132 178 221 283 328 403
#     4  12  28  45  68  99 138 178 222 278 338 400
#     4  12  26  44  71 100 133 180 222 283 332 400
#     4  10  23  45  67  97 136 177 221 271 337 397
#     4  10  24  42  71  99 134 175 223 279 329 392
#     4  10  22  43  71  96 137 169 231 272 341 387
#     4  12  27  44  69  99 137 178 229 272 339 399
#
# _framework density 21.519545000000001
#
# number of rings (size 3 to 8) (size 9 to 14) (size 15 to 20)
#    0.000    1.143    1.429    3.000   10.000    3.429 
#    0.000    0.000    0.000    0.000    0.000    0.000 
#    0.000    0.000    0.000    0.000    0.000    0.000 
#
# Total GULP energy -173709.885956 kJ/mol
# GULP energy per Si atom -12407.848997 kJ/mol
# Density = 2.147057 g / cm^3
# Si number density = 21.519545 Si / 1000 Ang^3
#
#
#
# Elastic Constant Matrix: (Units=GPa)
#
#
# Indices 1 2 3 4 5 6 
#
# 1 139.2759 34.2476 53.2814 -11.6569 -8.3761 15.9379
# 2 34.2476 82.7275 49.8652 3.2838 -1.1697 -0.5749
# 3 53.2814 49.8652 98.3002 2.4228 -8.4475 12.6007
# 4 -11.6569 3.2838 2.4228 43.7166 7.4544 1.1974
# 5 -8.3761 -1.1697 -8.4475 7.4544 37.6194 -3.6625
# 6 15.9379 -0.5749 12.6007 1.1974 -3.6625 36.4793
#
#
#
# Elastic Compliance Matrix: (Units=1/GPa)
#
#
# Indices 1 2 3 4 5 6 
#
# 1 0.009776 -0.001711 -0.004099 0.002988 0.000324 -0.002948
# 2 -0.001711 0.018224 -0.008905 -0.001242 -0.001175 0.004033
# 3 -0.004099 -0.008905 0.017721 -0.001759 0.002735 -0.004138
# 4 0.002988 -0.001242 -0.001759 0.024748 -0.004869 -0.002018
# 5 0.000324 -0.001175 0.002735 -0.004869 0.028382 0.001904
# 6 -0.002948 0.004033 -0.004138 -0.002018 0.001904 0.030451
#
#
# Mechanical properties :
#
#
# Convention : Reuss Voigt Hill
#
# Bulk Modulus (GPa) = 61.38063 66.12134 63.75098
# Shear Modulus (GPa) = 30.45803 35.75705 33.10754
#
# Velocity S-wave (km/s) = 3.76622 4.08070 3.92661
# Velocity P-wave (km/s) = 6.89185 7.27982 7.08849
#
# Compressibility (1/GPa) = 0.01629179
#
# Stress axis : x y z
#
# Youngs Moduli (GPa) = 102.29609 54.87171 56.43152
#
# Poissons Ratio (x) = 0.09388 0.23129
# Poissons Ratio (y) = 0.17501 0.50251
# Poissons Ratio (z) = 0.41928 0.48862
#
# Static dielectric constant tensor:
#      x y z
#    x 3.867490 0.138650 -0.134170 
#    y 0.138650 3.975850 -0.001710 
#    z -0.134170 -0.001710 3.821760 
# 
# 
# High freq. dielectric constant tensor:
#      x y z
#    x 1.855760 -0.000270 -0.001740 
#    y -0.000270 1.851970 -0.002980 
#    z -0.001740 -0.002980 1.851640 
# 
# From -- ./inp_files/157959.got.cif
#   From: 2010.06.25/outbox.cif.g09.slc.cpg/sg2_79_cif.got.tgz:157959.got - 2010.06.27 13:26:56.
