data_PCOD8021721
_publ_section_title
;
Structure prediction by ZEFSAII (Michael W. Deem and Ramdas Pophale) SiO2 
 PCOD8021721
Probable space group: P -1
;
_chemical_formula_sum "Si O2"
_cell_formula_units_Z 16
_cell_length_a 15.057580
_cell_length_b 8.756373
_cell_length_c 13.156085
_cell_angle_alpha 77.818244
_cell_angle_beta 38.932035
_cell_angle_gamma 106.236576
_cell_volume 736.731356
_symmetry_space_group_name_H-M "P -1"
_symmetry_group_IT_number 2
_symmetry_cell_setting 'triclinic'
loop_
_space_group_symop_operation_xyz
x,y,z
-x,-y,-z
loop_
_atom_site_type_symbol
_atom_site_label
_atom_site_fract_x
_atom_site_fract_y
_atom_site_fract_z
Si Si1 0.832794 0.366761 0.906653
Si Si2 0.529129 0.287334 0.062517
Si Si3 0.297601 0.345289 0.529358
Si Si4 0.495664 0.182955 0.400135
Si Si5 0.742196 0.140668 0.503580
Si Si6 0.437078 0.346366 0.926457
Si Si7 0.535488 0.250893 0.580756
Si Si8 0.854266 0.021857 0.921764
O O1 0.901209 0.244186 0.845193
O O2 0.026557 0.630882 0.714676
O O3 0.723155 0.332002 0.905038
O O4 0.681200 0.271970 0.150963
O O5 0.588661 0.500777 0.028343
O O6 0.330041 0.048957 0.325338
O O7 0.489920 0.268199 0.980581
O O8 0.463341 0.343610 0.405024
O O9 0.374208 0.502944 0.340405
O O10 0.306390 0.477118 0.596383
O O11 0.065503 0.103036 0.751554
O O12 0.537676 0.165252 0.481619
O O13 0.282735 0.947224 0.576652
O O14 0.593431 0.174573 0.629923
O O15 0.229141 0.118376 0.089769
O O16 0.310045 0.138822 0.820155
#
# Coordination Sequence:
#
# PCOD8021721 Si02
#       8
#     2   2   2   2   2   2   2   2
#     4  11  23  42  64  94 130 167 207 258 312 377
#     4  10  22  44  67  95 122 165 212 259 313 376
#     4  11  23  43  62  96 128 167 208 261 313 372
#     4  11  24  41  66  93 126 172 216 254 311 368
#     4  11  22  40  65  95 127 162 211 259 309 371
#     4  10  23  43  68  91 128 163 209 263 313 373
#     4  11  23  42  64  92 133 166 210 264 308 373
#     4  11  24  41  66  93 132 166 204 260 320 366
#
# _framework density 21.717551
#
# number of rings (size 3 to 8) (size 9 to 14) (size 15 to 20)
#    0.000    1.250    6.250    0.750    1.750    3.500 
#    0.000    3.750    0.000    0.000    0.000    0.000 
#    0.000    0.000    0.000    0.000    0.000    0.000 
#
# Total GULP energy -198296.367128 kJ/mol
# GULP energy per Si atom -12393.522946 kJ/mol
# Density = 2.166812 g / cm^3
# Si number density = 21.717551 Si / 1000 Ang^3
#
#
#
# Elastic Constant Matrix: (Units=GPa)
#
#
# Indices 1 2 3 4 5 6 
#
# 1 71.4392 -3.6013 30.2016 -5.5469 1.4608 3.6438
# 2 -3.6013 84.5005 9.6314 -16.0300 -4.8795 8.8939
# 3 30.2016 9.6314 85.2169 -20.1111 -16.2606 9.7743
# 4 -5.5469 -16.0300 -20.1111 36.8875 3.5301 -8.1114
# 5 1.4608 -4.8795 -16.2606 3.5301 26.7375 -4.4774
# 6 3.6438 8.8939 9.7743 -8.1114 -4.4774 36.8441
#
#
#
# Elastic Compliance Matrix: (Units=1/GPa)
#
#
# Indices 1 2 3 4 5 6 
#
# 1 0.017245 0.001253 -0.007273 -0.000510 -0.005207 -0.000824
# 2 0.001253 0.013183 -0.000252 0.005241 0.001167 -0.001944
# 3 -0.007273 -0.000252 0.018192 0.007482 0.010233 -0.001155
# 4 -0.000510 0.005241 0.007482 0.034220 0.001778 0.004550
# 5 -0.005207 0.001167 0.010233 0.001778 0.044441 0.003311
# 6 -0.000824 -0.001944 -0.001155 0.004550 0.003311 0.029403
#
#
# Mechanical properties :
#
#
# Convention : Reuss Voigt Hill
#
# Bulk Modulus (GPa) = 27.71911 34.84667 31.28289
# Shear Modulus (GPa) = 27.58619 33.75548 30.67083
#
# Velocity S-wave (km/s) = 3.56789 3.94673 3.76208
# Velocity P-wave (km/s) = 5.45566 6.07035 5.77120
#
# Compressibility (1/GPa) = 0.03607619
#
# Stress axis : x y z
#
# Youngs Moduli (GPa) = 57.98923 75.85813 54.97039
#
# Poissons Ratio (x) = -0.09506 0.39979
# Poissons Ratio (y) = -0.07267 0.01383
# Poissons Ratio (z) = 0.42174 0.01909
#
# Static dielectric constant tensor:
#      x y z
#    x 3.968500 0.032650 -0.033040 
#    y 0.032650 4.206780 -0.235020 
#    z -0.033040 -0.235020 3.640880 
# 
# 
# High freq. dielectric constant tensor:
#      x y z
#    x 1.848790 -0.004030 -0.009210 
#    y -0.004030 1.877040 -0.019190 
#    z -0.009210 -0.019190 1.826920 
# 
# From -- ./inp_files/528377.got.cif
#   From: 2010.06.25/outbox.cif.g09.slc.cpg/sg2_265_cif.got.tgz:528377.got - 2010.06.27 13:26:56.
