data_PCOD8021732
_publ_section_title
;
Structure prediction by ZEFSAII (Michael W. Deem and Ramdas Pophale) SiO2 
 PCOD8021732
Probable space group: P -1
;
_chemical_formula_sum "Si O2"
_cell_formula_units_Z 12
_cell_length_a 14.101136
_cell_length_b 7.414435
_cell_length_c 9.195239
_cell_angle_alpha 128.819365
_cell_angle_beta 50.494240
_cell_angle_gamma 140.025646
_cell_volume 457.320251
_symmetry_space_group_name_H-M "P -1"
_symmetry_group_IT_number 2
_symmetry_cell_setting 'triclinic'
loop_
_space_group_symop_operation_xyz
x,y,z
-x,-y,-z
loop_
_atom_site_type_symbol
_atom_site_label
_atom_site_fract_x
_atom_site_fract_y
_atom_site_fract_z
Si Si1 0.121156 0.296437 0.944383
Si Si2 0.330967 0.450199 0.068441
Si Si3 0.623026 0.954175 0.907208
Si Si4 0.165554 0.772895 0.906490
Si Si5 0.328914 0.780479 0.493486
Si Si6 0.675249 0.788850 0.483179
O O1 0.203942 0.265082 0.712828
O O2 0.247643 0.517956 0.057145
O O3 0.020371 0.382768 0.999647
O O4 0.000000 0.000000 0.000000
O O5 0.257364 0.114501 0.952897
O O6 0.300188 0.519668 0.292995
O O7 0.517112 0.656571 0.958797
O O8 0.759256 0.226415 0.011128
O O9 0.706773 0.901568 0.674667
O O10 0.500000 0.000000 0.000000
O O11 0.207630 0.634383 0.671484
O O12 0.500000 0.000000 0.500000
O O13 0.294000 0.959229 0.520262
O O14 0.500000 0.500000 0.500000
#
# Coordination Sequence:
#
# PCOD8021732 Si02
#       6
#     2   2   2   2   2   2
#     4  10  22  44  67  96 132 182 216 272 336 387
#     4  11  22  40  70  96 129 179 221 266 331 391
#     4  12  23  40  66  98 134 169 219 280 332 384
#     4  11  24  45  66  95 137 172 226 274 321 403
#     4  12  23  39  70 102 127 176 235 263 321 408
#     4  12  23  40  70  95 135 176 219 274 336 390
#
# _framework density 26.239818
#
# number of rings (size 3 to 8) (size 9 to 14) (size 15 to 20)
#    0.000    0.667    8.333    0.500    2.333    1.333 
#    0.000    0.833    0.000    0.000    0.000    0.000 
#    0.000    0.000    0.000    0.000    0.000    0.000 
#
# Total GULP energy -148837.274915 kJ/mol
# GULP energy per Si atom -12403.106243 kJ/mol
# Density = 2.618009 g / cm^3
# Si number density = 26.239818 Si / 1000 Ang^3
#
#
#
# Elastic Constant Matrix: (Units=GPa)
#
#
# Indices 1 2 3 4 5 6 
#
# 1 144.3402 38.7392 69.1556 -15.2805 13.8267 14.7202
# 2 38.7392 115.0078 47.0145 -12.1580 2.6132 32.5028
# 3 69.1556 47.0145 288.1271 -19.1758 15.4018 30.0749
# 4 -15.2805 -12.1580 -19.1758 40.1628 11.1660 -5.1150
# 5 13.8267 2.6132 15.4018 11.1660 46.2066 -4.4614
# 6 14.7202 32.5028 30.0749 -5.1150 -4.4614 47.6237
#
#
#
# Elastic Compliance Matrix: (Units=1/GPa)
#
#
# Indices 1 2 3 4 5 6 
#
# 1 0.008709 -0.001864 -0.001402 0.002782 -0.002753 -0.000493
# 2 -0.001864 0.011759 -0.000551 0.001998 -0.001081 -0.006988
# 3 -0.001402 -0.000551 0.004275 0.001526 -0.001524 -0.001869
# 4 0.002782 0.001998 0.001526 0.029601 -0.008687 -0.000822
# 5 -0.002753 -0.001081 -0.001524 -0.008687 0.025521 0.004009
# 6 -0.000493 -0.006988 -0.001869 -0.000822 0.004009 0.027387
#
#
# Mechanical properties :
#
#
# Convention : Reuss Voigt Hill
#
# Bulk Modulus (GPa) = 58.45316 95.25487 76.85401
# Shear Modulus (GPa) = 41.46272 52.96965 47.21619
#
# Velocity S-wave (km/s) = 3.97942 4.49784 4.24655
# Velocity P-wave (km/s) = 6.59084 7.95956 7.30732
#
# Compressibility (1/GPa) = 0.01710771
#
# Stress axis : x y z
#
# Youngs Moduli (GPa) = 114.82635 85.04185 233.89987
#
# Poissons Ratio (x) = 0.15854 0.32800
# Poissons Ratio (y) = 0.21406 0.12892
# Poissons Ratio (z) = 0.16102 0.04687
#
# Static dielectric constant tensor:
#      x y z
#    x 6.173410 -0.225230 0.645000 
#    y -0.225230 5.446610 -0.390300 
#    z 0.645000 -0.390300 5.509550 
# 
# 
# High freq. dielectric constant tensor:
#      x y z
#    x 2.092690 -0.016280 0.011730 
#    y -0.016280 2.092340 -0.009870 
#    z 0.011730 -0.009870 2.044680 
# 
# From -- ./inp_files/174704.got.cif
#   From: 2010.06.25/outbox.cif.g09.slc.cpg/sg2_88_cif.got.tgz:174704.got - 2010.06.27 13:26:56.
