data_PCOD8021120
_publ_section_title
;
Structure prediction by ZEFSAII (Michael W. Deem and Ramdas Pophale) SiO2 
 PCOD8021120
Probable space group: P -1
;
_chemical_formula_sum "Si O2"
_cell_formula_units_Z 16
_cell_length_a 22.327681
_cell_length_b 9.498039
_cell_length_c 13.089853
_cell_angle_alpha 43.674058
_cell_angle_beta 146.234669
_cell_angle_gamma 151.515599
_cell_volume 735.530356
_symmetry_space_group_name_H-M "P -1"
_symmetry_group_IT_number 2
_symmetry_cell_setting 'triclinic'
loop_
_space_group_symop_operation_xyz
x,y,z
-x,-y,-z
loop_
_atom_site_type_symbol
_atom_site_label
_atom_site_fract_x
_atom_site_fract_y
_atom_site_fract_z
Si Si1 0.926246 0.519162 0.478999
Si Si2 0.432853 0.891195 0.851858
Si Si3 0.399750 0.405584 0.006880
Si Si4 0.964737 0.030802 0.282032
Si Si5 0.459030 0.667322 0.395192
Si Si6 0.664793 0.005867 0.704211
Si Si7 0.810428 0.499985 0.802231
Si Si8 0.970470 0.479460 0.783822
O O1 0.748555 0.307235 0.308005
O O2 0.945769 0.406181 0.666912
O O3 0.000000 0.500000 0.500000
O O4 0.006568 0.848383 0.445788
O O5 0.474572 0.718404 0.979248
O O6 0.528249 0.164937 0.768929
O O7 0.500000 0.000000 0.000000
O O8 0.216716 0.178190 0.848333
O O9 0.500000 0.500000 0.000000
O O10 0.421883 0.276541 0.198558
O O11 0.032606 0.190533 0.184769
O O12 0.044090 0.293352 0.339022
O O13 0.500000 0.500000 0.500000
O O14 0.566596 0.897006 0.518837
O O15 0.278877 0.441608 0.294507
O O16 0.687500 0.244134 0.677596
O O17 0.837889 0.181307 0.818479
O O18 0.864463 0.387800 0.012545
#
# Coordination Sequence:
#
# PCOD8021120 Si02
#       8
#     2   2   2   2   2   2   2   2
#     4  11  26  43  68  96 139 178 220 280 329 402
#     4  11  26  46  63  96 135 177 222 271 337 399
#     4  11  22  41  71 100 132 168 221 279 334 398
#     4  10  22  43  68 101 131 174 220 271 341 392
#     4  12  27  45  68  98 137 181 226 278 333 397
#     4  11  21  46  68 101 133 173 227 275 337 396
#     4  11  23  42  73  97 133 174 222 282 329 406
#     4  11  21  45  71  97 135 171 228 279 328 406
#
# _framework density 21.75301
#
# number of rings (size 3 to 8) (size 9 to 14) (size 15 to 20)
#    0.000    1.000    3.750    3.000    3.500    0.000 
#    4.500    1.250    0.000    0.000    0.000    0.000 
#    0.000    0.000    0.000    0.000    0.000    0.000 
#
# Total GULP energy -198250.371670 kJ/mol
# GULP energy per Si atom -12390.648229 kJ/mol
# Density = 2.170350 g / cm^3
# Si number density = 21.753010 Si / 1000 Ang^3
#
#
#
# Elastic Constant Matrix: (Units=GPa)
#
#
# Indices 1 2 3 4 5 6 
#
# 1 194.5427 67.4115 69.4606 -6.0726 -1.4700 9.1640
# 2 67.4115 101.3561 37.1937 -13.9235 -5.8681 8.9516
# 3 69.4606 37.1937 90.6750 1.8024 -23.4323 -5.4478
# 4 -6.0726 -13.9235 1.8024 32.3498 0.9422 -4.4021
# 5 -1.4700 -5.8681 -23.4323 0.9422 42.7291 -3.6832
# 6 9.1640 8.9516 -5.4478 -4.4021 -3.6832 29.3586
#
#
#
# Elastic Compliance Matrix: (Units=1/GPa)
#
#
# Indices 1 2 3 4 5 6 
#
# 1 0.008805 -0.003311 -0.006661 0.000249 -0.004108 -0.003453
# 2 -0.003311 0.014499 -0.003895 0.005395 -0.000669 -0.003385
# 3 -0.006661 -0.003895 0.021311 -0.003341 0.011702 0.008188
# 4 0.000249 0.005395 -0.003341 0.033858 -0.001611 0.002532
# 5 -0.004108 -0.000669 0.011702 -0.001611 0.030245 0.007211
# 6 -0.003453 -0.003385 0.008188 0.002532 0.007211 0.038975
#
#
# Mechanical properties :
#
#
# Convention : Reuss Voigt Hill
#
# Bulk Modulus (GPa) = 59.23420 81.63393 70.43406
# Shear Modulus (GPa) = 27.61627 35.05468 31.33548
#
# Velocity S-wave (km/s) = 3.56692 4.01869 3.79953
# Velocity P-wave (km/s) = 6.65232 7.69040 7.19012
#
# Compressibility (1/GPa) = 0.01688214
#
# Stress axis : x y z
#
# Youngs Moduli (GPa) = 113.57065 68.97257 46.92408
#
# Poissons Ratio (x) = 0.22834 0.31256
# Poissons Ratio (y) = 0.37598 0.18275
# Poissons Ratio (z) = 0.75650 0.26862
#
# Static dielectric constant tensor:
#      x y z
#    x 4.112810 0.030280 0.032860 
#    y 0.030280 4.052820 -0.185460 
#    z 0.032860 -0.185460 3.824160 
# 
# 
# High freq. dielectric constant tensor:
#      x y z
#    x 1.866870 0.009170 -0.004350 
#    y 0.009170 1.853740 -0.005970 
#    z -0.004350 -0.005970 1.848530 
# 
# From -- ./inp_files/187829.got.cif
#   From: 2010.06.25/outbox.cif.g09.slc.cpg/sg2_94_cif.got.tgz:187829.got - 2010.06.27 13:26:56.
