data_PCOD8021770
_publ_section_title
;
Structure prediction by ZEFSAII (Michael W. Deem and Ramdas Pophale) SiO2 
 PCOD8021770
Probable space group: P -1
;
_chemical_formula_sum "Si O2"
_cell_formula_units_Z 16
_cell_length_a 6.315871
_cell_length_b 8.622438
_cell_length_c 17.040111
_cell_angle_alpha 59.066324
_cell_angle_beta 66.073129
_cell_angle_gamma 71.926176
_cell_volume 721.423932
_symmetry_space_group_name_H-M "P -1"
_symmetry_group_IT_number 2
_symmetry_cell_setting 'triclinic'
loop_
_space_group_symop_operation_xyz
x,y,z
-x,-y,-z
loop_
_atom_site_type_symbol
_atom_site_label
_atom_site_fract_x
_atom_site_fract_y
_atom_site_fract_z
Si Si1 0.421418 0.274879 0.209428
Si Si2 0.899631 0.263965 0.340536
Si Si3 0.212238 0.790696 0.298572
Si Si4 0.366364 0.119434 0.105089
Si Si5 0.637875 0.299185 0.527543
Si Si6 0.208868 0.092778 0.977074
Si Si7 0.596613 0.563504 0.208481
Si Si8 0.277795 0.031430 0.663178
O O1 0.388862 0.289689 0.115165
O O2 0.528541 0.457724 0.168975
O O3 0.176550 0.260818 0.292620
O O4 0.607792 0.102506 0.251410
O O5 0.839310 0.279817 0.437093
O O6 0.764523 0.438351 0.272967
O O7 0.820947 0.080845 0.363521
O O8 0.231887 0.749497 0.398067
O O9 0.348844 0.624578 0.272416
O O10 0.939763 0.831034 0.304125
O O11 0.334279 0.967608 0.214251
O O12 0.584438 0.071595 0.026940
O O13 0.160297 0.143279 0.064178
O O14 0.500000 0.500000 0.500000
O O15 0.461280 0.155950 0.569437
O O16 0.258944 0.272796 0.877315
O O17 0.000000 0.000000 0.000000
#
# Coordination Sequence:
#
# PCOD8021770 Si02
#       8
#     2   2   2   2   2   2   2   2
#     4  11  24  45  69  99 143 181 224 278 342 406
#     4  11  24  44  65  98 141 183 225 278 345 394
#     4  11  23  43  68  99 133 182 230 275 343 396
#     4  10  22  44  68 102 130 177 226 272 344 406
#     4  12  25  41  65 103 135 180 234 286 330 398
#     4  10  24  43  74 103 133 171 225 281 339 414
#     4  10  25  43  67 105 136 178 225 282 343 400
#     4  11  24  42  69  95 136 186 226 284 331 405
#
# _framework density 22.178360000000001
#
# number of rings (size 3 to 8) (size 9 to 14) (size 15 to 20)
#    0.000    1.250    3.750    0.375    3.500    8.000 
#    0.000    1.250    0.000    0.000    0.000    0.000 
#    0.000    0.000    0.000    0.000    0.000    0.000 
#
# Total GULP energy -198333.441966 kJ/mol
# GULP energy per Si atom -12395.840123 kJ/mol
# Density = 2.212788 g / cm^3
# Si number density = 22.178360 Si / 1000 Ang^3
#
#
#
# Elastic Constant Matrix: (Units=GPa)
#
#
# Indices 1 2 3 4 5 6 
#
# 1 134.1580 62.9460 59.8004 8.3445 0.7590 5.5681
# 2 62.9460 103.2151 57.6310 1.5917 3.8455 3.1397
# 3 59.8004 57.6310 109.3211 19.9512 10.3563 17.6440
# 4 8.3445 1.5917 19.9512 37.0745 9.0044 -1.5074
# 5 0.7590 3.8455 10.3563 9.0044 38.0313 3.0829
# 6 5.5681 3.1397 17.6440 -1.5074 3.0829 47.9484
#
#
#
# Elastic Compliance Matrix: (Units=1/GPa)
#
#
# Indices 1 2 3 4 5 6 
#
# 1 0.011461 -0.004981 -0.003686 -0.000720 0.001430 0.000237
# 2 -0.004981 0.016616 -0.007160 0.004575 -0.000903 0.002327
# 3 -0.003686 -0.007160 0.017489 -0.008122 -0.001580 -0.005692
# 4 -0.000720 0.004575 -0.008122 0.033035 -0.006400 0.004223
# 5 0.001430 -0.000903 -0.001580 -0.006400 0.028429 -0.001554
# 6 0.000237 0.002327 -0.005692 0.004223 -0.001554 0.023003
#
#
# Mechanical properties :
#
#
# Convention : Reuss Voigt Hill
#
# Bulk Modulus (GPa) = 71.87680 78.60545 75.24112
# Shear Modulus (GPa) = 30.06203 35.69863 32.88033
#
# Velocity S-wave (km/s) = 3.68566 4.01635 3.85456
# Velocity P-wave (km/s) = 7.11274 7.55165 7.33548
#
# Compressibility (1/GPa) = 0.01391270
#
# Stress axis : x y z
#
# Youngs Moduli (GPa) = 87.25579 60.18267 57.17946
#
# Poissons Ratio (x) = 0.29975 0.21075
# Poissons Ratio (y) = 0.43459 0.40940
# Poissons Ratio (z) = 0.32161 0.43090
#
# Static dielectric constant tensor:
#      x y z
#    x 4.361910 -0.122160 0.175090 
#    y -0.122160 4.298310 0.074000 
#    z 0.175090 0.074000 3.935760 
# 
# 
# High freq. dielectric constant tensor:
#      x y z
#    x 1.879620 0.003400 0.002850 
#    y 0.003400 1.880210 0.007630 
#    z 0.002850 0.007630 1.866020 
# 
# From -- ./inp_files/39227.got.cif
#   From: 2010.06.25/outbox.cif.g09.slc.cpg/sg2_20_cif.got.tgz:39227.got - 2010.06.27 13:26:56.
