data_PCOD8021070
_publ_section_title
;
Structure prediction by ZEFSAII (Michael W. Deem and Ramdas Pophale) SiO2 
 PCOD8021070
Probable space group: P -1
;
_chemical_formula_sum "Si O2"
_cell_formula_units_Z 14
_cell_length_a 6.241176
_cell_length_b 8.705511
_cell_length_c 17.697393
_cell_angle_alpha 118.409416
_cell_angle_beta 82.377024
_cell_angle_gamma 129.183822
_cell_volume 635.357689
_symmetry_space_group_name_H-M "P -1"
_symmetry_group_IT_number 2
_symmetry_cell_setting 'triclinic'
loop_
_space_group_symop_operation_xyz
x,y,z
-x,-y,-z
loop_
_atom_site_type_symbol
_atom_site_label
_atom_site_fract_x
_atom_site_fract_y
_atom_site_fract_z
Si Si1 0.546573 0.517374 0.313500
Si Si2 0.946420 0.604787 0.194984
Si Si3 0.571395 0.920367 0.203368
Si Si4 0.496453 0.488304 0.086519
Si Si5 0.380575 0.750476 0.468950
Si Si6 0.037978 0.270050 0.164272
Si Si7 0.731799 0.332272 0.375767
O O1 0.816400 0.667199 0.278396
O O2 0.561138 0.701372 0.404171
O O3 0.253881 0.347030 0.240851
O O4 0.554664 0.353682 0.329531
O O5 0.731018 0.476005 0.103252
O O6 0.247627 0.823939 0.196757
O O7 0.973562 0.439408 0.199436
O O8 0.568598 0.714044 0.175517
O O9 0.742963 0.133544 0.303840
O O10 0.732150 0.018406 0.137256
O O11 0.179383 0.269952 0.080100
O O12 0.500000 0.500000 0.000000
O O13 0.422337 0.736294 0.552396
O O14 0.050628 0.572426 0.420327
O O15 0.500000 0.000000 0.500000
#
# Coordination Sequence:
#
# PCOD8021070 Si02
#       7
#     2   2   2   2   2   2   2
#     4  11  21  44  65  90 132 171 221 267 321 387
#     4  10  23  40  68  95 127 172 214 271 322 383
#     4  11  23  41  69  96 129 172 218 268 323 385
#     4  10  25  44  67 101 134 168 213 265 331 394
#     4  11  26  43  63  93 138 171 217 276 322 378
#     4  10  22  43  67  94 130 168 219 270 314 391
#     4  11  25  42  64  97 130 171 224 268 323 383
#
# _framework density 22.034831000000001
#
# number of rings (size 3 to 8) (size 9 to 14) (size 15 to 20)
#    0.000    1.429    2.857    0.429   10.000    3.429 
#    2.571    1.429    0.000    0.000    0.000    0.000 
#    0.000    0.000    0.000    0.000    0.000    0.000 
#
# Total GULP energy -173538.257667 kJ/mol
# GULP energy per Si atom -12395.589833 kJ/mol
# Density = 2.198468 g / cm^3
# Si number density = 22.034831 Si / 1000 Ang^3
#
#
#
# Elastic Constant Matrix: (Units=GPa)
#
#
# Indices 1 2 3 4 5 6 
#
# 1 120.8463 61.0509 44.1188 -23.3771 8.7892 4.1371
# 2 61.0509 135.8966 23.5333 -24.1939 6.7616 28.5536
# 3 44.1188 23.5333 61.4476 -29.9808 10.7198 -4.7073
# 4 -23.3771 -24.1939 -29.9808 44.4954 -4.2941 -10.1116
# 5 8.7892 6.7616 10.7198 -4.2941 25.1281 -10.7087
# 6 4.1371 28.5536 -4.7073 -10.1116 -10.7087 44.5252
#
#
#
# Elastic Compliance Matrix: (Units=1/GPa)
#
#
# Indices 1 2 3 4 5 6 
#
# 1 0.013622 -0.005082 -0.008273 -0.000912 0.000406 0.001009
# 2 -0.005082 0.011763 0.000111 0.001603 -0.004473 -0.007771
# 3 -0.008273 0.000111 0.032874 0.019077 -0.004764 0.007360
# 4 -0.000912 0.001603 0.019077 0.038361 0.002758 0.010449
# 5 0.000406 -0.004473 -0.004764 0.002758 0.049716 0.014910
# 6 0.001009 -0.007771 0.007360 0.010449 0.014910 0.034086
#
#
# Mechanical properties :
#
#
# Convention : Reuss Voigt Hill
#
# Bulk Modulus (GPa) = 31.47458 63.95517 47.71487
# Shear Modulus (GPa) = 22.98849 35.46225 29.22537
#
# Velocity S-wave (km/s) = 3.23349 4.01605 3.64583
# Velocity P-wave (km/s) = 5.31560 7.11284 6.27886
#
# Compressibility (1/GPa) = 0.03177167
#
# Stress axis : x y z
#
# Youngs Moduli (GPa) = 73.41122 85.01173 30.41905
#
# Poissons Ratio (x) = 0.43199 0.25165
# Poissons Ratio (y) = 0.37304 -0.00337
# Poissons Ratio (z) = 0.60732 -0.00941
#
# Static dielectric constant tensor:
#      x y z
#    x 4.176520 0.255170 -0.144070 
#    y 0.255170 4.195160 -0.269510 
#    z -0.144070 -0.269510 3.816290 
# 
# 
# High freq. dielectric constant tensor:
#      x y z
#    x 1.874090 0.008450 -0.009900 
#    y 0.008450 1.877770 -0.024280 
#    z -0.009900 -0.024280 1.847690 
# 
# From -- ./inp_files/38303.got.cif
#   From: 2010.06.25/outbox.cif.g09.slc.cpg/sg2_20_cif.got.tgz:38303.got - 2010.06.27 13:26:56.
