data_PCOD8021766
_publ_section_title
;
Structure prediction by ZEFSAII (Michael W. Deem and Ramdas Pophale) SiO2 
 PCOD8021766
Probable space group: P -1
;
_chemical_formula_sum "Si O2"
_cell_formula_units_Z 16
_cell_length_a 5.983581
_cell_length_b 11.676174
_cell_length_c 13.247832
_cell_angle_alpha 125.047581
_cell_angle_beta 91.513970
_cell_angle_gamma 71.244305
_cell_volume 702.395506
_symmetry_space_group_name_H-M "P -1"
_symmetry_group_IT_number 2
_symmetry_cell_setting 'triclinic'
loop_
_space_group_symop_operation_xyz
x,y,z
-x,-y,-z
loop_
_atom_site_type_symbol
_atom_site_label
_atom_site_fract_x
_atom_site_fract_y
_atom_site_fract_z
Si Si1 0.206911 0.079627 0.449815
Si Si2 0.819607 0.208139 0.342863
Si Si3 0.750314 0.494392 0.942396
Si Si4 0.466987 0.284566 0.544456
Si Si5 0.964503 0.439834 0.360111
Si Si6 0.672536 0.734708 0.890556
Si Si7 0.164639 0.786238 0.323971
Si Si8 0.206583 0.990779 0.924003
O O1 0.444409 0.121327 0.475752
O O2 0.030797 0.180021 0.412137
O O3 0.090563 0.117568 0.579131
O O4 0.270055 0.904372 0.335242
O O5 0.560974 0.288676 0.434152
O O6 0.838584 0.051435 0.212153
O O7 0.842384 0.317462 0.310761
O O8 0.649030 0.625200 0.923066
O O9 0.865584 0.327009 0.814574
O O10 0.500000 0.500000 0.000000
O O11 0.000000 0.500000 0.000000
O O12 0.650487 0.309359 0.637349
O O13 0.213909 0.417492 0.631013
O O14 0.195644 0.367163 0.255372
O O15 0.000000 0.500000 0.500000
O O16 0.431687 0.854762 0.902741
O O17 0.795905 0.840779 0.996431
O O18 0.000000 0.000000 0.000000
#
# Coordination Sequence:
#
# PCOD8021766 Si02
#       8
#     2   2   2   2   2   2   2   2
#     4  10  22  44  68 100 142 181 244 307 373 440
#     4  11  24  38  67 104 137 184 237 295 372 451
#     4  12  32  52  77 112 150 207 260 312 374 450
#     4  11  23  40  69 103 144 184 236 307 373 449
#     4  12  23  42  70 104 147 181 236 300 379 448
#     4  11  28  48  74 104 146 197 249 313 376 447
#     4  10  25  44  71 100 137 194 245 310 371 430
#     4  11  25  46  73 101 144 191 247 308 375 451
#
# _framework density 22.779188999999999
#
# number of rings (size 3 to 8) (size 9 to 14) (size 15 to 20)
#    0.000    1.000    2.500    2.250   10.500    1.000 
#    0.000    0.000    0.000    0.000    0.000    0.000 
#    0.000    0.000    0.000    0.000    0.000    0.000 
#
# Total GULP energy -198236.319733 kJ/mol
# GULP energy per Si atom -12389.769983 kJ/mol
# Density = 2.272734 g / cm^3
# Si number density = 22.779189 Si / 1000 Ang^3
#
#
#
# Elastic Constant Matrix: (Units=GPa)
#
#
# Indices 1 2 3 4 5 6 
#
# 1 104.6740 20.4511 51.7732 -4.3498 -2.9687 14.9234
# 2 20.4511 86.4522 35.1778 8.4236 -10.2421 25.6152
# 3 51.7732 35.1778 148.5060 10.2686 8.4957 7.4476
# 4 -4.3498 8.4236 10.2686 30.7160 1.5694 0.3344
# 5 -2.9687 -10.2421 8.4957 1.5694 40.3260 3.3390
# 6 14.9234 25.6152 7.4476 0.3344 3.3390 37.2368
#
#
#
# Elastic Compliance Matrix: (Units=1/GPa)
#
#
# Indices 1 2 3 4 5 6 
#
# 1 0.012608 0.000133 -0.004549 0.003208 0.002165 -0.004457
# 2 0.000133 0.017780 -0.003760 -0.003799 0.006466 -0.012078
# 3 -0.004549 -0.003760 0.009444 -0.002627 -0.003413 0.002850
# 4 0.003208 -0.003799 -0.002627 0.034998 -0.001677 0.001689
# 5 0.002165 0.006466 -0.003413 -0.001677 0.027974 -0.007126
# 6 -0.004457 -0.012078 0.002850 0.001689 -0.007126 0.037004
#
#
# Mechanical properties :
#
#
# Convention : Reuss Voigt Hill
#
# Bulk Modulus (GPa) = 42.58739 61.60406 52.09572
# Shear Modulus (GPa) = 30.49047 37.13778 33.81413
#
# Velocity S-wave (km/s) = 3.66255 4.04212 3.85701
# Velocity P-wave (km/s) = 6.05162 6.99198 6.53872
#
# Compressibility (1/GPa) = 0.02348113
#
# Stress axis : x y z
#
# Youngs Moduli (GPa) = 79.31707 56.24223 105.88524
#
# Poissons Ratio (x) = -0.00749 0.48167
# Poissons Ratio (y) = -0.01056 0.39809
# Poissons Ratio (z) = 0.36081 0.21145
#
# Static dielectric constant tensor:
#      x y z
#    x 4.378770 0.240490 0.198580 
#    y 0.240490 3.969510 -0.152590 
#    z 0.198580 -0.152590 3.681190 
# 
# 
# High freq. dielectric constant tensor:
#      x y z
#    x 1.906370 0.007730 0.008660 
#    y 0.007730 1.902460 0.011850 
#    z 0.008660 0.011850 1.903620 
# 
# From -- ./inp_files/483030.got.cif
#   From: 2010.06.25/outbox.cif.g09.slc.cpg/sg2_242_cif.got.tgz:483030.got - 2010.06.27 13:26:56.
