data_PCOD8021005
_publ_section_title
;
Structure prediction by ZEFSAII (Michael W. Deem and Ramdas Pophale) SiO2 
 PCOD8021005
Probable space group: P -1
;
_chemical_formula_sum "Si O2"
_cell_formula_units_Z 16
_cell_length_a 25.553153
_cell_length_b 16.485894
_cell_length_c 10.731476
_cell_angle_alpha 133.965648
_cell_angle_beta 46.482995
_cell_angle_gamma 165.867008
_cell_volume 791.472927
_symmetry_space_group_name_H-M "P -1"
_symmetry_group_IT_number 2
_symmetry_cell_setting 'triclinic'
loop_
_space_group_symop_operation_xyz
x,y,z
-x,-y,-z
loop_
_atom_site_type_symbol
_atom_site_label
_atom_site_fract_x
_atom_site_fract_y
_atom_site_fract_z
Si Si1 0.842447 0.988923 0.995096
Si Si2 0.790077 0.768013 0.453930
Si Si3 0.127370 0.538532 0.948571
Si Si4 0.462488 0.812744 0.344800
Si Si5 0.051757 0.096096 0.159584
Si Si6 0.708328 0.029575 0.991788
Si Si7 0.533345 0.545697 0.793984
Si Si8 0.242148 0.480420 0.596129
O O1 0.702436 0.834971 0.173615
O O2 0.919915 0.978654 0.891462
O O3 0.704381 0.773653 0.866139
O O4 0.041506 0.367719 0.041978
O O5 0.595699 0.567436 0.591845
O O6 0.714532 0.532720 0.368939
O O7 0.847123 0.854675 0.305831
O O8 0.999238 0.111475 0.554512
O O9 0.926311 0.278509 0.914143
O O10 0.278800 0.874013 0.052986
O O11 0.270988 0.652999 0.771158
O O12 0.256982 0.481047 0.240984
O O13 0.412187 0.692544 0.437738
O O14 0.500000 0.000000 0.500000
O O15 0.667522 0.050724 0.202111
O O16 0.000000 0.000000 0.000000
O O17 0.519536 0.658495 0.899354
#
# Coordination Sequence:
#
# PCOD8021005 Si02
#       8
#     2   2   2   2   2   2   2   2
#     4  10  18  32  52  81 112 142 187 231 287 325
#     4  10  18  31  51  76 107 143 187 230 280 327
#     4  10  18  29  47  79 118 144 167 229 296 334
#     4  11  21  33  55  83 113 142 188 243 281 332
#     4  11  23  37  55  80 116 154 189 232 280 341
#     4  10  19  30  47  83 120 137 175 226 300 336
#     4  10  18  30  55  85 109 140 183 249 284 321
#     4  10  17  28  49  80 108 134 180 235 284 319
#
# _framework density 20.215472999999999
#
# number of rings (size 3 to 8) (size 9 to 14) (size 15 to 20)
#    0.000    1.750    6.250    1.500    3.500    0.000 
#    0.000    0.625    0.000    3.000    0.000    4.375 
#    0.000    0.000    0.000    0.000    0.000    0.000 
#
# Total GULP energy -198211.560888 kJ/mol
# GULP energy per Si atom -12388.222556 kJ/mol
# Density = 2.016946 g / cm^3
# Si number density = 20.215473 Si / 1000 Ang^3
#
#
#
# Elastic Constant Matrix: (Units=GPa)
#
#
# Indices 1 2 3 4 5 6 
#
# 1 69.5068 40.3559 42.8943 8.8397 -16.8488 -34.2712
# 2 40.3559 77.7302 46.0266 -20.2892 2.6308 -31.5810
# 3 42.8943 46.0266 124.1195 -28.9162 -11.6558 -10.8043
# 4 8.8397 -20.2892 -28.9162 38.1013 0.1246 -3.4242
# 5 -16.8488 2.6308 -11.6558 0.1246 31.0948 0.3307
# 6 -34.2712 -31.5810 -10.8043 -3.4242 0.3307 30.1765
#
#
#
# Elastic Compliance Matrix: (Units=1/GPa)
#
#
# Indices 1 2 3 4 5 6 
#
# 1 0.085415 -0.013220 -0.024084 -0.038994 0.037788 0.069708
# 2 -0.013220 0.040207 -0.003230 0.024658 -0.012181 0.028839
# 3 -0.024084 -0.003230 0.018932 0.016272 -0.005511 -0.022047
# 4 -0.038994 0.024658 0.016272 0.060324 -0.017297 -0.005618
# 5 0.037788 -0.012181 -0.005511 -0.017297 0.051396 0.025668
# 6 0.069708 0.028839 -0.022047 -0.005618 0.025668 0.133675
#
#
# Mechanical properties :
#
#
# Convention : Reuss Voigt Hill
#
# Bulk Modulus (GPa) = 15.75153 58.87892 37.31522
# Shear Modulus (GPa) = 10.15888 29.34647 19.75268
#
# Velocity S-wave (km/s) = 2.24415 3.81423 3.12926
# Velocity P-wave (km/s) = 3.81099 6.97042 5.61740
#
# Compressibility (1/GPa) = 0.06348591
#
# Stress axis : x y z
#
# Youngs Moduli (GPa) = 11.70751 24.87132 52.82080
#
# Poissons Ratio (x) = 0.32881 1.27213
# Poissons Ratio (y) = 0.15478 0.17060
# Poissons Ratio (z) = 0.28196 0.08033
#
# Static dielectric constant tensor:
#      x y z
#    x 3.567280 -0.669510 -0.278140 
#    y -0.669510 4.072320 -0.507630 
#    z -0.278140 -0.507630 3.634910 
# 
# 
# High freq. dielectric constant tensor:
#      x y z
#    x 1.761640 -0.048960 -0.038370 
#    y -0.048960 1.778090 -0.049090 
#    z -0.038370 -0.049090 1.771090 
# 
# From -- ./inp_files/345508.got.cif
#   From: 2010.06.25/outbox.cif.g09.slc.cpg/sg2_173_cif.got.tgz:345508.got - 2010.06.27 13:26:56.
