data_PCOD8021840
_publ_section_title
;
Structure prediction by ZEFSAII (Michael W. Deem and Ramdas Pophale) SiO2 
 PCOD8021840
Probable space group: P -1
;
_chemical_formula_sum "Si O2"
_cell_formula_units_Z 16
_cell_length_a 19.961798
_cell_length_b 11.578982
_cell_length_c 5.259168
_cell_angle_alpha 106.493579
_cell_angle_beta 73.076621
_cell_angle_gamma 147.511692
_cell_volume 622.907793
_symmetry_space_group_name_H-M "P -1"
_symmetry_group_IT_number 2
_symmetry_cell_setting 'triclinic'
loop_
_space_group_symop_operation_xyz
x,y,z
-x,-y,-z
loop_
_atom_site_type_symbol
_atom_site_label
_atom_site_fract_x
_atom_site_fract_y
_atom_site_fract_z
Si Si1 0.516254 0.220075 0.685937
Si Si2 0.305018 0.073108 0.592773
Si Si3 0.991545 0.909616 0.706225
Si Si4 0.823800 0.980236 0.675902
Si Si5 0.051512 0.680536 0.887632
Si Si6 0.172001 0.531808 0.268645
Si Si7 0.621128 0.599033 0.999288
Si Si8 0.327187 0.756097 0.716309
O O1 0.430361 0.175563 0.557951
O O2 0.618102 0.297289 0.447613
O O3 0.438708 0.010835 0.801290
O O4 0.580883 0.400619 0.939112
O O5 0.255647 0.012343 0.317934
O O6 0.325928 0.248371 0.726881
O O7 0.192544 0.854484 0.744699
O O8 0.862642 0.651559 0.711996
O O9 0.109172 0.985794 0.618831
O O10 0.000000 0.000000 0.500000
O O11 0.000000 0.000000 0.000000
O O12 0.729424 0.751405 0.762755
O O13 0.936307 0.181990 0.865839
O O14 0.952798 0.565273 0.696837
O O15 0.000000 0.500000 0.000000
O O16 0.250838 0.699783 0.520348
O O17 0.247761 0.633913 0.984629
O O18 0.500000 0.500000 0.000000
#
# Coordination Sequence:
#
# PCOD8021840 Si02
#       8
#     2   2   2   2   2   2   2   2
#     4  10  24  47  71 103 147 195 261 304 380 440
#     4  10  22  44  69 106 143 190 242 313 370 452
#     4  12  27  45  74 107 149 198 245 309 381 453
#     4  11  24  43  69 110 147 187 257 308 386 456
#     4  11  24  43  73 107 149 197 240 312 383 457
#     4  12  26  49  74 110 153 189 258 305 378 452
#     4   9  22  44  66 101 139 189 246 309 372 440
#     4  11  27  49  73 110 146 204 250 316 368 460
#
# _framework density 25.685986
#
# number of rings (size 3 to 8) (size 9 to 14) (size 15 to 20)
#    0.000    1.250    1.250    3.000    7.000    4.500 
#    9.000    0.000    0.000    0.000    0.000    0.000 
#    0.000    0.000    0.000    0.000    0.000    0.000 
#
# Total GULP energy -198257.767405 kJ/mol
# GULP energy per Si atom -12391.110463 kJ/mol
# Density = 2.562752 g / cm^3
# Si number density = 25.685986 Si / 1000 Ang^3
#
#
#
# Elastic Constant Matrix: (Units=GPa)
#
#
# Indices 1 2 3 4 5 6 
#
# 1 100.3851 34.1123 23.5656 5.8480 3.9817 2.4715
# 2 34.1123 155.9879 45.6339 2.2330 -3.3649 -17.5880
# 3 23.5656 45.6339 103.3326 -15.1400 7.2408 -0.9053
# 4 5.8480 2.2330 -15.1400 27.3524 -3.4510 -1.2229
# 5 3.9817 -3.3649 7.2408 -3.4510 42.7906 -0.2834
# 6 2.4715 -17.5880 -0.9053 -1.2229 -0.2834 45.4165
#
#
#
# Elastic Compliance Matrix: (Units=1/GPa)
#
#
# Indices 1 2 3 4 5 6 
#
# 1 0.011463 -0.002009 -0.002205 -0.003723 -0.001162 -0.001553
# 2 -0.002009 0.008307 -0.003554 -0.001907 0.001309 0.003212
# 3 -0.002205 -0.003554 0.012988 0.007706 -0.001656 -0.000800
# 4 -0.003723 -0.001907 0.007706 0.042100 0.002293 0.000766
# 5 -0.001162 0.001309 -0.001656 0.002293 0.024051 0.000749
# 6 -0.001553 0.003212 -0.000800 0.000766 0.000749 0.023356
#
#
# Mechanical properties :
#
#
# Convention : Reuss Voigt Hill
#
# Bulk Modulus (GPa) = 58.05896 62.92548 60.49222
# Shear Modulus (GPa) = 34.83319 40.20480 37.51900
#
# Velocity S-wave (km/s) = 3.68654 3.96061 3.82603
# Velocity P-wave (km/s) = 6.38539 6.74288 6.56657
#
# Compressibility (1/GPa) = 0.01722387
#
# Stress axis : x y z
#
# Youngs Moduli (GPa) = 87.23684 120.37511 76.99585
#
# Poissons Ratio (x) = 0.24179 0.16976
# Poissons Ratio (y) = 0.17523 0.27361
# Poissons Ratio (z) = 0.19234 0.42777
#
# Static dielectric constant tensor:
#      x y z
#    x 4.782150 0.231250 -0.094730 
#    y 0.231250 5.411400 0.409750 
#    z -0.094730 0.409750 4.570880 
# 
# 
# High freq. dielectric constant tensor:
#      x y z
#    x 2.023840 0.005410 -0.004340 
#    y 0.005410 2.052090 0.003770 
#    z -0.004340 0.003770 2.012860 
# 
# From -- ./inp_files/118728.got.cif
#   From: 2010.06.25/outbox.cif.g09.slc.cpg/sg2_60_cif.got.tgz:118728.got - 2010.06.27 13:26:56.
