data_PCOD8021369
_publ_section_title
;
Structure prediction by ZEFSAII (Michael W. Deem and Ramdas Pophale) SiO2 
 PCOD8021369
Probable space group: P -1
;
_chemical_formula_sum "Si O2"
_cell_formula_units_Z 16
_cell_length_a 11.282712
_cell_length_b 9.393287
_cell_length_c 20.500805
_cell_angle_alpha 144.002192
_cell_angle_beta 135.330118
_cell_angle_gamma 71.391126
_cell_volume 704.270706
_symmetry_space_group_name_H-M "P -1"
_symmetry_group_IT_number 2
_symmetry_cell_setting 'triclinic'
loop_
_space_group_symop_operation_xyz
x,y,z
-x,-y,-z
loop_
_atom_site_type_symbol
_atom_site_label
_atom_site_fract_x
_atom_site_fract_y
_atom_site_fract_z
Si Si1 0.638653 0.297836 0.619514
Si Si2 0.390485 0.139788 0.644848
Si Si3 0.148075 0.318947 0.961071
Si Si4 0.515038 0.637419 0.625656
Si Si5 0.233806 0.501559 0.710048
Si Si6 0.359134 0.055050 0.881984
Si Si7 0.932181 0.267969 0.982075
Si Si8 0.260005 0.869273 0.627495
O O1 0.505857 0.420798 0.596341
O O2 0.500000 0.000000 0.500000
O O3 0.696055 0.193671 0.538644
O O4 0.858258 0.594163 0.843139
O O5 0.635686 0.395835 0.812259
O O6 0.249605 0.234700 0.595988
O O7 0.391404 0.133730 0.721992
O O8 0.089219 0.461424 0.935294
O O9 0.192675 0.093530 0.865130
O O10 0.958791 0.151201 0.879321
O O11 0.500000 0.500000 0.500000
O O12 0.317380 0.636899 0.563894
O O13 0.733401 0.989320 0.842021
O O14 0.987206 0.333972 0.567140
O O15 0.304003 0.734416 0.764195
O O16 0.392947 0.675192 0.899609
O O17 0.321744 0.041857 0.785102
#
# Coordination Sequence:
#
# PCOD8021369 Si02
#       8
#     2   2   2   2   2   2   2   2
#     4  12  26  43  74 103 138 189 235 300 357 421
#     4  11  23  47  65 104 143 177 239 294 351 429
#     4  10  22  43  71 101 141 182 237 286 359 421
#     4  12  27  48  67 104 145 183 238 293 358 422
#     4  10  25  45  68 103 140 185 236 293 353 421
#     4  10  25  44  71 103 139 186 237 294 355 430
#     4  11  24  44  73 103 143 188 235 296 358 423
#     4  12  25  45  70 100 143 185 232 293 356 422
#
# _framework density 22.718536
#
# number of rings (size 3 to 8) (size 9 to 14) (size 15 to 20)
#    0.000    1.000    3.750    1.125    7.000    4.000 
#    0.000    0.000    0.000    0.000    0.000    0.000 
#    0.000    0.000    0.000    0.000    0.000    0.000 
#
# Total GULP energy -198388.790397 kJ/mol
# GULP energy per Si atom -12399.299400 kJ/mol
# Density = 2.266683 g / cm^3
# Si number density = 22.718536 Si / 1000 Ang^3
#
#
#
# Elastic Constant Matrix: (Units=GPa)
#
#
# Indices 1 2 3 4 5 6 
#
# 1 96.0793 41.7885 19.2346 -8.5833 -2.7159 -18.5011
# 2 41.7885 147.8811 12.4822 -1.3677 1.8056 -25.0344
# 3 19.2346 12.4822 55.7670 -11.7282 6.1111 -4.2106
# 4 -8.5833 -1.3677 -11.7282 32.3421 -3.0136 4.6622
# 5 -2.7159 1.8056 6.1111 -3.0136 38.9955 -2.7263
# 6 -18.5011 -25.0344 -4.2106 4.6622 -2.7263 48.2955
#
#
#
# Elastic Compliance Matrix: (Units=1/GPa)
#
#
# Indices 1 2 3 4 5 6 
#
# 1 0.013203 -0.002905 -0.003492 0.001839 0.001966 0.003181
# 2 -0.002905 0.008178 -0.000808 -0.001203 -0.000327 0.003154
# 3 -0.003492 -0.000808 0.020954 0.006459 -0.003041 -0.000725
# 4 0.001839 -0.001203 0.006459 0.034221 0.001637 -0.002567
# 5 0.001966 -0.000327 -0.003041 0.001637 0.026515 0.001657
# 6 0.003181 0.003154 -0.000725 -0.002567 0.001657 0.023837
#
#
# Mechanical properties :
#
#
# Convention : Reuss Voigt Hill
#
# Bulk Modulus (GPa) = 35.80906 49.63756 42.72331
# Shear Modulus (GPa) = 33.19483 39.00810 36.10146
#
# Velocity S-wave (km/s) = 3.82663 4.14818 3.99065
# Velocity P-wave (km/s) = 5.94309 6.69624 6.33087
#
# Compressibility (1/GPa) = 0.02792590
#
# Stress axis : x y z
#
# Youngs Moduli (GPa) = 75.74065 122.28091 47.72392
#
# Poissons Ratio (x) = 0.35518 0.16666
# Poissons Ratio (y) = 0.22000 0.03855
# Poissons Ratio (z) = 0.26449 0.09876
#
# Static dielectric constant tensor:
#      x y z
#    x 4.144140 -0.173800 0.075790 
#    y -0.173800 4.353960 -0.011900 
#    z 0.075790 -0.011900 4.051650 
# 
# 
# High freq. dielectric constant tensor:
#      x y z
#    x 1.888750 -0.014140 0.005840 
#    y -0.014140 1.912870 -0.003510 
#    z 0.005840 -0.003510 1.889120 
# 
# From -- ./inp_files/594269.got.cif
#   From: 2010.06.25/outbox.cif.g09.slc.cpg/sg2_298_cif.got.tgz:594269.got - 2010.06.27 13:26:56.
