data_PCOD8021090
_publ_section_title
;
Structure prediction by ZEFSAII (Michael W. Deem and Ramdas Pophale) SiO2 
 PCOD8021090
Probable space group: P -1
;
_chemical_formula_sum "Si O2"
_cell_formula_units_Z 14
_cell_length_a 11.933448
_cell_length_b 8.804091
_cell_length_c 14.209733
_cell_angle_alpha 49.407370
_cell_angle_beta 152.163770
_cell_angle_gamma 128.373365
_cell_volume 524.998997
_symmetry_space_group_name_H-M "P -1"
_symmetry_group_IT_number 2
_symmetry_cell_setting 'triclinic'
loop_
_space_group_symop_operation_xyz
x,y,z
-x,-y,-z
loop_
_atom_site_type_symbol
_atom_site_label
_atom_site_fract_x
_atom_site_fract_y
_atom_site_fract_z
Si Si1 0.280074 0.128828 0.454214
Si Si2 0.612739 0.242298 0.110516
Si Si3 0.291519 0.202339 0.641148
Si Si4 0.079176 0.262897 0.642845
Si Si5 0.991236 0.596037 0.273390
Si Si6 0.533800 0.598279 0.674801
Si Si7 0.613260 0.826033 0.836627
O O1 0.221141 0.225847 0.470559
O O2 0.275903 0.295986 0.302143
O O3 0.550121 0.054280 0.684542
O O4 0.081658 0.939814 0.360294
O O5 0.802513 0.431718 0.143499
O O6 0.580472 0.266409 0.190139
O O7 0.697548 0.028178 0.231816
O O8 0.362290 0.243978 0.869513
O O9 0.072094 0.282390 0.512011
O O10 0.542301 0.354652 0.784759
O O11 0.011830 0.430861 0.601575
O O12 0.260689 0.609783 0.428280
O O13 0.883743 0.808834 0.083591
O O14 0.564954 0.704311 0.754389
#
# Coordination Sequence:
#
# PCOD8021090 Si02
#       7
#     2   2   2   2   2   2   2
#     4  11  25  44  65 100 132 174 220 264 329 389
#     4  10  23  43  65 103 129 167 226 270 322 388
#     4  11  25  43  66  93 133 180 218 265 324 384
#     4  11  22  43  71  96 132 168 219 280 321 384
#     4  11  24  41  70 103 129 167 220 272 329 385
#     4  12  25  44  68  95 138 173 215 269 323 396
#     4  10  22  43  67  96 131 168 218 269 325 384
#
# _framework density 26.666716999999998
#
# number of rings (size 3 to 8) (size 9 to 14) (size 15 to 20)
#    0.000    1.143    1.429    5.143    6.000    1.714 
#    5.143    0.714    0.000    0.000    0.000    0.000 
#    0.000    0.000    0.000    0.000    0.000    0.000 
#
# Total GULP energy -173496.042354 kJ/mol
# GULP energy per Si atom -12392.574454 kJ/mol
# Density = 2.660602 g / cm^3
# Si number density = 26.666717 Si / 1000 Ang^3
#
#
#
# Elastic Constant Matrix: (Units=GPa)
#
#
# Indices 1 2 3 4 5 6 
#
# 1 124.3765 72.9675 23.5156 5.9839 -3.2267 -20.9310
# 2 72.9675 119.0183 6.6482 6.2247 -5.0875 -17.4950
# 3 23.5156 6.6482 62.0098 2.9413 6.0131 -10.4829
# 4 5.9839 6.2247 2.9413 30.8354 0.6996 5.5239
# 5 -3.2267 -5.0875 6.0131 0.6996 24.8259 -0.1131
# 6 -20.9310 -17.4950 -10.4829 5.5239 -0.1131 56.6756
#
#
#
# Elastic Compliance Matrix: (Units=1/GPa)
#
#
# Indices 1 2 3 4 5 6 
#
# 1 0.013859 -0.007855 -0.004136 -0.001102 0.001234 0.002038
# 2 -0.007855 0.013529 0.001777 -0.001725 0.001378 0.001775
# 3 -0.004136 0.001777 0.018467 -0.001678 -0.004587 0.002591
# 4 -0.001102 -0.001725 -0.001678 0.033994 -0.001069 -0.004565
# 5 0.001234 0.001378 -0.004587 -0.001069 0.041865 0.000220
# 6 0.002038 0.001775 0.002591 -0.004565 0.000220 0.019869
#
#
# Mechanical properties :
#
#
# Convention : Reuss Voigt Hill
#
# Bulk Modulus (GPa) = 39.33173 56.85191 48.09182
# Shear Modulus (GPa) = 29.32754 35.95227 32.63991
#
# Velocity S-wave (km/s) = 3.31989 3.67578 3.50236
# Velocity P-wave (km/s) = 5.42927 6.27542 5.86761
#
# Compressibility (1/GPa) = 0.02542476
#
# Stress axis : x y z
#
# Youngs Moduli (GPa) = 72.15711 73.91635 54.15092
#
# Poissons Ratio (x) = 0.58064 0.22397
# Poissons Ratio (y) = 0.56683 -0.09621
# Poissons Ratio (z) = 0.29845 -0.13133
#
# Static dielectric constant tensor:
#      x y z
#    x 4.760730 -0.247990 -0.100220 
#    y -0.247990 5.055380 -0.240920 
#    z -0.100220 -0.240920 5.129960 
# 
# 
# High freq. dielectric constant tensor:
#      x y z
#    x 2.067360 -0.023870 -0.015270 
#    y -0.023870 2.082990 -0.005840 
#    z -0.015270 -0.005840 2.067350 
# 
# From -- ./inp_files/514152.got.cif
#   From: 2010.06.25/outbox.cif.g09.slc.cpg/sg2_258_cif.got.tgz:514152.got - 2010.06.27 13:26:56.
