data_PCOD8021324
_publ_section_title
;
Structure prediction by ZEFSAII (Michael W. Deem and Ramdas Pophale) SiO2 
 PCOD8021324
Probable space group: P -1
;
_chemical_formula_sum "Si O2"
_cell_formula_units_Z 16
_cell_length_a 9.194472
_cell_length_b 9.381242
_cell_length_c 15.571537
_cell_angle_alpha 142.584735
_cell_angle_beta 95.198770
_cell_angle_gamma 69.914556
_cell_volume 726.341117
_symmetry_space_group_name_H-M "P -1"
_symmetry_group_IT_number 2
_symmetry_cell_setting 'triclinic'
loop_
_space_group_symop_operation_xyz
x,y,z
-x,-y,-z
loop_
_atom_site_type_symbol
_atom_site_label
_atom_site_fract_x
_atom_site_fract_y
_atom_site_fract_z
Si Si1 0.654136 0.311914 0.861349
Si Si2 0.324344 0.562202 0.479641
Si Si3 0.206924 0.149746 0.224014
Si Si4 0.842848 0.983082 0.019341
Si Si5 0.647454 0.944510 0.541679
Si Si6 0.082129 0.516565 0.099029
Si Si7 0.169941 0.617455 0.664297
Si Si8 0.135679 0.028347 0.573960
O O1 0.750165 0.468403 0.905990
O O2 0.770961 0.073200 0.813258
O O3 0.603282 0.197440 0.720499
O O4 0.500000 0.500000 0.000000
O O5 0.500000 0.500000 0.500000
O O6 0.316667 0.296585 0.321466
O O7 0.181718 0.713379 0.614662
O O8 0.278820 0.757324 0.489266
O O9 0.012387 0.343809 0.306298
O O10 0.263964 0.019745 0.070068
O O11 0.757992 0.240308 0.197727
O O12 0.881694 0.730190 0.957483
O O13 0.000000 0.000000 0.000000
O O14 0.700034 0.688348 0.480627
O O15 0.793774 0.858601 0.441485
O O16 0.500000 0.000000 0.500000
O O17 0.946217 0.772017 0.258534
O O18 0.000000 0.500000 0.000000
O O19 0.000000 0.000000 0.500000
#
# Coordination Sequence:
#
# PCOD8021324 Si02
#       8
#     2   2   2   2   2   2   2   2
#     4  12  29  48  69 105 152 194 235 295 377 436
#     4  12  25  42  66 104 145 182 234 297 365 427
#     4  11  24  45  73 100 139 192 241 290 355 436
#     4  10  22  43  70 107 137 175 236 303 356 415
#     4  12  27  46  73 105 146 190 237 304 373 429
#     4  12  25  45  75 109 143 189 243 301 361 434
#     4  11  23  46  74  99 134 187 243 288 354 433
#     4  12  24  44  74 106 140 183 252 307 351 431
#
# _framework density 22.028217000000001
#
# number of rings (size 3 to 8) (size 9 to 14) (size 15 to 20)
#    0.000    0.500    2.500    7.125    3.500    1.000 
#    0.000    1.250    0.000    0.000    0.000    0.000 
#    0.000    0.000    0.000    0.000    0.000    0.000 
#
# Total GULP energy -198345.621052 kJ/mol
# GULP energy per Si atom -12396.601316 kJ/mol
# Density = 2.197808 g / cm^3
# Si number density = 22.028217 Si / 1000 Ang^3
#
#
#
# Elastic Constant Matrix: (Units=GPa)
#
#
# Indices 1 2 3 4 5 6 
#
# 1 108.1441 42.6045 64.4314 -1.4812 16.7698 -3.4705
# 2 42.6045 121.4916 41.1405 -5.6409 16.3301 4.8806
# 3 64.4314 41.1405 163.4302 -23.9103 17.8001 2.0127
# 4 -1.4812 -5.6409 -23.9103 47.7700 -3.4026 4.5835
# 5 16.7698 16.3301 17.8001 -3.4026 41.8378 -6.1308
# 6 -3.4705 4.8806 2.0127 4.5835 -6.1308 42.6346
#
#
#
# Elastic Compliance Matrix: (Units=1/GPa)
#
#
# Indices 1 2 3 4 5 6 
#
# 1 0.013664 -0.003063 -0.004782 -0.002648 -0.002220 0.001654
# 2 -0.003063 0.010061 -0.000940 0.000615 -0.002511 -0.001784
# 3 -0.004782 -0.000940 0.009040 0.004297 -0.001415 -0.001374
# 4 -0.002648 0.000615 0.004297 0.023390 0.000465 -0.002936
# 5 -0.002220 -0.002511 -0.001415 0.000465 0.026998 0.004006
# 6 0.001654 -0.001784 -0.001374 -0.002936 0.004006 0.024751
#
#
# Mechanical properties :
#
#
# Convention : Reuss Voigt Hill
#
# Bulk Modulus (GPa) = 65.80852 76.60208 71.20530
# Shear Modulus (GPa) = 38.30302 42.77447 40.53874
#
# Velocity S-wave (km/s) = 4.17444 4.41137 4.29454
# Velocity P-wave (km/s) = 7.29205 7.79724 7.54887
#
# Compressibility (1/GPa) = 0.01519560
#
# Stress axis : x y z
#
# Youngs Moduli (GPa) = 73.18653 99.39214 110.61801
#
# Poissons Ratio (x) = 0.30448 0.52895
# Poissons Ratio (y) = 0.22420 0.10393
# Poissons Ratio (z) = 0.34996 0.09338
#
# Static dielectric constant tensor:
#      x y z
#    x 3.712300 0.027200 0.199900 
#    y 0.027200 3.917820 -0.329010 
#    z 0.199900 -0.329010 4.361190 
# 
# 
# High freq. dielectric constant tensor:
#      x y z
#    x 1.857530 0.013340 0.011390 
#    y 0.013340 1.885020 -0.016810 
#    z 0.011390 -0.016810 1.882660 
# 
# From -- ./inp_files/495876.got.cif
#   From: 2010.06.25/outbox.cif.g09.slc.cpg/sg2_248_cif.got.tgz:495876.got - 2010.06.27 13:26:56.
