data_PCOD8021300
_publ_section_title
;
Structure prediction by ZEFSAII (Michael W. Deem and Ramdas Pophale) SiO2 
 PCOD8021300
Probable space group: P -1
;
_chemical_formula_sum "Si O2"
_cell_formula_units_Z 14
_cell_length_a 8.543967
_cell_length_b 16.610545
_cell_length_c 4.864022
_cell_angle_alpha 101.095484
_cell_angle_beta 112.161455
_cell_angle_gamma 64.156263
_cell_volume 575.041149
_symmetry_space_group_name_H-M "P -1"
_symmetry_group_IT_number 2
_symmetry_cell_setting 'triclinic'
loop_
_space_group_symop_operation_xyz
x,y,z
-x,-y,-z
loop_
_atom_site_type_symbol
_atom_site_label
_atom_site_fract_x
_atom_site_fract_y
_atom_site_fract_z
Si Si1 0.246762 0.710975 0.225718
Si Si2 0.566339 0.252730 0.128153
Si Si3 0.491064 0.913808 0.090114
Si Si4 0.153831 0.028888 0.232840
Si Si5 0.921662 0.415884 0.171244
Si Si6 0.119839 0.138642 0.774304
Si Si7 0.831126 0.613822 0.197672
O O1 0.404953 0.695249 0.550310
O O2 0.057755 0.770146 0.296470
O O3 0.279943 0.760514 0.012729
O O4 0.231005 0.620222 0.053780
O O5 0.584697 0.152776 0.163328
O O6 0.372269 0.309089 0.890157
O O7 0.705452 0.849512 0.247637
O O8 0.361194 0.949605 0.298129
O O9 0.500000 0.000000 0.000000
O O10 0.098203 0.059623 0.528837
O O11 0.156650 0.109376 0.096482
O O12 0.000000 0.000000 0.000000
O O13 0.027601 0.367515 0.488093
O O14 0.812919 0.521938 0.215978
O O15 0.087532 0.394996 0.056110
#
# Coordination Sequence:
#
# PCOD8021300 Si02
#       7
#     2   2   2   2   2   2   2
#     4  12  25  41  64  98 136 173 215 274 333 391
#     4  12  26  42  65  98 134 172 223 275 334 389
#     4  10  24  43  65  91 125 173 225 275 327 391
#     4  11  22  39  61  86 119 157 208 271 327 377
#     4  10  22  43  70 100 134 175 219 263 328 393
#     4  11  23  39  60  85 119 164 212 259 319 385
#     4  10  22  43  71 100 133 175 221 267 317 401
#
# _framework density 24.346080000000001
#
# number of rings (size 3 to 8) (size 9 to 14) (size 15 to 20)
#    0.000    1.143    0.000    6.000    0.000    8.000 
#    0.000    0.000    0.000    0.000    0.000    0.000 
#    0.000    0.000    0.000    0.000    0.000    0.000 
#
# Total GULP energy -173482.976161 kJ/mol
# GULP energy per Si atom -12391.641154 kJ/mol
# Density = 2.429067 g / cm^3
# Si number density = 24.346080 Si / 1000 Ang^3
#
#
#
# Elastic Constant Matrix: (Units=GPa)
#
#
# Indices 1 2 3 4 5 6 
#
# 1 83.7489 40.7039 18.6608 3.2661 5.3763 -0.2531
# 2 40.7039 97.6750 43.2002 17.4342 14.3795 10.4636
# 3 18.6608 43.2002 137.4666 18.3709 9.0512 14.0571
# 4 3.2661 17.4342 18.3709 34.7645 4.0137 6.8969
# 5 5.3763 14.3795 9.0512 4.0137 39.8512 7.5157
# 6 -0.2531 10.4636 14.0571 6.8969 7.5157 31.6814
#
#
#
# Elastic Compliance Matrix: (Units=1/GPa)
#
#
# Indices 1 2 3 4 5 6 
#
# 1 0.015229 -0.006686 -0.000410 0.001724 -0.000131 0.002167
# 2 -0.006686 0.015953 -0.003007 -0.004984 -0.003268 -0.002128
# 3 -0.000410 -0.003007 0.008881 -0.002665 -0.000169 -0.002330
# 4 0.001724 -0.004984 -0.002665 0.033415 -0.000375 -0.004343
# 5 -0.000131 -0.003268 -0.000169 -0.000375 0.027358 -0.005255
# 6 0.002167 -0.002128 -0.002330 -0.004343 -0.005255 0.035510
#
#
# Mechanical properties :
#
#
# Convention : Reuss Voigt Hill
#
# Bulk Modulus (GPa) = 50.35818 58.22447 54.29133
# Shear Modulus (GPa) = 30.64305 35.68111 33.16208
#
# Velocity S-wave (km/s) = 3.55159 3.83244 3.69468
# Velocity P-wave (km/s) = 6.12761 6.59930 6.36782
#
# Compressibility (1/GPa) = 0.01985775
#
# Stress axis : x y z
#
# Youngs Moduli (GPa) = 65.66470 62.68547 112.60537
#
# Poissons Ratio (x) = 0.41909 0.04612
# Poissons Ratio (y) = 0.43901 0.33860
# Poissons Ratio (z) = 0.02690 0.18849
#
# Static dielectric constant tensor:
#      x y z
#    x 4.796430 -0.048880 0.067530 
#    y -0.048880 4.283290 0.152280 
#    z 0.067530 0.152280 4.485290 
# 
# 
# High freq. dielectric constant tensor:
#      x y z
#    x 1.977910 -0.000290 0.004030 
#    y -0.000290 1.949810 0.012600 
#    z 0.004030 0.012600 1.967500 
# 
# From -- ./inp_files/40076.got.cif
#   From: 2010.06.25/outbox.cif.g09.slc.cpg/sg2_21_cif.got.tgz:40076.got - 2010.06.27 13:26:56.
