data_PCOD8021081
_publ_section_title
;
Structure prediction by ZEFSAII (Michael W. Deem and Ramdas Pophale) SiO2 
 PCOD8021081
Probable space group: P -1
;
_chemical_formula_sum "Si O2"
_cell_formula_units_Z 14
_cell_length_a 14.526109
_cell_length_b 6.919583
_cell_length_c 12.082067
_cell_angle_alpha 48.511725
_cell_angle_beta 135.481749
_cell_angle_gamma 115.258857
_cell_volume 635.420474
_symmetry_space_group_name_H-M "P -1"
_symmetry_group_IT_number 2
_symmetry_cell_setting 'triclinic'
loop_
_space_group_symop_operation_xyz
x,y,z
-x,-y,-z
loop_
_atom_site_type_symbol
_atom_site_label
_atom_site_fract_x
_atom_site_fract_y
_atom_site_fract_z
Si Si1 0.800121 0.458745 0.363047
Si Si2 0.968502 0.498305 0.300209
Si Si3 0.466207 0.188904 0.214603
Si Si4 0.275094 0.057302 0.401468
Si Si5 0.094683 0.474556 0.195399
Si Si6 0.522903 0.741037 0.046343
Si Si7 0.192973 0.028870 0.098222
O O1 0.838225 0.404371 0.285924
O O2 0.678150 0.671697 0.188495
O O3 0.917770 0.574686 0.486249
O O4 0.779964 0.201319 0.507322
O O5 0.011870 0.368806 0.268425
O O6 0.931560 0.804218 0.126401
O O7 0.457186 0.489859 0.137546
O O8 0.327056 0.067618 0.131707
O O9 0.565289 0.992042 0.446260
O O10 0.536275 0.198998 0.149697
O O11 0.223612 0.282978 0.355293
O O12 0.219370 0.132186 0.204420
O O13 0.156478 0.737657 0.179946
O O14 0.000000 0.500000 0.000000
O O15 0.500000 0.000000 0.000000
#
# Coordination Sequence:
#
# PCOD8021081 Si02
#       7
#     2   2   2   2   2   2   2
#     4  10  22  43  67  95 131 175 213 277 333 382
#     4  11  22  42  67  92 133 175 217 271 331 384
#     4  10  24  42  66  98 131 177 214 275 332 389
#     4  11  24  42  67  97 132 175 222 270 333 393
#     4  12  25  41  69 100 131 180 223 270 332 396
#     4  10  22  43  68  96 134 167 220 274 333 391
#     4  12  23  45  66  94 142 172 217 279 329 393
#
# _framework density 22.032655999999999
#
# number of rings (size 3 to 8) (size 9 to 14) (size 15 to 20)
#    0.000    1.143    4.286    1.714    2.000    2.286 
#    0.000    0.000    0.000    0.000    0.000    0.000 
#    0.000    0.000    0.000    0.000    0.000    0.000 
#
# Total GULP energy -173498.015587 kJ/mol
# GULP energy per Si atom -12392.715399 kJ/mol
# Density = 2.198251 g / cm^3
# Si number density = 22.032656 Si / 1000 Ang^3
#
#
#
# Elastic Constant Matrix: (Units=GPa)
#
#
# Indices 1 2 3 4 5 6 
#
# 1 112.7133 26.2499 24.7442 1.8156 -0.6029 -7.9012
# 2 26.2499 60.6326 6.5996 2.4318 16.4829 -13.1676
# 3 24.7442 6.5996 78.3639 9.2974 10.5438 -6.7404
# 4 1.8156 2.4318 9.2974 29.3001 -6.2083 2.9698
# 5 -0.6029 16.4829 10.5438 -6.2083 34.6265 5.8276
# 6 -7.9012 -13.1676 -6.7404 2.9698 5.8276 31.0207
#
#
#
# Elastic Compliance Matrix: (Units=1/GPa)
#
#
# Indices 1 2 3 4 5 6 
#
# 1 0.011098 -0.006297 -0.004136 0.002452 0.005220 -0.001960
# 2 -0.006297 0.027558 0.004590 -0.008912 -0.018829 0.015481
# 3 -0.004136 0.004590 0.016622 -0.008246 -0.010005 0.007176
# 4 0.002452 -0.008912 -0.008246 0.042021 0.016357 -0.012046
# 5 0.005220 -0.018829 -0.010005 0.016357 0.047154 -0.019261
# 6 -0.001960 0.015481 0.007176 -0.012046 -0.019261 0.044639
#
#
# Mechanical properties :
#
#
# Convention : Reuss Voigt Hill
#
# Bulk Modulus (GPa) = 22.94054 40.76636 31.85345
# Shear Modulus (GPa) = 23.22251 31.93053 27.57652
#
# Velocity S-wave (km/s) = 3.25007 3.81101 3.54166
# Velocity P-wave (km/s) = 4.95162 6.15694 5.58688
#
# Compressibility (1/GPa) = 0.04359095
#
# Stress axis : x y z
#
# Youngs Moduli (GPa) = 90.10959 36.28758 60.16131
#
# Poissons Ratio (x) = 0.22852 0.24881
# Poissons Ratio (y) = 0.56746 -0.27614
# Poissons Ratio (z) = 0.37267 -0.16656
#
# Static dielectric constant tensor:
#      x y z
#    x 4.381520 0.038400 0.099030 
#    y 0.038400 3.718670 0.159980 
#    z 0.099030 0.159980 4.449230 
# 
# 
# High freq. dielectric constant tensor:
#      x y z
#    x 1.879080 0.001620 0.001120 
#    y 0.001620 1.830000 0.009260 
#    z 0.001120 0.009260 1.887910 
# 
# From -- ./inp_files/27026.got.cif
#   From: 2010.06.25/outbox.cif.g09.slc.cpg/sg2_14_cif.got.tgz:27026.got - 2010.06.27 13:26:56.
