data_PCOD8021143
_publ_section_title
;
Structure prediction by ZEFSAII (Michael W. Deem and Ramdas Pophale) SiO2 
 PCOD8021143
Probable space group: P -1
;
_chemical_formula_sum "Si O2"
_cell_formula_units_Z 16
_cell_length_a 8.656641
_cell_length_b 22.245942
_cell_length_c 12.637107
_cell_angle_alpha 161.381388
_cell_angle_beta 101.027702
_cell_angle_gamma 79.155921
_cell_volume 762.436401
_symmetry_space_group_name_H-M "P -1"
_symmetry_group_IT_number 2
_symmetry_cell_setting 'triclinic'
loop_
_space_group_symop_operation_xyz
x,y,z
-x,-y,-z
loop_
_atom_site_type_symbol
_atom_site_label
_atom_site_fract_x
_atom_site_fract_y
_atom_site_fract_z
Si Si1 0.777658 0.465821 0.620769
Si Si2 0.312351 0.367449 0.677883
Si Si3 0.031367 0.788085 0.185057
Si Si4 0.172230 0.572321 0.663490
Si Si5 0.515987 0.031747 0.178360
Si Si6 0.452044 0.379257 0.486608
Si Si7 0.808654 0.252344 0.635033
Si Si8 0.021679 0.781874 0.613447
O O1 0.774426 0.354782 0.322729
O O2 0.596249 0.519275 0.716061
O O3 0.839783 0.315299 0.463340
O O4 0.876386 0.658376 0.947658
O O5 0.391374 0.196725 0.472715
O O6 0.411797 0.399163 0.638151
O O7 0.135851 0.319553 0.541799
O O8 0.301132 0.557158 0.062826
O O9 0.105962 0.777643 0.292842
O O10 0.000000 0.000000 0.500000
O O11 0.162599 0.723493 0.008585
O O12 0.298957 0.415317 0.455193
O O13 0.000000 0.500000 0.500000
O O14 0.694737 0.081354 0.311999
O O15 0.500000 0.000000 0.000000
O O16 0.484601 0.829578 0.888680
O O17 0.942310 0.254945 0.566788
O O18 0.000000 0.000000 0.000000
#
# Coordination Sequence:
#
# PCOD8021143 Si02
#       8
#     2   2   2   2   2   2   2   2
#     4  11  24  43  69  99 137 177 226 289 331 413
#     4  11  21  42  62 100 137 178 219 280 347 405
#     4  11  26  46  69 100 133 183 233 281 348 400
#     4  10  22  43  68  92 130 182 230 275 329 402
#     4  10  23  39  65  96 135 179 221 274 342 415
#     4  11  21  43  67  99 134 176 231 276 345 404
#     4  12  24  43  68  97 141 178 228 292 341 406
#     4  12  24  41  69 101 135 178 233 276 346 412
#
# _framework density 20.985355999999999
#
# number of rings (size 3 to 8) (size 9 to 14) (size 15 to 20)
#    0.000    1.000    2.500    5.625    5.250    0.000 
#    0.000    0.625    0.000    0.000    0.000    0.000 
#    0.000    0.000    0.000    0.000    0.000    0.000 
#
# Total GULP energy -198327.254124 kJ/mol
# GULP energy per Si atom -12395.453383 kJ/mol
# Density = 2.093759 g / cm^3
# Si number density = 20.985356 Si / 1000 Ang^3
#
#
#
# Elastic Constant Matrix: (Units=GPa)
#
#
# Indices 1 2 3 4 5 6 
#
# 1 134.2706 49.0152 45.3576 -5.7976 -1.7216 2.0564
# 2 49.0152 132.9344 57.4311 -8.9941 -16.5938 -1.0178
# 3 45.3576 57.4311 119.0469 5.2426 -9.3701 4.6734
# 4 -5.7976 -8.9941 5.2426 36.2263 -2.8592 -10.8523
# 5 -1.7216 -16.5938 -9.3701 -2.8592 37.6551 -3.3087
# 6 2.0564 -1.0178 4.6734 -10.8523 -3.3087 40.1929
#
#
#
# Elastic Compliance Matrix: (Units=1/GPa)
#
#
# Indices 1 2 3 4 5 6 
#
# 1 0.009194 -0.002380 -0.002496 0.001141 -0.001165 -0.000028
# 2 -0.002380 0.011117 -0.004396 0.004053 0.004211 0.002356
# 3 -0.002496 -0.004396 0.011764 -0.003873 0.000374 -0.002366
# 4 0.001141 0.004053 -0.003873 0.032571 0.004194 0.009634
# 5 -0.001165 0.004211 0.000374 0.004194 0.029092 0.003650
# 6 -0.000028 0.002356 -0.002366 0.009634 0.003650 0.028118
#
#
# Mechanical properties :
#
#
# Convention : Reuss Voigt Hill
#
# Bulk Modulus (GPa) = 73.89674 76.65109 75.27391
# Shear Modulus (GPa) = 34.50391 38.44473 36.47432
#
# Velocity S-wave (km/s) = 4.05926 4.28481 4.17356
# Velocity P-wave (km/s) = 7.56704 7.81567 7.69236
#
# Compressibility (1/GPa) = 0.01353240
#
# Stress axis : x y z
#
# Youngs Moduli (GPa) = 108.76146 89.95018 85.00204
#
# Poissons Ratio (x) = 0.21412 0.21213
# Poissons Ratio (y) = 0.25890 0.37365
# Poissons Ratio (z) = 0.27143 0.39540
#
# Static dielectric constant tensor:
#      x y z
#    x 4.054160 -0.002140 -0.226530 
#    y -0.002140 3.975320 0.018020 
#    z -0.226530 0.018020 4.111030 
# 
# 
# High freq. dielectric constant tensor:
#      x y z
#    x 1.832290 -0.007750 -0.004060 
#    y -0.007750 1.822780 -0.004770 
#    z -0.004060 -0.004770 1.816740 
# 
# From -- ./inp_files/184313.got.cif
#   From: 2010.06.25/outbox.cif.g09.slc.cpg/sg2_93_cif.got.tgz:184313.got - 2010.06.27 13:26:56.
