data_PCOD8021877
_publ_section_title
;
Structure prediction by ZEFSAII (Michael W. Deem and Ramdas Pophale) SiO2 
 PCOD8021877
Probable space group: P -1
;
_chemical_formula_sum "Si O2"
_cell_formula_units_Z 14
_cell_length_a 13.501299
_cell_length_b 6.610657
_cell_length_c 14.695128
_cell_angle_alpha 66.226760
_cell_angle_beta 148.727913
_cell_angle_gamma 103.250408
_cell_volume 604.427869
_symmetry_space_group_name_H-M "P -1"
_symmetry_group_IT_number 2
_symmetry_cell_setting 'triclinic'
loop_
_space_group_symop_operation_xyz
x,y,z
-x,-y,-z
loop_
_atom_site_type_symbol
_atom_site_label
_atom_site_fract_x
_atom_site_fract_y
_atom_site_fract_z
Si Si1 0.605478 0.122151 0.486174
Si Si2 0.966477 0.880410 0.904240
Si Si3 0.271516 0.037871 0.580455
Si Si4 0.497355 0.813188 0.104416
Si Si5 0.857375 0.367055 0.172909
Si Si6 0.756431 0.526719 0.880906
Si Si7 0.192723 0.575485 0.669660
O O1 0.482796 0.388563 0.333753
O O2 0.500000 0.000000 0.500000
O O3 0.836293 0.082524 0.701554
O O4 0.602221 0.021363 0.401055
O O5 0.842757 0.692403 0.855016
O O6 0.169988 0.739320 0.043847
O O7 0.000000 0.000000 0.000000
O O8 0.419565 0.119112 0.748868
O O9 0.085313 0.244852 0.378511
O O10 0.183359 0.837249 0.590738
O O11 0.620532 0.570100 0.209672
O O12 0.272068 0.799839 0.938657
O O13 0.500000 0.000000 0.000000
O O14 0.781321 0.466771 0.193759
O O15 0.824544 0.560151 0.032935
O O16 0.000000 0.500000 0.500000
#
# Coordination Sequence:
#
# PCOD8021877 Si02
#       7
#     2   2   2   2   2   2   2
#     4  10  23  45  70  98 138 181 232 294 350 420
#     4  10  22  44  69  98 132 180 232 288 356 422
#     4  12  25  48  69 101 147 186 238 299 354 424
#     4  12  26  44  70 100 141 191 238 291 355 423
#     4  12  24  45  70 102 143 185 237 293 354 433
#     4  10  23  43  66  97 138 176 227 296 349 412
#     4  12  25  44  69 103 142 188 233 291 360 422
#
# _framework density 23.162398
#
# number of rings (size 3 to 8) (size 9 to 14) (size 15 to 20)
#    0.000    0.857    4.286    2.571    2.000    4.000 
#    2.571    0.000    0.000    0.000    0.000    0.000 
#    0.000    0.000    0.000    0.000    0.000    0.000 
#
# Total GULP energy -173506.781488 kJ/mol
# GULP energy per Si atom -12393.341535 kJ/mol
# Density = 2.310968 g / cm^3
# Si number density = 23.162398 Si / 1000 Ang^3
#
#
#
# Elastic Constant Matrix: (Units=GPa)
#
#
# Indices 1 2 3 4 5 6 
#
# 1 109.8726 25.9204 33.5513 5.7257 -16.2629 -33.9616
# 2 25.9204 80.2773 59.4141 9.7084 -1.6510 -33.9348
# 3 33.5513 59.4141 182.9520 0.2443 -14.1233 -31.6016
# 4 5.7257 9.7084 0.2443 45.7614 -0.8065 1.7239
# 5 -16.2629 -1.6510 -14.1233 -0.8065 35.2351 7.5052
# 6 -33.9616 -33.9348 -31.6016 1.7239 7.5052 42.4794
#
#
#
# Elastic Compliance Matrix: (Units=1/GPa)
#
#
# Indices 1 2 3 4 5 6 
#
# 1 0.012782 0.000846 -0.000637 -0.002085 0.003531 0.009882
# 2 0.000846 0.023820 -0.005325 -0.005838 -0.004328 0.016746
# 3 -0.000637 -0.005325 0.007565 0.001197 0.002434 0.000387
# 4 -0.002085 -0.005838 0.001197 0.023616 0.001192 -0.006609
# 5 0.003531 -0.004328 0.002434 0.001192 0.031766 -0.004484
# 6 0.009882 0.016746 0.000387 -0.006609 -0.004484 0.046167
#
#
# Mechanical properties :
#
#
# Convention : Reuss Voigt Hill
#
# Bulk Modulus (GPa) = 29.46599 67.87483 48.67041
# Shear Modulus (GPa) = 29.89386 41.64293 35.76839
#
# Velocity S-wave (km/s) = 3.59642 4.24473 3.93395
# Velocity P-wave (km/s) = 5.47674 7.30692 6.45701
#
# Compressibility (1/GPa) = 0.03393743
#
# Stress axis : x y z
#
# Youngs Moduli (GPa) = 78.23378 41.98112 132.18910
#
# Poissons Ratio (x) = -0.03552 0.08414
# Poissons Ratio (y) = -0.06620 0.70386
# Poissons Ratio (z) = 0.04980 0.22353
#
# Static dielectric constant tensor:
#      x y z
#    x 4.289250 -0.206590 -0.148530 
#    y -0.206590 4.078670 -0.408480 
#    z -0.148530 -0.408480 4.911170 
# 
# 
# High freq. dielectric constant tensor:
#      x y z
#    x 1.931020 -0.016360 -0.007810 
#    y -0.016360 1.887130 -0.013280 
#    z -0.007810 -0.013280 1.940660 
# 
# From -- ./inp_files/122802.got.cif
#   From: 2010.06.25/outbox.cif.g09.slc.cpg/sg2_62_cif.got.tgz:122802.got - 2010.06.27 13:26:56.
