data_PCOD8021345
_publ_section_title
;
Structure prediction by ZEFSAII (Michael W. Deem and Ramdas Pophale) SiO2 
 PCOD8021345
Probable space group: P -1
;
_chemical_formula_sum "Si O2"
_cell_formula_units_Z 16
_cell_length_a 9.125573
_cell_length_b 11.381075
_cell_length_c 9.341651
_cell_angle_alpha 97.703452
_cell_angle_beta 130.240991
_cell_angle_gamma 80.824387
_cell_volume 730.499839
_symmetry_space_group_name_H-M "P -1"
_symmetry_group_IT_number 2
_symmetry_cell_setting 'triclinic'
loop_
_space_group_symop_operation_xyz
x,y,z
-x,-y,-z
loop_
_atom_site_type_symbol
_atom_site_label
_atom_site_fract_x
_atom_site_fract_y
_atom_site_fract_z
Si Si1 0.421394 0.228306 0.228791
Si Si2 0.141068 0.382802 0.573987
Si Si3 0.916786 0.876088 0.569758
Si Si4 0.682076 0.033777 0.221797
Si Si5 0.861514 0.342874 0.927466
Si Si6 0.467303 0.381678 0.548056
Si Si7 0.905525 0.885085 0.876687
Si Si8 0.176862 0.404179 0.925253
O O1 0.615752 0.154381 0.286959
O O2 0.426260 0.275996 0.399986
O O3 0.257048 0.136193 0.111558
O O4 0.367735 0.343641 0.114444
O O5 0.038740 0.264329 0.455716
O O6 0.299137 0.406659 0.560113
O O7 0.218961 0.370574 0.782649
O O8 0.000000 0.500000 0.500000
O O9 0.815785 0.900002 0.663632
O O10 0.119471 0.935911 0.723456
O O11 0.757087 0.928608 0.361599
O O12 0.500000 0.000000 0.000000
O O13 0.649208 0.327837 0.741645
O O14 0.989762 0.352124 0.866800
O O15 0.858364 0.454812 0.050148
O O16 0.934797 0.228188 0.046688
O O17 0.500000 0.500000 0.500000
O O18 0.000000 0.000000 0.000000
#
# Coordination Sequence:
#
# PCOD8021345 Si02
#       8
#     2   2   2   2   2   2   2   2
#     4  11  24  44  72 100 136 179 230 284 354 413
#     4  12  26  42  71 102 141 181 231 289 351 418
#     4  11  26  47  69 105 144 181 239 288 351 418
#     4  11  26  47  74 103 141 189 236 294 346 416
#     4  10  23  41  68  97 138 178 228 287 353 414
#     4  12  25  44  67 106 139 181 231 291 357 425
#     4  11  24  43  67  99 137 184 230 281 347 420
#     4  10  22  43  70  97 135 178 225 288 353 418
#
# _framework density 21.902811
#
# number of rings (size 3 to 8) (size 9 to 14) (size 15 to 20)
#    0.000    1.000    2.500    3.000    7.000    6.000 
#    0.000    0.000    0.000    0.000    0.000    0.000 
#    0.000    0.000    0.000    0.000    0.000    0.000 
#
# Total GULP energy -198316.242031 kJ/mol
# GULP energy per Si atom -12394.765127 kJ/mol
# Density = 2.185296 g / cm^3
# Si number density = 21.902811 Si / 1000 Ang^3
#
#
#
# Elastic Constant Matrix: (Units=GPa)
#
#
# Indices 1 2 3 4 5 6 
#
# 1 93.6446 33.9934 40.6167 0.0723 -10.4653 -9.8329
# 2 33.9934 126.4757 26.2555 3.7016 1.6586 -1.1651
# 3 40.6167 26.2555 108.7619 6.2554 0.4496 3.0263
# 4 0.0723 3.7016 6.2554 31.0356 -10.9834 1.7077
# 5 -10.4653 1.6586 0.4496 -10.9834 40.8126 0.5749
# 6 -9.8329 -1.1651 3.0263 1.7077 0.5749 36.9458
#
#
#
# Elastic Compliance Matrix: (Units=1/GPa)
#
#
# Indices 1 2 3 4 5 6 
#
# 1 0.014982 -0.003064 -0.005151 0.002814 0.004722 0.004109
# 2 -0.003064 0.008980 -0.000927 -0.001391 -0.001510 -0.000369
# 3 -0.005151 -0.000927 0.011575 -0.002850 -0.002147 -0.002183
# 4 0.002814 -0.001391 -0.002850 0.036802 0.010727 -0.000930
# 5 0.004722 -0.001510 -0.002147 0.010727 0.028679 0.000443
# 6 0.004109 -0.000369 -0.002183 -0.000930 0.000443 0.028364
#
#
# Mechanical properties :
#
#
# Convention : Reuss Voigt Hill
#
# Bulk Modulus (GPa) = 57.96033 58.95706 58.45869
# Shear Modulus (GPa) = 32.59093 36.95990 34.77541
#
# Velocity S-wave (km/s) = 3.86162 4.11231 3.98894
# Velocity P-wave (km/s) = 6.81196 7.03734 6.92557
#
# Compressibility (1/GPa) = 0.01725318
#
# Stress axis : x y z
#
# Youngs Moduli (GPa) = 66.74612 111.36212 86.39019
#
# Poissons Ratio (x) = 0.34120 0.44500
# Poissons Ratio (y) = 0.20450 0.08009
# Poissons Ratio (z) = 0.34381 0.10324
#
# Static dielectric constant tensor:
#      x y z
#    x 4.343650 -0.357010 -0.629190 
#    y -0.357010 4.490880 0.470600 
#    z -0.629190 0.470600 4.867480 
# 
# 
# High freq. dielectric constant tensor:
#      x y z
#    x 1.859830 -0.000870 -0.008780 
#    y -0.000870 1.874900 -0.001980 
#    z -0.008780 -0.001980 1.865100 
# 
# From -- ./inp_files/188889.got.cif
#   From: 2010.06.25/outbox.cif.g09.slc.cpg/sg2_95_cif.got.tgz:188889.got - 2010.06.27 13:26:56.
