data_PCOD8021083
_publ_section_title
;
Structure prediction by ZEFSAII (Michael W. Deem and Ramdas Pophale) SiO2 
 PCOD8021083
Probable space group: P -1
;
_chemical_formula_sum "Si O2"
_cell_formula_units_Z 16
_cell_length_a 9.019515
_cell_length_b 8.228910
_cell_length_c 21.598072
_cell_angle_alpha 63.339313
_cell_angle_beta 134.064656
_cell_angle_gamma 81.659155
_cell_volume 722.973203
_symmetry_space_group_name_H-M "P -1"
_symmetry_group_IT_number 2
_symmetry_cell_setting 'triclinic'
loop_
_space_group_symop_operation_xyz
x,y,z
-x,-y,-z
loop_
_atom_site_type_symbol
_atom_site_label
_atom_site_fract_x
_atom_site_fract_y
_atom_site_fract_z
Si Si1 0.861601 0.674943 0.621030
Si Si2 0.799875 0.392633 0.086120
Si Si3 0.817236 0.482859 0.377976
Si Si4 0.194572 0.736156 0.136769
Si Si5 0.101657 0.149097 0.633338
Si Si6 0.243944 0.939054 0.382980
Si Si7 0.716115 0.558371 0.903125
Si Si8 0.188540 0.260685 0.890585
O O1 0.590934 0.729542 0.502737
O O2 0.077278 0.628737 0.641160
O O3 0.030605 0.430809 0.755121
O O4 0.773478 0.908062 0.592770
O O5 0.798730 0.601320 0.073707
O O6 0.500000 0.500000 0.000000
O O7 0.784034 0.377143 0.009997
O O8 0.069305 0.110261 0.241540
O O9 0.474604 0.662419 0.258772
O O10 0.882123 0.655534 0.372261
O O11 0.990349 0.237175 0.515587
O O12 0.307506 0.514875 0.158725
O O13 0.005200 0.780571 0.131266
O O14 0.000000 0.000000 0.000000
O O15 0.873161 0.181348 0.605228
O O16 0.418738 0.856078 0.778431
O O17 0.000000 0.500000 0.000000
O O18 0.500000 0.000000 0.000000
#
# Coordination Sequence:
#
# PCOD8021083 Si02
#       8
#     2   2   2   2   2   2   2   2
#     4  10  23  41  68  97 128 174 225 273 331 399
#     4  11  24  42  66 102 131 175 221 272 330 403
#     4  11  26  44  66  99 134 175 227 274 340 393
#     4  12  26  45  69  99 136 177 225 278 335 402
#     4  11  25  45  65  96 136 177 222 281 330 401
#     4  10  22  43  67  95 133 172 226 272 330 397
#     4  12  25  43  70  98 137 179 224 276 335 395
#     4  11  25  43  67  96 136 175 218 274 333 397
#
# _framework density 22.130834
#
# number of rings (size 3 to 8) (size 9 to 14) (size 15 to 20)
#    0.000    1.000    2.500    3.000    7.000    3.500 
#    0.000    0.000    0.000    0.000    0.000    0.000 
#    0.000    0.000    0.000    0.000    0.000    0.000 
#
# Total GULP energy -198325.996742 kJ/mol
# GULP energy per Si atom -12395.374796 kJ/mol
# Density = 2.208046 g / cm^3
# Si number density = 22.130834 Si / 1000 Ang^3
#
#
#
# Elastic Constant Matrix: (Units=GPa)
#
#
# Indices 1 2 3 4 5 6 
#
# 1 169.3243 19.5345 55.6051 3.6285 3.4190 9.4167
# 2 19.5345 29.2215 25.8355 -5.5351 -7.2653 5.5240
# 3 55.6051 25.8355 137.5047 7.5619 1.0416 8.3440
# 4 3.6285 -5.5351 7.5619 27.3622 0.9496 -0.9039
# 5 3.4190 -7.2653 1.0416 0.9496 48.6436 6.5129
# 6 9.4167 5.5240 8.3440 -0.9039 6.5129 38.6925
#
#
#
# Elastic Compliance Matrix: (Units=1/GPa)
#
#
# Indices 1 2 3 4 5 6 
#
# 1 0.007046 -0.003023 -0.002181 -0.000939 -0.000788 -0.000702
# 2 -0.003023 0.049063 -0.008391 0.012175 0.008227 -0.005560
# 3 -0.002181 -0.008391 0.009987 -0.004137 -0.001190 -0.000321
# 4 -0.000939 0.012175 -0.004137 0.040241 0.001171 0.000126
# 5 -0.000788 0.008227 -0.001190 0.001171 0.022444 -0.004477
# 6 -0.000702 -0.005560 -0.000321 0.000126 -0.004477 0.027635
#
#
# Mechanical properties :
#
#
# Convention : Reuss Voigt Hill
#
# Bulk Modulus (GPa) = 25.70211 59.77785 42.73998
# Shear Modulus (GPa) = 25.43572 38.61137 32.02354
#
# Velocity S-wave (km/s) = 3.39386 4.18148 3.80809
# Velocity P-wave (km/s) = 5.19583 7.09808 6.22010
#
# Compressibility (1/GPa) = 0.03890731
#
# Stress axis : x y z
#
# Youngs Moduli (GPa) = 141.92662 20.38191 100.12999
#
# Poissons Ratio (x) = 0.06161 0.21840
# Poissons Ratio (y) = 0.42900 0.84014
# Poissons Ratio (z) = 0.30956 0.17101
#
# Static dielectric constant tensor:
#      x y z
#    x 31.346970 -24.965080 -7.132070 
#    y -24.965080 27.174950 6.949250 
#    z -7.132070 6.949250 6.122630 
# 
# 
# High freq. dielectric constant tensor:
#      x y z
#    x 1.893720 0.005300 0.002510 
#    y 0.005300 1.858460 0.006550 
#    z 0.002510 0.006550 1.887430 
# 
# From -- ./inp_files/559501.got.cif
#   From: 2010.06.25/outbox.cif.g09.slc.cpg/sg2_280_cif.got.tgz:559501.got - 2010.06.27 13:26:56.
