data_PCOD8021759
_publ_section_title
;
Structure prediction by ZEFSAII (Michael W. Deem and Ramdas Pophale) SiO2 
 PCOD8021759
Probable space group: P -1
;
_chemical_formula_sum "Si O2"
_cell_formula_units_Z 16
_cell_length_a 8.496279
_cell_length_b 21.566173
_cell_length_c 19.039405
_cell_angle_alpha 158.153241
_cell_angle_beta 149.202245
_cell_angle_gamma 31.584705
_cell_volume 636.842193
_symmetry_space_group_name_H-M "P -1"
_symmetry_group_IT_number 2
_symmetry_cell_setting 'triclinic'
loop_
_space_group_symop_operation_xyz
x,y,z
-x,-y,-z
loop_
_atom_site_type_symbol
_atom_site_label
_atom_site_fract_x
_atom_site_fract_y
_atom_site_fract_z
Si Si1 0.579084 0.314213 0.760932
Si Si2 0.983454 0.500275 0.175265
Si Si3 0.648835 0.170896 0.972779
Si Si4 0.615064 0.036544 0.970508
Si Si5 0.321523 0.354716 0.281478
Si Si6 0.764298 0.504284 0.319042
Si Si7 0.808789 0.938449 0.420555
Si Si8 0.629888 0.267038 0.486605
O O1 0.360031 0.363329 0.797916
O O2 0.397749 0.389715 0.699471
O O3 0.651047 0.109304 0.584309
O O4 0.906195 0.377615 0.954997
O O5 0.057333 0.381751 0.148229
O O6 0.275678 0.587069 0.370518
O O7 0.520020 0.145590 0.975333
O O8 0.462738 0.125477 0.787953
O O9 0.591144 0.375172 0.153019
O O10 0.009564 0.052984 0.978495
O O11 0.418615 0.891586 0.745564
O O12 0.541080 0.158737 0.141080
O O13 0.500000 0.500000 0.500000
O O14 0.132283 0.388091 0.319831
O O15 0.704950 0.654376 0.514680
O O16 0.056243 0.789293 0.402797
O O17 0.000000 0.000000 0.500000
#
# Coordination Sequence:
#
# PCOD8021759 Si02
#       8
#     2   2   2   2   2   2   2   2
#     4  10  22  44  67  99 141 174 223 281 342 399
#     4  10  24  42  69  99 134 179 225 280 335 408
#     4  11  26  43  71 100 139 178 228 283 333 412
#     4  11  26  46  68 100 139 180 226 282 343 396
#     4  11  27  45  69  95 139 182 223 279 341 403
#     4  11  25  43  69 103 135 177 228 275 343 401
#     4  12  23  40  70 101 137 178 223 281 338 397
#     4  12  25  43  75 102 135 181 230 279 336 411
#
# _framework density 25.123965999999999
#
# number of rings (size 3 to 8) (size 9 to 14) (size 15 to 20)
#    0.000    1.000    2.500    2.250   10.500    3.500 
#    0.000    0.000    0.000    0.000    0.000    0.000 
#    0.000    0.000    0.000    0.000    0.000    0.000 
#
# Total GULP energy -198210.857593 kJ/mol
# GULP energy per Si atom -12388.178600 kJ/mol
# Density = 2.506678 g / cm^3
# Si number density = 25.123966 Si / 1000 Ang^3
#
#
#
# Elastic Constant Matrix: (Units=GPa)
#
#
# Indices 1 2 3 4 5 6 
#
# 1 96.8227 21.3213 42.8754 7.3697 -12.0225 -13.4779
# 2 21.3213 55.9854 7.7045 12.6224 -14.3641 -13.9721
# 3 42.8754 7.7045 148.2311 9.5679 -11.1006 -20.1951
# 4 7.3697 12.6224 9.5679 36.8808 -4.6011 2.5844
# 5 -12.0225 -14.3641 -11.1006 -4.6011 40.3534 2.8280
# 6 -13.4779 -13.9721 -20.1951 2.5844 2.8280 27.7839
#
#
#
# Elastic Compliance Matrix: (Units=1/GPa)
#
#
# Indices 1 2 3 4 5 6 
#
# 1 0.013019 -0.003448 -0.003133 -0.000567 0.001571 0.002197
# 2 -0.003448 0.025958 0.002567 -0.008929 0.006964 0.013369
# 3 -0.003133 0.002567 0.008654 -0.002727 0.001619 0.006151
# 4 -0.000567 -0.008929 -0.002727 0.031696 0.000198 -0.009716
# 5 0.001571 0.006964 0.001619 0.000198 0.028016 0.002571
# 6 0.002197 0.013369 0.006151 -0.009716 0.002571 0.048894
#
#
# Mechanical properties :
#
#
# Convention : Reuss Voigt Hill
#
# Bulk Modulus (GPa) = 25.24966 49.42684 37.33825
# Shear Modulus (GPa) = 28.17460 36.27949 32.22705
#
# Velocity S-wave (km/s) = 3.35240 3.80415 3.58540
# Velocity P-wave (km/s) = 5.00566 6.24590 5.65985
#
# Compressibility (1/GPa) = 0.03960450
#
# Stress axis : x y z
#
# Youngs Moduli (GPa) = 76.81237 38.52384 115.55126
#
# Poissons Ratio (x) = 0.13282 0.36201
# Poissons Ratio (y) = 0.26482 -0.29666
# Poissons Ratio (z) = 0.24064 -0.09890
#
# Static dielectric constant tensor:
#      x y z
#    x 4.675060 -0.139440 -0.098500 
#    y -0.139440 4.625030 0.094900 
#    z -0.098500 0.094900 4.314010 
# 
# 
# High freq. dielectric constant tensor:
#      x y z
#    x 1.997100 -0.002990 -0.012310 
#    y -0.002990 2.020200 0.005440 
#    z -0.012310 0.005440 2.006910 
# 
# From -- ./inp_files/591999.got.cif
#   From: 2010.06.25/outbox.cif.g09.slc.cpg/sg2_296_cif.got.tgz:591999.got - 2010.06.27 13:26:56.
