data_PCOD8021547
_publ_section_title
;
Structure prediction by ZEFSAII (Michael W. Deem and Ramdas Pophale) SiO2 
 PCOD8021547
Probable space group: P -1
;
_chemical_formula_sum "Si O2"
_cell_formula_units_Z 16
_cell_length_a 14.879148
_cell_length_b 8.861829
_cell_length_c 8.655986
_cell_angle_alpha 118.532533
_cell_angle_beta 112.627225
_cell_angle_gamma 105.278543
_cell_volume 772.020893
_symmetry_space_group_name_H-M "P -1"
_symmetry_group_IT_number 2
_symmetry_cell_setting 'triclinic'
loop_
_space_group_symop_operation_xyz
x,y,z
-x,-y,-z
loop_
_atom_site_type_symbol
_atom_site_label
_atom_site_fract_x
_atom_site_fract_y
_atom_site_fract_z
Si Si1 0.988388 0.606754 0.897557
Si Si2 0.569247 0.206507 0.241400
Si Si3 0.821795 0.081025 0.033770
Si Si4 0.822768 0.884857 0.389064
Si Si5 0.059978 0.112974 0.830761
Si Si6 0.410763 0.431598 0.769067
Si Si7 0.569430 0.729646 0.594936
Si Si8 0.199971 0.765854 0.593185
O O1 0.119328 0.774734 0.006271
O O2 0.919997 0.441837 0.636284
O O3 0.000000 0.500000 0.000000
O O4 0.915762 0.704539 0.949798
O O5 0.571285 0.378762 0.223418
O O6 0.500712 0.172859 0.341371
O O7 0.695976 0.260457 0.396835
O O8 0.500000 0.000000 0.000000
O O9 0.798865 0.204133 0.207414
O O10 0.918074 0.040771 0.138608
O O11 0.702645 0.865835 0.810136
O O12 0.857971 0.802606 0.224941
O O13 0.717796 0.686234 0.304431
O O14 0.784712 0.037992 0.387209
O O15 0.925735 0.993318 0.633780
O O16 0.427536 0.282132 0.594855
O O17 0.500000 0.500000 0.000000
O O18 0.500000 0.500000 0.500000
#
# Coordination Sequence:
#
# PCOD8021547 Si02
#       8
#     2   2   2   2   2   2   2   2
#     4  12  25  41  64 103 136 168 218 275 329 382
#     4  11  23  45  67  95 129 171 223 274 332 384
#     4  11  24  44  70  92 134 177 220 263 331 402
#     4  10  22  44  63  97 133 173 218 266 326 391
#     4  10  23  40  68  92 133 173 217 262 323 395
#     4  11  25  41  70  93 130 172 222 270 327 394
#     4  10  24  43  68  96 128 172 222 270 321 400
#     4  11  24  42  69  92 137 173 212 274 331 389
#
# _framework density 20.724827000000001
#
# number of rings (size 3 to 8) (size 9 to 14) (size 15 to 20)
#    0.000    1.250    2.500    2.250   10.500    1.000 
#    0.000    2.500    0.000    0.000    0.000    0.000 
#    0.000    0.000    0.000    0.000    0.000    0.000 
#
# Total GULP energy -198424.758194 kJ/mol
# GULP energy per Si atom -12401.547387 kJ/mol
# Density = 2.067766 g / cm^3
# Si number density = 20.724827 Si / 1000 Ang^3
#
#
#
# Elastic Constant Matrix: (Units=GPa)
#
#
# Indices 1 2 3 4 5 6 
#
# 1 142.7961 49.7264 63.9541 -0.7149 -3.3931 8.0722
# 2 49.7264 81.1872 37.8120 0.1551 6.5615 14.6938
# 3 63.9541 37.8120 137.3175 1.7388 -11.9014 14.0078
# 4 -0.7149 0.1551 1.7388 33.8806 -4.4248 5.0491
# 5 -3.3931 6.5615 -11.9014 -4.4248 39.6613 1.1741
# 6 8.0722 14.6938 14.0078 5.0491 1.1741 37.7710
#
#
#
# Elastic Compliance Matrix: (Units=1/GPa)
#
#
# Indices 1 2 3 4 5 6 
#
# 1 0.010211 -0.004864 -0.003458 0.000363 0.000654 0.000924
# 2 -0.004864 0.017616 -0.002435 0.000149 -0.003902 -0.004809
# 3 -0.003458 -0.002435 0.010061 0.000164 0.003208 -0.002166
# 4 0.000363 0.000149 0.000164 0.030641 0.003604 -0.004404
# 5 0.000654 -0.003902 0.003208 0.003604 0.027314 -0.001142
# 6 0.000924 -0.004809 -0.002166 -0.004404 -0.001142 0.029576
#
#
# Mechanical properties :
#
#
# Convention : Reuss Voigt Hill
#
# Bulk Modulus (GPa) = 61.07754 73.80954 67.44354
# Shear Modulus (GPa) = 32.81043 36.24981 34.53012
#
# Velocity S-wave (km/s) = 3.98319 4.18676 4.08625
# Velocity P-wave (km/s) = 7.11963 7.68527 7.40785
#
# Compressibility (1/GPa) = 0.01637263
#
# Stress axis : x y z
#
# Youngs Moduli (GPa) = 97.93494 56.76694 99.39815
#
# Poissons Ratio (x) = 0.27612 0.34376
# Poissons Ratio (y) = 0.47636 0.24202
# Poissons Ratio (z) = 0.33870 0.13822
#
# Static dielectric constant tensor:
#      x y z
#    x 1.699460 0.382610 -0.967930 
#    y 0.382610 3.621610 0.128840 
#    z -0.967930 0.128840 3.834140 
# 
# 
# High freq. dielectric constant tensor:
#      x y z
#    x 1.828240 0.007100 -0.010790 
#    y 0.007100 1.795950 0.003890 
#    z -0.010790 0.003890 1.821750 
# 
# From -- ./inp_files/179497.got.cif
#   From: 2010.06.25/outbox.cif.g09.slc.cpg/sg2_90_cif.got.tgz:179497.got - 2010.06.27 13:26:56.
