data_PCOD8021800
_publ_section_title
;
Structure prediction by ZEFSAII (Michael W. Deem and Ramdas Pophale) SiO2 
 PCOD8021800
Probable space group: P -1
;
_chemical_formula_sum "Si O2"
_cell_formula_units_Z 16
_cell_length_a 15.121464
_cell_length_b 5.944248
_cell_length_c 15.476436
_cell_angle_alpha 67.592378
_cell_angle_beta 141.742618
_cell_angle_gamma 87.524420
_cell_volume 638.049167
_symmetry_space_group_name_H-M "P -1"
_symmetry_group_IT_number 2
_symmetry_cell_setting 'triclinic'
loop_
_space_group_symop_operation_xyz
x,y,z
-x,-y,-z
loop_
_atom_site_type_symbol
_atom_site_label
_atom_site_fract_x
_atom_site_fract_y
_atom_site_fract_z
Si Si1 0.454344 0.919791 0.642647
Si Si2 0.869062 0.914750 0.404041
Si Si3 0.375921 0.449820 0.824323
Si Si4 0.346105 0.832904 0.302026
Si Si5 0.756540 0.240542 0.953401
Si Si6 0.245768 0.401966 0.547098
Si Si7 0.858251 0.011250 0.708832
Si Si8 0.746024 0.893756 0.143818
O O1 0.576192 0.555801 0.802577
O O2 0.263051 0.041743 0.435690
O O3 0.570203 0.982503 0.662924
O O4 0.415170 0.098324 0.675984
O O5 0.674750 0.222515 0.237795
O O6 0.898517 0.798359 0.345162
O O7 0.903020 0.654344 0.535000
O O8 0.000000 0.000000 0.500000
O O9 0.310771 0.453522 0.677538
O O10 0.286373 0.362924 0.841138
O O11 0.585106 0.201152 0.022376
O O12 0.500000 0.500000 0.500000
O O13 0.263887 0.821722 0.151429
O O14 0.187987 0.990489 0.226924
O O15 0.787405 0.960771 0.072261
O O16 0.927538 0.246026 0.097463
O O17 0.171999 0.675442 0.384299
#
# Coordination Sequence:
#
# PCOD8021800 Si02
#       8
#     2   2   2   2   2   2   2   2
#     4  12  25  48  76 105 147 189 242 294 368 433
#     4  11  25  39  68 102 141 187 232 284 351 421
#     4  10  22  44  68  96 141 186 236 286 358 417
#     4  12  25  51  75 106 146 193 233 303 372 430
#     4  12  28  45  75 111 145 186 249 299 360 430
#     4  11  24  43  74 100 145 190 235 294 358 423
#     4  12  27  46  76 108 148 190 241 301 366 429
#     4  10  23  41  66  99 136 185 233 296 344 424
#
# _framework density 25.076438
#
# number of rings (size 3 to 8) (size 9 to 14) (size 15 to 20)
#    0.000    0.750    2.500    4.125    5.250    5.500 
#    0.000    0.000    0.000    0.000    0.000    0.000 
#    0.000    0.000    0.000    0.000    0.000    0.000 
#
# Total GULP energy -198334.601215 kJ/mol
# GULP energy per Si atom -12395.912576 kJ/mol
# Density = 2.501936 g / cm^3
# Si number density = 25.076438 Si / 1000 Ang^3
#
#
#
# Elastic Constant Matrix: (Units=GPa)
#
#
# Indices 1 2 3 4 5 6 
#
# 1 132.4016 28.6739 40.9683 11.4585 -20.6258 17.7836
# 2 28.6739 67.7416 22.8252 -0.9684 -10.2819 11.0251
# 3 40.9683 22.8252 96.6992 19.2598 -1.8952 7.5389
# 4 11.4585 -0.9684 19.2598 28.3842 8.8074 3.6917
# 5 -20.6258 -10.2819 -1.8952 8.8074 48.1734 -1.3723
# 6 17.7836 11.0251 7.5389 3.6917 -1.3723 51.4965
#
#
#
# Elastic Compliance Matrix: (Units=1/GPa)
#
#
# Indices 1 2 3 4 5 6 
#
# 1 0.010207 -0.002394 -0.002840 -0.003314 0.004289 -0.002244
# 2 -0.002394 0.017796 -0.003712 0.003868 0.001844 -0.002668
# 3 -0.002840 -0.003712 0.014120 -0.008647 0.000138 0.000332
# 4 -0.003314 0.003868 -0.008647 0.045722 -0.009348 -0.001944
# 5 0.004289 0.001844 0.000138 -0.009348 0.024687 -0.000568
# 6 -0.002244 -0.002668 0.000332 -0.001944 -0.000568 0.020841
#
#
# Mechanical properties :
#
#
# Convention : Reuss Voigt Hill
#
# Bulk Modulus (GPa) = 41.27320 53.53080 47.40200
# Shear Modulus (GPa) = 31.37936 39.23583 35.30759
#
# Velocity S-wave (km/s) = 3.54128 3.95986 3.75640
# Velocity P-wave (km/s) = 5.76329 6.50390 6.14476
#
# Compressibility (1/GPa) = 0.02422880
#
# Stress axis : x y z
#
# Youngs Moduli (GPa) = 97.97671 56.19345 70.82237
#
# Poissons Ratio (x) = 0.13455 0.20113
# Poissons Ratio (y) = 0.23460 0.26291
# Poissons Ratio (z) = 0.27824 0.20861
#
# Static dielectric constant tensor:
#      x y z
#    x 5.038310 -0.041780 0.137300 
#    y -0.041780 4.972290 -0.509100 
#    z 0.137300 -0.509100 4.849530 
# 
# 
# High freq. dielectric constant tensor:
#      x y z
#    x 2.018120 0.007520 0.003770 
#    y 0.007520 1.998320 -0.004040 
#    z 0.003770 -0.004040 1.999500 
# 
# From -- ./inp_files/55634.got.cif
#   From: 2010.06.25/outbox.cif.g09.slc.cpg/sg2_28_cif.got.tgz:55634.got - 2010.06.27 13:26:56.
