data_PCOD8021363
_publ_section_title
;
Structure prediction by ZEFSAII (Michael W. Deem and Ramdas Pophale) SiO2 
 PCOD8021363
Probable space group: P -1
;
_chemical_formula_sum "Si O2"
_cell_formula_units_Z 16
_cell_length_a 11.612278
_cell_length_b 14.566634
_cell_length_c 8.499637
_cell_angle_alpha 41.408871
_cell_angle_beta 110.346430
_cell_angle_gamma 129.499370
_cell_volume 709.824481
_symmetry_space_group_name_H-M "P -1"
_symmetry_group_IT_number 2
_symmetry_cell_setting 'triclinic'
loop_
_space_group_symop_operation_xyz
x,y,z
-x,-y,-z
loop_
_atom_site_type_symbol
_atom_site_label
_atom_site_fract_x
_atom_site_fract_y
_atom_site_fract_z
Si Si1 0.407549 0.243094 0.147907
Si Si2 0.546582 0.129376 0.606708
Si Si3 0.621867 0.500769 0.662124
Si Si4 0.059340 0.178083 0.502086
Si Si5 0.201325 0.881407 0.358162
Si Si6 0.942568 0.313159 0.766833
Si Si7 0.343231 0.765893 0.126616
Si Si8 0.121195 0.210991 0.130246
O O1 0.454909 0.182845 0.398033
O O2 0.300214 0.292291 0.102240
O O3 0.311356 0.088805 0.173359
O O4 0.551197 0.413527 0.910905
O O5 0.695022 0.188410 0.494050
O O6 0.588149 0.211071 0.695356
O O7 0.450259 0.922037 0.854344
O O8 0.500000 0.500000 0.500000
O O9 0.771724 0.699633 0.498116
O O10 0.683747 0.405242 0.731441
O O11 0.066839 0.203817 0.288378
O O12 0.942245 0.216482 0.463045
O O13 0.987443 0.978317 0.761223
O O14 0.133895 0.837946 0.206449
O O15 0.814557 0.253336 0.916907
O O16 0.000000 0.500000 0.500000
O O17 0.094149 0.337855 0.867379
#
# Coordination Sequence:
#
# PCOD8021363 Si02
#       8
#     2   2   2   2   2   2   2   2
#     4  11  25  43  72 101 140 185 234 287 342 422
#     4  10  22  44  72 100 139 182 235 278 352 413
#     4  12  28  43  69 106 144 180 232 292 347 409
#     4  10  25  45  69 100 136 183 232 288 341 416
#     4  10  22  43  71 100 131 181 228 285 340 413
#     4  11  25  43  69  99 138 178 231 284 349 412
#     4  10  24  42  69 102 137 183 227 288 340 414
#     4  10  26  46  71  99 135 190 228 279 356 409
#
# _framework density 22.540783999999999
#
# number of rings (size 3 to 8) (size 9 to 14) (size 15 to 20)
#    0.000    1.500    1.250    1.125   12.250    3.500 
#    0.000    1.875    0.000    0.000    0.000    0.000 
#    0.000    0.000    0.000    0.000    0.000    0.000 
#
# Total GULP energy -198370.876913 kJ/mol
# GULP energy per Si atom -12398.179807 kJ/mol
# Density = 2.248948 g / cm^3
# Si number density = 22.540784 Si / 1000 Ang^3
#
#
#
# Elastic Constant Matrix: (Units=GPa)
#
#
# Indices 1 2 3 4 5 6 
#
# 1 193.0388 55.2842 57.7336 18.8900 0.8200 4.0352
# 2 55.2842 66.8697 34.3507 -0.0303 3.3410 12.8233
# 3 57.7336 34.3507 96.8831 14.4435 9.4502 4.8228
# 4 18.8900 -0.0303 14.4435 26.7676 11.8497 0.3209
# 5 0.8200 3.3410 9.4502 11.8497 42.1048 4.7889
# 6 4.0352 12.8233 4.8228 0.3209 4.7889 34.7323
#
#
#
# Elastic Compliance Matrix: (Units=1/GPa)
#
#
# Indices 1 2 3 4 5 6 
#
# 1 0.008005 -0.005873 -0.002148 -0.005481 0.002189 0.001285
# 2 -0.005873 0.024281 -0.005784 0.008272 -0.002014 -0.007278
# 3 -0.002148 -0.005784 0.014613 -0.005852 -0.001197 0.000575
# 4 -0.005481 0.008272 -0.005852 0.050315 -0.013371 -0.000226
# 5 0.002189 -0.002014 -0.001197 -0.013371 0.028254 -0.003116
# 6 0.001285 -0.007278 0.000575 -0.000226 -0.003116 0.031681
#
#
# Mechanical properties :
#
#
# Convention : Reuss Voigt Hill
#
# Bulk Modulus (GPa) = 51.84209 72.39208 62.11709
# Shear Modulus (GPa) = 26.15221 34.68249 30.41735
#
# Velocity S-wave (km/s) = 3.40989 3.92682 3.67745
# Velocity P-wave (km/s) = 6.20905 7.26262 6.75640
#
# Compressibility (1/GPa) = 0.01928935
#
# Stress axis : x y z
#
# Youngs Moduli (GPa) = 124.92394 41.18482 68.43100
#
# Poissons Ratio (x) = 0.24187 0.14701
# Poissons Ratio (y) = 0.73364 0.39579
# Poissons Ratio (z) = 0.26838 0.23820
#
# Static dielectric constant tensor:
#      x y z
#    x 4.550290 0.031710 -0.182110 
#    y 0.031710 4.126140 -0.127150 
#    z -0.182110 -0.127150 3.766470 
# 
# 
# High freq. dielectric constant tensor:
#      x y z
#    x 1.913610 -0.004210 -0.007650 
#    y -0.004210 1.889550 -0.003380 
#    z -0.007650 -0.003380 1.865440 
# 
# From -- ./inp_files/271597.got.cif
#   From: 2010.06.25/outbox.cif.g09.slc.cpg/sg2_136_cif.got.tgz:271597.got - 2010.06.27 13:26:56.
