data_PCOD8021950
_publ_section_title
;
Structure prediction by ZEFSAII (Michael W. Deem and Ramdas Pophale) SiO2 
 PCOD8021950
Probable space group: P -1
;
_chemical_formula_sum "Si O2"
_cell_formula_units_Z 14
_cell_length_a 10.584492
_cell_length_b 10.985404
_cell_length_c 8.885418
_cell_angle_alpha 65.724555
_cell_angle_beta 136.978092
_cell_angle_gamma 123.443378
_cell_volume 588.126108
_symmetry_space_group_name_H-M "P -1"
_symmetry_group_IT_number 2
_symmetry_cell_setting 'triclinic'
loop_
_space_group_symop_operation_xyz
x,y,z
-x,-y,-z
loop_
_atom_site_type_symbol
_atom_site_label
_atom_site_fract_x
_atom_site_fract_y
_atom_site_fract_z
Si Si1 0.066219 0.367905 0.107241
Si Si2 0.860075 0.219212 0.421234
Si Si3 0.637078 0.691079 0.797762
Si Si4 0.718349 0.598966 0.416431
Si Si5 0.177757 0.928133 0.847268
Si Si6 0.539433 0.766960 0.986302
Si Si7 0.124484 0.012010 0.254940
O O1 0.190451 0.370006 0.062209
O O2 0.219008 0.368506 0.372611
O O3 0.861878 0.219315 0.016018
O O4 0.000000 0.500000 0.000000
O O5 0.830091 0.104975 0.318292
O O6 0.697870 0.291888 0.229295
O O7 0.081447 0.350670 0.539027
O O8 0.824451 0.128488 0.594226
O O9 0.411639 0.573127 0.629573
O O10 0.660187 0.731041 0.973966
O O11 0.674299 0.838014 0.659999
O O12 0.579860 0.686700 0.207949
O O13 0.003306 0.982163 0.712762
O O14 0.389013 0.059795 0.008944
O O15 0.000000 0.000000 0.000000
#
# Coordination Sequence:
#
# PCOD8021950 Si02
#       7
#     2   2   2   2   2   2   2
#     4  10  25  46  73 103 136 184 232 278 351 414
#     4  11  25  43  72 101 137 185 235 276 338 424
#     4  11  25  44  70 101 146 179 221 296 345 398
#     4  11  25  47  69  98 143 183 224 287 339 410
#     4  10  22  44  71 100 139 181 228 293 331 411
#     4  12  25  45  71 105 136 182 236 278 351 403
#     4  11  21  44  70 101 139 175 228 288 348 393
#
# _framework density 23.804417999999998
#
# number of rings (size 3 to 8) (size 9 to 14) (size 15 to 20)
#    0.000    1.143    2.857    1.714    8.000    2.286 
#    7.714    0.000    0.000    0.000    0.000    0.000 
#    0.000    0.000    0.000    0.000    0.000    0.000 
#
# Total GULP energy -173545.178813 kJ/mol
# GULP energy per Si atom -12396.084201 kJ/mol
# Density = 2.375024 g / cm^3
# Si number density = 23.804418 Si / 1000 Ang^3
#
#
#
# Elastic Constant Matrix: (Units=GPa)
#
#
# Indices 1 2 3 4 5 6 
#
# 1 92.4164 31.8487 52.0831 -13.7518 -5.0798 -0.2781
# 2 31.8487 147.3893 41.4054 7.0059 16.1530 28.9404
# 3 52.0831 41.4054 114.4293 -22.1562 13.4010 4.8145
# 4 -13.7518 7.0059 -22.1562 35.1375 -6.5506 7.7434
# 5 -5.0798 16.1530 13.4010 -6.5506 36.6679 9.7571
# 6 -0.2781 28.9404 4.8145 7.7434 9.7571 34.3674
#
#
#
# Elastic Compliance Matrix: (Units=1/GPa)
#
#
# Indices 1 2 3 4 5 6 
#
# 1 0.016333 -0.002722 -0.006465 0.003899 0.006348 0.000649
# 2 -0.002722 0.009765 -0.002415 -0.003666 -0.002777 -0.006293
# 3 -0.006465 -0.002415 0.014235 0.006292 -0.003818 -0.000347
# 4 0.003899 -0.003666 0.006292 0.038362 0.009101 -0.008990
# 5 0.006348 -0.002777 -0.003818 0.009101 0.034792 -0.009004
# 6 0.000649 -0.006293 -0.000347 -0.008990 -0.009004 0.039032
#
#
# Mechanical properties :
#
#
# Convention : Reuss Voigt Hill
#
# Bulk Modulus (GPa) = 58.37302 67.21215 62.79259
# Shear Modulus (GPa) = 27.55848 36.49441 32.02645
#
# Velocity S-wave (km/s) = 3.40620 3.91972 3.67195
# Velocity P-wave (km/s) = 6.32809 6.98442 6.66434
#
# Compressibility (1/GPa) = 0.01713120
#
# Stress axis : x y z
#
# Youngs Moduli (GPa) = 61.22523 102.40305 70.24740
#
# Poissons Ratio (x) = 0.27870 0.45416
# Poissons Ratio (y) = 0.16663 0.16962
# Poissons Ratio (z) = 0.39583 0.24726
#
# Static dielectric constant tensor:
#      x y z
#    x 4.235500 0.231180 -0.098840 
#    y 0.231180 4.628600 0.110280 
#    z -0.098840 0.110280 3.936280 
# 
# 
# High freq. dielectric constant tensor:
#      x y z
#    x 1.936620 0.013100 -0.010060 
#    y 0.013100 1.956980 0.006380 
#    z -0.010060 0.006380 1.917580 
# 
# From -- ./inp_files/262240.got.cif
#   From: 2010.06.25/outbox.cif.g09.slc.cpg/sg2_132_cif.got.tgz:262240.got - 2010.06.27 13:26:56.
