data_PCOD8021427
_publ_section_title
;
Structure prediction by ZEFSAII (Michael W. Deem and Ramdas Pophale) SiO2 
 PCOD8021427
Probable space group: P -1
;
_chemical_formula_sum "Si O2"
_cell_formula_units_Z 14
_cell_length_a 5.621392
_cell_length_b 17.144963
_cell_length_c 22.344903
_cell_angle_alpha 158.718904
_cell_angle_beta 56.812288
_cell_angle_gamma 112.505810
_cell_volume 593.925204
_symmetry_space_group_name_H-M "P -1"
_symmetry_group_IT_number 2
_symmetry_cell_setting 'triclinic'
loop_
_space_group_symop_operation_xyz
x,y,z
-x,-y,-z
loop_
_atom_site_type_symbol
_atom_site_label
_atom_site_fract_x
_atom_site_fract_y
_atom_site_fract_z
Si Si1 0.656086 0.009650 0.253482
Si Si2 0.658429 0.673621 0.587482
Si Si3 0.750079 0.418406 0.116888
Si Si4 0.330048 0.688038 0.082478
Si Si5 0.654466 0.455886 0.628292
Si Si6 0.941759 0.250092 0.715571
Si Si7 0.357747 0.869136 0.882445
O O1 0.435219 0.897906 0.232332
O O2 0.518842 0.144381 0.308612
O O3 0.698284 0.187197 0.422248
O O4 0.977890 0.791108 0.034756
O O5 0.500000 0.500000 0.500000
O O6 0.606583 0.824405 0.762670
O O7 0.020749 0.524245 0.414437
O O8 0.439762 0.476497 0.240771
O O9 0.807369 0.656806 0.276395
O O10 0.760070 0.307500 0.970994
O O11 0.043409 0.748093 0.211989
O O12 0.593884 0.427326 0.871540
O O13 0.397543 0.626641 0.737963
O O14 0.000000 0.000000 0.500000
O O15 0.500000 0.000000 0.000000
O O16 0.000000 0.000000 0.000000
#
# Coordination Sequence:
#
# PCOD8021427 Si02
#       7
#     2   2   2   2   2   2   2
#     4  11  25  45  71 100 146 186 248 297 375 436
#     4  12  26  49  71 103 144 196 253 313 374 450
#     4  11  25  44  70 109 144 186 240 300 367 443
#     4  10  23  43  70 104 143 184 238 295 360 442
#     4  12  27  44  72 102 145 191 246 309 379 442
#     4  10  22  43  72 103 144 187 232 290 363 444
#     4  12  28  47  75 106 146 196 258 318 384 452
#
# _framework density 23.571988999999999
#
# number of rings (size 3 to 8) (size 9 to 14) (size 15 to 20)
#    0.000    0.857    1.429    4.286    6.000    5.143 
#    0.000    0.000    0.000    0.000    0.000    0.000 
#    0.000    0.000    0.000    0.000    0.000    0.000 
#
# Total GULP energy -173532.799631 kJ/mol
# GULP energy per Si atom -12395.199974 kJ/mol
# Density = 2.351834 g / cm^3
# Si number density = 23.571989 Si / 1000 Ang^3
#
#
#
# Elastic Constant Matrix: (Units=GPa)
#
#
# Indices 1 2 3 4 5 6 
#
# 1 112.0058 50.7476 57.1001 -7.5978 -5.5487 0.9820
# 2 50.7476 139.6384 90.7700 -23.3513 -21.3110 -5.2937
# 3 57.1001 90.7700 126.1353 4.1593 10.0569 5.4757
# 4 -7.5978 -23.3513 4.1593 58.2620 0.2871 6.9073
# 5 -5.5487 -21.3110 10.0569 0.2871 29.0737 -1.4753
# 6 0.9820 -5.2937 5.4757 6.9073 -1.4753 43.4691
#
#
#
# Elastic Compliance Matrix: (Units=1/GPa)
#
#
# Indices 1 2 3 4 5 6 
#
# 1 0.012474 0.001976 -0.007712 0.002854 0.006504 0.000697
# 2 0.001976 0.031607 -0.027001 0.013966 0.033057 0.006108
# 3 -0.007712 -0.027001 0.034224 -0.013344 -0.033296 -0.006435
# 4 0.002854 0.013966 -0.013344 0.024010 0.015161 0.000017
# 5 0.006504 0.033057 -0.033296 0.015161 0.071646 0.008095
# 6 0.000697 0.006108 -0.006435 0.000017 0.008095 0.024816
#
#
# Mechanical properties :
#
#
# Convention : Reuss Voigt Hill
#
# Bulk Modulus (GPa) = 77.93576 86.11277 82.02427
# Shear Modulus (GPa) = 18.62017 38.10508 28.36262
#
# Velocity S-wave (km/s) = 2.81361 4.02498 3.47253
# Velocity P-wave (km/s) = 6.60983 7.62967 7.13799
#
# Compressibility (1/GPa) = 0.01283108
#
# Stress axis : x y z
#
# Youngs Moduli (GPa) = 80.16712 31.63862 29.21955
#
# Poissons Ratio (x) = -0.06252 0.22533
# Poissons Ratio (y) = -0.15840 0.78896
# Poissons Ratio (z) = 0.61822 0.85427
#
# Static dielectric constant tensor:
#      x y z
#    x 4.133830 -0.080250 -0.003800 
#    y -0.080250 5.165430 -0.478320 
#    z -0.003800 -0.478320 4.844580 
# 
# 
# High freq. dielectric constant tensor:
#      x y z
#    x 1.921820 -0.008300 0.008260 
#    y -0.008300 1.951540 0.007540 
#    z 0.008260 0.007540 1.946580 
# 
# From -- ./inp_files/604989.got.cif
#   From: 2010.06.25/outbox.cif.g09.slc.cpg/sg2_303_cif.got.tgz:604989.got - 2010.06.27 13:26:56.
