data_PCOD8021893
_publ_section_title
;
Structure prediction by ZEFSAII (Michael W. Deem and Ramdas Pophale) SiO2 
 PCOD8021893
Probable space group: P -1
;
_chemical_formula_sum "Si O2"
_cell_formula_units_Z 16
_cell_length_a 12.695326
_cell_length_b 12.997763
_cell_length_c 6.580154
_cell_angle_alpha 119.340435
_cell_angle_beta 64.701614
_cell_angle_gamma 133.169624
_cell_volume 683.042045
_symmetry_space_group_name_H-M "P -1"
_symmetry_group_IT_number 2
_symmetry_cell_setting 'triclinic'
loop_
_space_group_symop_operation_xyz
x,y,z
-x,-y,-z
loop_
_atom_site_type_symbol
_atom_site_label
_atom_site_fract_x
_atom_site_fract_y
_atom_site_fract_z
Si Si1 0.744115 0.627293 0.257694
Si Si2 0.154823 0.844854 0.630248
Si Si3 0.312044 0.115867 0.016626
Si Si4 0.567733 0.315021 0.273946
Si Si5 0.025795 0.384989 0.123488
Si Si6 0.059596 0.116187 0.379828
Si Si7 0.458094 0.349879 0.787128
Si Si8 0.188270 0.701116 0.123751
O O1 0.609233 0.460070 0.262267
O O2 0.842231 0.715507 0.457598
O O3 0.681197 0.710336 0.300315
O O4 0.842783 0.628020 0.005105
O O5 0.244768 0.834506 0.365566
O O6 0.048258 0.682171 0.662561
O O7 0.068574 0.905517 0.670252
O O8 0.267539 0.959243 0.820044
O O9 0.423163 0.236809 0.879601
O O10 0.406416 0.170319 0.199976
O O11 0.163335 0.098908 0.139172
O O12 0.573939 0.353680 0.546430
O O13 0.684557 0.285279 0.094194
O O14 0.090087 0.553979 0.199735
O O15 0.911265 0.289570 0.945089
O O16 0.000000 0.000000 0.500000
O O17 0.500000 0.500000 0.000000
#
# Coordination Sequence:
#
# PCOD8021893 Si02
#       8
#     2   2   2   2   2   2   2   2
#     4  11  20  42  70  96 134 175 222 282 350 392
#     4  12  25  43  71 100 137 183 229 279 342 405
#     4  12  26  42  66 102 139 177 228 276 341 413
#     4  11  25  43  66 100 137 178 224 280 336 402
#     4  10  22  44  70 101 134 173 232 292 332 399
#     4  12  24  43  72 100 142 175 221 287 349 405
#     4  12  23  42  69 100 135 176 223 279 342 406
#     4  10  24  45  69  99 136 182 231 278 340 397
#
# _framework density 23.424621999999999
#
# number of rings (size 3 to 8) (size 9 to 14) (size 15 to 20)
#    0.000    0.750    3.750    4.125    0.000    1.500 
#    0.000    1.250    0.000    0.000    0.000    0.000 
#    0.000    0.000    0.000    0.000    0.000    0.000 
#
# Total GULP energy -198342.106864 kJ/mol
# GULP energy per Si atom -12396.381679 kJ/mol
# Density = 2.337131 g / cm^3
# Si number density = 23.424622 Si / 1000 Ang^3
#
#
#
# Elastic Constant Matrix: (Units=GPa)
#
#
# Indices 1 2 3 4 5 6 
#
# 1 52.3653 28.2488 24.0047 -7.8921 -2.7313 -2.4759
# 2 28.2488 72.6211 47.4887 -0.3549 -4.7155 6.6087
# 3 24.0047 47.4887 176.3170 4.2265 -27.1155 9.2962
# 4 -7.8921 -0.3549 4.2265 44.0618 5.9654 11.5236
# 5 -2.7313 -4.7155 -27.1155 5.9654 30.8021 -0.1475
# 6 -2.4759 6.6087 9.2962 11.5236 -0.1475 25.7257
#
#
#
# Elastic Compliance Matrix: (Units=1/GPa)
#
#
# Indices 1 2 3 4 5 6 
#
# 1 0.025493 -0.009388 -0.001401 0.003823 -0.001133 0.003652
# 2 -0.009388 0.020536 -0.004240 0.000355 -0.001513 -0.004814
# 3 -0.001401 -0.004240 0.008139 -0.001659 0.006707 -0.001205
# 4 0.003823 0.000355 -0.001659 0.027403 -0.006429 -0.011436
# 5 -0.001133 -0.001513 0.006707 -0.006429 0.039287 0.000961
# 6 0.003652 -0.004814 -0.001205 -0.011436 0.000961 0.046023
#
#
# Mechanical properties :
#
#
# Convention : Reuss Voigt Hill
#
# Bulk Modulus (GPa) = 41.47550 55.64309 48.55930
# Shear Modulus (GPa) = 24.39301 33.55533 28.97417
#
# Velocity S-wave (km/s) = 3.23048 3.78892 3.52079
# Velocity P-wave (km/s) = 5.62664 6.55339 6.10762
#
# Compressibility (1/GPa) = 0.02411062
#
# Stress axis : x y z
#
# Youngs Moduli (GPa) = 39.22688 48.69404 122.86230
#
# Poissons Ratio (x) = 0.45713 0.17209
# Poissons Ratio (y) = 0.36825 0.52100
# Poissons Ratio (z) = 0.05494 0.20649
#
# Static dielectric constant tensor:
#      x y z
#    x 4.047290 0.083610 0.046200 
#    y 0.083610 4.161700 0.082460 
#    z 0.046200 0.082460 4.392180 
# 
# 
# High freq. dielectric constant tensor:
#      x y z
#    x 1.910150 0.002720 -0.002310 
#    y 0.002720 1.915010 0.004470 
#    z -0.002310 0.004470 1.945030 
# 
# From -- ./inp_files/98569.got.cif
#   From: 2010.06.25/outbox.cif.g09.slc.cpg/sg2_50_cif.got.tgz:98569.got - 2010.06.27 13:26:56.
