data_PCOD8021783
_publ_section_title
;
Structure prediction by ZEFSAII (Michael W. Deem and Ramdas Pophale) SiO2 
 PCOD8021783
Probable space group: P -1
;
_chemical_formula_sum "Si O2"
_cell_formula_units_Z 16
_cell_length_a 5.524472
_cell_length_b 12.373723
_cell_length_c 11.683537
_cell_angle_alpha 58.196856
_cell_angle_beta 92.485809
_cell_angle_gamma 104.380645
_cell_volume 653.764569
_symmetry_space_group_name_H-M "P -1"
_symmetry_group_IT_number 2
_symmetry_cell_setting 'triclinic'
loop_
_space_group_symop_operation_xyz
x,y,z
-x,-y,-z
loop_
_atom_site_type_symbol
_atom_site_label
_atom_site_fract_x
_atom_site_fract_y
_atom_site_fract_z
Si Si1 0.492104 0.185444 0.322904
Si Si2 0.365633 0.678519 0.130919
Si Si3 0.286584 0.581376 0.438354
Si Si4 0.876496 0.228171 0.122341
Si Si5 0.856292 0.251704 0.476466
Si Si6 0.900954 0.003071 0.709403
Si Si7 0.717942 0.948069 0.974583
Si Si8 0.772120 0.607955 0.774930
O O1 0.616221 0.224891 0.179835
O O2 0.679532 0.150795 0.438847
O O3 0.245894 0.066365 0.367712
O O4 0.433259 0.315617 0.300699
O O5 0.299562 0.648507 0.278006
O O6 0.370649 0.546229 0.134968
O O7 0.148518 0.732126 0.032821
O O8 0.634475 0.787658 0.067857
O O9 0.500000 0.500000 0.500000
O O10 0.324400 0.695993 0.470090
O O11 0.000000 0.500000 0.500000
O O12 0.898051 0.077300 0.209240
O O13 0.098312 0.334908 0.133439
O O14 0.038690 0.370548 0.342474
O O15 0.011579 0.158866 0.594845
O O16 0.716569 0.995355 0.817708
O O17 0.500000 0.000000 0.000000
O O18 0.000000 0.000000 0.000000
#
# Coordination Sequence:
#
# PCOD8021783 Si02
#       8
#     2   2   2   2   2   2   2   2
#     4  10  22  44  68 110 148 195 258 312 390 457
#     4  12  24  50  78 108 158 200 255 326 390 466
#     4  12  28  51  76 115 156 203 257 313 391 465
#     4  10  23  44  72 115 150 200 255 319 388 464
#     4  11  24  44  72 107 152 201 257 317 380 461
#     4  11  24  45  72 106 153 199 260 315 387 454
#     4  12  28  51  73 110 147 203 256 311 380 451
#     4  10  23  44  73 112 151 199 258 314 396 459
#
# _framework density 24.473641000000001
#
# number of rings (size 3 to 8) (size 9 to 14) (size 15 to 20)
#    0.000    1.000    2.500    3.000    0.000    9.000 
#    9.000    0.000    0.000    0.000    0.000    0.000 
#    0.000    0.000    0.000    0.000    0.000    0.000 
#
# Total GULP energy -198250.681910 kJ/mol
# GULP energy per Si atom -12390.667619 kJ/mol
# Density = 2.441794 g / cm^3
# Si number density = 24.473641 Si / 1000 Ang^3
#
#
#
# Elastic Constant Matrix: (Units=GPa)
#
#
# Indices 1 2 3 4 5 6 
#
# 1 117.2047 55.5293 44.4857 -4.2836 8.4090 -5.9661
# 2 55.5293 126.6334 53.7381 -14.7990 9.6668 -2.4116
# 3 44.4857 53.7381 153.8078 0.6896 21.7718 2.5893
# 4 -4.2836 -14.7990 0.6896 41.4418 -2.8641 -3.8456
# 5 8.4090 9.6668 21.7718 -2.8641 24.4565 -3.3988
# 6 -5.9661 -2.4116 2.5893 -3.8456 -3.3988 44.9413
#
#
#
# Elastic Compliance Matrix: (Units=1/GPa)
#
#
# Indices 1 2 3 4 5 6 
#
# 1 0.011262 -0.004153 -0.001756 -0.000203 -0.000508 0.001318
# 2 -0.004153 0.011347 -0.002778 0.003713 -0.000075 0.000530
# 3 -0.001756 -0.002778 0.008967 -0.001934 -0.006726 -0.001573
# 4 -0.000203 0.003713 -0.001934 0.025986 0.003755 0.002791
# 5 -0.000508 -0.000075 -0.006726 0.003755 0.048115 0.004276
# 6 0.001318 0.000530 -0.001573 0.002791 0.004276 0.023107
#
#
# Mechanical properties :
#
#
# Convention : Reuss Voigt Hill
#
# Bulk Modulus (GPa) = 70.41048 78.35024 74.38036
# Shear Modulus (GPa) = 33.13608 38.42742 35.78175
#
# Velocity S-wave (km/s) = 3.68360 3.96682 3.82783
# Velocity P-wave (km/s) = 6.85013 7.28454 7.07067
#
# Compressibility (1/GPa) = 0.01420243
#
# Stress axis : x y z
#
# Youngs Moduli (GPa) = 88.79142 88.13152 111.51731
#
# Poissons Ratio (x) = 0.36604 0.19578
# Poissons Ratio (y) = 0.36878 0.30979
# Poissons Ratio (z) = 0.15588 0.24483
#
# Static dielectric constant tensor:
#      x y z
#    x 4.282410 -0.069850 0.056940 
#    y -0.069850 4.787890 0.186500 
#    z 0.056940 0.186500 4.567630 
# 
# 
# High freq. dielectric constant tensor:
#      x y z
#    x 1.957590 -0.004530 0.008260 
#    y -0.004530 1.987790 0.011190 
#    z 0.008260 0.011190 1.977050 
# 
# From -- ./inp_files/363894.got.cif
#   From: 2010.06.25/outbox.cif.g09.slc.cpg/sg2_182_cif.got.tgz:363894.got - 2010.06.27 13:26:56.
