data_PCOD8021984
_publ_section_title
;
Structure prediction by ZEFSAII (Michael W. Deem and Ramdas Pophale) SiO2 
 PCOD8021984
Probable space group: P -1
;
_chemical_formula_sum "Si O2"
_cell_formula_units_Z 14
_cell_length_a 14.754294
_cell_length_b 13.354670
_cell_length_c 9.589535
_cell_angle_alpha 110.236577
_cell_angle_beta 130.892560
_cell_angle_gamma 31.441495
_cell_volume 627.468193
_symmetry_space_group_name_H-M "P -1"
_symmetry_group_IT_number 2
_symmetry_cell_setting 'triclinic'
loop_
_space_group_symop_operation_xyz
x,y,z
-x,-y,-z
loop_
_atom_site_type_symbol
_atom_site_label
_atom_site_fract_x
_atom_site_fract_y
_atom_site_fract_z
Si Si1 0.650035 0.454904 0.238032
Si Si2 0.957453 0.484853 0.801067
Si Si3 0.427503 0.845044 0.325585
Si Si4 0.545918 0.840255 0.952448
Si Si5 0.177671 0.091845 0.927380
Si Si6 0.734726 0.284890 0.534926
Si Si7 0.199732 0.006896 0.469752
O O1 0.496089 0.682688 0.233801
O O2 0.681369 0.359080 0.359688
O O3 0.923927 0.273277 0.360046
O O4 0.500000 0.500000 0.000000
O O5 0.674853 0.714796 0.565226
O O6 0.027758 0.304423 0.800319
O O7 0.000000 0.500000 0.000000
O O8 0.144385 0.409752 0.855310
O O9 0.239177 0.969462 0.325049
O O10 0.281127 0.037170 0.160527
O O11 0.421953 0.870311 0.968532
O O12 0.428390 0.896661 0.712956
O O13 0.500000 0.000000 0.000000
O O14 0.990143 0.139943 0.778539
O O15 0.500000 0.500000 0.500000
O O16 0.784696 0.121026 0.508376
#
# Coordination Sequence:
#
# PCOD8021984 Si02
#       7
#     2   2   2   2   2   2   2
#     4  12  26  43  67 105 143 184 237 286 348 423
#     4  11  22  46  72  98 138 182 234 290 346 410
#     4  12  26  47  70 108 141 181 240 289 349 424
#     4  10  22  44  71  95 136 184 230 290 351 407
#     4  11  25  45  70 102 141 179 234 294 348 416
#     4  12  24  44  72 100 145 189 230 289 358 418
#     4  12  24  45  72  99 144 191 228 290 354 416
#
# _framework density 22.311889999999998
#
# number of rings (size 3 to 8) (size 9 to 14) (size 15 to 20)
#    0.000    0.571    5.714    2.143    4.000    2.286 
#    2.571    0.000    0.000    0.000    0.000    0.000 
#    0.000    0.000    0.000    0.000    0.000    0.000 
#
# Total GULP energy -173582.385522 kJ/mol
# GULP energy per Si atom -12398.741823 kJ/mol
# Density = 2.226111 g / cm^3
# Si number density = 22.311890 Si / 1000 Ang^3
#
#
#
# Elastic Constant Matrix: (Units=GPa)
#
#
# Indices 1 2 3 4 5 6 
#
# 1 94.7287 35.1394 49.3896 -9.0147 7.4842 -37.1371
# 2 35.1394 80.5813 15.7824 9.5659 7.9386 -31.2598
# 3 49.3896 15.7824 150.7404 7.5373 3.1006 -18.0246
# 4 -9.0147 9.5659 7.5373 36.4077 -0.6467 3.7424
# 5 7.4842 7.9386 3.1006 -0.6467 46.5422 3.2912
# 6 -37.1371 -31.2598 -18.0246 3.7424 3.2912 43.5886
#
#
#
# Elastic Compliance Matrix: (Units=1/GPa)
#
#
# Indices 1 2 3 4 5 6 
#
# 1 0.019970 -0.003284 -0.004929 0.005499 -0.003122 0.012384
# 2 -0.003284 0.019936 0.000991 -0.007649 -0.003954 0.012864
# 3 -0.004929 0.000991 0.008335 -0.003230 0.000007 0.000234
# 4 0.005499 -0.007649 -0.003230 0.032046 0.001434 -0.004995
# 5 -0.003122 -0.003954 0.000007 0.001434 0.023203 -0.007368
# 6 0.012384 0.012864 0.000234 -0.004995 -0.007368 0.043801
#
#
# Mechanical properties :
#
#
# Convention : Reuss Voigt Hill
#
# Bulk Modulus (GPa) = 29.58996 58.51923 44.05459
# Shear Modulus (GPa) = 28.90196 40.35697 34.62946
#
# Velocity S-wave (km/s) = 3.60302 4.25757 3.94390
# Velocity P-wave (km/s) = 5.53170 7.10310 6.36607
#
# Compressibility (1/GPa) = 0.03379525
#
# Stress axis : x y z
#
# Youngs Moduli (GPa) = 50.07612 50.16126 119.98207
#
# Poissons Ratio (x) = 0.16473 0.59140
# Poissons Ratio (y) = 0.16445 -0.11887
# Poissons Ratio (z) = 0.24683 -0.04970
#
# Static dielectric constant tensor:
#      x y z
#    x 5.141680 -0.421870 0.748290 
#    y -0.421870 4.299690 -0.118430 
#    z 0.748290 -0.118430 4.793380 
# 
# 
# High freq. dielectric constant tensor:
#      x y z
#    x 1.878210 -0.022510 0.013420 
#    y -0.022510 1.883480 0.008560 
#    z 0.013420 0.008560 1.889170 
# 
# From -- ./inp_files/221459.got.cif
#   From: 2010.06.25/outbox.cif.g09.slc.cpg/sg2_111_cif.got.tgz:221459.got - 2010.06.27 13:26:56.
