data_PCOD8021658
_publ_section_title
;
Structure prediction by ZEFSAII (Michael W. Deem and Ramdas Pophale) SiO2 
 PCOD8021658
Probable space group: P -1
;
_chemical_formula_sum "Si O2"
_cell_formula_units_Z 16
_cell_length_a 9.195730
_cell_length_b 8.888356
_cell_length_c 19.145957
_cell_angle_alpha 36.252737
_cell_angle_beta 125.391071
_cell_angle_gamma 107.051904
_cell_volume 703.666183
_symmetry_space_group_name_H-M "P -1"
_symmetry_group_IT_number 2
_symmetry_cell_setting 'triclinic'
loop_
_space_group_symop_operation_xyz
x,y,z
-x,-y,-z
loop_
_atom_site_type_symbol
_atom_site_label
_atom_site_fract_x
_atom_site_fract_y
_atom_site_fract_z
Si Si1 0.274983 0.729955 0.930281
Si Si2 0.708386 0.979219 0.043212
Si Si3 0.676634 0.208660 0.802424
Si Si4 0.783784 0.018320 0.422218
Si Si5 0.100326 0.597573 0.314280
Si Si6 0.589246 0.226867 0.425257
Si Si7 0.501860 0.165548 0.164335
Si Si8 0.067639 0.747012 0.400275
O O1 0.257699 0.787591 0.986847
O O2 0.460777 0.758769 0.933077
O O3 0.309904 0.409013 0.048778
O O4 0.098780 0.956432 0.757999
O O5 0.747960 0.001984 0.964126
O O6 0.868176 0.685881 0.218992
O O7 0.500000 0.000000 0.000000
O O8 0.850076 0.224394 0.798608
O O9 0.564456 0.488784 0.703643
O O10 0.544458 0.110148 0.750414
O O11 0.638704 0.226343 0.357447
O O12 0.691227 0.112426 0.284904
O O13 0.789113 0.716799 0.553899
O O14 0.000000 0.000000 0.500000
O O15 0.166161 0.663682 0.383535
O O16 0.783526 0.190233 0.532577
O O17 0.500000 0.000000 0.500000
O O18 0.000000 0.500000 0.500000
#
# Coordination Sequence:
#
# PCOD8021658 Si02
#       8
#     2   2   2   2   2   2   2   2
#     4  10  22  44  66 106 131 182 239 290 343 421
#     4  11  24  44  71 100 138 183 232 290 352 424
#     4  12  25  46  68 100 143 186 232 290 364 427
#     4  12  26  43  70 105 137 181 238 297 351 425
#     4  11  26  44  70 102 138 185 233 288 357 428
#     4  12  26  44  68 105 144 182 230 299 364 420
#     4  11  24  41  72  99 138 184 232 286 355 420
#     4  11  24  46  73 101 142 188 241 290 354 432
#
# _framework density 22.738054999999999
#
# number of rings (size 3 to 8) (size 9 to 14) (size 15 to 20)
#    0.000    0.750    2.500    4.875    7.000    2.000 
#    2.250    1.250    0.000    0.000    0.000    0.000 
#    0.000    0.000    0.000    0.000    0.000    0.000 
#
# Total GULP energy -198275.560250 kJ/mol
# GULP energy per Si atom -12392.222516 kJ/mol
# Density = 2.268630 g / cm^3
# Si number density = 22.738055 Si / 1000 Ang^3
#
#
#
# Elastic Constant Matrix: (Units=GPa)
#
#
# Indices 1 2 3 4 5 6 
#
# 1 98.6043 43.3743 20.1626 8.5250 -10.9072 -12.2824
# 2 43.3743 122.9809 44.7394 0.4625 1.3127 -3.2152
# 3 20.1626 44.7394 88.1552 1.3904 2.9827 -0.2789
# 4 8.5250 0.4625 1.3904 40.2860 -8.6041 -0.7175
# 5 -10.9072 1.3127 2.9827 -8.6041 37.3898 2.0357
# 6 -12.2824 -3.2152 -0.2789 -0.7175 2.0357 43.4111
#
#
#
# Elastic Compliance Matrix: (Units=1/GPa)
#
#
# Indices 1 2 3 4 5 6 
#
# 1 0.013143 -0.004243 -0.000929 -0.001908 0.003444 0.003205
# 2 -0.004243 0.011364 -0.004773 0.000696 -0.001078 -0.000327
# 3 -0.000929 -0.004773 0.014029 -0.000523 -0.001317 -0.000473
# 4 -0.001908 0.000696 -0.000523 0.026418 0.005557 -0.000316
# 5 0.003444 -0.001078 -0.001317 0.005557 0.029193 -0.000391
# 6 0.003205 -0.000327 -0.000473 -0.000316 -0.000391 0.023928
#
#
# Mechanical properties :
#
#
# Convention : Reuss Voigt Hill
#
# Bulk Modulus (GPa) = 53.62599 58.47700 56.05150
# Shear Modulus (GPa) = 34.67859 37.64833 36.16346
#
# Velocity S-wave (km/s) = 3.90953 4.07349 3.99236
# Velocity P-wave (km/s) = 6.63436 6.92084 6.77911
#
# Compressibility (1/GPa) = 0.01864767
#
# Stress axis : x y z
#
# Youngs Moduli (GPa) = 76.08499 87.99340 71.27848
#
# Poissons Ratio (x) = 0.37339 0.06620
# Poissons Ratio (y) = 0.32286 0.34018
# Poissons Ratio (z) = 0.07067 0.41995
#
# Static dielectric constant tensor:
#      x y z
#    x 4.079470 -0.318770 -0.035280 
#    y -0.318770 4.433570 0.004860 
#    z -0.035280 0.004860 4.227640 
# 
# 
# High freq. dielectric constant tensor:
#      x y z
#    x 1.885400 -0.025130 0.007310 
#    y -0.025130 1.910590 -0.000400 
#    z 0.007310 -0.000400 1.901700 
# 
# From -- ./inp_files/381493.got.cif
#   From: 2010.06.25/outbox.cif.g09.slc.cpg/sg2_191_cif.got.tgz:381493.got - 2010.06.27 13:26:56.
