data_PCOD8021729
_publ_section_title
;
Structure prediction by ZEFSAII (Michael W. Deem and Ramdas Pophale) SiO2 
 PCOD8021729
Probable space group: P -1
;
_chemical_formula_sum "Si O2"
_cell_formula_units_Z 16
_cell_length_a 17.264049
_cell_length_b 9.134193
_cell_length_c 8.455659
_cell_angle_alpha 120.098094
_cell_angle_beta 49.964211
_cell_angle_gamma 87.231233
_cell_volume 731.823888
_symmetry_space_group_name_H-M "P -1"
_symmetry_group_IT_number 2
_symmetry_cell_setting 'triclinic'
loop_
_space_group_symop_operation_xyz
x,y,z
-x,-y,-z
loop_
_atom_site_type_symbol
_atom_site_label
_atom_site_fract_x
_atom_site_fract_y
_atom_site_fract_z
Si Si1 0.497339 0.744054 0.987988
Si Si2 0.628760 0.280526 0.562780
Si Si3 0.318961 0.142816 0.253568
Si Si4 0.232563 0.982142 0.028048
Si Si5 0.894268 0.204225 0.833980
Si Si6 0.115817 0.417077 0.915347
Si Si7 0.030362 0.310885 0.257311
Si Si8 0.884114 0.213192 0.217535
O O1 0.539212 0.517513 0.758060
O O2 0.613050 0.760715 0.860846
O O3 0.429311 0.788713 0.268656
O O4 0.409680 0.907899 0.060456
O O5 0.755722 0.242847 0.438056
O O6 0.649716 0.140893 0.307004
O O7 0.239307 0.282504 0.579680
O O8 0.235731 0.138842 0.223980
O O9 0.109103 0.105034 0.148272
O O10 0.222788 0.810502 0.040247
O O11 0.882757 0.405131 0.890565
O O12 0.906354 0.242577 0.023503
O O13 0.000000 0.000000 0.500000
O O14 0.115429 0.276305 0.975954
O O15 0.000000 0.500000 0.000000
O O16 0.000000 0.500000 0.500000
O O17 0.899766 0.362370 0.392324
O O18 0.000000 0.000000 0.000000
#
# Coordination Sequence:
#
# PCOD8021729 Si02
#       8
#     2   2   2   2   2   2   2   2
#     4  10  24  45  70  87 125 177 225 262 327 373
#     4  10  22  44  67  96 124 173 218 267 318 389
#     4  11  24  44  67  95 127 174 215 277 323 374
#     4  11  24  40  64  94 134 165 222 267 318 393
#     4  11  22  38  58  95 135 172 204 253 321 396
#     4  12  24  39  66  96 135 170 209 266 329 385
#     4  12  24  39  60 102 137 172 205 257 332 399
#     4  11  22  39  68  94 136 168 205 264 325 394
#
# _framework density 21.863182999999999
#
# number of rings (size 3 to 8) (size 9 to 14) (size 15 to 20)
#    0.000    1.000    3.750    4.500    1.750    1.000 
#    0.000    0.000    0.000    0.000    0.000    0.000 
#    0.000    0.000    0.000    0.000    0.000    0.000 
#
# Total GULP energy -198288.490969 kJ/mol
# GULP energy per Si atom -12393.030686 kJ/mol
# Density = 2.181342 g / cm^3
# Si number density = 21.863183 Si / 1000 Ang^3
#
#
#
# Elastic Constant Matrix: (Units=GPa)
#
#
# Indices 1 2 3 4 5 6 
#
# 1 82.0956 19.0951 24.2934 -8.2913 9.5136 19.8575
# 2 19.0951 93.3825 16.4786 -13.3281 -3.9976 18.1675
# 3 24.2934 16.4786 113.1686 -9.7426 6.4545 16.5345
# 4 -8.2913 -13.3281 -9.7426 39.0655 7.5565 -3.6890
# 5 9.5136 -3.9976 6.4545 7.5565 35.1227 6.1756
# 6 19.8575 18.1675 16.5345 -3.6890 6.1756 29.7945
#
#
#
# Elastic Compliance Matrix: (Units=1/GPa)
#
#
# Indices 1 2 3 4 5 6 
#
# 1 0.015400 -0.001162 -0.001629 0.002348 -0.003154 -0.007707
# 2 -0.001162 0.012911 -0.000504 0.002894 0.002481 -0.006974
# 3 -0.001629 -0.000504 0.010029 0.001870 -0.001213 -0.003690
# 4 0.002348 0.002894 0.001870 0.028968 -0.007000 0.000670
# 5 -0.003154 0.002481 -0.001213 -0.007000 0.032450 -0.006330
# 6 -0.007707 -0.006974 -0.003690 0.000670 -0.006330 0.046395
#
#
# Mechanical properties :
#
#
# Convention : Reuss Voigt Hill
#
# Bulk Modulus (GPa) = 31.49531 45.37564 38.43548
# Shear Modulus (GPa) = 30.61367 36.04852 33.33109
#
# Velocity S-wave (km/s) = 3.74604 4.06498 3.90876
# Velocity P-wave (km/s) = 5.75737 6.54457 6.16355
#
# Compressibility (1/GPa) = 0.03175075
#
# Stress axis : x y z
#
# Youngs Moduli (GPa) = 64.93495 77.45131 99.71521
#
# Poissons Ratio (x) = 0.09001 0.16239
# Poissons Ratio (y) = 0.07547 0.05024
# Poissons Ratio (z) = 0.10575 0.03903
#
# Static dielectric constant tensor:
#      x y z
#    x 6.697470 0.009060 0.307630 
#    y 0.009060 4.038550 0.219250 
#    z 0.307630 0.219250 4.026710 
# 
# 
# High freq. dielectric constant tensor:
#      x y z
#    x 1.836020 0.018160 0.011180 
#    y 0.018160 1.878400 0.000330 
#    z 0.011180 0.000330 1.867060 
# 
# From -- ./inp_files/245519.got.cif
#   From: 2010.06.25/outbox.cif.g09.slc.cpg/sg2_123_cif.got.tgz:245519.got - 2010.06.27 13:26:56.
