data_PCOD8021451
_publ_section_title
;
Structure prediction by ZEFSAII (Michael W. Deem and Ramdas Pophale) SiO2 
 PCOD8021451
Probable space group: P -1
;
_chemical_formula_sum "Si O2"
_cell_formula_units_Z 14
_cell_length_a 14.339938
_cell_length_b 6.717519
_cell_length_c 11.412978
_cell_angle_alpha 51.267842
_cell_angle_beta 121.680473
_cell_angle_gamma 137.450129
_cell_volume 575.630847
_symmetry_space_group_name_H-M "P -1"
_symmetry_group_IT_number 2
_symmetry_cell_setting 'triclinic'
loop_
_space_group_symop_operation_xyz
x,y,z
-x,-y,-z
loop_
_atom_site_type_symbol
_atom_site_label
_atom_site_fract_x
_atom_site_fract_y
_atom_site_fract_z
Si Si1 0.516007 0.556540 0.851657
Si Si2 0.193632 0.248641 0.083065
Si Si3 0.583283 0.222841 0.656421
Si Si4 0.626085 0.779982 0.334626
Si Si5 0.886732 0.740330 0.735320
Si Si6 0.008822 0.429401 0.882763
Si Si7 0.938919 0.267466 0.433883
O O1 0.644974 0.568474 0.890632
O O2 0.383822 0.259440 0.799787
O O3 0.534045 0.876081 0.707362
O O4 0.500000 0.500000 0.000000
O O5 0.136059 0.097520 0.231016
O O6 0.159401 0.505847 0.950924
O O7 0.108647 0.958438 0.039682
O O8 0.579112 0.433754 0.477009
O O9 0.483974 0.164859 0.718467
O O10 0.739692 0.402596 0.735213
O O11 0.774797 0.081725 0.370673
O O12 0.985613 0.640560 0.878862
O O13 0.954256 0.989208 0.579367
O O14 0.978968 0.538392 0.700258
O O15 0.000000 0.500000 0.500000
#
# Coordination Sequence:
#
# PCOD8021451 Si02
#       7
#     2   2   2   2   2   2   2
#     4  12  26  45  71 106 140 184 232 288 349 415
#     4  11  24  44  68  97 142 185 230 285 341 420
#     4  10  22  43  73 101 132 183 234 285 352 417
#     4  10  24  46  71 101 138 181 231 295 348 405
#     4  11  21  45  73  97 137 186 230 285 352 407
#     4  11  24  43  66 102 138 185 229 280 347 418
#     4  11  24  45  72 104 139 177 232 298 343 409
#
# _framework density 24.321141999999998
#
# number of rings (size 3 to 8) (size 9 to 14) (size 15 to 20)
#    0.000    1.143    4.286    1.286    2.000    1.714 
#   12.857    0.000    0.000    0.000    0.000    0.000 
#    0.000    0.000    0.000    0.000    0.000    0.000 
#
# Total GULP energy -173487.497245 kJ/mol
# GULP energy per Si atom -12391.964089 kJ/mol
# Density = 2.426579 g / cm^3
# Si number density = 24.321142 Si / 1000 Ang^3
#
#
#
# Elastic Constant Matrix: (Units=GPa)
#
#
# Indices 1 2 3 4 5 6 
#
# 1 106.9428 35.2138 40.1203 -7.0611 27.4976 -15.5390
# 2 35.2138 135.5757 21.4025 16.1893 13.0371 -0.6906
# 3 40.1203 21.4025 79.3880 3.1889 21.4463 3.0567
# 4 -7.0611 16.1893 3.1889 35.1014 -9.0223 -1.1930
# 5 27.4976 13.0371 21.4463 -9.0223 42.2088 -2.8523
# 6 -15.5390 -0.6906 3.0567 -1.1930 -2.8523 26.3772
#
#
#
# Elastic Compliance Matrix: (Units=1/GPa)
#
#
# Indices 1 2 3 4 5 6 
#
# 1 0.015561 -0.003082 -0.006397 0.004336 -0.004363 0.009552
# 2 -0.003082 0.009008 -0.000024 -0.005368 -0.002048 -0.002041
# 3 -0.006397 -0.000024 0.018039 -0.004810 -0.006477 -0.006777
# 4 0.004336 -0.005368 -0.004810 0.034798 0.009089 0.005528
# 5 -0.004363 -0.002048 -0.006477 0.009089 0.032540 0.002056
# 6 0.009552 -0.002041 -0.006777 0.005528 0.002056 0.044743
#
#
# Mechanical properties :
#
#
# Convention : Reuss Voigt Hill
#
# Bulk Modulus (GPa) = 42.36424 57.26440 49.81432
# Shear Modulus (GPa) = 27.53888 35.74881 31.64384
#
# Velocity S-wave (km/s) = 3.36862 3.83804 3.61097
# Velocity P-wave (km/s) = 5.70847 6.57548 6.15726
#
# Compressibility (1/GPa) = 0.02360481
#
# Stress axis : x y z
#
# Youngs Moduli (GPa) = 64.26144 111.01715 55.43405
#
# Poissons Ratio (x) = 0.34211 0.35459
# Poissons Ratio (y) = 0.19803 0.00131
# Poissons Ratio (z) = 0.41106 0.00262
#
# Static dielectric constant tensor:
#      x y z
#    x 4.318570 -0.202510 0.066990 
#    y -0.202510 4.197270 0.055690 
#    z 0.066990 0.055690 4.688250 
# 
# 
# High freq. dielectric constant tensor:
#      x y z
#    x 1.958570 -0.018360 0.009900 
#    y -0.018360 1.963960 0.007240 
#    z 0.009900 0.007240 1.985520 
# 
# From -- ./inp_files/97508.got.cif
#   From: 2010.06.25/outbox.cif.g09.slc.cpg/sg2_49_cif.got.tgz:97508.got - 2010.06.27 13:26:56.
