data_PCOD8021072
_publ_section_title
;
Structure prediction by ZEFSAII (Michael W. Deem and Ramdas Pophale) SiO2 
 PCOD8021072
Probable space group: P -1
;
_chemical_formula_sum "Si O2"
_cell_formula_units_Z 10
_cell_length_a 12.703941
_cell_length_b 5.187165
_cell_length_c 8.342678
_cell_angle_alpha 55.648242
_cell_angle_beta 114.132894
_cell_angle_gamma 113.269181
_cell_volume 404.233414
_symmetry_space_group_name_H-M "P -1"
_symmetry_group_IT_number 2
_symmetry_cell_setting 'triclinic'
loop_
_space_group_symop_operation_xyz
x,y,z
-x,-y,-z
loop_
_atom_site_type_symbol
_atom_site_label
_atom_site_fract_x
_atom_site_fract_y
_atom_site_fract_z
Si Si1 0.155314 0.183986 0.872557
Si Si2 0.669142 0.276052 0.379921
Si Si3 0.924956 0.762427 0.842758
Si Si4 0.277623 0.688920 0.250143
Si Si5 0.475207 0.229228 0.765923
O O1 0.220032 0.513697 0.718970
O O2 0.138930 0.206026 0.042797
O O3 0.024735 0.078360 0.745225
O O4 0.238653 0.921869 0.009751
O O5 0.715467 0.165622 0.616620
O O6 0.382466 0.032144 0.650926
O O7 0.571096 0.481752 0.283099
O O8 0.820515 0.649663 0.686996
O O9 0.000000 0.500000 0.000000
O O10 0.404179 0.619371 0.306000
O O11 0.500000 0.000000 0.000000
#
# Coordination Sequence:
#
# PCOD8021072 Si02
#       5
#     2   2   2   2   2
#     4  10  22  43  67  94 132 173 221 267 330 386
#     4  12  27  42  69 102 131 174 220 268 326 393
#     4   9  21  42  67  94 127 175 217 272 328 385
#     4  11  24  41  68  95 136 170 218 272 323 387
#     4  12  25  45  68  98 136 176 215 268 329 391
#
# _framework density 24.738181000000001
#
# number of rings (size 3 to 8) (size 9 to 14) (size 15 to 20)
#    0.000    1.200    2.000    3.000    8.400    0.800 
#    0.000    9.000    0.000    0.000    0.000    0.000 
#    0.000    0.000    0.000    0.000    0.000    0.000 
#
# Total GULP energy -123958.282043 kJ/mol
# GULP energy per Si atom -12395.828204 kJ/mol
# Density = 2.468188 g / cm^3
# Si number density = 24.738181 Si / 1000 Ang^3
#
#
#
# Elastic Constant Matrix: (Units=GPa)
#
#
# Indices 1 2 3 4 5 6 
#
# 1 116.6546 31.0785 5.2916 -3.4644 -14.6517 38.5976
# 2 31.0785 90.1517 4.2790 20.4295 8.1419 35.1285
# 3 5.2916 4.2790 61.1185 7.6556 2.9392 30.3524
# 4 -3.4644 20.4295 7.6556 37.1731 7.8902 5.6114
# 5 -14.6517 8.1419 2.9392 7.8902 23.6316 -1.3718
# 6 38.5976 35.1285 30.3524 5.6114 -1.3718 53.7233
#
#
#
# Elastic Compliance Matrix: (Units=1/GPa)
#
#
# Indices 1 2 3 4 5 6 
#
# 1 0.013265 -0.001642 0.003643 0.001431 0.007251 -0.010479
# 2 -0.001642 0.020036 0.007971 -0.008995 -0.006818 -0.015660
# 3 0.003643 0.007971 0.027789 -0.005560 -0.003425 -0.023036
# 4 0.001431 -0.008995 -0.005560 0.033825 -0.006366 0.004299
# 5 0.007251 -0.006818 -0.003425 -0.006366 0.051897 0.003174
# 6 -0.010479 -0.015660 -0.023036 0.004299 0.003174 0.049029
#
#
# Mechanical properties :
#
#
# Convention : Reuss Voigt Hill
#
# Bulk Modulus (GPa) = 12.34057 38.80256 25.57156
# Shear Modulus (GPa) = 24.64160 38.05730 31.34945
#
# Velocity S-wave (km/s) = 3.15952 3.92650 3.56371
# Velocity P-wave (km/s) = 4.27895 6.02295 5.22424
#
# Compressibility (1/GPa) = 0.08103355
#
# Stress axis : x y z
#
# Youngs Moduli (GPa) = 75.38746 49.91010 35.98492
#
# Poissons Ratio (x) = 0.08193 -0.13108
# Poissons Ratio (y) = 0.12376 -0.28683
# Poissons Ratio (z) = -0.27460 -0.39782
#
# Static dielectric constant tensor:
#      x y z
#    x 4.922240 0.670330 -0.058050 
#    y 0.670330 4.767070 0.304870 
#    z -0.058050 0.304870 4.115550 
# 
# 
# High freq. dielectric constant tensor:
#      x y z
#    x 2.006730 0.009110 0.004400 
#    y 0.009110 1.993650 0.006440 
#    z 0.004400 0.006440 1.959130 
# 
# From -- ./inp_files/5318.got.cif
#   From: 2010.06.25/outbox.cif.g09.slc.cpg/sg2_3_cif.got.tgz:5318.got - 2010.06.27 13:26:56.
