data_PCOD8021031
_publ_section_title
;
Structure prediction by ZEFSAII (Michael W. Deem and Ramdas Pophale) SiO2 
 PCOD8021031
Probable space group: P -1
;
_chemical_formula_sum "Si O2"
_cell_formula_units_Z 16
_cell_length_a 12.508287
_cell_length_b 9.462018
_cell_length_c 9.156767
_cell_angle_alpha 81.438152
_cell_angle_beta 93.323914
_cell_angle_gamma 43.952293
_cell_volume 721.937343
_symmetry_space_group_name_H-M "P -1"
_symmetry_group_IT_number 2
_symmetry_cell_setting 'triclinic'
loop_
_space_group_symop_operation_xyz
x,y,z
-x,-y,-z
loop_
_atom_site_type_symbol
_atom_site_label
_atom_site_fract_x
_atom_site_fract_y
_atom_site_fract_z
Si Si1 0.074497 0.045943 0.899060
Si Si2 0.348334 0.589885 0.891638
Si Si3 0.666629 0.780676 0.605879
Si Si4 0.352576 0.661407 0.568792
Si Si5 0.352636 0.286164 0.048108
Si Si6 0.132681 0.664754 0.415055
Si Si7 0.195484 0.108466 0.556321
Si Si8 0.719467 0.906684 0.105772
O O1 0.205467 0.845007 0.835575
O O2 0.170587 0.084749 0.973859
O O3 0.929122 0.252790 0.766102
O O4 0.000000 0.000000 0.000000
O O5 0.394704 0.525261 0.736040
O O6 0.500000 0.500000 0.000000
O O7 0.280411 0.513946 0.975695
O O8 0.660119 0.747953 0.780193
O O9 0.723769 0.589877 0.543205
O O10 0.788704 0.789624 0.585665
O O11 0.500000 0.000000 0.500000
O O12 0.500000 0.500000 0.500000
O O13 0.196144 0.751627 0.467579
O O14 0.320796 0.857966 0.574871
O O15 0.534719 0.124956 0.037552
O O16 0.255138 0.272073 0.940718
O O17 0.987218 0.758745 0.490712
O O18 0.231820 0.143190 0.712209
#
# Coordination Sequence:
#
# PCOD8021031 Si02
#       8
#     2   2   2   2   2   2   2   2
#     4  11  24  45  73 101 150 192 237 296 366 436
#     4  12  25  47  73 104 147 189 240 310 355 428
#     4  12  25  44  73 102 139 184 245 297 348 438
#     4  12  27  44  77 107 139 188 254 296 358 435
#     4  11  24  42  72 105 140 184 244 295 362 421
#     4  11  26  45  70 103 145 192 234 297 371 422
#     4  11  23  48  66 101 145 185 232 296 361 428
#     4  10  22  43  67 100 145 180 233 296 357 420
#
# _framework density 22.162586999999998
#
# number of rings (size 3 to 8) (size 9 to 14) (size 15 to 20)
#    0.000    0.750    5.000    2.250    5.250    3.000 
#    0.000    3.125    0.000    0.000    0.000    0.000 
#    0.000    0.000    0.000    0.000    0.000    0.000 
#
# Total GULP energy -198378.133871 kJ/mol
# GULP energy per Si atom -12398.633367 kJ/mol
# Density = 2.211214 g / cm^3
# Si number density = 22.162587 Si / 1000 Ang^3
#
#
#
# Elastic Constant Matrix: (Units=GPa)
#
#
# Indices 1 2 3 4 5 6 
#
# 1 167.8710 24.5036 63.1065 6.0973 -5.7045 14.8211
# 2 24.5036 102.8772 37.4639 -0.5482 1.1754 6.4351
# 3 63.1065 37.4639 99.9336 6.6749 -9.7599 8.1705
# 4 6.0973 -0.5482 6.6749 29.3064 3.5722 -0.3411
# 5 -5.7045 1.1754 -9.7599 3.5722 46.9200 -1.5368
# 6 14.8211 6.4351 8.1705 -0.3411 -1.5368 43.5776
#
#
#
# Elastic Compliance Matrix: (Units=1/GPa)
#
#
# Indices 1 2 3 4 5 6 
#
# 1 0.007956 -0.000024 -0.004835 -0.000569 -0.000054 -0.001802
# 2 -0.000024 0.011411 -0.004413 0.001377 -0.001341 -0.000886
# 3 -0.004835 -0.004413 0.015230 -0.002904 0.002896 -0.000480
# 4 -0.000569 0.001377 -0.002904 0.035347 -0.003376 0.000692
# 5 -0.000054 -0.001341 0.002896 -0.003376 0.022214 0.000430
# 6 -0.001802 -0.000886 -0.000480 0.000692 0.000430 0.023802
#
#
# Mechanical properties :
#
#
# Convention : Reuss Voigt Hill
#
# Bulk Modulus (GPa) = 62.29266 68.98109 65.63687
# Shear Modulus (GPa) = 35.75104 40.33464 38.04284
#
# Velocity S-wave (km/s) = 4.02073 4.27071 4.14760
# Velocity P-wave (km/s) = 7.05147 7.45058 7.25377
#
# Compressibility (1/GPa) = 0.01605326
#
# Stress axis : x y z
#
# Youngs Moduli (GPa) = 125.69147 87.63287 65.65809
#
# Poissons Ratio (x) = 0.00210 0.31746
# Poissons Ratio (y) = 0.00301 0.28977
# Poissons Ratio (z) = 0.60772 0.38675
#
# Static dielectric constant tensor:
#      x y z
#    x 4.483890 0.106810 -0.124510 
#    y 0.106810 4.120030 0.060780 
#    z -0.124510 0.060780 3.850540 
# 
# 
# High freq. dielectric constant tensor:
#      x y z
#    x 1.894220 0.003920 -0.007220 
#    y 0.003920 1.873440 -0.002320 
#    z -0.007220 -0.002320 1.856840 
# 
# From -- ./inp_files/244119.got.cif
#   From: 2010.06.25/outbox.cif.g09.slc.cpg/sg2_123_cif.got.tgz:244119.got - 2010.06.27 13:26:56.
