data_PCOD8021519
_publ_section_title
;
Structure prediction by ZEFSAII (Michael W. Deem and Ramdas Pophale) SiO2 
 PCOD8021519
Probable space group: P -1
;
_chemical_formula_sum "Si O2"
_cell_formula_units_Z 16
_cell_length_a 14.359967
_cell_length_b 16.976940
_cell_length_c 11.898174
_cell_angle_alpha 32.619283
_cell_angle_beta 50.802298
_cell_angle_gamma 30.580102
_cell_volume 748.198213
_symmetry_space_group_name_H-M "P -1"
_symmetry_group_IT_number 2
_symmetry_cell_setting 'triclinic'
loop_
_space_group_symop_operation_xyz
x,y,z
-x,-y,-z
loop_
_atom_site_type_symbol
_atom_site_label
_atom_site_fract_x
_atom_site_fract_y
_atom_site_fract_z
Si Si1 0.192914 0.412440 0.450476
Si Si2 0.393755 0.378785 0.752237
Si Si3 0.112820 0.864899 0.690484
Si Si4 0.417175 0.121322 0.218515
Si Si5 0.768783 0.985052 0.435212
Si Si6 0.156028 0.637786 0.420674
Si Si7 0.772350 0.173895 0.723154
Si Si8 0.619664 0.636050 0.845902
O O1 0.176414 0.565237 0.365227
O O2 0.222493 0.451250 0.257635
O O3 0.000000 0.500000 0.500000
O O4 0.377648 0.136177 0.674165
O O5 0.321475 0.398316 0.659434
O O6 0.626425 0.176595 0.833339
O O7 0.300624 0.628735 0.546353
O O8 0.322764 0.324008 0.958500
O O9 0.182733 0.954506 0.572348
O O10 0.292463 0.580139 0.886797
O O11 0.000000 0.000000 0.500000
O O12 0.973315 0.923569 0.820057
O O13 0.451983 0.166953 0.255309
O O14 0.262447 0.141423 0.331155
O O15 0.573208 0.233390 0.227948
O O16 0.941666 0.806127 0.428387
O O17 0.194500 0.777848 0.237877
#
# Coordination Sequence:
#
# PCOD8021519 Si02
#       8
#     2   2   2   2   2   2   2   2
#     4  11  23  40  61  91 127 169 214 258 311 385
#     4   9  19  39  64  92 126 164 207 260 327 365
#     4  11  23  42  67  95 127 168 217 263 312 377
#     4  11  23  40  65  92 129 168 209 264 323 370
#     4  10  22  44  61  96 132 164 211 262 318 383
#     4   9  19  40  65  87 129 162 209 260 311 372
#     4   8  19  39  59  93 128 157 206 264 314 371
#     4  11  24  42  65  94 129 171 213 255 321 378
#
# _framework density 21.384708
#
# number of rings (size 3 to 8) (size 9 to 14) (size 15 to 20)
#    0.750    1.250    0.000    4.125    1.750    3.000 
#    9.000    1.250    0.000    0.000    0.000    0.000 
#    0.000    0.000    0.000    0.000    0.000    0.000 
#
# Total GULP energy -198277.584532 kJ/mol
# GULP energy per Si atom -12392.349033 kJ/mol
# Density = 2.133604 g / cm^3
# Si number density = 21.384708 Si / 1000 Ang^3
#
#
#
# Elastic Constant Matrix: (Units=GPa)
#
#
# Indices 1 2 3 4 5 6 
#
# 1 116.1851 44.9829 16.5309 -5.8990 7.4338 -0.2666
# 2 44.9829 83.6823 4.8272 -9.3176 -8.7767 -5.5219
# 3 16.5309 4.8272 80.3981 1.6493 -2.7175 1.2732
# 4 -5.8990 -9.3176 1.6493 20.1945 3.9544 -0.5524
# 5 7.4338 -8.7767 -2.7175 3.9544 21.5836 -1.2988
# 6 -0.2666 -5.5219 1.2732 -0.5524 -1.2988 38.3304
#
#
#
# Elastic Compliance Matrix: (Units=1/GPa)
#
#
# Indices 1 2 3 4 5 6 
#
# 1 0.012326 -0.007165 -0.002395 0.002006 -0.007895 -0.001106
# 2 -0.007165 0.017361 0.000605 0.004181 0.009006 0.002797
# 3 -0.002395 0.000605 0.013046 -0.002097 0.003080 -0.000289
# 4 0.002006 0.004181 -0.002097 0.054014 -0.009081 0.001157
# 5 -0.007895 0.009006 0.003080 -0.009081 0.054937 0.002871
# 6 -0.001106 0.002797 -0.000289 0.001157 0.002871 0.026608
#
#
# Mechanical properties :
#
#
# Convention : Reuss Voigt Hill
#
# Bulk Modulus (GPa) = 40.28384 45.88304 43.08344
# Shear Modulus (GPa) = 24.45260 30.28334 27.36797
#
# Velocity S-wave (km/s) = 3.38518 3.76722 3.58130
# Velocity P-wave (km/s) = 5.84447 6.35808 6.10668
#
# Compressibility (1/GPa) = 0.02482385
#
# Stress axis : x y z
#
# Youngs Moduli (GPa) = 81.12731 57.59902 76.65274
#
# Poissons Ratio (x) = 0.41272 0.18356
# Poissons Ratio (y) = 0.58131 -0.04640
# Poissons Ratio (z) = 0.19428 -0.03486
#
# Static dielectric constant tensor:
#      x y z
#    x 3.831480 -0.104020 0.001700 
#    y -0.104020 3.855900 -0.167390 
#    z 0.001700 -0.167390 3.609400 
# 
# 
# High freq. dielectric constant tensor:
#      x y z
#    x 1.840470 -0.008000 0.001460 
#    y -0.008000 1.837490 -0.008400 
#    z 0.001460 -0.008400 1.823910 
# 
# From -- ./inp_files/456899.got.cif
#   From: 2010.06.25/outbox.cif.g09.slc.cpg/sg2_229_cif.got.tgz:456899.got - 2010.06.27 13:26:56.
