data_PCOD8021443
_publ_section_title
;
Structure prediction by ZEFSAII (Michael W. Deem and Ramdas Pophale) SiO2 
 PCOD8021443
Probable space group: P -1
;
_chemical_formula_sum "Si O2"
_cell_formula_units_Z 14
_cell_length_a 19.842310
_cell_length_b 9.666076
_cell_length_c 8.439073
_cell_angle_alpha 118.642678
_cell_angle_beta 34.209913
_cell_angle_gamma 133.617883
_cell_volume 642.081100
_symmetry_space_group_name_H-M "P -1"
_symmetry_group_IT_number 2
_symmetry_cell_setting 'triclinic'
loop_
_space_group_symop_operation_xyz
x,y,z
-x,-y,-z
loop_
_atom_site_type_symbol
_atom_site_label
_atom_site_fract_x
_atom_site_fract_y
_atom_site_fract_z
Si Si1 0.949655 0.620442 0.247337
Si Si2 0.886019 0.791037 0.186131
Si Si3 0.704574 0.407300 0.153894
Si Si4 0.369635 0.202412 0.175990
Si Si5 0.228752 0.876894 0.038037
Si Si6 0.408027 0.285786 0.802838
Si Si7 0.331944 0.570817 0.108326
O O1 0.960359 0.773736 0.188175
O O2 0.781698 0.471103 0.554847
O O3 0.053760 0.739206 0.261766
O O4 0.000000 0.500000 0.000000
O O5 0.847474 0.622504 0.044225
O O6 0.730931 0.752430 0.510690
O O7 0.000000 0.000000 0.000000
O O8 0.554280 0.385360 0.468159
O O9 0.705234 0.247326 0.167116
O O10 0.711406 0.369502 0.934034
O O11 0.261412 0.974227 0.203340
O O12 0.447155 0.338196 0.942695
O O13 0.501827 0.249678 0.060966
O O14 0.307668 0.049607 0.846117
O O15 0.320862 0.376811 0.975149
#
# Coordination Sequence:
#
# PCOD8021443 Si02
#       7
#     2   2   2   2   2   2   2
#     4  12  26  47  70  99 139 190 227 280 354 407
#     4  12  27  44  72 102 139 180 237 284 341 407
#     4  12  25  43  69 109 140 176 228 293 339 404
#     4  10  24  45  73  97 135 182 234 275 344 406
#     4  10  26  42  72  98 141 179 228 279 345 405
#     4  10  22  43  72  97 137 178 232 275 345 404
#     4  12  25  42  74 101 141 182 232 282 343 408
#
# _framework density 21.804099999999998
#
# number of rings (size 3 to 8) (size 9 to 14) (size 15 to 20)
#    0.857    0.000    4.286    2.143    4.000    3.429 
#    0.000    0.000    0.000    0.000    0.000    0.000 
#    0.000    0.000    0.000    0.000    0.000    0.000 
#
# Total GULP energy -173568.262745 kJ/mol
# GULP energy per Si atom -12397.733053 kJ/mol
# Density = 2.175447 g / cm^3
# Si number density = 21.804100 Si / 1000 Ang^3
#
#
#
# Elastic Constant Matrix: (Units=GPa)
#
#
# Indices 1 2 3 4 5 6 
#
# 1 118.0491 45.1786 43.1967 -4.9444 -8.6215 17.6426
# 2 45.1786 118.2611 35.1246 1.7186 -9.9754 11.0914
# 3 43.1967 35.1246 108.6670 1.9604 -6.7831 -8.3816
# 4 -4.9444 1.7186 1.9604 26.2809 -3.9726 0.3121
# 5 -8.6215 -9.9754 -6.7831 -3.9726 33.8481 -1.1450
# 6 17.6426 11.0914 -8.3816 0.3121 -1.1450 30.2097
#
#
#
# Elastic Compliance Matrix: (Units=1/GPa)
#
#
# Indices 1 2 3 4 5 6 
#
# 1 0.012592 -0.002601 -0.004715 0.003226 0.001615 -0.007679
# 2 -0.002601 0.010639 -0.002513 -0.000692 0.001786 -0.003010
# 3 -0.004715 -0.002513 0.012511 -0.001648 0.000615 0.007188
# 4 0.003226 -0.000692 -0.001648 0.039587 0.004855 -0.002312
# 5 0.001615 0.001786 0.000615 0.004855 0.031165 -0.000297
# 6 -0.007679 -0.003010 0.007188 -0.002312 -0.000297 0.040699
#
#
# Mechanical properties :
#
#
# Convention : Reuss Voigt Hill
#
# Bulk Modulus (GPa) = 62.16770 65.77520 63.97145
# Shear Modulus (GPa) = 29.03403 32.83290 30.93347
#
# Velocity S-wave (km/s) = 3.65305 3.88469 3.77065
# Velocity P-wave (km/s) = 6.80932 7.09599 6.95413
#
# Compressibility (1/GPa) = 0.01608552
#
# Stress axis : x y z
#
# Youngs Moduli (GPa) = 79.41340 93.99545 79.92671
#
# Poissons Ratio (x) = 0.24445 0.37683
# Poissons Ratio (y) = 0.20653 0.20087
# Poissons Ratio (z) = 0.37441 0.23622
#
# Static dielectric constant tensor:
#      x y z
#    x 3.904800 0.057950 -0.052320 
#    y 0.057950 3.898490 0.057820 
#    z -0.052320 0.057820 3.633130 
# 
# 
# High freq. dielectric constant tensor:
#      x y z
#    x 1.856570 0.005050 -0.006430 
#    y 0.005050 1.857550 0.005450 
#    z -0.006430 0.005450 1.844760 
# 
# From -- ./inp_files/343727.got.cif
#   From: 2010.06.25/outbox.cif.g09.slc.cpg/sg2_172_cif.got.tgz:343727.got - 2010.06.27 13:26:56.
