data_PCOD8021219
_publ_section_title
;
Structure prediction by ZEFSAII (Michael W. Deem and Ramdas Pophale) SiO2 
 PCOD8021219
Probable space group: P -1
;
_chemical_formula_sum "Si O2"
_cell_formula_units_Z 16
_cell_length_a 18.040238
_cell_length_b 13.327948
_cell_length_c 9.190805
_cell_angle_alpha 47.574968
_cell_angle_beta 80.411276
_cell_angle_gamma 39.376711
_cell_volume 675.170196
_symmetry_space_group_name_H-M "P -1"
_symmetry_group_IT_number 2
_symmetry_cell_setting 'triclinic'
loop_
_space_group_symop_operation_xyz
x,y,z
-x,-y,-z
loop_
_atom_site_type_symbol
_atom_site_label
_atom_site_fract_x
_atom_site_fract_y
_atom_site_fract_z
Si Si1 0.660557 0.784272 0.760846
Si Si2 0.744311 0.363693 0.096607
Si Si3 0.356578 0.889162 0.045605
Si Si4 0.763362 0.675057 0.128907
Si Si5 0.879194 0.878781 0.619366
Si Si6 0.951195 0.106677 0.748342
Si Si7 0.762108 0.143901 0.685012
Si Si8 0.667352 0.023530 0.363212
O O1 0.500000 0.000000 0.500000
O O2 0.766268 0.731285 0.692542
O O3 0.783452 0.448916 0.066121
O O4 0.610536 0.901869 0.831326
O O5 0.828280 0.120960 0.419370
O O6 0.539240 0.663918 0.836231
O O7 0.855372 0.166361 0.106122
O O8 0.567227 0.516308 0.333309
O O9 0.256452 0.916717 0.103631
O O10 0.287760 0.040257 0.759156
O O11 0.309832 0.092670 0.965013
O O12 0.812317 0.458845 0.415739
O O13 0.926706 0.461938 0.181201
O O14 0.852299 0.887341 0.790542
O O15 0.731237 0.053381 0.394103
O O16 0.881531 0.079530 0.734514
O O17 0.000000 0.000000 0.000000
#
# Coordination Sequence:
#
# PCOD8021219 Si02
#       8
#     2   2   2   2   2   2   2   2
#     4  10  23  42  69  99 136 183 232 287 342 417
#     4  10  22  43  69 101 134 181 240 281 347 417
#     4  11  27  45  70 106 145 182 232 301 349 420
#     4  11  26  47  69 107 143 184 237 292 355 415
#     4  11  23  44  74  98 136 189 235 291 342 423
#     4  11  27  44  73 104 143 187 232 296 356 417
#     4  11  25  46  72 101 141 184 238 287 357 413
#     4  11  24  43  73 101 139 184 239 286 354 417
#
# _framework density 23.697727
#
# number of rings (size 3 to 8) (size 9 to 14) (size 15 to 20)
#    0.000    1.250    1.250    2.625    7.000    9.000 
#    0.000    0.000    0.000    0.000    0.000    0.000 
#    0.000    0.000    0.000    0.000    0.000    0.000 
#
# Total GULP energy -198218.635975 kJ/mol
# GULP energy per Si atom -12388.664748 kJ/mol
# Density = 2.364379 g / cm^3
# Si number density = 23.697727 Si / 1000 Ang^3
#
#
#
# Elastic Constant Matrix: (Units=GPa)
#
#
# Indices 1 2 3 4 5 6 
#
# 1 102.1339 59.2161 46.9162 5.7178 -3.2861 9.1237
# 2 59.2161 137.6508 43.5290 18.2275 -0.7230 13.3548
# 3 46.9162 43.5290 81.3181 23.5838 -15.2003 12.0595
# 4 5.7178 18.2275 23.5838 43.7053 0.7046 2.7098
# 5 -3.2861 -0.7230 -15.2003 0.7046 39.9352 -1.9967
# 6 9.1237 13.3548 12.0595 2.7098 -1.9967 40.8547
#
#
#
# Elastic Compliance Matrix: (Units=1/GPa)
#
#
# Indices 1 2 3 4 5 6 
#
# 1 0.016173 -0.004916 -0.008392 0.004491 -0.002028 0.000075
# 2 -0.004916 0.010499 -0.001994 -0.002543 -0.001010 -0.001626
# 3 -0.008392 -0.001994 0.023275 -0.010560 0.008156 -0.003245
# 4 0.004491 -0.002543 -0.010560 0.029069 -0.004168 0.000814
# 5 -0.002028 -0.001010 0.008156 -0.004168 0.028035 0.000022
# 6 0.000075 -0.001626 -0.003245 0.000814 0.000022 0.025897
#
#
# Mechanical properties :
#
#
# Convention : Reuss Voigt Hill
#
# Bulk Modulus (GPa) = 51.69865 68.93614 60.31740
# Shear Modulus (GPa) = 29.41179 36.32849 32.87014
#
# Velocity S-wave (km/s) = 3.52678 3.91960 3.72836
# Velocity P-wave (km/s) = 6.20060 7.04537 6.63644
#
# Compressibility (1/GPa) = 0.01934286
#
# Stress axis : x y z
#
# Youngs Moduli (GPa) = 61.83119 95.24303 42.96444
#
# Poissons Ratio (x) = 0.46825 0.36056
# Poissons Ratio (y) = 0.30399 0.08567
# Poissons Ratio (z) = 0.51889 0.18991
#
# Static dielectric constant tensor:
#      x y z
#    x 4.745100 -0.137450 -0.580700 
#    y -0.137450 4.614450 0.080360 
#    z -0.580700 0.080360 4.862720 
# 
# 
# High freq. dielectric constant tensor:
#      x y z
#    x 1.952210 -0.000680 -0.015530 
#    y -0.000680 1.940360 0.013540 
#    z -0.015530 0.013540 1.946420 
# 
# From -- ./inp_files/332886.got.cif
#   From: 2010.06.25/outbox.cif.g09.slc.cpg/sg2_167_cif.got.tgz:332886.got - 2010.06.27 13:26:56.
