data_PCOD8021531
_publ_section_title
;
Structure prediction by ZEFSAII (Michael W. Deem and Ramdas Pophale) SiO2 
 PCOD8021531
Probable space group: P -1
;
_chemical_formula_sum "Si O2"
_cell_formula_units_Z 14
_cell_length_a 6.823632
_cell_length_b 16.356426
_cell_length_c 7.731875
_cell_angle_alpha 128.471760
_cell_angle_beta 121.780551
_cell_angle_gamma 66.479475
_cell_volume 571.009713
_symmetry_space_group_name_H-M "P -1"
_symmetry_group_IT_number 2
_symmetry_cell_setting 'triclinic'
loop_
_space_group_symop_operation_xyz
x,y,z
-x,-y,-z
loop_
_atom_site_type_symbol
_atom_site_label
_atom_site_fract_x
_atom_site_fract_y
_atom_site_fract_z
Si Si1 0.576239 0.684842 0.547162
Si Si2 0.350839 0.904207 0.271829
Si Si3 0.569127 0.881928 0.018182
Si Si4 0.832558 0.613699 0.890442
Si Si5 0.854639 0.217111 0.678846
Si Si6 0.731863 0.553261 0.142985
Si Si7 0.881586 0.020228 0.216930
O O1 0.610774 0.803884 0.772442
O O2 0.636943 0.611030 0.646613
O O3 0.305530 0.687231 0.367652
O O4 0.740923 0.646053 0.411181
O O5 0.309776 0.830654 0.318727
O O6 0.500000 0.000000 0.500000
O O7 0.493233 0.829999 0.095455
O O8 0.103400 0.955797 0.147804
O O9 0.342518 0.966889 0.993399
O O10 0.798017 0.943822 0.232655
O O11 0.038878 0.525283 0.825840
O O12 0.719834 0.599051 0.004498
O O13 0.926618 0.729747 0.072580
O O14 0.946386 0.130056 0.467178
O O15 0.500000 0.500000 0.000000
#
# Coordination Sequence:
#
# PCOD8021531 Si02
#       7
#     2   2   2   2   2   2   2
#     4  11  25  46  73 109 143 179 240 292 351 431
#     4  12  24  39  69  97 144 198 234 293 349 401
#     4  10  23  43  66 100 139 189 240 292 350 414
#     4  11  26  49  77 103 144 185 226 298 362 418
#     4  11  24  45  69 106 142 187 242 289 344 426
#     4  11  25  52  77 106 140 180 235 293 363 434
#     4  10  22  44  62  95 145 185 239 290 346 417
#
# _framework density 24.517970999999999
#
# number of rings (size 3 to 8) (size 9 to 14) (size 15 to 20)
#    0.000    1.143    2.857    2.143    4.000    0.571 
#   15.429    0.000    0.000    0.000    0.000    0.000 
#    0.000    0.000    0.000    0.000    0.000    0.000 
#
# Total GULP energy -173521.814663 kJ/mol
# GULP energy per Si atom -12394.415333 kJ/mol
# Density = 2.446217 g / cm^3
# Si number density = 24.517971 Si / 1000 Ang^3
#
#
#
# Elastic Constant Matrix: (Units=GPa)
#
#
# Indices 1 2 3 4 5 6 
#
# 1 146.2115 37.8102 57.6422 3.4005 -17.4535 11.7586
# 2 37.8102 70.4905 23.2670 -0.5346 -5.1324 5.7101
# 3 57.6422 23.2670 95.2181 2.5520 -24.7011 -4.7621
# 4 3.4005 -0.5346 2.5520 35.9877 -7.4231 -1.0447
# 5 -17.4535 -5.1324 -24.7011 -7.4231 46.4486 -0.2795
# 6 11.7586 5.7101 -4.7621 -1.0447 -0.2795 35.5462
#
#
#
# Elastic Compliance Matrix: (Units=1/GPa)
#
#
# Indices 1 2 3 4 5 6 
#
# 1 0.010192 -0.003371 -0.005386 -0.000638 0.000470 -0.003567
# 2 -0.003371 0.016884 -0.002343 0.000563 -0.000568 -0.001899
# 3 -0.005386 -0.002343 0.016219 0.000792 0.006496 0.004405
# 4 -0.000638 0.000563 0.000792 0.028834 0.004858 0.001112
# 5 0.000470 -0.000568 0.006496 0.004858 0.025881 0.001152
# 6 -0.003567 -0.001899 0.004405 0.001112 0.001152 0.030249
#
#
# Mechanical properties :
#
#
# Convention : Reuss Voigt Hill
#
# Bulk Modulus (GPa) = 47.39961 61.03986 54.21973
# Shear Modulus (GPa) = 31.74794 36.47656 34.11225
#
# Velocity S-wave (km/s) = 3.60235 3.86132 3.73408
# Velocity P-wave (km/s) = 6.05617 6.69550 6.38384
#
# Compressibility (1/GPa) = 0.02109722
#
# Stress axis : x y z
#
# Youngs Moduli (GPa) = 98.11477 59.22624 61.65553
#
# Poissons Ratio (x) = 0.19965 0.33206
# Poissons Ratio (y) = 0.33074 0.14443
# Poissons Ratio (z) = 0.52842 0.13874
#
# Static dielectric constant tensor:
#      x y z
#    x 4.539580 -0.169670 -0.228190 
#    y -0.169670 4.645730 -0.123200 
#    z -0.228190 -0.123200 4.405200 
# 
# 
# High freq. dielectric constant tensor:
#      x y z
#    x 1.974900 -0.023110 -0.011130 
#    y -0.023110 1.988420 -0.009840 
#    z -0.011130 -0.009840 1.968520 
# 
# From -- ./inp_files/138260.got.cif
#   From: 2010.06.25/outbox.cif.g09.slc.cpg/sg2_70_cif.got.tgz:138260.got - 2010.06.27 13:26:56.
