data_PCOD8021136
_publ_section_title
;
Structure prediction by ZEFSAII (Michael W. Deem and Ramdas Pophale) SiO2 
 PCOD8021136
Probable space group: P -1
;
_chemical_formula_sum "Si O2"
_cell_formula_units_Z 16
_cell_length_a 24.332865
_cell_length_b 26.443456
_cell_length_c 6.049523
_cell_angle_alpha 70.583222
_cell_angle_beta 109.918048
_cell_angle_gamma 169.584099
_cell_volume 661.563723
_symmetry_space_group_name_H-M "P -1"
_symmetry_group_IT_number 2
_symmetry_cell_setting 'triclinic'
loop_
_space_group_symop_operation_xyz
x,y,z
-x,-y,-z
loop_
_atom_site_type_symbol
_atom_site_label
_atom_site_fract_x
_atom_site_fract_y
_atom_site_fract_z
Si Si1 0.372476 0.443277 0.860965
Si Si2 0.716600 0.330857 0.039833
Si Si3 0.316115 0.883991 0.324038
Si Si4 0.496238 0.763085 0.871347
Si Si5 0.960042 0.807112 0.860811
Si Si6 0.202694 0.432355 0.309768
Si Si7 0.061855 0.401990 0.428546
Si Si8 0.766295 0.885925 0.565936
O O1 0.612342 0.688856 0.672833
O O2 0.500000 0.500000 0.000000
O O3 0.341708 0.448607 0.043575
O O4 0.031585 0.132408 0.749705
O O5 0.486534 0.169826 0.041427
O O6 0.003240 0.581377 0.231489
O O7 0.522978 0.101344 0.109513
O O8 0.848773 0.465287 0.786176
O O9 0.232227 0.849015 0.461072
O O10 0.500000 0.000000 0.500000
O O11 0.362960 0.659338 0.605198
O O12 0.281022 0.526391 0.040194
O O13 0.828554 0.035745 0.906073
O O14 0.926600 0.742333 0.680812
O O15 0.107515 0.994591 0.687932
O O16 0.979992 0.275072 0.354453
O O17 0.494292 0.685522 0.503779
#
# Coordination Sequence:
#
# PCOD8021136 Si02
#       8
#     2   2   2   2   2   2   2   2
#     4  12  28  46  71 101 134 183 232 274 339 404
#     4  10  24  43  68 102 134 175 232 273 342 398
#     4  11  25  46  68  98 136 182 231 278 329 399
#     4   9  22  40  66 102 135 177 220 278 343 406
#     4  11  25  44  73  99 143 174 225 282 335 408
#     4  10  22  43  68 107 132 178 226 274 346 410
#     4  10  23  44  68 101 142 178 216 288 340 400
#     4  11  25  48  69 102 136 180 226 280 342 398
#
# _framework density 24.185123000000001
#
# number of rings (size 3 to 8) (size 9 to 14) (size 15 to 20)
#    0.000    1.500    1.250    1.500   10.500    4.000 
#    9.000    0.000    0.000    0.000    0.000    0.000 
#    0.000    0.000    0.000    0.000    0.000    0.000 
#
# Total GULP energy -198307.515342 kJ/mol
# GULP energy per Si atom -12394.219709 kJ/mol
# Density = 2.413008 g / cm^3
# Si number density = 24.185123 Si / 1000 Ang^3
#
#
#
# Elastic Constant Matrix: (Units=GPa)
#
#
# Indices 1 2 3 4 5 6 
#
# 1 86.3985 47.2503 44.1010 10.2209 10.0220 9.9259
# 2 47.2503 98.1890 39.7584 -2.2110 9.0863 1.8301
# 3 44.1010 39.7584 120.3887 0.5588 24.0711 9.1106
# 4 10.2209 -2.2110 0.5588 27.9810 -8.3847 11.9823
# 5 10.0220 9.0863 24.0711 -8.3847 39.3369 -3.7673
# 6 9.9259 1.8301 9.1106 11.9823 -3.7673 34.0748
#
#
#
# Elastic Compliance Matrix: (Units=1/GPa)
#
#
# Indices 1 2 3 4 5 6 
#
# 1 0.019000 -0.007502 -0.003806 -0.007459 -0.002538 -0.001772
# 2 -0.007502 0.014748 -0.002368 0.003886 0.000855 0.000754
# 3 -0.003806 -0.002368 0.011874 0.000352 -0.005934 -0.002719
# 4 -0.007459 0.003886 0.000352 0.047545 0.009601 -0.013787
# 5 -0.002538 0.000855 -0.005934 0.009601 0.031780 0.002417
# 6 -0.001772 0.000754 -0.002719 -0.013787 0.002417 0.035665
#
#
# Mechanical properties :
#
#
# Convention : Reuss Voigt Hill
#
# Bulk Modulus (GPa) = 54.74018 63.02173 58.88095
# Shear Modulus (GPa) = 25.76590 31.86963 28.81776
#
# Velocity S-wave (km/s) = 3.26753 3.63400 3.45563
# Velocity P-wave (km/s) = 6.07607 6.61231 6.34985
#
# Compressibility (1/GPa) = 0.01826812
#
# Stress axis : x y z
#
# Youngs Moduli (GPa) = 52.63033 67.80619 84.22071
#
# Poissons Ratio (x) = 0.50869 0.32058
# Poissons Ratio (y) = 0.39484 0.19946
# Poissons Ratio (z) = 0.20034 0.16059
#
# Static dielectric constant tensor:
#      x y z
#    x 4.111950 0.042440 0.236930 
#    y 0.042440 4.219620 -0.067790 
#    z 0.236930 -0.067790 4.519020 
# 
# 
# High freq. dielectric constant tensor:
#      x y z
#    x 1.934710 0.000270 0.017470 
#    y 0.000270 1.952730 0.000030 
#    z 0.017470 0.000030 1.975810 
# 
# From -- ./inp_files/127842.got.cif
#   From: 2010.06.25/outbox.cif.g09.slc.cpg/sg2_64_cif.got.tgz:127842.got - 2010.06.27 13:26:56.
