data_PCOD8021822
_publ_section_title
;
Structure prediction by ZEFSAII (Michael W. Deem and Ramdas Pophale) SiO2 
 PCOD8021822
Probable space group: P -1
;
_chemical_formula_sum "Si O2"
_cell_formula_units_Z 16
_cell_length_a 15.971566
_cell_length_b 15.690670
_cell_length_c 8.302900
_cell_angle_alpha 99.758195
_cell_angle_beta 116.799738
_cell_angle_gamma 27.457934
_cell_volume 709.338910
_symmetry_space_group_name_H-M "P -1"
_symmetry_group_IT_number 2
_symmetry_cell_setting 'triclinic'
loop_
_space_group_symop_operation_xyz
x,y,z
-x,-y,-z
loop_
_atom_site_type_symbol
_atom_site_label
_atom_site_fract_x
_atom_site_fract_y
_atom_site_fract_z
Si Si1 0.094841 0.085964 0.641087
Si Si2 0.596368 0.470179 0.226854
Si Si3 0.952150 0.265197 0.921384
Si Si4 0.162936 0.320631 0.719097
Si Si5 0.096942 0.507862 0.148822
Si Si6 0.408034 0.689353 0.635448
Si Si7 0.802135 0.095712 0.822477
Si Si8 0.518222 0.105179 0.190995
O O1 0.870443 0.271164 0.378684
O O2 0.983356 0.191537 0.754341
O O3 0.252267 0.864343 0.701673
O O4 0.268845 0.015522 0.722429
O O5 0.587509 0.416770 0.362030
O O6 0.424981 0.697106 0.188845
O O7 0.500000 0.500000 0.000000
O O8 0.024228 0.305563 0.984946
O O9 0.675298 0.500131 0.810179
O O10 0.106068 0.080629 0.126538
O O11 0.000000 0.500000 0.500000
O O12 0.979166 0.422132 0.707516
O O13 0.360729 0.090629 0.731483
O O14 0.309609 0.270483 0.926589
O O15 0.387885 0.256579 0.286029
O O16 0.000000 0.500000 0.000000
O O17 0.273611 0.830488 0.402708
O O18 0.000000 0.000000 0.000000
#
# Coordination Sequence:
#
# PCOD8021822 Si02
#       8
#     2   2   2   2   2   2   2   2
#     4  12  24  44  69 102 142 189 240 294 350 424
#     4  12  25  46  71 102 145 195 242 295 361 425
#     4  12  24  46  71 102 140 186 240 300 355 428
#     4  10  22  45  73 104 136 177 230 291 358 431
#     4  10  22  46  71  99 140 185 228 288 360 424
#     4  12  25  47  68 100 145 182 240 299 351 429
#     4  12  24  44  72 101 138 190 238 297 362 414
#     4  10  22  44  68  99 142 177 228 292 353 419
#
# _framework density 22.556213
#
# number of rings (size 3 to 8) (size 9 to 14) (size 15 to 20)
#    0.000    0.750    5.000    3.000    0.000    0.500 
#   11.250    0.000    0.000    0.000    0.000    0.000 
#    0.000    0.000    0.000    0.000    0.000    0.000 
#
# Total GULP energy -198359.646045 kJ/mol
# GULP energy per Si atom -12397.477878 kJ/mol
# Density = 2.250487 g / cm^3
# Si number density = 22.556213 Si / 1000 Ang^3
#
#
#
# Elastic Constant Matrix: (Units=GPa)
#
#
# Indices 1 2 3 4 5 6 
#
# 1 125.6978 30.4472 58.6139 -17.8596 -8.4527 10.2187
# 2 30.4472 140.8117 36.2743 -22.6025 -8.8578 -2.0829
# 3 58.6139 36.2743 131.2810 -22.8800 -11.2494 2.3027
# 4 -17.8596 -22.6025 -22.8800 30.1040 -0.5418 1.5471
# 5 -8.4527 -8.8578 -11.2494 -0.5418 39.3104 -12.0365
# 6 10.2187 -2.0829 2.3027 1.5471 -12.0365 42.6544
#
#
#
# Elastic Compliance Matrix: (Units=1/GPa)
#
#
# Indices 1 2 3 4 5 6 
#
# 1 0.010613 -0.000848 -0.003955 0.002782 0.000264 -0.002397
# 2 -0.000848 0.008480 -0.000928 0.005139 0.001840 0.001000
# 3 -0.003955 -0.000928 0.010713 0.005100 0.002319 0.000793
# 4 0.002782 0.005139 0.005100 0.042731 0.003413 -0.001277
# 5 0.000264 0.001840 0.002319 0.003413 0.029064 0.007979
# 6 -0.002397 0.001000 0.000793 -0.001277 0.007979 0.026322
#
#
# Mechanical properties :
#
#
# Convention : Reuss Voigt Hill
#
# Bulk Modulus (GPa) = 54.51694 72.05127 63.28411
# Shear Modulus (GPa) = 34.36431 40.57742 37.47086
#
# Velocity S-wave (km/s) = 3.90743 4.24600 4.08023
# Velocity P-wave (km/s) = 6.67677 7.48668 7.09329
#
# Compressibility (1/GPa) = 0.01834292
#
# Stress axis : x y z
#
# Youngs Moduli (GPa) = 94.22429 117.92729 93.34364
#
# Poissons Ratio (x) = 0.10006 0.36914
# Poissons Ratio (y) = 0.07995 0.08666
# Poissons Ratio (z) = 0.37262 0.10949
#
# Static dielectric constant tensor:
#      x y z
#    x 4.153470 -0.162540 -0.073550 
#    y -0.162540 4.942180 -0.085430 
#    z -0.073550 -0.085430 3.083870 
# 
# 
# High freq. dielectric constant tensor:
#      x y z
#    x 1.886660 -0.003050 0.006730 
#    y -0.003050 1.920600 -0.014840 
#    z 0.006730 -0.014840 1.863710 
# 
# From -- ./inp_files/315278.got.cif
#   From: 2010.06.25/outbox.cif.g09.slc.cpg/sg2_158_cif.got.tgz:315278.got - 2010.06.27 13:26:56.
