data_PCOD8021352
_publ_section_title
;
Structure prediction by ZEFSAII (Michael W. Deem and Ramdas Pophale) SiO2 
 PCOD8021352
Probable space group: P -1
;
_chemical_formula_sum "Si O2"
_cell_formula_units_Z 16
_cell_length_a 9.753732
_cell_length_b 11.194284
_cell_length_c 8.957492
_cell_angle_alpha 53.854475
_cell_angle_beta 100.437487
_cell_angle_gamma 97.090254
_cell_volume 776.545135
_symmetry_space_group_name_H-M "P -1"
_symmetry_group_IT_number 2
_symmetry_cell_setting 'triclinic'
loop_
_space_group_symop_operation_xyz
x,y,z
-x,-y,-z
loop_
_atom_site_type_symbol
_atom_site_label
_atom_site_fract_x
_atom_site_fract_y
_atom_site_fract_z
Si Si1 0.875703 0.024254 0.070886
Si Si2 0.197759 0.296859 0.595771
Si Si3 0.320989 0.480806 0.751831
Si Si4 0.957820 0.419370 0.278267
Si Si5 0.403985 0.964983 0.146803
Si Si6 0.544928 0.715292 0.547955
Si Si7 0.975916 0.731512 0.898625
Si Si8 0.341800 0.228212 0.156862
O O1 0.914758 0.146053 0.112003
O O2 0.833369 0.876021 0.259951
O O3 0.747969 0.083648 0.905392
O O4 0.000000 0.000000 0.000000
O O5 0.257588 0.360695 0.713857
O O6 0.306988 0.323945 0.464248
O O7 0.057437 0.381056 0.464045
O O8 0.202347 0.597595 0.687131
O O9 0.453581 0.564669 0.646805
O O10 0.368275 0.391235 0.973271
O O11 0.983311 0.303663 0.236619
O O12 0.988338 0.587354 0.110290
O O13 0.464292 0.829785 0.347927
O O14 0.399480 0.107122 0.146076
O O15 0.500000 0.000000 0.000000
O O16 0.569330 0.782258 0.667148
O O17 0.822066 0.798245 0.824337
#
# Coordination Sequence:
#
# PCOD8021352 Si02
#       8
#     2   2   2   2   2   2   2   2
#     4  12  24  43  71  94 133 181 220 273 337 391
#     4  12  24  45  66 100 139 172 222 279 330 399
#     4  11  24  43  69 100 132 176 228 274 333 395
#     4  10  23  42  67 100 132 170 223 276 327 393
#     4  12  25  45  65  98 137 176 225 275 331 396
#     4  12  26  43  68  99 135 182 220 273 341 399
#     4  10  22  43  70  98 134 171 219 278 333 389
#     4  11  22  48  67  96 140 175 220 281 332 400
#
# _framework density 20.604082999999999
#
# number of rings (size 3 to 8) (size 9 to 14) (size 15 to 20)
#    0.000    0.750    5.000    2.250    3.500    1.500 
#    2.250    0.000    0.000    0.000    0.000    0.000 
#    0.000    0.000    0.000    0.000    0.000    0.000 
#
# Total GULP energy -198518.388840 kJ/mol
# GULP energy per Si atom -12407.399302 kJ/mol
# Density = 2.055719 g / cm^3
# Si number density = 20.604083 Si / 1000 Ang^3
#
#
#
# Elastic Constant Matrix: (Units=GPa)
#
#
# Indices 1 2 3 4 5 6 
#
# 1 83.2790 25.3370 26.4867 -1.6054 -17.6297 4.8767
# 2 25.3370 107.4960 22.5390 9.5709 -11.7545 6.8940
# 3 26.4867 22.5390 95.6856 7.3552 2.0364 19.9001
# 4 -1.6054 9.5709 7.3552 28.3078 -0.3840 -1.3978
# 5 -17.6297 -11.7545 2.0364 -0.3840 39.6510 7.0474
# 6 4.8767 6.8940 19.9001 -1.3978 7.0474 36.7673
#
#
#
# Elastic Compliance Matrix: (Units=1/GPa)
#
#
# Indices 1 2 3 4 5 6 
#
# 1 0.015433 -0.002300 -0.003950 0.002737 0.006520 -0.000624
# 2 -0.002300 0.010817 -0.001365 -0.003478 0.002504 -0.001596
# 3 -0.003950 -0.001365 0.013496 -0.003605 -0.001765 -0.006323
# 4 0.002737 -0.003478 -0.003605 0.037776 0.000086 0.003660
# 5 0.006520 0.002504 -0.001765 0.000086 0.030043 -0.006134
# 6 -0.000624 -0.001596 -0.006323 0.003660 -0.006134 0.032318
#
#
# Mechanical properties :
#
#
# Convention : Reuss Voigt Hill
#
# Bulk Modulus (GPa) = 40.79021 48.35398 44.57209
# Shear Modulus (GPa) = 30.62137 35.08507 32.85322
#
# Velocity S-wave (km/s) = 3.85928 4.13100 3.99745
# Velocity P-wave (km/s) = 6.30070 6.80240 6.55635
#
# Compressibility (1/GPa) = 0.02451569
#
# Stress axis : x y z
#
# Youngs Moduli (GPa) = 64.79430 92.44771 74.09847
#
# Poissons Ratio (x) = 0.21265 0.29267
# Poissons Ratio (y) = 0.14904 0.10116
# Poissons Ratio (z) = 0.25592 0.12621
#
# Static dielectric constant tensor:
#      x y z
#    x 3.971590 -0.054800 -0.003830 
#    y -0.054800 3.715210 0.115810 
#    z -0.003830 0.115810 3.898710 
# 
# 
# High freq. dielectric constant tensor:
#      x y z
#    x 1.817220 -0.005230 0.003790 
#    y -0.005230 1.807800 0.010210 
#    z 0.003790 0.010210 1.815340 
# 
# From -- ./inp_files/184411.got.cif
#   From: 2010.06.25/outbox.cif.g09.slc.cpg/sg2_93_cif.got.tgz:184411.got - 2010.06.27 13:26:56.
