data_PCOD8021871
_publ_section_title
;
Structure prediction by ZEFSAII (Michael W. Deem and Ramdas Pophale) SiO2 
 PCOD8021871
Probable space group: P -1
;
_chemical_formula_sum "Si O2"
_cell_formula_units_Z 16
_cell_length_a 6.159522
_cell_length_b 8.304125
_cell_length_c 14.789533
_cell_angle_alpha 86.354471
_cell_angle_beta 66.266802
_cell_angle_gamma 95.787527
_cell_volume 684.449557
_symmetry_space_group_name_H-M "P -1"
_symmetry_group_IT_number 2
_symmetry_cell_setting 'triclinic'
loop_
_space_group_symop_operation_xyz
x,y,z
-x,-y,-z
loop_
_atom_site_type_symbol
_atom_site_label
_atom_site_fract_x
_atom_site_fract_y
_atom_site_fract_z
Si Si1 0.136580 0.856870 0.525000
Si Si2 0.640205 0.892826 0.915087
Si Si3 0.144364 0.098170 0.799726
Si Si4 0.704870 0.633307 0.561459
Si Si5 0.718032 0.343100 0.122663
Si Si6 0.682270 0.176767 0.308132
Si Si7 0.194102 0.307847 0.953861
Si Si8 0.443670 0.300392 0.610131
O O1 0.160621 0.865269 0.629734
O O2 0.397394 0.845727 0.436109
O O3 0.982334 0.680895 0.538363
O O4 0.000000 0.000000 0.500000
O O5 0.496980 0.802590 0.858054
O O6 0.699567 0.739870 0.968253
O O7 0.875433 0.006749 0.833846
O O8 0.500000 0.000000 0.000000
O O9 0.194303 0.157019 0.890961
O O10 0.214269 0.247458 0.713891
O O11 0.339782 0.979751 0.747844
O O12 0.571089 0.777390 0.619814
O O13 0.608230 0.454622 0.623266
O O14 0.676424 0.632438 0.459231
O O15 0.800516 0.321317 0.214444
O O16 0.652862 0.526807 0.116536
O O17 0.919298 0.329364 0.014398
#
# Coordination Sequence:
#
# PCOD8021871 Si02
#       8
#     2   2   2   2   2   2   2   2
#     4  11  23  43  70 103 137 177 228 281 345 413
#     4  12  24  44  70  99 138 182 231 283 346 404
#     4  12  23  43  66 101 137 176 229 282 338 409
#     4  10  22  44  69  96 140 178 224 281 345 408
#     4  11  24  45  71  96 136 183 229 284 340 413
#     4  11  24  41  70  97 134 177 227 279 343 402
#     4  11  24  46  67  99 140 178 227 288 348 400
#     4  10  23  44  67  99 138 182 222 282 345 409
#
# _framework density 23.376449999999998
#
# number of rings (size 3 to 8) (size 9 to 14) (size 15 to 20)
#    0.000    1.000    2.500    4.125    1.750    2.000 
#    6.750    1.250    0.000    0.000    0.000    0.000 
#    0.000    0.000    0.000    0.000    0.000    0.000 
#
# Total GULP energy -198260.716128 kJ/mol
# GULP energy per Si atom -12391.294758 kJ/mol
# Density = 2.332324 g / cm^3
# Si number density = 23.376450 Si / 1000 Ang^3
#
#
#
# Elastic Constant Matrix: (Units=GPa)
#
#
# Indices 1 2 3 4 5 6 
#
# 1 77.4464 39.0723 44.8935 -9.5891 9.9100 8.3200
# 2 39.0723 92.8602 34.0581 -14.2878 6.9287 8.4634
# 3 44.8935 34.0581 130.4120 -23.0277 3.8482 8.7603
# 4 -9.5891 -14.2878 -23.0277 44.1906 -1.7450 -1.4457
# 5 9.9100 6.9287 3.8482 -1.7450 30.1800 -4.8603
# 6 8.3200 8.4634 8.7603 -1.4457 -4.8603 35.9862
#
#
#
# Elastic Compliance Matrix: (Units=1/GPa)
#
#
# Indices 1 2 3 4 5 6 
#
# 1 0.019625 -0.005906 -0.004986 -0.000529 -0.004905 -0.002618
# 2 -0.005906 0.014326 -0.001074 0.002678 -0.001351 -0.001817
# 3 -0.004986 -0.001074 0.010410 0.003992 0.000645 -0.000881
# 4 -0.000529 0.002678 0.003992 0.025466 0.000459 -0.000394
# 5 -0.004905 -0.001351 0.000645 0.000459 0.035994 0.006174
# 6 -0.002618 -0.001817 -0.000881 -0.000394 0.006174 0.029854
#
#
# Mechanical properties :
#
#
# Convention : Reuss Voigt Hill
#
# Bulk Modulus (GPa) = 48.94652 59.64070 54.29361
# Shear Modulus (GPa) = 30.04518 34.25103 32.14810
#
# Velocity S-wave (km/s) = 3.58896 3.83194 3.71244
# Velocity P-wave (km/s) = 6.17722 6.71914 6.45387
#
# Compressibility (1/GPa) = 0.02043046
#
# Stress axis : x y z
#
# Youngs Moduli (GPa) = 50.95416 69.80336 96.06171
#
# Poissons Ratio (x) = 0.41223 0.47900
# Poissons Ratio (y) = 0.30091 0.10312
# Poissons Ratio (z) = 0.25408 0.07494
#
# Static dielectric constant tensor:
#      x y z
#    x 3.983220 -0.017690 0.001850 
#    y -0.017690 4.467320 -0.114000 
#    z 0.001850 -0.114000 4.364960 
# 
# 
# High freq. dielectric constant tensor:
#      x y z
#    x 1.898960 -0.003340 -0.000540 
#    y -0.003340 1.940110 -0.004040 
#    z -0.000540 -0.004040 1.934900 
# 
# From -- ./inp_files/480406.got.cif
#   From: 2010.06.25/outbox.cif.g09.slc.cpg/sg2_241_cif.got.tgz:480406.got - 2010.06.27 13:26:56.
