data_PCOD8021304
_publ_section_title
;
Structure prediction by ZEFSAII (Michael W. Deem and Ramdas Pophale) SiO2 
 PCOD8021304
Probable space group: P -1
;
_chemical_formula_sum "Si O2"
_cell_formula_units_Z 12
_cell_length_a 8.883907
_cell_length_b 14.636054
_cell_length_c 8.942788
_cell_angle_alpha 51.874881
_cell_angle_beta 94.728266
_cell_angle_gamma 53.766288
_cell_volume 523.266810
_symmetry_space_group_name_H-M "P -1"
_symmetry_group_IT_number 2
_symmetry_cell_setting 'triclinic'
loop_
_space_group_symop_operation_xyz
x,y,z
-x,-y,-z
loop_
_atom_site_type_symbol
_atom_site_label
_atom_site_fract_x
_atom_site_fract_y
_atom_site_fract_z
Si Si1 0.964668 0.640036 0.188902
Si Si2 0.837138 0.942062 0.685419
Si Si3 0.253906 0.321486 0.305420
Si Si4 0.948931 0.787001 0.534096
Si Si5 0.718547 0.557313 0.297566
Si Si6 0.866478 0.067096 0.079822
O O1 0.741623 0.680065 0.137348
O O2 0.220122 0.430021 0.332576
O O3 0.063799 0.613256 0.388014
O O4 0.841663 0.829009 0.909257
O O5 0.986693 0.820644 0.666052
O O6 0.979814 0.960694 0.752110
O O7 0.531977 0.169828 0.399572
O O8 0.265595 0.180923 0.504912
O O9 0.000000 0.500000 0.000000
O O10 0.220494 0.557129 0.730306
O O11 0.857813 0.937988 0.253189
O O12 0.432942 0.700761 0.187846
O O13 0.000000 0.000000 0.000000
#
# Coordination Sequence:
#
# PCOD8021304 Si02
#       6
#     2   2   2   2   2   2
#     4  10  22  43  70 101 126 175 220 272 322 390
#     4  12  25  41  70 100 134 169 220 272 332 389
#     4  11  23  42  72 100 129 168 219 277 329 383
#     4  11  25  43  68  98 132 174 217 275 323 389
#     4  10  24  44  69  96 135 174 221 266 329 388
#     4  12  27  45  65  95 139 179 217 267 327 396
#
# _framework density 22.932850999999999
#
# number of rings (size 3 to 8) (size 9 to 14) (size 15 to 20)
#    0.000    1.000    1.667    4.000    4.667    4.667 
#    0.000    6.667    0.000    0.000    0.000    0.000 
#    0.000    0.000    0.000    0.000    0.000    0.000 
#
# Total GULP energy -148813.433217 kJ/mol
# GULP energy per Si atom -12401.119435 kJ/mol
# Density = 2.288065 g / cm^3
# Si number density = 22.932851 Si / 1000 Ang^3
#
#
#
# Elastic Constant Matrix: (Units=GPa)
#
#
# Indices 1 2 3 4 5 6 
#
# 1 85.2612 59.7743 52.6653 -11.4471 11.5055 -4.7748
# 2 59.7743 148.2977 32.7165 -11.1140 22.4968 -9.2546
# 3 52.6653 32.7165 96.9545 -2.2852 0.9514 -9.1192
# 4 -11.4471 -11.1140 -2.2852 29.8706 -12.1979 -0.3167
# 5 11.5055 22.4968 0.9514 -12.1979 40.2847 -1.7762
# 6 -4.7748 -9.2546 -9.1192 -0.3167 -1.7762 39.1425
#
#
#
# Elastic Compliance Matrix: (Units=1/GPa)
#
#
# Indices 1 2 3 4 5 6 
#
# 1 0.023857 -0.006755 -0.010654 0.005296 -0.001239 -0.001182
# 2 -0.006755 0.009991 0.000465 -0.000329 -0.003696 0.001476
# 3 -0.010654 0.000465 0.016130 -0.001848 0.001959 0.002642
# 4 0.005296 -0.000329 -0.001848 0.039648 0.010762 0.000947
# 5 -0.001239 -0.003696 0.001959 0.010762 0.030493 0.000902
# 6 -0.001182 0.001476 0.002642 0.000947 0.000902 0.026417
#
#
# Mechanical properties :
#
#
# Convention : Reuss Voigt Hill
#
# Bulk Modulus (GPa) = 62.14563 68.98062 65.56312
# Shear Modulus (GPa) = 26.91247 34.21670 30.56459
#
# Velocity S-wave (km/s) = 3.42940 3.86688 3.65470
# Velocity P-wave (km/s) = 6.54514 7.07684 6.81618
#
# Compressibility (1/GPa) = 0.01609124
#
# Stress axis : x y z
#
# Youngs Moduli (GPa) = 41.91648 100.08668 61.99575
#
# Poissons Ratio (x) = 0.67605 0.66050
# Poissons Ratio (y) = 0.28313 -0.02882
# Poissons Ratio (z) = 0.44658 -0.04653
#
# Static dielectric constant tensor:
#      x y z
#    x 4.101180 0.005920 -0.233200 
#    y 0.005920 4.450640 0.004540 
#    z -0.233200 0.004540 3.840260 
# 
# 
# High freq. dielectric constant tensor:
#      x y z
#    x 1.897600 0.000200 -0.015690 
#    y 0.000200 1.925340 0.000650 
#    z -0.015690 0.000650 1.893720 
# 
# From -- ./inp_files/40302.got.cif
#   From: 2010.06.25/outbox.cif.g09.slc.cpg/sg2_21_cif.got.tgz:40302.got - 2010.06.27 13:26:56.
