data_PCOD8021634
_publ_section_title
;
Structure prediction by ZEFSAII (Michael W. Deem and Ramdas Pophale) SiO2 
 PCOD8021634
Probable space group: P -1
;
_chemical_formula_sum "Si O2"
_cell_formula_units_Z 16
_cell_length_a 6.460343
_cell_length_b 20.054986
_cell_length_c 16.660382
_cell_angle_alpha 160.413724
_cell_angle_beta 74.056950
_cell_angle_gamma 106.210654
_cell_volume 694.377607
_symmetry_space_group_name_H-M "P -1"
_symmetry_group_IT_number 2
_symmetry_cell_setting 'triclinic'
loop_
_space_group_symop_operation_xyz
x,y,z
-x,-y,-z
loop_
_atom_site_type_symbol
_atom_site_label
_atom_site_fract_x
_atom_site_fract_y
_atom_site_fract_z
Si Si1 0.208077 0.483178 0.379042
Si Si2 0.020660 0.256760 0.430314
Si Si3 0.849504 0.549461 0.206644
Si Si4 0.750734 0.916632 0.525494
Si Si5 0.855269 0.787693 0.201177
Si Si6 0.455135 0.262066 0.971606
Si Si7 0.557453 0.777562 0.747311
Si Si8 0.115862 0.122311 0.053650
O O1 0.098249 0.617494 0.479649
O O2 0.356506 0.620336 0.578933
O O3 0.022854 0.335139 0.277593
O O4 0.338978 0.316518 0.128396
O O5 0.006797 0.338696 0.613271
O O6 0.269298 0.256039 0.378391
O O7 0.894929 0.036420 0.197357
O O8 0.762956 0.706802 0.331769
O O9 0.645118 0.430541 0.131345
O O10 0.014411 0.392140 0.977043
O O11 0.714797 0.872346 0.384401
O O12 0.551348 0.042789 0.719558
O O13 0.976041 0.041920 0.657811
O O14 0.702046 0.721368 0.068953
O O15 0.651645 0.778404 0.829008
O O16 0.500000 0.000000 0.000000
O O17 0.000000 0.000000 0.000000
#
# Coordination Sequence:
#
# PCOD8021634 Si02
#       8
#     2   2   2   2   2   2   2   2
#     4  12  24  44  70  92 135 176 211 281 339 384
#     4  11  24  43  64  95 131 168 220 272 329 403
#     4  11  23  41  66  99 135 174 226 273 326 394
#     4  10  24  41  67  98 135 177 220 278 323 393
#     4  10  22  44  65  96 138 177 223 268 336 392
#     4  11  24  40  66 100 132 174 226 269 335 397
#     4  11  23  45  66  95 128 165 216 272 332 401
#     4  10  25  44  66  97 126 171 221 267 330 401
#
# _framework density 23.042217999999998
#
# number of rings (size 3 to 8) (size 9 to 14) (size 15 to 20)
#    0.000    1.250    3.750    1.125    1.750    5.500 
#    4.500    0.000    0.000    0.000    0.000    0.000 
#    0.000    0.000    0.000    0.000    0.000    0.000 
#
# Total GULP energy -198228.975128 kJ/mol
# GULP energy per Si atom -12389.310946 kJ/mol
# Density = 2.298977 g / cm^3
# Si number density = 23.042218 Si / 1000 Ang^3
#
#
#
# Elastic Constant Matrix: (Units=GPa)
#
#
# Indices 1 2 3 4 5 6 
#
# 1 78.6704 19.1698 30.7121 -3.5614 7.9678 -10.7319
# 2 19.1698 23.3229 21.1521 28.6853 29.2659 2.9238
# 3 30.7121 21.1521 134.5335 24.2044 14.2056 5.3384
# 4 -3.5614 28.6853 24.2044 35.7624 -20.1723 -4.5100
# 5 7.9678 29.2659 14.2056 -20.1723 33.6765 -14.2028
# 6 -10.7319 2.9238 5.3384 -4.5100 -14.2028 24.3955
#
#
#
# Elastic Compliance Matrix: (Units=1/GPa)
#
#
# Indices 1 2 3 4 5 6 
#
# 1 0.013504 0.003516 -0.002365 -0.003462 -0.006694 0.001499
# 2 0.003516 0.000663 -0.006451 0.016513 0.018166 0.016508
# 3 -0.002365 -0.006451 0.009088 -0.000816 0.001098 -0.001768
# 4 -0.003462 0.016513 -0.000816 0.005385 -0.014504 -0.010772
# 5 -0.006694 0.018166 0.001098 -0.014504 0.003907 -0.005769
# 6 0.001499 0.016508 -0.001768 -0.010772 -0.005769 0.034709
#
#
# Mechanical properties :
#
#
# Convention : Reuss Voigt Hill
#
# Bulk Modulus (GPa) = 79.01788 42.06608 60.54198
# Shear Modulus (GPa) = 60.91964 29.79973 45.35968
#
# Velocity S-wave (km/s) = 5.14739 3.60010 4.44164
# Velocity P-wave (km/s) = 8.34833 5.96462 7.25505
#
# Compressibility (1/GPa) = 0.01265536
#
# Stress axis : x y z
#
# Youngs Moduli (GPa) = 74.05427 1507.20578 110.03142
#
# Poissons Ratio (x) = -5.29991 0.26026
# Poissons Ratio (y) = -0.26040 0.70982
# Poissons Ratio (z) = 0.17516 9.72311
#
# Static dielectric constant tensor:
#      x y z
#    x 2.280080 0.462790 0.505030 
#    y 0.462790 3.572650 -0.112870 
#    z 0.505030 -0.112870 4.793870 
# 
# 
# High freq. dielectric constant tensor:
#      x y z
#    x 1.909860 -0.008740 0.002240 
#    y -0.008740 1.897550 0.004970 
#    z 0.002240 0.004970 1.946460 
# 
# From -- ./inp_files/551019.got.cif
#   From: 2010.06.25/outbox.cif.g09.slc.cpg/sg2_276_cif.got.tgz:551019.got - 2010.06.27 13:26:56.
