data_PCOD8021064
_publ_section_title
;
Structure prediction by ZEFSAII (Michael W. Deem and Ramdas Pophale) SiO2 
 PCOD8021064
Probable space group: P -1
;
_chemical_formula_sum "Si O2"
_cell_formula_units_Z 16
_cell_length_a 11.153255
_cell_length_b 14.853715
_cell_length_c 14.272064
_cell_angle_alpha 141.742320
_cell_angle_beta 150.640666
_cell_angle_gamma 38.202889
_cell_volume 676.537216
_symmetry_space_group_name_H-M "P -1"
_symmetry_group_IT_number 2
_symmetry_cell_setting 'triclinic'
loop_
_space_group_symop_operation_xyz
x,y,z
-x,-y,-z
loop_
_atom_site_type_symbol
_atom_site_label
_atom_site_fract_x
_atom_site_fract_y
_atom_site_fract_z
Si Si1 0.348174 0.428482 0.908022
Si Si2 0.321391 0.128137 0.414780
Si Si3 0.032107 0.328449 0.864331
Si Si4 0.945808 0.404663 0.470788
Si Si5 0.422528 0.911872 0.147362
Si Si6 0.023401 0.116908 0.530916
Si Si7 0.591308 0.370840 0.731038
Si Si8 0.410679 0.883798 0.903698
O O1 0.541481 0.262095 0.938015
O O2 0.093717 0.415232 0.675298
O O3 0.500000 0.500000 0.000000
O O4 0.261208 0.553585 0.033621
O O5 0.473339 0.247290 0.592272
O O6 0.048448 0.225051 0.359380
O O7 0.500000 0.000000 0.500000
O O8 0.241412 0.043956 0.201894
O O9 0.995847 0.281847 0.694806
O O10 0.816984 0.280835 0.738275
O O11 0.000000 0.500000 0.000000
O O12 0.331197 0.260258 0.039139
O O13 0.639230 0.479279 0.345922
O O14 0.000000 0.500000 0.500000
O O15 0.691538 0.947613 0.370815
O O16 0.319514 0.941864 0.994774
O O17 0.821941 0.149872 0.335732
O O18 0.000000 0.000000 0.500000
O O19 0.500000 0.000000 0.000000
#
# Coordination Sequence:
#
# PCOD8021064 Si02
#       8
#     2   2   2   2   2   2   2   2
#     4  12  22  44  67  94 144 181 226 293 340 418
#     4  11  21  43  68 103 135 174 236 289 335 419
#     4  11  25  45  69 108 139 176 242 292 341 431
#     4  10  22  43  67  93 136 183 231 278 350 409
#     4  11  24  41  72 105 137 187 233 285 360 413
#     4  11  22  46  73  99 146 185 229 299 352 420
#     4  11  24  42  70  95 136 184 226 278 362 404
#     4  11  24  46  73 103 145 184 236 291 360 424
#
# _framework density 23.649844000000002
#
# number of rings (size 3 to 8) (size 9 to 14) (size 15 to 20)
#    0.000    1.000    6.250    2.250    0.000    3.500 
#    2.250    1.875    0.000    0.000    0.000    0.000 
#    0.000    0.000    0.000    0.000    0.000    0.000 
#
# Total GULP energy -198270.519753 kJ/mol
# GULP energy per Si atom -12391.907485 kJ/mol
# Density = 2.359602 g / cm^3
# Si number density = 23.649844 Si / 1000 Ang^3
#
#
#
# Elastic Constant Matrix: (Units=GPa)
#
#
# Indices 1 2 3 4 5 6 
#
# 1 60.8034 24.9583 41.0809 -8.1577 -23.8190 0.2820
# 2 24.9583 98.0827 50.1743 8.0869 -31.2883 1.3479
# 3 41.0809 50.1743 149.5093 -12.9130 -35.1192 -1.7352
# 4 -8.1577 8.0869 -12.9130 48.4252 4.4376 1.6896
# 5 -23.8190 -31.2883 -35.1192 4.4376 47.1422 4.4515
# 6 0.2820 1.3479 -1.7352 1.6896 4.4515 38.2685
#
#
#
# Elastic Compliance Matrix: (Units=1/GPa)
#
#
# Indices 1 2 3 4 5 6 
#
# 1 0.022997 -0.001698 -0.003770 0.002503 0.007569 -0.001272
# 2 -0.001698 0.014944 -0.003249 -0.004259 0.007165 -0.001306
# 3 -0.003770 -0.003249 0.009699 0.002219 0.002942 0.000142
# 4 0.002503 -0.004259 0.002219 0.022575 -0.001983 -0.000534
# 5 0.007569 0.007165 0.002942 -0.001983 0.032536 -0.003872
# 6 -0.001272 -0.001306 0.000142 -0.000534 -0.003872 0.026667
#
#
# Mechanical properties :
#
#
# Convention : Reuss Voigt Hill
#
# Bulk Modulus (GPa) = 33.10457 60.09137 46.59797
# Shear Modulus (GPa) = 31.86330 39.57930 35.72130
#
# Velocity S-wave (km/s) = 3.67453 4.09535 3.89063
# Velocity P-wave (km/s) = 5.65960 6.91567 6.31892
#
# Compressibility (1/GPa) = 0.03020731
#
# Stress axis : x y z
#
# Youngs Moduli (GPa) = 43.48369 66.91665 103.10285
#
# Poissons Ratio (x) = 0.11362 0.38868
# Poissons Ratio (y) = 0.07383 0.33494
# Poissons Ratio (z) = 0.16393 0.21739
#
# Static dielectric constant tensor:
#      x y z
#    x 4.133890 -0.263820 0.809520 
#    y -0.263820 4.297460 0.666410 
#    z 0.809520 0.666410 2.126790 
# 
# 
# High freq. dielectric constant tensor:
#      x y z
#    x 1.945370 0.001510 -0.002270 
#    y 0.001510 1.936610 0.011750 
#    z -0.002270 0.011750 1.946650 
# 
# From -- ./inp_files/521810.got.cif
#   From: 2010.06.25/outbox.cif.g09.slc.cpg/sg2_261_cif.got.tgz:521810.got - 2010.06.27 13:26:56.
