data_PCOD8021780
_publ_section_title
;
Structure prediction by ZEFSAII (Michael W. Deem and Ramdas Pophale) SiO2 
 PCOD8021780
Probable space group: P -1
;
_chemical_formula_sum "Si O2"
_cell_formula_units_Z 16
_cell_length_a 5.317249
_cell_length_b 19.669824
_cell_length_c 10.015805
_cell_angle_alpha 42.489155
_cell_angle_beta 104.869310
_cell_angle_gamma 103.700651
_cell_volume 682.050423
_symmetry_space_group_name_H-M "P -1"
_symmetry_group_IT_number 2
_symmetry_cell_setting 'triclinic'
loop_
_space_group_symop_operation_xyz
x,y,z
-x,-y,-z
loop_
_atom_site_type_symbol
_atom_site_label
_atom_site_fract_x
_atom_site_fract_y
_atom_site_fract_z
Si Si1 0.330885 0.490996 0.193031
Si Si2 0.453420 0.163796 0.041514
Si Si3 0.765437 0.221552 0.523740
Si Si4 0.833538 0.600155 0.977912
Si Si5 0.641708 0.714940 0.408566
Si Si6 0.781887 0.980573 0.389387
Si Si7 0.907713 0.016495 0.816529
Si Si8 0.440992 0.221960 0.244782
O O1 0.610197 0.547841 0.120124
O O2 0.357952 0.406146 0.433913
O O3 0.120316 0.567666 0.104089
O O4 0.220376 0.428301 0.140910
O O5 0.475227 0.234473 0.072846
O O6 0.681057 0.088463 0.182161
O O7 0.191081 0.090012 0.107802
O O8 0.460691 0.237478 0.809559
O O9 0.572752 0.266689 0.536212
O O10 0.695919 0.099950 0.683522
O O11 0.694285 0.267856 0.300160
O O12 0.067465 0.241665 0.574531
O O13 0.811805 0.720052 0.826159
O O14 0.584108 0.896850 0.552163
O O15 0.876114 0.935694 0.326306
O O16 0.000000 0.000000 0.500000
O O17 0.000000 0.000000 0.000000
#
# Coordination Sequence:
#
# PCOD8021780 Si02
#       8
#     2   2   2   2   2   2   2   2
#     4  10  22  44  68 106 132 176 230 301 345 408
#     4  12  27  44  65 103 145 187 228 288 353 418
#     4  12  25  41  71 103 137 185 237 284 338 419
#     4  10  23  41  72 101 135 174 237 290 347 411
#     4  12  26  46  72 106 142 183 233 294 356 413
#     4  12  25  45  68  98 145 191 232 289 340 418
#     4  12  24  41  64  98 141 184 237 282 338 409
#     4  12  25  45  68 106 135 189 237 287 351 419
#
# _framework density 23.458677000000002
#
# number of rings (size 3 to 8) (size 9 to 14) (size 15 to 20)
#    0.000    0.500    5.000    3.375    3.500    2.000 
#    0.000    1.250    0.000    0.000    0.000    0.000 
#    0.000    0.000    0.000    0.000    0.000    0.000 
#
# Total GULP energy -198292.543587 kJ/mol
# GULP energy per Si atom -12393.283974 kJ/mol
# Density = 2.340528 g / cm^3
# Si number density = 23.458677 Si / 1000 Ang^3
#
#
#
# Elastic Constant Matrix: (Units=GPa)
#
#
# Indices 1 2 3 4 5 6 
#
# 1 102.0824 24.5569 45.0311 13.3937 21.0498 -11.8430
# 2 24.5569 80.6064 50.0048 20.5174 20.2973 -16.0278
# 3 45.0311 50.0048 163.9193 7.2303 24.4462 -5.3357
# 4 13.3937 20.5174 7.2303 48.5054 -5.3318 7.9512
# 5 21.0498 20.2973 24.4462 -5.3318 33.4760 -11.0686
# 6 -11.8430 -16.0278 -5.3357 7.9512 -11.0686 28.8460
#
#
#
# Elastic Compliance Matrix: (Units=1/GPa)
#
#
# Indices 1 2 3 4 5 6 
#
# 1 0.013258 0.001716 -0.002778 -0.005496 -0.006617 0.004859
# 2 0.001716 0.023077 -0.005189 -0.012517 -0.009139 0.012511
# 3 -0.002778 -0.005189 0.008576 0.002067 -0.002330 -0.003901
# 4 -0.005496 -0.012517 0.002067 0.030410 0.009951 -0.013393
# 5 -0.006617 -0.009139 -0.002330 0.009951 0.044935 0.006273
# 6 0.004859 0.012511 -0.003901 -0.013393 0.006273 0.048990
#
#
# Mechanical properties :
#
#
# Convention : Reuss Voigt Hill
#
# Bulk Modulus (GPa) = 30.85590 65.08819 47.97205
# Shear Modulus (GPa) = 25.96697 37.29982 31.63339
#
# Velocity S-wave (km/s) = 3.33066 3.99183 3.67614
# Velocity P-wave (km/s) = 5.28894 7.00375 6.20586
#
# Compressibility (1/GPa) = 0.03240871
#
# Stress axis : x y z
#
# Youngs Moduli (GPa) = 75.42564 43.33274 116.60359
#
# Poissons Ratio (x) = -0.07435 0.32394
# Poissons Ratio (y) = -0.12941 0.60505
# Poissons Ratio (z) = 0.20954 0.22485
#
# Static dielectric constant tensor:
#      x y z
#    x 3.921200 -0.109130 0.229950 
#    y -0.109130 4.209080 -0.165360 
#    z 0.229950 -0.165360 4.538080 
# 
# 
# High freq. dielectric constant tensor:
#      x y z
#    x 1.926160 -0.010050 0.011580 
#    y -0.010050 1.915250 -0.011590 
#    z 0.011580 -0.011590 1.940250 
# 
# From -- ./inp_files/90121.got.cif
#   From: 2010.06.25/outbox.cif.g09.slc.cpg/sg2_46_cif.got.tgz:90121.got - 2010.06.27 13:26:56.
