data_PCOD8021607
_publ_section_title
;
Structure prediction by ZEFSAII (Michael W. Deem and Ramdas Pophale) SiO2 
 PCOD8021607
Probable space group: P -1
;
_chemical_formula_sum "Si O2"
_cell_formula_units_Z 16
_cell_length_a 9.058192
_cell_length_b 22.211488
_cell_length_c 9.108304
_cell_angle_alpha 131.054220
_cell_angle_beta 83.706966
_cell_angle_gamma 57.080825
_cell_volume 784.029868
_symmetry_space_group_name_H-M "P -1"
_symmetry_group_IT_number 2
_symmetry_cell_setting 'triclinic'
loop_
_space_group_symop_operation_xyz
x,y,z
-x,-y,-z
loop_
_atom_site_type_symbol
_atom_site_label
_atom_site_fract_x
_atom_site_fract_y
_atom_site_fract_z
Si Si1 0.942077 0.997617 0.839907
Si Si2 0.596431 0.997042 0.838664
Si Si3 0.059654 0.698536 0.198145
Si Si4 0.449352 0.734316 0.875881
Si Si5 0.371024 0.719230 0.186388
Si Si6 0.728741 0.458640 0.368144
Si Si7 0.182224 0.291453 0.264439
Si Si8 0.922971 0.458143 0.845245
O O1 0.765276 0.998119 0.868022
O O2 0.795988 0.131202 0.979277
O O3 0.212223 0.859135 0.508417
O O4 0.000000 0.000000 0.000000
O O5 0.764266 0.860320 0.506569
O O6 0.500000 0.000000 0.000000
O O7 0.345724 0.136782 0.997745
O O8 0.261764 0.680393 0.178038
O O9 0.124081 0.598924 0.142463
O O10 0.085221 0.656533 0.962579
O O11 0.598853 0.598621 0.553758
O O12 0.652651 0.716055 0.855987
O O13 0.345217 0.744923 0.056837
O O14 0.665155 0.595770 0.007320
O O15 0.500000 0.500000 0.500000
O O16 0.902581 0.398102 0.395705
O O17 0.146024 0.339470 0.511792
O O18 0.000000 0.500000 0.000000
#
# Coordination Sequence:
#
# PCOD8021607 Si02
#       8
#     2   2   2   2   2   2   2   2
#     4  10  25  42  67  97 124 170 222 267 325 385
#     4  10  22  44  65  90 133 167 211 271 322 384
#     4  11  24  43  66  97 131 170 222 264 328 386
#     4  11  23  44  65  91 137 167 214 269 326 391
#     4  11  24  44  65  93 134 175 211 272 324 389
#     4  12  24  42  67  97 133 169 216 267 326 391
#     4  11  24  43  66  96 130 173 213 271 328 380
#     4  12  25  40  69  97 131 171 222 270 322 384
#
# _framework density 20.407382999999999
#
# number of rings (size 3 to 8) (size 9 to 14) (size 15 to 20)
#    0.000    1.000    3.750    1.875    7.000    1.500 
#    0.000    0.000    0.000    0.000    0.000    0.000 
#    0.000    0.000    0.000    0.000    0.000    0.000 
#
# Total GULP energy -198471.992952 kJ/mol
# GULP energy per Si atom -12404.499559 kJ/mol
# Density = 2.036094 g / cm^3
# Si number density = 20.407383 Si / 1000 Ang^3
#
#
#
# Elastic Constant Matrix: (Units=GPa)
#
#
# Indices 1 2 3 4 5 6 
#
# 1 66.7383 50.2498 32.0673 8.5550 4.4204 7.2560
# 2 50.2498 129.5628 63.4744 11.8177 7.8119 7.0249
# 3 32.0673 63.4744 165.4008 4.7277 14.4980 0.5755
# 4 8.5550 11.8177 4.7277 42.0408 0.5024 0.5918
# 5 4.4204 7.8119 14.4980 0.5024 32.3558 -4.1450
# 6 7.2560 7.0249 0.5755 0.5918 -4.1450 36.4074
#
#
#
# Elastic Compliance Matrix: (Units=1/GPa)
#
#
# Indices 1 2 3 4 5 6 
#
# 1 0.021851 -0.007462 -0.001214 -0.002159 -0.000987 -0.002973
# 2 -0.007462 0.012420 -0.003216 -0.001591 -0.000629 -0.000904
# 3 -0.001214 -0.003216 0.007721 0.000306 -0.002464 0.000455
# 4 -0.002159 -0.001591 0.000306 0.024631 0.000205 0.000355
# 5 -0.000987 -0.000629 -0.002464 0.000205 0.032818 0.004090
# 6 -0.002973 -0.000904 0.000455 0.000355 0.004090 0.028687
#
#
# Mechanical properties :
#
#
# Convention : Reuss Voigt Hill
#
# Bulk Modulus (GPa) = 54.92143 72.58719 63.75431
# Shear Modulus (GPa) = 31.64918 36.55483 34.10201
#
# Velocity S-wave (km/s) = 3.94238 4.23691 4.09230
# Velocity P-wave (km/s) = 6.90609 7.71891 7.32378
#
# Compressibility (1/GPa) = 0.01820783
#
# Stress axis : x y z
#
# Youngs Moduli (GPa) = 45.76366 80.51511 129.51653
#
# Poissons Ratio (x) = 0.60084 0.15725
# Poissons Ratio (y) = 0.34151 0.41649
# Poissons Ratio (z) = 0.05556 0.25892
#
# Static dielectric constant tensor:
#      x y z
#    x 3.627070 0.192200 0.071530 
#    y 0.192200 3.682890 0.170230 
#    z 0.071530 0.170230 4.188820 
# 
# 
# High freq. dielectric constant tensor:
#      x y z
#    x 1.794300 0.014500 -0.001760 
#    y 0.014500 1.799040 0.006720 
#    z -0.001760 0.006720 1.821300 
# 
# From -- ./inp_files/204198.got.cif
#   From: 2010.06.25/outbox.cif.g09.slc.cpg/sg2_103_cif.got.tgz:204198.got - 2010.06.27 13:26:56.
