data_PCOD8021457
_publ_section_title
;
Structure prediction by ZEFSAII (Michael W. Deem and Ramdas Pophale) SiO2 
 PCOD8021457
Probable space group: P -1
;
_chemical_formula_sum "Si O2"
_cell_formula_units_Z 16
_cell_length_a 12.524406
_cell_length_b 7.796236
_cell_length_c 9.168020
_cell_angle_alpha 82.946296
_cell_angle_beta 44.765111
_cell_angle_gamma 94.990267
_cell_volume 605.886199
_symmetry_space_group_name_H-M "P -1"
_symmetry_group_IT_number 2
_symmetry_cell_setting 'triclinic'
loop_
_space_group_symop_operation_xyz
x,y,z
-x,-y,-z
loop_
_atom_site_type_symbol
_atom_site_label
_atom_site_fract_x
_atom_site_fract_y
_atom_site_fract_z
Si Si1 0.718683 0.805587 0.484416
Si Si2 0.738195 0.696906 0.014543
Si Si3 0.892060 0.734411 0.572664
Si Si4 0.625230 0.396925 0.547441
Si Si5 0.801004 0.325182 0.648839
Si Si6 0.754481 0.010039 0.137399
Si Si7 0.452909 0.895206 0.905445
Si Si8 0.843856 0.397255 0.081476
O O1 0.873530 0.849162 0.434499
O O2 0.694604 0.609615 0.461553
O O3 0.720445 0.952534 0.344394
O O4 0.581706 0.802324 0.732089
O O5 0.560709 0.645468 0.251096
O O6 0.835722 0.865302 0.999527
O O7 0.816801 0.531315 0.969081
O O8 0.759548 0.751420 0.818093
O O9 0.872384 0.534506 0.556021
O O10 0.066455 0.789746 0.467811
O O11 0.694114 0.281813 0.611693
O O12 0.686075 0.342150 0.339071
O O13 0.696050 0.267857 0.899336
O O14 0.598004 0.990987 0.189870
O O15 0.863684 0.212363 0.009782
O O16 0.500000 0.000000 0.000000
O O17 0.000000 0.500000 0.000000
#
# Coordination Sequence:
#
# PCOD8021457 Si02
#       8
#     2   2   2   2   2   2   2   2
#     4  11  24  45  73 111 149 196 254 305 378 446
#     4  12  25  48  75 113 145 196 257 306 373 443
#     4  10  22  45  74 106 148 195 249 312 368 444
#     4  11  23  44  76 107 147 198 250 311 367 445
#     4  10  22  43  73 103 147 199 251 302 378 437
#     4  12  28  46  79 110 151 197 251 310 374 449
#     4  12  26  45  71 112 149 196 249 312 366 441
#     4  12  28  49  73 108 156 199 246 312 378 445
#
# _framework density 26.407599999999999
#
# number of rings (size 3 to 8) (size 9 to 14) (size 15 to 20)
#    0.000    0.750    1.250    6.000    5.250    4.500 
#    2.250    1.250    0.000    0.000    0.000    0.000 
#    0.000    0.000    0.000    0.000    0.000    0.000 
#
# Total GULP energy -198316.255223 kJ/mol
# GULP energy per Si atom -12394.765951 kJ/mol
# Density = 2.634749 g / cm^3
# Si number density = 26.407600 Si / 1000 Ang^3
#
#
#
# Elastic Constant Matrix: (Units=GPa)
#
#
# Indices 1 2 3 4 5 6 
#
# 1 167.5106 46.4343 41.3553 -17.6977 20.6509 -17.6756
# 2 46.4343 117.6015 20.8911 -11.8673 13.0506 1.1642
# 3 41.3553 20.8911 63.1551 2.9556 14.4165 -8.5470
# 4 -17.6977 -11.8673 2.9556 27.7446 -2.4167 10.2617
# 5 20.6509 13.0506 14.4165 -2.4167 43.4416 -3.8311
# 6 -17.6756 1.1642 -8.5470 10.2617 -3.8311 37.7991
#
#
#
# Elastic Compliance Matrix: (Units=1/GPa)
#
#
# Indices 1 2 3 4 5 6 
#
# 1 0.008440 -0.001945 -0.004504 0.004279 -0.001548 0.001670
# 2 -0.001945 0.010349 -0.002467 0.004491 -0.001393 -0.003147
# 3 -0.004504 -0.002467 0.021615 -0.008341 -0.004342 0.004681
# 4 0.004279 0.004491 -0.008341 0.046280 0.000857 -0.012501
# 5 -0.001548 -0.001393 -0.004342 0.000857 0.025725 0.000712
# 6 0.001670 -0.003147 0.004681 -0.012501 0.000712 0.031858
#
#
# Mechanical properties :
#
#
# Convention : Reuss Voigt Hill
#
# Bulk Modulus (GPa) = 44.30780 62.84762 53.57771
# Shear Modulus (GPa) = 29.47700 37.76947 33.62323
#
# Velocity S-wave (km/s) = 3.34463 3.78597 3.57212
# Velocity P-wave (km/s) = 5.63296 6.55455 6.11115
#
# Compressibility (1/GPa) = 0.02256939
#
# Stress axis : x y z
#
# Youngs Moduli (GPa) = 118.48158 96.63102 46.26471
#
# Poissons Ratio (x) = 0.18798 0.20839
# Poissons Ratio (y) = 0.23049 0.11416
# Poissons Ratio (z) = 0.53368 0.23843
#
# Static dielectric constant tensor:
#      x y z
#    x 5.182730 -0.223720 0.160070 
#    y -0.223720 4.882290 -0.012950 
#    z 0.160070 -0.012950 4.641900 
# 
# 
# High freq. dielectric constant tensor:
#      x y z
#    x 2.068120 -0.010070 0.017050 
#    y -0.010070 2.063940 0.001300 
#    z 0.017050 0.001300 2.051230 
# 
# From -- ./inp_files/243343.got.cif
#   From: 2010.06.25/outbox.cif.g09.slc.cpg/sg2_122_cif.got.tgz:243343.got - 2010.06.27 13:26:56.
