data_PCOD8021558
_publ_section_title
;
Structure prediction by ZEFSAII (Michael W. Deem and Ramdas Pophale) SiO2 
 PCOD8021558
Probable space group: P -1
;
_chemical_formula_sum "Si O2"
_cell_formula_units_Z 16
_cell_length_a 14.582944
_cell_length_b 7.184818
_cell_length_c 16.892477
_cell_angle_alpha 68.457864
_cell_angle_beta 139.869396
_cell_angle_gamma 133.335888
_cell_volume 781.488106
_symmetry_space_group_name_H-M "P -1"
_symmetry_group_IT_number 2
_symmetry_cell_setting 'triclinic'
loop_
_space_group_symop_operation_xyz
x,y,z
-x,-y,-z
loop_
_atom_site_type_symbol
_atom_site_label
_atom_site_fract_x
_atom_site_fract_y
_atom_site_fract_z
Si Si1 0.814397 0.405467 0.055325
Si Si2 0.805405 0.242881 0.453314
Si Si3 0.745554 0.919822 0.153460
Si Si4 0.398976 0.955172 0.180224
Si Si5 0.088184 0.088990 0.457464
Si Si6 0.738437 0.220086 0.716155
Si Si7 0.359235 0.357806 0.039131
Si Si8 0.350631 0.673281 0.516521
O O1 0.042336 0.636775 0.158782
O O2 0.745034 0.163138 0.107849
O O3 0.710254 0.260211 0.927545
O O4 0.774358 0.593196 0.025205
O O5 0.762256 0.275114 0.509259
O O6 0.000000 0.500000 0.500000
O O7 0.628893 0.137699 0.295534
O O8 0.835325 0.037787 0.511069
O O9 0.567638 0.662534 0.125472
O O10 0.940874 0.050946 0.305967
O O11 0.733547 0.802518 0.079102
O O12 0.321082 0.770719 0.236312
O O13 0.365749 0.165129 0.128373
O O14 0.285875 0.398562 0.547856
O O15 0.000000 0.000000 0.500000
O O16 0.713706 0.368358 0.610967
O O17 0.583256 0.900527 0.639694
#
# Coordination Sequence:
#
# PCOD8021558 Si02
#       8
#     2   2   2   2   2   2   2   2
#     4  11  22  41  69  90 123 176 212 260 324 373
#     4  11  23  40  66 100 130 164 206 266 328 379
#     4  10  23  41  60  98 133 155 212 268 321 384
#     4  10  24  42  63  96 130 165 218 262 310 382
#     4  12  24  39  69  98 126 166 209 262 323 387
#     4  10  22  44  64  88 135 171 213 267 308 372
#     4  10  23  41  65  94 128 168 206 269 319 379
#     4  10  23  44  63  93 134 169 209 266 317 377
#
# _framework density 20.473759999999999
#
# number of rings (size 3 to 8) (size 9 to 14) (size 15 to 20)
#    0.000    1.500    2.500    1.500    5.250    0.500 
#    0.000   11.875    0.000    0.000    0.000    0.000 
#    0.000    0.000    0.000    0.000    0.000    0.000 
#
# Total GULP energy -198246.055640 kJ/mol
# GULP energy per Si atom -12390.378477 kJ/mol
# Density = 2.042716 g / cm^3
# Si number density = 20.473760 Si / 1000 Ang^3
#
#
#
# Elastic Constant Matrix: (Units=GPa)
#
#
# Indices 1 2 3 4 5 6 
#
# 1 75.3114 42.5420 26.6249 3.2847 6.3323 10.9583
# 2 42.5420 89.2595 25.7009 7.3182 -0.8031 11.5189
# 3 26.6249 25.7009 113.0979 7.5313 8.7018 7.9977
# 4 3.2847 7.3182 7.5313 28.8276 11.7986 6.6587
# 5 6.3323 -0.8031 8.7018 11.7986 25.9140 1.6720
# 6 10.9583 11.5189 7.9977 6.6587 1.6720 35.4749
#
#
#
# Elastic Compliance Matrix: (Units=1/GPa)
#
#
# Indices 1 2 3 4 5 6 
#
# 1 0.019797 -0.008730 -0.002248 0.003664 -0.005816 -0.003188
# 2 -0.008730 0.016489 -0.001684 -0.004575 0.005401 -0.001673
# 3 -0.002248 -0.001684 0.010049 -0.000746 -0.002488 -0.000767
# 4 0.003664 -0.004575 -0.000746 0.045969 -0.021258 -0.007105
# 5 -0.005816 0.005401 -0.002488 -0.021258 0.050549 0.002212
# 6 -0.003188 -0.001673 -0.000767 -0.007105 0.002212 0.031119
#
#
# Mechanical properties :
#
#
# Convention : Reuss Voigt Hill
#
# Bulk Modulus (GPa) = 47.59401 51.93382 49.76392
# Shear Modulus (GPa) = 24.23646 30.23001 27.23323
#
# Velocity S-wave (km/s) = 3.44435 3.84673 3.65108
# Velocity P-wave (km/s) = 6.25418 6.71944 6.49098
#
# Compressibility (1/GPa) = 0.02101105
#
# Stress axis : x y z
#
# Youngs Moduli (GPa) = 50.51227 60.64796 99.51029
#
# Poissons Ratio (x) = 0.52944 0.22369
# Poissons Ratio (y) = 0.44096 0.16762
# Poissons Ratio (z) = 0.11354 0.10216
#
# Static dielectric constant tensor:
#      x y z
#    x 3.676940 0.165780 -0.037140 
#    y 0.165780 3.900360 0.056300 
#    z -0.037140 0.056300 3.910090 
# 
# 
# High freq. dielectric constant tensor:
#      x y z
#    x 1.790690 0.014020 -0.004160 
#    y 0.014020 1.806920 0.011540 
#    z -0.004160 0.011540 1.817480 
# 
# From -- ./inp_files/364612.got.cif
#   From: 2010.06.25/outbox.cif.g09.slc.cpg/sg2_183_cif.got.tgz:364612.got - 2010.06.27 13:26:56.
