data_PCOD8021636
_publ_section_title
;
Structure prediction by ZEFSAII (Michael W. Deem and Ramdas Pophale) SiO2 
 PCOD8021636
Probable space group: P -1
;
_chemical_formula_sum "Si O2"
_cell_formula_units_Z 16
_cell_length_a 12.176092
_cell_length_b 7.301666
_cell_length_c 13.825534
_cell_angle_alpha 125.601599
_cell_angle_beta 62.010117
_cell_angle_gamma 133.675587
_cell_volume 718.091853
_symmetry_space_group_name_H-M "P -1"
_symmetry_group_IT_number 2
_symmetry_cell_setting 'triclinic'
loop_
_space_group_symop_operation_xyz
x,y,z
-x,-y,-z
loop_
_atom_site_type_symbol
_atom_site_label
_atom_site_fract_x
_atom_site_fract_y
_atom_site_fract_z
Si Si1 0.283421 0.650135 0.524006
Si Si2 0.567747 0.758329 0.822438
Si Si3 0.371621 0.705201 0.043612
Si Si4 0.832228 0.668229 0.338043
Si Si5 0.864532 0.860781 0.935646
Si Si6 0.169769 0.674427 0.942621
Si Si7 0.869469 0.815728 0.704851
Si Si8 0.596886 0.760947 0.399014
O O1 0.171263 0.472815 0.603888
O O2 0.209503 0.486480 0.403267
O O3 0.449768 0.715138 0.498062
O O4 0.298877 0.934617 0.597731
O O5 0.744716 0.880387 0.783818
O O6 0.457695 0.460575 0.730253
O O7 0.559043 0.993794 0.843273
O O8 0.511738 0.710029 0.942748
O O9 0.270147 0.454811 0.080676
O O10 0.277863 0.700673 0.989730
O O11 0.809003 0.472609 0.200007
O O12 0.701874 0.724739 0.416088
O O13 0.995226 0.960857 0.351641
O O14 0.928505 0.841762 0.798839
O O15 0.791080 0.031447 0.017074
O O16 0.000000 0.000000 0.000000
O O17 0.000000 0.500000 0.000000
#
# Coordination Sequence:
#
# PCOD8021636 Si02
#       8
#     2   2   2   2   2   2   2   2
#     4  10  25  47  70  97 135 181 229 284 334 395
#     4  10  22  44  65  96 144 174 224 285 332 403
#     4  11  22  42  66  96 137 185 218 274 346 405
#     4  12  23  42  74  97 135 184 221 278 348 394
#     4  12  25  41  69 103 137 180 220 277 349 400
#     4  12  22  42  65 106 139 166 224 276 332 416
#     4  11  24  46  65 101 142 169 232 288 322 413
#     4  10  23  47  67 101 134 175 237 280 327 408
#
# _framework density 22.281274
#
# number of rings (size 3 to 8) (size 9 to 14) (size 15 to 20)
#    0.000    1.000    5.000    0.750    1.750    1.000 
#   11.250    0.000    0.000    0.000    0.000    0.000 
#    0.000    0.000    0.000    0.000    0.000    0.000 
#
# Total GULP energy -198353.745641 kJ/mol
# GULP energy per Si atom -12397.109103 kJ/mol
# Density = 2.223056 g / cm^3
# Si number density = 22.281274 Si / 1000 Ang^3
#
#
#
# Elastic Constant Matrix: (Units=GPa)
#
#
# Indices 1 2 3 4 5 6 
#
# 1 70.5763 23.8525 27.5404 5.2002 4.5628 -1.6386
# 2 23.8525 170.2215 50.4228 6.6157 5.2038 -17.4815
# 3 27.5404 50.4228 82.6783 10.4873 -3.0775 -10.5479
# 4 5.2002 6.6157 10.4873 44.2910 -4.8526 -3.1866
# 5 4.5628 5.2038 -3.0775 -4.8526 22.9690 0.8302
# 6 -1.6386 -17.4815 -10.5479 -3.1866 0.8302 36.0024
#
#
#
# Elastic Compliance Matrix: (Units=1/GPa)
#
#
# Indices 1 2 3 4 5 6 
#
# 1 0.016809 -0.000733 -0.005307 -0.001138 -0.004083 -0.001152
# 2 -0.000733 0.007515 -0.004091 -0.000134 -0.002222 0.002456
# 3 -0.005307 -0.004091 0.017097 -0.002228 0.003711 0.002498
# 4 -0.001138 -0.000134 -0.002228 0.023891 0.004961 0.001230
# 5 -0.004083 -0.002222 0.003711 0.004961 0.046426 -0.000809
# 6 -0.001152 0.002456 0.002498 0.001230 -0.000809 0.029776
#
#
# Mechanical properties :
#
#
# Convention : Reuss Voigt Hill
#
# Bulk Modulus (GPa) = 47.26067 58.56749 52.91408
# Shear Modulus (GPa) = 29.61600 35.42984 32.52292
#
# Velocity S-wave (km/s) = 3.64976 3.99195 3.82468
# Velocity P-wave (km/s) = 6.24644 6.89856 6.58058
#
# Compressibility (1/GPa) = 0.02115924
#
# Stress axis : x y z
#
# Youngs Moduli (GPa) = 59.49358 133.07309 58.48867
#
# Poissons Ratio (x) = 0.09749 0.31039
# Poissons Ratio (y) = 0.04359 0.23929
# Poissons Ratio (z) = 0.31572 0.54443
#
# Static dielectric constant tensor:
#      x y z
#    x 4.220370 -0.512240 0.020380 
#    y -0.512240 7.568810 -1.247620 
#    z 0.020380 -1.247620 4.729440 
# 
# 
# High freq. dielectric constant tensor:
#      x y z
#    x 1.866680 0.011920 -0.012910 
#    y 0.011920 1.896960 0.011680 
#    z -0.012910 0.011680 1.874250 
# 
# From -- ./inp_files/526872.got.cif
#   From: 2010.06.25/outbox.cif.g09.slc.cpg/sg2_264_cif.got.tgz:526872.got - 2010.06.27 13:26:56.
