data_PCOD8021315
_publ_section_title
;
Structure prediction by ZEFSAII (Michael W. Deem and Ramdas Pophale) SiO2 
 PCOD8021315
Probable space group: P -1
;
_chemical_formula_sum "Si O2"
_cell_formula_units_Z 14
_cell_length_a 11.805708
_cell_length_b 11.858395
_cell_length_c 6.963332
_cell_angle_alpha 130.803906
_cell_angle_beta 124.791822
_cell_angle_gamma 65.442898
_cell_volume 604.559697
_symmetry_space_group_name_H-M "P -1"
_symmetry_group_IT_number 2
_symmetry_cell_setting 'triclinic'
loop_
_space_group_symop_operation_xyz
x,y,z
-x,-y,-z
loop_
_atom_site_type_symbol
_atom_site_label
_atom_site_fract_x
_atom_site_fract_y
_atom_site_fract_z
Si Si1 0.030043 0.018297 0.773350
Si Si2 0.314894 0.376110 0.700135
Si Si3 0.614820 0.420885 0.660725
Si Si4 0.241829 0.605953 0.580852
Si Si5 0.028908 0.244106 0.329578
Si Si6 0.664432 0.087287 0.932255
Si Si7 0.468534 0.855875 0.508592
O O1 0.991499 0.184115 0.011130
O O2 0.000000 0.000000 0.500000
O O3 0.941890 0.899135 0.664862
O O4 0.191144 0.986563 0.936380
O O5 0.311954 0.459292 0.585338
O O6 0.162062 0.337138 0.566262
O O7 0.416439 0.230201 0.613484
O O8 0.373315 0.489410 0.033392
O O9 0.500000 0.500000 0.500000
O O10 0.760603 0.422816 0.684298
O O11 0.585799 0.248897 0.493755
O O12 0.095814 0.648809 0.586738
O O13 0.347906 0.737340 0.838398
O O14 0.653780 0.079499 0.679479
O O15 0.544648 0.998718 0.823263
#
# Coordination Sequence:
#
# PCOD8021315 Si02
#       7
#     2   2   2   2   2   2   2
#     4  10  22  45  72 101 141 176 231 291 344 410
#     4  12  23  44  71  95 144 182 223 290 345 412
#     4  12  25  41  69 102 139 183 233 283 344 414
#     4  11  24  43  66 102 138 179 235 278 351 410
#     4  10  24  43  68 102 134 182 227 283 354 406
#     4  10  22  43  70 103 132 180 232 280 353 401
#     4  11  22  43  72  99 139 182 231 284 341 415
#
# _framework density 23.157347000000001
#
# number of rings (size 3 to 8) (size 9 to 14) (size 15 to 20)
#    0.000    1.143    4.286    1.714    0.000    5.714 
#    5.143    0.000    0.000    0.000    0.000    0.000 
#    0.000    0.000    0.000    0.000    0.000    0.000 
#
# Total GULP energy -173505.954116 kJ/mol
# GULP energy per Si atom -12393.282437 kJ/mol
# Density = 2.310464 g / cm^3
# Si number density = 23.157347 Si / 1000 Ang^3
#
#
#
# Elastic Constant Matrix: (Units=GPa)
#
#
# Indices 1 2 3 4 5 6 
#
# 1 89.2901 27.4682 40.0709 -18.0582 -5.3235 13.1128
# 2 27.4682 99.7573 31.1461 -13.1529 12.4783 20.9640
# 3 40.0709 31.1461 54.6775 -16.9661 14.2290 16.4657
# 4 -18.0582 -13.1529 -16.9661 37.5222 6.5307 -0.7731
# 5 -5.3235 12.4783 14.2290 6.5307 33.6679 3.1373
# 6 13.1128 20.9640 16.4657 -0.7731 3.1373 42.4410
#
#
#
# Elastic Compliance Matrix: (Units=1/GPa)
#
#
# Indices 1 2 3 4 5 6 
#
# 1 0.019597 -0.001756 -0.016418 -0.000469 0.010744 0.000379
# 2 -0.001756 0.013294 -0.002840 0.003167 -0.004194 -0.004554
# 3 -0.016418 -0.002840 0.045459 0.015454 -0.022897 -0.009187
# 4 -0.000469 0.003167 0.015454 0.036914 -0.014411 -0.005677
# 5 0.010744 -0.004194 -0.022897 -0.014411 0.045051 0.004043
# 6 0.000379 -0.004554 -0.009187 -0.005677 0.004043 0.028857
#
#
# Mechanical properties :
#
#
# Convention : Reuss Voigt Hill
#
# Bulk Modulus (GPa) = 27.53041 49.01059 38.27050
# Shear Modulus (GPa) = 20.55015 32.39552 26.47284
#
# Velocity S-wave (km/s) = 2.98218 3.74429 3.38475
# Velocity P-wave (km/s) = 4.87566 6.31688 5.64248
#
# Compressibility (1/GPa) = 0.03632347
#
# Stress axis : x y z
#
# Youngs Moduli (GPa) = 51.02766 75.22269 21.99762
#
# Poissons Ratio (x) = 0.13207 0.36115
# Poissons Ratio (y) = 0.08959 0.06248
# Poissons Ratio (z) = 0.83775 0.21365
#
# Static dielectric constant tensor:
#      x y z
#    x 4.237630 0.150050 -0.152290 
#    y 0.150050 4.309480 0.172830 
#    z -0.152290 0.172830 4.209510 
# 
# 
# High freq. dielectric constant tensor:
#      x y z
#    x 1.917080 0.008220 -0.000470 
#    y 0.008220 1.924990 0.009920 
#    z -0.000470 0.009920 1.903660 
# 
# From -- ./inp_files/65690.got.cif
#   From: 2010.06.25/outbox.cif.g09.slc.cpg/sg2_33_cif.got.tgz:65690.got - 2010.06.27 13:26:56.
