data_PCOD8021552
_publ_section_title
;
Structure prediction by ZEFSAII (Michael W. Deem and Ramdas Pophale) SiO2 
 PCOD8021552
Probable space group: P -1
;
_chemical_formula_sum "Si O2"
_cell_formula_units_Z 16
_cell_length_a 9.052563
_cell_length_b 9.181027
_cell_length_c 15.302988
_cell_angle_alpha 142.263991
_cell_angle_beta 112.259963
_cell_angle_gamma 67.530211
_cell_volume 712.692625
_symmetry_space_group_name_H-M "P -1"
_symmetry_group_IT_number 2
_symmetry_cell_setting 'triclinic'
loop_
_space_group_symop_operation_xyz
x,y,z
-x,-y,-z
loop_
_atom_site_type_symbol
_atom_site_label
_atom_site_fract_x
_atom_site_fract_y
_atom_site_fract_z
Si Si1 0.125859 0.043987 0.413802
Si Si2 0.350308 0.597426 0.319499
Si Si3 0.908036 0.763522 0.115134
Si Si4 0.659577 0.687344 0.536006
Si Si5 0.885253 0.466231 0.616756
Si Si6 0.587380 0.604205 0.950829
Si Si7 0.629993 0.138837 0.847448
Si Si8 0.984535 0.963430 0.878136
O O1 0.210189 0.201329 0.439730
O O2 0.013219 0.223360 0.538849
O O3 0.269987 0.871474 0.411873
O O4 0.001769 0.889943 0.269038
O O5 0.520362 0.595878 0.405097
O O6 0.221408 0.484264 0.295994
O O7 0.387514 0.428634 0.162800
O O8 0.884347 0.924777 0.097407
O O9 0.729924 0.723781 0.085445
O O10 0.000000 0.500000 0.000000
O O11 0.760388 0.463788 0.505922
O O12 0.578491 0.887987 0.682793
O O13 0.989235 0.681611 0.727314
O O14 0.565038 0.345453 0.861907
O O15 0.431959 0.792807 0.035181
O O16 0.820987 0.117373 0.880091
O O17 0.000000 0.000000 0.000000
#
# Coordination Sequence:
#
# PCOD8021552 Si02
#       8
#     2   2   2   2   2   2   2   2
#     4  12  24  44  71 100 131 183 232 281 330 407
#     4  12  24  44  69 104 133 175 236 285 322 408
#     4  12  21  43  69  95 133 177 224 278 334 395
#     4  11  23  46  68  96 140 179 221 280 351 398
#     4  11  26  45  65 102 141 180 223 275 355 397
#     4  11  23  41  70  98 131 173 228 278 331 398
#     4  10  22  44  64 100 133 175 218 275 348 394
#     4  11  23  43  67  95 139 175 218 281 333 403
#
# _framework density 22.450071000000001
#
# number of rings (size 3 to 8) (size 9 to 14) (size 15 to 20)
#    0.000    0.750    6.250    2.250    1.750    1.000 
#    2.250    3.125    0.000    0.000    0.000    0.000 
#    0.000    0.000    0.000    0.000    0.000    0.000 
#
# Total GULP energy -198342.259012 kJ/mol
# GULP energy per Si atom -12396.391188 kJ/mol
# Density = 2.239897 g / cm^3
# Si number density = 22.450071 Si / 1000 Ang^3
#
#
#
# Elastic Constant Matrix: (Units=GPa)
#
#
# Indices 1 2 3 4 5 6 
#
# 1 72.2754 0.6572 35.8086 9.3345 -10.2192 7.6514
# 2 0.6572 61.3714 10.6947 -4.4390 -1.1226 7.1402
# 3 35.8086 10.6947 93.4136 -0.2834 -5.6494 -3.4189
# 4 9.3345 -4.4390 -0.2834 32.4596 1.4466 1.6816
# 5 -10.2192 -1.1226 -5.6494 1.4466 32.2162 -0.3996
# 6 7.6514 7.1402 -3.4189 1.6816 -0.3996 34.0345
#
#
#
# Elastic Compliance Matrix: (Units=1/GPa)
#
#
# Indices 1 2 3 4 5 6 
#
# 1 0.019525 0.001398 -0.007540 -0.005452 0.005102 -0.005111
# 2 0.001398 0.017411 -0.002655 0.002161 0.000434 -0.004335
# 3 -0.007540 -0.002655 0.014032 0.001745 -0.000058 0.003575
# 4 -0.005452 0.002161 0.001745 0.032849 -0.002832 -0.000709
# 5 0.005102 0.000434 -0.000058 -0.002832 0.032782 -0.000719
# 6 -0.005111 -0.004335 0.003575 -0.000709 -0.000719 0.031826
#
#
# Mechanical properties :
#
#
# Convention : Reuss Voigt Hill
#
# Bulk Modulus (GPa) = 29.96294 35.70906 32.83600
# Shear Modulus (GPa) = 28.22570 31.73539 29.98055
#
# Velocity S-wave (km/s) = 3.54964 3.76386 3.65832
# Velocity P-wave (km/s) = 5.49321 5.90165 5.70109
#
# Compressibility (1/GPa) = 0.03337456
#
# Stress axis : x y z
#
# Youngs Moduli (GPa) = 51.21525 57.43627 71.26553
#
# Poissons Ratio (x) = -0.08032 0.53734
# Poissons Ratio (y) = -0.07162 0.18923
# Poissons Ratio (z) = 0.38616 0.15251
#
# Static dielectric constant tensor:
#      x y z
#    x 4.766430 0.059270 1.097520 
#    y 0.059270 4.072050 0.261850 
#    z 1.097520 0.261850 6.013930 
# 
# 
# High freq. dielectric constant tensor:
#      x y z
#    x 1.887210 0.007980 -0.002790 
#    y 0.007980 1.883140 0.005050 
#    z -0.002790 0.005050 1.880530 
# 
# From -- ./inp_files/398362.got.cif
#   From: 2010.06.25/outbox.cif.g09.slc.cpg/sg2_200_cif.got.tgz:398362.got - 2010.06.27 13:26:56.
