data_PCOD8021798
_publ_section_title
;
Structure prediction by ZEFSAII (Michael W. Deem and Ramdas Pophale) SiO2 
 PCOD8021798
Probable space group: P -1
;
_chemical_formula_sum "Si O2"
_cell_formula_units_Z 14
_cell_length_a 8.490946
_cell_length_b 13.846444
_cell_length_c 9.232866
_cell_angle_alpha 104.933326
_cell_angle_beta 126.114272
_cell_angle_gamma 44.791440
_cell_volume 592.709953
_symmetry_space_group_name_H-M "P -1"
_symmetry_group_IT_number 2
_symmetry_cell_setting 'triclinic'
loop_
_space_group_symop_operation_xyz
x,y,z
-x,-y,-z
loop_
_atom_site_type_symbol
_atom_site_label
_atom_site_fract_x
_atom_site_fract_y
_atom_site_fract_z
Si Si1 0.351709 0.143830 0.557033
Si Si2 0.409065 0.003697 0.796408
Si Si3 0.527759 0.673487 0.289410
Si Si4 0.792324 0.241551 0.592938
Si Si5 0.248535 0.606081 0.623188
Si Si6 0.699368 0.699344 0.793730
Si Si7 0.321837 0.419072 0.988172
O O1 0.424425 0.098820 0.747218
O O2 0.437286 0.225532 0.596815
O O3 0.023948 0.250176 0.390504
O O4 0.500000 0.000000 0.500000
O O5 0.088128 0.081455 0.656166
O O6 0.618491 0.844395 0.785656
O O7 0.500000 0.000000 0.000000
O O8 0.246348 0.735682 0.243628
O O9 0.762892 0.510669 0.416547
O O10 0.521318 0.668374 0.109754
O O11 0.764136 0.359158 0.541000
O O12 0.531330 0.274890 0.409160
O O13 0.513997 0.551243 0.832903
O O14 0.006455 0.570314 0.843600
O O15 0.687757 0.673520 0.947345
#
# Coordination Sequence:
#
# PCOD8021798 Si02
#       7
#     2   2   2   2   2   2   2
#     4  11  26  44  68 100 137 179 224 278 334 401
#     4  11  24  43  67  94 136 178 222 274 337 399
#     4  12  24  42  69 104 132 174 230 276 333 393
#     4  10  24  42  67  99 131 180 221 271 340 402
#     4  10  24  45  67  97 140 177 222 275 341 399
#     4  10  22  44  68  95 138 176 222 274 342 397
#     4  10  24  41  70 103 132 175 227 282 331 396
#
# _framework density 23.620322000000002
#
# number of rings (size 3 to 8) (size 9 to 14) (size 15 to 20)
#    0.000    1.429    0.000    3.429    8.000    3.429 
#    0.000    2.143    0.000    0.000    0.000    0.000 
#    0.000    0.000    0.000    0.000    0.000    0.000 
#
# Total GULP energy -173468.499642 kJ/mol
# GULP energy per Si atom -12390.607117 kJ/mol
# Density = 2.356656 g / cm^3
# Si number density = 23.620322 Si / 1000 Ang^3
#
#
#
# Elastic Constant Matrix: (Units=GPa)
#
#
# Indices 1 2 3 4 5 6 
#
# 1 125.2048 56.8327 45.4365 -3.7340 -19.0780 3.9469
# 2 56.8327 143.2050 31.9744 -10.0360 7.9589 9.4180
# 3 45.4365 31.9744 86.1747 -10.6701 0.8772 0.1154
# 4 -3.7340 -10.0360 -10.6701 35.9319 -7.8949 -4.0082
# 5 -19.0780 7.9589 0.8772 -7.8949 38.4895 1.1232
# 6 3.9469 9.4180 0.1154 -4.0082 1.1232 43.0450
#
#
#
# Elastic Compliance Matrix: (Units=1/GPa)
#
#
# Indices 1 2 3 4 5 6 
#
# 1 0.013078 -0.004383 -0.005325 0.000169 0.007556 -0.000407
# 2 -0.004383 0.009315 -0.001000 0.000839 -0.003861 -0.001455
# 3 -0.005325 -0.001000 0.015216 0.003334 -0.002126 0.001032
# 4 0.000169 0.000839 0.003334 0.030680 0.006055 0.002491
# 5 0.007556 -0.003861 -0.002126 0.006055 0.031818 -0.000109
# 6 -0.000407 -0.001455 0.001032 0.002491 -0.000109 0.023819
#
#
# Mechanical properties :
#
#
# Convention : Reuss Voigt Hill
#
# Bulk Modulus (GPa) = 61.75413 69.23020 65.49217
# Shear Modulus (GPa) = 33.16978 38.18267 35.67622
#
# Velocity S-wave (km/s) = 3.75145 4.02496 3.89061
# Velocity P-wave (km/s) = 6.70565 7.13958 6.92601
#
# Compressibility (1/GPa) = 0.01619325
#
# Stress axis : x y z
#
# Youngs Moduli (GPa) = 76.46511 107.35811 65.71977
#
# Poissons Ratio (x) = 0.47050 0.34995
# Poissons Ratio (y) = 0.33511 0.06574
# Poissons Ratio (z) = 0.40716 0.10739
#
# Static dielectric constant tensor:
#      x y z
#    x 4.620450 -1.135570 -0.455210 
#    y -1.135570 1.397230 -0.233640 
#    z -0.455210 -0.233640 4.250420 
# 
# 
# High freq. dielectric constant tensor:
#      x y z
#    x 1.950790 -0.005990 -0.025290 
#    y -0.005990 1.937380 -0.012200 
#    z -0.025290 -0.012200 1.924390 
# 
# From -- ./inp_files/207959.got.cif
#   From: 2010.06.25/outbox.cif.g09.slc.cpg/sg2_104_cif.got.tgz:207959.got - 2010.06.27 13:26:56.
