data_PCOD8021906
_publ_section_title
;
Structure prediction by ZEFSAII (Michael W. Deem and Ramdas Pophale) SiO2 
 PCOD8021906
Probable space group: P -1
;
_chemical_formula_sum "Si O2"
_cell_formula_units_Z 14
_cell_length_a 20.789280
_cell_length_b 5.168451
_cell_length_c 8.957852
_cell_angle_alpha 116.436664
_cell_angle_beta 40.083625
_cell_angle_gamma 110.133469
_cell_volume 554.941724
_symmetry_space_group_name_H-M "P -1"
_symmetry_group_IT_number 2
_symmetry_cell_setting 'triclinic'
loop_
_space_group_symop_operation_xyz
x,y,z
-x,-y,-z
loop_
_atom_site_type_symbol
_atom_site_label
_atom_site_fract_x
_atom_site_fract_y
_atom_site_fract_z
Si Si1 0.850440 0.350357 0.180914
Si Si2 0.517986 0.837249 0.077212
Si Si3 0.336584 0.996014 0.633232
Si Si4 0.111204 0.387572 0.513968
Si Si5 0.290837 0.036299 0.052874
Si Si6 0.814274 0.519533 0.961938
Si Si7 0.009709 0.105184 0.279598
O O1 0.871972 0.587234 0.328896
O O2 0.870216 0.461385 0.005190
O O3 0.734977 0.250184 0.372547
O O4 0.926229 0.081612 0.001300
O O5 0.444966 0.974897 0.364231
O O6 0.500000 0.500000 0.000000
O O7 0.631422 0.904740 0.938663
O O8 0.500000 0.000000 0.000000
O O9 0.285184 0.304042 0.776569
O O10 0.349981 0.961361 0.777791
O O11 0.220384 0.317873 0.229745
O O12 0.071296 0.693002 0.604025
O O13 0.038488 0.105047 0.562540
O O14 0.217342 0.764816 0.147357
O O15 0.901856 0.684643 0.748232
#
# Coordination Sequence:
#
# PCOD8021906 Si02
#       7
#     2   2   2   2   2   2   2
#     4  10  22  44  70 106 144 197 248 299 360 418
#     4  12  30  52  83 114 141 183 245 307 369 437
#     4  10  25  48  77 104 154 190 239 298 370 442
#     4  12  26  39  73 103 151 191 252 300 351 425
#     4  11  28  48  72 111 149 196 238 298 373 438
#     4  10  24  45  72 104 147 200 239 290 369 429
#     4  11  24  43  67 107 146 199 247 301 355 416
#
# _framework density 25.227876999999999
#
# number of rings (size 3 to 8) (size 9 to 14) (size 15 to 20)
#    0.000    1.143    1.429    2.143   14.000    1.714 
#    0.000    0.000    0.000    0.000    0.000    0.000 
#    0.000    0.000    0.000    0.000    0.000    0.000 
#
# Total GULP energy -173583.678841 kJ/mol
# GULP energy per Si atom -12398.834203 kJ/mol
# Density = 2.517046 g / cm^3
# Si number density = 25.227877 Si / 1000 Ang^3
#
#
#
# Elastic Constant Matrix: (Units=GPa)
#
#
# Indices 1 2 3 4 5 6 
#
# 1 124.0548 39.0952 25.7187 14.0032 -9.6270 7.3375
# 2 39.0952 127.6279 26.4842 5.8153 -1.9321 -11.9610
# 3 25.7187 26.4842 121.2322 1.2970 -17.4822 1.3074
# 4 14.0032 5.8153 1.2970 32.7566 -3.7889 2.9655
# 5 -9.6270 -1.9321 -17.4822 -3.7889 36.1354 10.1044
# 6 7.3375 -11.9610 1.3074 2.9655 10.1044 39.4058
#
#
#
# Elastic Compliance Matrix: (Units=1/GPa)
#
#
# Indices 1 2 3 4 5 6 
#
# 1 0.009935 -0.002942 -0.001032 -0.003107 0.002538 -0.003126
# 2 -0.002942 0.009523 -0.001844 -0.001024 -0.002450 0.004205
# 3 -0.001032 -0.001844 0.009595 0.001147 0.004961 -0.002044
# 4 -0.003107 -0.001024 0.001147 0.032754 0.004020 -0.003266
# 5 0.002538 -0.002450 0.004961 0.004020 0.033945 -0.010388
# 6 -0.003126 0.004205 -0.002044 -0.003266 -0.010388 0.030212
#
#
# Mechanical properties :
#
#
# Convention : Reuss Voigt Hill
#
# Bulk Modulus (GPa) = 57.41388 61.72347 59.56868
# Shear Modulus (GPa) = 34.86626 40.43402 37.65014
#
# Velocity S-wave (km/s) = 3.72163 4.00778 3.86735
# Velocity P-wave (km/s) = 6.42455 6.77760 6.60344
#
# Compressibility (1/GPa) = 0.01741739
#
# Stress axis : x y z
#
# Youngs Moduli (GPa) = 100.65790 105.01202 104.21587
#
# Poissons Ratio (x) = 0.30895 0.10754
# Poissons Ratio (y) = 0.29614 0.19216
# Poissons Ratio (z) = 0.10387 0.19363
#
# Static dielectric constant tensor:
#      x y z
#    x 4.558200 0.072580 0.022900 
#    y 0.072580 4.748280 0.113220 
#    z 0.022900 0.113220 4.542560 
# 
# 
# High freq. dielectric constant tensor:
#      x y z
#    x 2.010960 -0.002290 -0.000200 
#    y -0.002290 2.011640 0.008750 
#    z -0.000200 0.008750 2.015020 
# 
# From -- ./inp_files/340596.got.cif
#   From: 2010.06.25/outbox.cif.g09.slc.cpg/sg2_171_cif.got.tgz:340596.got - 2010.06.27 13:26:56.
