data_PCOD8021042
_publ_section_title
;
Structure prediction by ZEFSAII (Michael W. Deem and Ramdas Pophale) SiO2 
 PCOD8021042
Probable space group: P -1
;
_chemical_formula_sum "Si O2"
_cell_formula_units_Z 16
_cell_length_a 12.066541
_cell_length_b 15.883257
_cell_length_c 12.315380
_cell_angle_alpha 123.864756
_cell_angle_beta 73.042068
_cell_angle_gamma 153.450995
_cell_volume 727.401862
_symmetry_space_group_name_H-M "P -1"
_symmetry_group_IT_number 2
_symmetry_cell_setting 'triclinic'
loop_
_space_group_symop_operation_xyz
x,y,z
-x,-y,-z
loop_
_atom_site_type_symbol
_atom_site_label
_atom_site_fract_x
_atom_site_fract_y
_atom_site_fract_z
Si Si1 0.221172 0.977518 0.200958
Si Si2 0.874820 0.288671 0.680926
Si Si3 0.874115 0.039858 0.177266
Si Si4 0.392170 0.330661 0.324522
Si Si5 0.196438 0.658016 0.664695
Si Si6 0.465776 0.135648 0.664473
Si Si7 0.280776 0.484647 0.834817
Si Si8 0.007761 0.305032 0.154461
O O1 0.922489 0.744617 0.190641
O O2 0.344316 0.189085 0.301882
O O3 0.465437 0.105247 0.285949
O O4 0.158368 0.877271 0.030914
O O5 0.671281 0.218569 0.728622
O O6 0.055591 0.464289 0.648208
O O7 0.102702 0.443051 0.822128
O O8 0.670562 0.026761 0.520566
O O9 0.084724 0.115690 0.200850
O O10 0.049560 0.254140 0.198390
O O11 0.795795 0.038726 0.307340
O O12 0.577318 0.756655 0.006100
O O13 0.500000 0.500000 0.500000
O O14 0.645313 0.521456 0.297304
O O15 0.000000 0.500000 0.500000
O O16 0.201856 0.774108 0.798434
O O17 0.664208 0.390735 0.752668
#
# Coordination Sequence:
#
# PCOD8021042 Si02
#       8
#     2   2   2   2   2   2   2   2
#     4  12  27  47  70 105 143 184 236 291 349 420
#     4  10  22  43  67 104 154 173 232 288 351 413
#     4  12  25  45  74 100 139 188 234 283 355 414
#     4  12  29  51  73  99 140 184 239 297 346 419
#     4  11  24  43  73 107 146 187 230 289 354 417
#     4  10  23  41  67 109 136 187 224 290 345 420
#     4  12  26  45  73 104 137 186 234 288 355 413
#     4  11  24  43  71 105 145 182 232 284 350 417
#
# _framework density 21.996095
#
# number of rings (size 3 to 8) (size 9 to 14) (size 15 to 20)
#    0.000    0.750    3.750    2.250    8.750    3.500 
#    0.000    0.000    0.000    0.000    0.000    0.000 
#    0.000    0.000    0.000    0.000    0.000    0.000 
#
# Total GULP energy -198506.467586 kJ/mol
# GULP energy per Si atom -12406.654224 kJ/mol
# Density = 2.194603 g / cm^3
# Si number density = 21.996095 Si / 1000 Ang^3
#
#
#
# Elastic Constant Matrix: (Units=GPa)
#
#
# Indices 1 2 3 4 5 6 
#
# 1 104.4607 41.5036 31.9521 -3.6995 8.5207 6.5236
# 2 41.5036 108.2724 29.3878 -9.4892 -8.5746 -0.5157
# 3 31.9521 29.3878 85.1277 5.1837 -7.8955 -15.1556
# 4 -3.6995 -9.4892 5.1837 30.4546 3.8726 -0.7518
# 5 8.5207 -8.5746 -7.8955 3.8726 43.1631 3.3658
# 6 6.5236 -0.5157 -15.1556 -0.7518 3.3658 29.9598
#
#
#
# Elastic Compliance Matrix: (Units=1/GPa)
#
#
# Indices 1 2 3 4 5 6 
#
# 1 0.013400 -0.003976 -0.005034 0.001644 -0.004111 -0.005030
# 2 -0.003976 0.011982 -0.002715 0.003395 0.002402 -0.000486
# 3 -0.005034 -0.002715 0.016757 -0.004495 0.003217 0.009052
# 4 0.001644 0.003395 -0.004495 0.035276 -0.003537 -0.001291
# 5 -0.004111 0.002402 0.003217 -0.003537 0.025392 -0.000377
# 6 -0.005030 -0.000486 0.009052 -0.001291 -0.000377 0.039054
#
#
# Mechanical properties :
#
#
# Convention : Reuss Voigt Hill
#
# Bulk Modulus (GPa) = 53.50217 55.94975 54.72596
# Shear Modulus (GPa) = 29.14750 33.71666 31.43208
#
# Velocity S-wave (km/s) = 3.64417 3.91941 3.78429
# Velocity P-wave (km/s) = 6.48714 6.78040 6.63539
#
# Compressibility (1/GPa) = 0.01869083
#
# Stress axis : x y z
#
# Youngs Moduli (GPa) = 74.62677 83.45670 59.67499
#
# Poissons Ratio (x) = 0.33179 0.30040
# Poissons Ratio (y) = 0.29669 0.16200
# Poissons Ratio (z) = 0.37567 0.22657
#
# Static dielectric constant tensor:
#      x y z
#    x 4.177120 0.102700 0.053320 
#    y 0.102700 4.200830 0.012980 
#    z 0.053320 0.012980 3.912180 
# 
# 
# High freq. dielectric constant tensor:
#      x y z
#    x 1.864180 0.002150 0.002520 
#    y 0.002150 1.876220 0.001170 
#    z 0.002520 0.001170 1.868370 
# 
# From -- ./inp_files/434212.got.cif
#   From: 2010.06.25/outbox.cif.g09.slc.cpg/sg2_218_cif.got.tgz:434212.got - 2010.06.27 13:26:56.
