data_PCOD8021678
_publ_section_title
;
Structure prediction by ZEFSAII (Michael W. Deem and Ramdas Pophale) SiO2 
 PCOD8021678
Probable space group: P -1
;
_chemical_formula_sum "Si O2"
_cell_formula_units_Z 14
_cell_length_a 13.797080
_cell_length_b 8.989819
_cell_length_c 14.243039
_cell_angle_alpha 100.010331
_cell_angle_beta 150.775740
_cell_angle_gamma 62.203919
_cell_volume 642.269334
_symmetry_space_group_name_H-M "P -1"
_symmetry_group_IT_number 2
_symmetry_cell_setting 'triclinic'
loop_
_space_group_symop_operation_xyz
x,y,z
-x,-y,-z
loop_
_atom_site_type_symbol
_atom_site_label
_atom_site_fract_x
_atom_site_fract_y
_atom_site_fract_z
Si Si1 0.514960 0.065855 0.800281
Si Si2 0.917047 0.353324 0.152805
Si Si3 0.376566 0.909511 0.514662
Si Si4 0.910705 0.239502 0.686265
Si Si5 0.030990 0.648454 0.583970
Si Si6 0.624057 0.519814 0.306337
Si Si7 0.148383 0.457405 0.216405
O O1 0.429010 0.273985 0.713010
O O2 0.257969 0.129280 0.646299
O O3 0.556348 0.928503 0.734342
O O4 0.775084 0.949024 0.070306
O O5 0.885500 0.395187 0.241676
O O6 0.988689 0.468945 0.170572
O O7 0.643543 0.431098 0.889422
O O8 0.138991 0.119680 0.290434
O O9 0.249737 0.836178 0.459075
O O10 0.558449 0.756428 0.567743
O O11 0.839398 0.374035 0.550477
O O12 0.835173 0.371680 0.730534
O O13 0.260497 0.605230 0.708539
O O14 0.000000 0.500000 0.500000
O O15 0.000000 0.500000 0.000000
#
# Coordination Sequence:
#
# PCOD8021678 Si02
#       7
#     2   2   2   2   2   2   2
#     4  10  22  44  66  95 136 169 221 270 321 389
#     4  11  23  42  70  96 133 177 218 270 326 395
#     4  11  23  44  66  96 134 174 220 271 326 388
#     4  12  24  43  69  97 137 170 220 272 324 392
#     4   9  20  41  69  93 132 173 218 268 327 386
#     4  11  23  43  69 100 130 178 216 267 334 387
#     4  12  24  42  66  97 133 173 221 272 326 388
#
# _framework density 21.797708
#
# number of rings (size 3 to 8) (size 9 to 14) (size 15 to 20)
#    0.000    1.143    2.857    4.714    0.000    0.571 
#    0.000    5.000    0.000    0.000    0.000    0.000 
#    0.000    0.000    0.000    0.000    0.000    0.000 
#
# Total GULP energy -173540.691299 kJ/mol
# GULP energy per Si atom -12395.763664 kJ/mol
# Density = 2.174810 g / cm^3
# Si number density = 21.797708 Si / 1000 Ang^3
#
#
#
# Elastic Constant Matrix: (Units=GPa)
#
#
# Indices 1 2 3 4 5 6 
#
# 1 89.7341 28.5280 47.9835 2.4222 0.4752 -1.7957
# 2 28.5280 89.0787 28.0018 1.0292 -1.1433 1.5388
# 3 47.9835 28.0018 131.9941 -1.7977 -1.7706 8.5080
# 4 2.4222 1.0292 -1.7977 27.1520 1.6431 -0.0914
# 5 0.4752 -1.1433 -1.7706 1.6431 38.2211 -0.6738
# 6 -1.7957 1.5388 8.5080 -0.0914 -0.6738 31.9262
#
#
#
# Elastic Compliance Matrix: (Units=1/GPa)
#
#
# Indices 1 2 3 4 5 6 
#
# 1 0.014884 -0.003256 -0.004893 -0.001496 -0.000404 0.002285
# 2 -0.003256 0.012754 -0.001496 -0.000315 0.000359 -0.000392
# 3 -0.004893 -0.001496 0.009875 0.001115 0.000376 -0.002823
# 4 -0.001496 -0.000315 0.001115 0.037141 -0.001541 -0.000292
# 5 -0.000404 0.000359 0.000376 -0.001541 0.026270 0.000410
# 6 0.002285 -0.000392 -0.002823 -0.000292 0.000410 0.032230
#
#
# Mechanical properties :
#
#
# Convention : Reuss Voigt Hill
#
# Bulk Modulus (GPa) = 54.87873 57.75926 56.31900
# Shear Modulus (GPa) = 31.54207 33.21275 32.37741
#
# Velocity S-wave (km/s) = 3.80812 3.90767 3.85822
# Velocity P-wave (km/s) = 6.67583 6.84947 6.76321
#
# Compressibility (1/GPa) = 0.01822200
#
# Stress axis : x y z
#
# Youngs Moduli (GPa) = 67.18686 78.40590 101.27084
#
# Poissons Ratio (x) = 0.25528 0.49553
# Poissons Ratio (y) = 0.21875 0.15153
# Poissons Ratio (z) = 0.32875 0.11732
#
# Static dielectric constant tensor:
#      x y z
#    x 4.747380 -0.267390 0.572260 
#    y -0.267390 4.162690 -0.132490 
#    z 0.572260 -0.132490 4.110380 
# 
# 
# High freq. dielectric constant tensor:
#      x y z
#    x 1.839920 -0.008190 0.019210 
#    y -0.008190 1.862840 -0.001070 
#    z 0.019210 -0.001070 1.867820 
# 
# From -- ./inp_files/352361.got.cif
#   From: 2010.06.25/outbox.cif.g09.slc.cpg/sg2_177_cif.got.tgz:352361.got - 2010.06.27 13:26:56.
