data_PCOD8021796
_publ_section_title
;
Structure prediction by ZEFSAII (Michael W. Deem and Ramdas Pophale) SiO2 
 PCOD8021796
Probable space group: P -1
;
_chemical_formula_sum "Si O2"
_cell_formula_units_Z 16
_cell_length_a 10.048055
_cell_length_b 9.400847
_cell_length_c 15.028574
_cell_angle_alpha 113.582328
_cell_angle_beta 137.842099
_cell_angle_gamma 49.612847
_cell_volume 716.735675
_symmetry_space_group_name_H-M "P -1"
_symmetry_group_IT_number 2
_symmetry_cell_setting 'triclinic'
loop_
_space_group_symop_operation_xyz
x,y,z
-x,-y,-z
loop_
_atom_site_type_symbol
_atom_site_label
_atom_site_fract_x
_atom_site_fract_y
_atom_site_fract_z
Si Si1 0.258919 0.625204 0.568546
Si Si2 0.035990 0.077466 0.633056
Si Si3 0.828830 0.989297 0.662744
Si Si4 0.274895 0.517688 0.334099
Si Si5 0.984213 0.899560 0.052014
Si Si6 0.279156 0.301609 0.436446
Si Si7 0.557953 0.903603 0.910126
Si Si8 0.690964 0.517516 0.855143
O O1 0.451304 0.530089 0.554845
O O2 0.152641 0.497417 0.481991
O O3 0.404202 0.599158 0.723616
O O4 0.071330 0.852073 0.507011
O O5 0.941413 0.973231 0.617418
O O6 0.927485 0.279385 0.675552
O O7 0.324840 0.965087 0.749995
O O8 0.958424 0.032290 0.812918
O O9 0.547553 0.155459 0.570340
O O10 0.875464 0.785652 0.650918
O O11 0.281839 0.348774 0.345880
O O12 0.186380 0.521295 0.190925
O O13 0.172801 0.675733 0.070688
O O14 0.715409 0.951812 0.941892
O O15 0.000000 0.000000 0.000000
O O16 0.705418 0.679160 0.948375
O O17 0.500000 0.000000 0.000000
#
# Coordination Sequence:
#
# PCOD8021796 Si02
#       8
#     2   2   2   2   2   2   2   2
#     4   9  17  35  64  94 125 164 214 263 317 378
#     4  11  18  38  65  96 130 159 215 265 316 383
#     4  11  18  34  58  95 128 155 202 264 314 364
#     4   9  16  34  63  94 121 163 212 256 314 378
#     4  12  26  45  65  95 127 170 222 268 306 386
#     4  10  17  28  63 100 120 156 202 269 315 364
#     4  12  26  43  67  91 128 180 216 259 320 375
#     4  10  21  42  66  87 126 168 220 265 313 376
#
# _framework density 22.323430999999999
#
# number of rings (size 3 to 8) (size 9 to 14) (size 15 to 20)
#    0.750    0.750    6.250    1.125    1.750    0.500 
#    2.250    3.125    0.000    1.500    0.000    0.000 
#    0.000    0.000    0.000    0.000    0.000    0.000 
#
# Total GULP energy -198336.848322 kJ/mol
# GULP energy per Si atom -12396.053020 kJ/mol
# Density = 2.227262 g / cm^3
# Si number density = 22.323431 Si / 1000 Ang^3
#
#
#
# Elastic Constant Matrix: (Units=GPa)
#
#
# Indices 1 2 3 4 5 6 
#
# 1 89.2374 62.6437 42.0724 2.6138 0.4865 19.7967
# 2 62.6437 160.6252 37.5801 -1.3731 10.3400 38.9764
# 3 42.0724 37.5801 87.7142 -6.2667 11.5050 13.1654
# 4 2.6138 -1.3731 -6.2667 34.4769 3.2420 4.0226
# 5 0.4865 10.3400 11.5050 3.2420 36.1560 -0.6990
# 6 19.7967 38.9764 13.1654 4.0226 -0.6990 32.3424
#
#
#
# Elastic Compliance Matrix: (Units=1/GPa)
#
#
# Indices 1 2 3 4 5 6 
#
# 1 0.018942 -0.005647 -0.007199 -0.003176 0.003909 -0.001379
# 2 -0.005647 0.011188 0.000132 0.002456 -0.003588 -0.010463
# 3 -0.007199 0.000132 0.016302 0.004395 -0.005581 -0.003056
# 4 -0.003176 0.002456 0.004395 0.031409 -0.005006 -0.006819
# 5 0.003909 -0.003588 -0.005581 -0.005006 0.030963 0.005495
# 6 -0.001379 -0.010463 -0.003056 -0.006819 0.005495 0.046583
#
#
# Mechanical properties :
#
#
# Convention : Reuss Voigt Hill
#
# Bulk Modulus (GPa) = 47.61113 69.12993 58.37053
# Shear Modulus (GPa) = 26.62180 33.61377 30.11778
#
# Velocity S-wave (km/s) = 3.45708 3.88462 3.67707
# Velocity P-wave (km/s) = 6.10814 7.15228 6.65073
#
# Compressibility (1/GPa) = 0.02100349
#
# Stress axis : x y z
#
# Youngs Moduli (GPa) = 52.79278 89.38048 61.34282
#
# Poissons Ratio (x) = 0.50476 0.44159
# Poissons Ratio (y) = 0.29814 -0.00809
# Poissons Ratio (z) = 0.38004 -0.01179
#
# Static dielectric constant tensor:
#      x y z
#    x 3.834790 0.069040 -0.085860 
#    y 0.069040 4.378790 -0.063160 
#    z -0.085860 -0.063160 4.172110 
# 
# 
# High freq. dielectric constant tensor:
#      x y z
#    x 1.848560 -0.006490 -0.007790 
#    y -0.006490 1.907910 0.006400 
#    z -0.007790 0.006400 1.880950 
# 
# From -- ./inp_files/495332.got.cif
#   From: 2010.06.25/outbox.cif.g09.slc.cpg/sg2_248_cif.got.tgz:495332.got - 2010.06.27 13:26:56.
