data_PCOD8021428
_publ_section_title
;
Structure prediction by ZEFSAII (Michael W. Deem and Ramdas Pophale) SiO2 
 PCOD8021428
Probable space group: P -1
;
_chemical_formula_sum "Si O2"
_cell_formula_units_Z 14
_cell_length_a 11.662936
_cell_length_b 8.813804
_cell_length_c 7.734130
_cell_angle_alpha 80.608748
_cell_angle_beta 67.701414
_cell_angle_gamma 126.140498
_cell_volume 508.164952
_symmetry_space_group_name_H-M "P -1"
_symmetry_group_IT_number 2
_symmetry_cell_setting 'triclinic'
loop_
_space_group_symop_operation_xyz
x,y,z
-x,-y,-z
loop_
_atom_site_type_symbol
_atom_site_label
_atom_site_fract_x
_atom_site_fract_y
_atom_site_fract_z
Si Si1 0.409007 0.002045 0.709853
Si Si2 0.052380 0.793838 0.009468
Si Si3 0.030702 0.697820 0.393554
Si Si4 0.289598 0.413811 0.270019
Si Si5 0.538838 0.676388 0.593435
Si Si6 0.448399 0.115521 0.114908
Si Si7 0.782604 0.755495 0.021246
O O1 0.473869 0.994395 0.866228
O O2 0.500000 0.000000 0.500000
O O3 0.431743 0.207234 0.626821
O O4 0.195381 0.796517 0.856924
O O5 0.948854 0.624662 0.259164
O O6 0.931416 0.751488 0.934227
O O7 0.141728 0.014229 0.021268
O O8 0.000000 0.500000 0.500000
O O9 0.910894 0.701215 0.581181
O O10 0.238779 0.928385 0.233169
O O11 0.312364 0.315220 0.434929
O O12 0.436589 0.682741 0.128665
O O13 0.307095 0.325878 0.101713
O O14 0.511412 0.777637 0.740627
O O15 0.359886 0.419126 0.718507
#
# Coordination Sequence:
#
# PCOD8021428 Si02
#       7
#     2   2   2   2   2   2   2
#     4  10  24  43  69 100 142 190 224 287 358 414
#     4  11  25  44  65 108 147 174 235 298 349 415
#     4  12  28  44  72 106 141 189 235 290 355 425
#     4  11  24  46  77 100 139 191 240 287 354 422
#     4  10  22  43  72 104 132 185 244 282 349 421
#     4  10  23  47  68 100 143 183 237 289 344 422
#     4  10  24  43  71 104 142 181 229 301 353 411
#
# _framework density 27.550108999999999
#
# number of rings (size 3 to 8) (size 9 to 14) (size 15 to 20)
#    0.000    1.429    0.000    4.286   10.000    5.143 
#    0.000    2.857    0.000    0.000    0.000    0.000 
#    0.000    0.000    0.000    0.000    0.000    0.000 
#
# Total GULP energy -173455.355842 kJ/mol
# GULP energy per Si atom -12389.668274 kJ/mol
# Density = 2.748740 g / cm^3
# Si number density = 27.550109 Si / 1000 Ang^3
#
#
#
# Elastic Constant Matrix: (Units=GPa)
#
#
# Indices 1 2 3 4 5 6 
#
# 1 184.8315 15.7950 50.2660 -14.6245 27.5632 1.3999
# 2 15.7950 42.0030 -11.2328 -11.5044 14.2098 1.4529
# 3 50.2660 -11.2328 103.8644 -15.5672 28.1393 6.1742
# 4 -14.6245 -11.5044 -15.5672 27.2064 1.3343 1.9219
# 5 27.5632 14.2098 28.1393 1.3343 68.7711 -8.3439
# 6 1.3999 1.4529 6.1742 1.9219 -8.3439 32.2060
#
#
#
# Elastic Compliance Matrix: (Units=1/GPa)
#
#
# Indices 1 2 3 4 5 6 
#
# 1 0.006718 -0.003130 -0.003384 0.000360 -0.000630 0.000313
# 2 -0.003130 0.041100 0.014345 0.025323 -0.014789 -0.009811
# 3 -0.003384 0.014345 0.018471 0.015869 -0.010406 -0.007684
# 4 0.000360 0.025323 0.015869 0.058249 -0.014384 -0.011403
# 5 -0.000630 -0.014789 -0.010406 -0.014384 0.023557 0.009651
# 6 0.000313 -0.009811 -0.007684 -0.011403 0.009651 0.036133
#
#
# Mechanical properties :
#
#
# Convention : Reuss Voigt Hill
#
# Bulk Modulus (GPa) = 12.20232 48.92835 30.56533
# Shear Modulus (GPa) = 25.52541 44.02807 34.77674
#
# Velocity S-wave (km/s) = 3.04716 4.00197 3.55675
# Velocity P-wave (km/s) = 4.10110 6.25721 5.29017
#
# Compressibility (1/GPa) = 0.08195166
#
# Stress axis : x y z
#
# Youngs Moduli (GPa) = 148.85012 24.33120 54.13778
#
# Poissons Ratio (x) = 0.07616 0.18318
# Poissons Ratio (y) = 0.46591 -0.77660
# Poissons Ratio (z) = 0.50365 -0.34903
#
# Static dielectric constant tensor:
#      x y z
#    x 6.226330 -1.583030 0.092060 
#    y -1.583030 7.627050 0.187720 
#    z 0.092060 0.187720 5.539150 
# 
# 
# High freq. dielectric constant tensor:
#      x y z
#    x 2.139750 -0.021480 0.016860 
#    y -0.021480 2.102690 0.006040 
#    z 0.016860 0.006040 2.124720 
# 
# From -- ./inp_files/242971.got.cif
#   From: 2010.06.25/outbox.cif.g09.slc.cpg/sg2_122_cif.got.tgz:242971.got - 2010.06.27 13:26:56.
