data_PCOD8021472
_publ_section_title
;
Structure prediction by ZEFSAII (Michael W. Deem and Ramdas Pophale) SiO2 
 PCOD8021472
Probable space group: P -1
;
_chemical_formula_sum "Si O2"
_cell_formula_units_Z 14
_cell_length_a 7.930348
_cell_length_b 16.365228
_cell_length_c 7.722642
_cell_angle_alpha 79.304620
_cell_angle_beta 113.575794
_cell_angle_gamma 143.531001
_cell_volume 528.704578
_symmetry_space_group_name_H-M "P -1"
_symmetry_group_IT_number 2
_symmetry_cell_setting 'triclinic'
loop_
_space_group_symop_operation_xyz
x,y,z
-x,-y,-z
loop_
_atom_site_type_symbol
_atom_site_label
_atom_site_fract_x
_atom_site_fract_y
_atom_site_fract_z
Si Si1 0.730676 0.111174 0.299987
Si Si2 0.335724 0.627649 0.176043
Si Si3 0.314352 0.181061 0.239700
Si Si4 0.676231 0.602510 0.192599
Si Si5 0.438997 0.377463 0.414351
Si Si6 0.602259 0.151477 0.577739
Si Si7 0.591403 0.877913 0.045761
O O1 0.553284 0.086169 0.400479
O O2 0.621633 0.118502 0.077776
O O3 0.102720 0.255533 0.422502
O O4 0.611853 0.970611 0.309979
O O5 0.592059 0.668842 0.153554
O O6 0.310658 0.576725 0.375582
O O7 0.447888 0.766130 0.182763
O O8 0.000000 0.500000 0.000000
O O9 0.396780 0.308750 0.246440
O O10 0.475795 0.196803 0.466947
O O11 0.440352 0.194944 0.104306
O O12 0.942156 0.034767 0.162638
O O13 0.560372 0.513366 0.357336
O O14 0.041095 0.720507 0.263135
O O15 0.500000 0.500000 0.000000
#
# Coordination Sequence:
#
# PCOD8021472 Si02
#       7
#     2   2   2   2   2   2   2
#     4  10  22  43  73  98 136 177 229 282 339 397
#     4  12  27  44  69 101 140 178 229 285 342 401
#     4  10  24  42  71  99 137 175 231 279 343 398
#     4  12  28  46  71  99 141 184 228 275 349 416
#     4  12  26  46  71 102 138 182 229 288 337 406
#     4  10  23  43  69  99 135 183 222 276 343 410
#     4  10  23  44  70 100 136 178 225 283 339 412
#
# _framework density 26.479813
#
# number of rings (size 3 to 8) (size 9 to 14) (size 15 to 20)
#    0.000    1.143    1.429    3.000   14.000    3.429 
#    0.000    0.000    0.000    0.000    0.000    0.000 
#    0.000    0.000    0.000    0.000    0.000    0.000 
#
# Total GULP energy -173674.163810 kJ/mol
# GULP energy per Si atom -12405.297415 kJ/mol
# Density = 2.641954 g / cm^3
# Si number density = 26.479813 Si / 1000 Ang^3
#
#
#
# Elastic Constant Matrix: (Units=GPa)
#
#
# Indices 1 2 3 4 5 6 
#
# 1 39.4168 3.6556 10.3532 2.3281 27.3572 -4.5328
# 2 3.6556 144.0928 34.4340 -3.4486 35.3407 -9.1712
# 3 10.3532 34.4340 121.5924 1.4408 37.8501 7.9293
# 4 2.3281 -3.4486 1.4408 51.8664 5.9814 6.0501
# 5 27.3572 35.3407 37.8501 5.9814 46.2425 -4.5981
# 6 -4.5328 -9.1712 7.9293 6.0501 -4.5981 46.7625
#
#
#
# Elastic Compliance Matrix: (Units=1/GPa)
#
#
# Indices 1 2 3 4 5 6 
#
# 1 0.052280 0.007634 0.006464 0.002750 -0.042315 0.000952
# 2 0.007634 0.009817 0.000325 0.001589 -0.012372 0.001188
# 3 0.006464 0.000325 0.012320 0.001430 -0.014642 -0.003024
# 4 0.002750 0.001589 0.001430 0.020372 -0.006944 -0.002983
# 5 -0.042315 -0.012372 -0.014642 -0.006944 0.069362 0.003673
# 6 0.000952 0.001188 -0.003024 -0.002983 0.003673 0.022970
#
#
# Mechanical properties :
#
#
# Convention : Reuss Voigt Hill
#
# Bulk Modulus (GPa) = 9.68414 44.66529 27.17472
# Shear Modulus (GPa) = 25.94777 46.08491 36.01634
#
# Velocity S-wave (km/s) = 3.13374 4.17631 3.69201
# Velocity P-wave (km/s) = 4.09377 6.33717 5.33473
#
# Compressibility (1/GPa) = 0.10326161
#
# Stress axis : x y z
#
# Youngs Moduli (GPa) = 19.12789 101.86763 81.16927
#
# Poissons Ratio (x) = -0.77762 -0.52469
# Poissons Ratio (y) = -0.14602 -0.02637
# Poissons Ratio (z) = -0.12365 -0.03310
#
# Static dielectric constant tensor:
#      x y z
#    x 4.892050 -0.328150 0.069130 
#    y -0.328150 4.603600 -0.234170 
#    z 0.069130 -0.234170 4.940180 
# 
# 
# High freq. dielectric constant tensor:
#      x y z
#    x 2.073250 -0.021970 -0.008510 
#    y -0.021970 2.055380 -0.000920 
#    z -0.008510 -0.000920 2.087150 
# 
# From -- ./inp_files/174755.got.cif
#   From: 2010.06.25/outbox.cif.g09.slc.cpg/sg2_88_cif.got.tgz:174755.got - 2010.06.27 13:26:56.
