data_PCOD8021827
_publ_section_title
;
Structure prediction by ZEFSAII (Michael W. Deem and Ramdas Pophale) SiO2 
 PCOD8021827
Probable space group: P -1
;
_chemical_formula_sum "Si O2"
_cell_formula_units_Z 12
_cell_length_a 7.444570
_cell_length_b 14.632166
_cell_length_c 7.347177
_cell_angle_alpha 47.216491
_cell_angle_beta 82.573303
_cell_angle_gamma 59.883485
_cell_volume 479.049426
_symmetry_space_group_name_H-M "P -1"
_symmetry_group_IT_number 2
_symmetry_cell_setting 'triclinic'
loop_
_space_group_symop_operation_xyz
x,y,z
-x,-y,-z
loop_
_atom_site_type_symbol
_atom_site_label
_atom_site_fract_x
_atom_site_fract_y
_atom_site_fract_z
Si Si1 0.515910 0.352496 0.258463
Si Si2 0.935205 0.041875 0.743254
Si Si3 0.280064 0.130639 0.000361
Si Si4 0.876358 0.599121 0.556427
Si Si5 0.686069 0.937753 0.402516
Si Si6 0.221187 0.331382 0.073583
O O1 0.752106 0.217874 0.486780
O O2 0.347602 0.390624 0.394685
O O3 0.448304 0.304944 0.147918
O O4 0.500000 0.500000 0.000000
O O5 0.158451 0.002584 0.669049
O O6 0.855794 0.937742 0.824699
O O7 0.000000 0.000000 0.000000
O O8 0.180677 0.230401 0.693179
O O9 0.253210 0.251642 0.985801
O O10 0.547627 0.999867 0.143579
O O11 0.000000 0.500000 0.500000
O O12 0.029307 0.510932 0.832965
O O13 0.830289 0.753776 0.647507
O O14 0.500000 0.000000 0.500000
#
# Coordination Sequence:
#
# PCOD8021827 Si02
#       6
#     2   2   2   2   2   2
#     4  12  26  44  70 107 142 182 244 293 341 422
#     4  12  27  42  72 110 140 183 236 291 349 421
#     4  10  23  46  69 104 145 182 231 288 356 420
#     4  10  23  45  70  98 141 191 224 286 361 414
#     4  10  22  44  69 101 138 181 229 282 349 411
#     4  10  22  44  71  99 139 189 229 286 351 409
#
# _framework density 25.049609
#
# number of rings (size 3 to 8) (size 9 to 14) (size 15 to 20)
#    0.000    1.333    1.667    2.500    4.667    4.000 
#   12.000    1.667    0.000    0.000    0.000    0.000 
#    0.000    0.000    0.000    0.000    0.000    0.000 
#
# Total GULP energy -148671.591584 kJ/mol
# GULP energy per Si atom -12389.299299 kJ/mol
# Density = 2.499260 g / cm^3
# Si number density = 25.049609 Si / 1000 Ang^3
#
#
#
# Elastic Constant Matrix: (Units=GPa)
#
#
# Indices 1 2 3 4 5 6 
#
# 1 197.0806 41.0258 77.1268 -23.6095 -14.3201 -10.3718
# 2 41.0258 75.5120 60.3477 -15.1164 0.2504 -7.2592
# 3 77.1268 60.3477 269.9164 -35.2325 2.3703 -6.7293
# 4 -23.6095 -15.1164 -35.2325 37.2057 6.7580 -2.7208
# 5 -14.3201 0.2504 2.3703 6.7580 55.9292 -2.2645
# 6 -10.3718 -7.2592 -6.7293 -2.7208 -2.2645 43.1537
#
#
#
# Elastic Compliance Matrix: (Units=1/GPa)
#
#
# Indices 1 2 3 4 5 6 
#
# 1 0.006334 -0.002079 -0.001070 0.001980 0.001486 0.001209
# 2 -0.002079 0.017522 -0.002812 0.003445 -0.000819 0.002184
# 3 -0.001070 -0.002812 0.005062 0.003142 -0.000847 0.000213
# 4 0.001980 0.003445 0.003142 0.033405 -0.003538 0.003466
# 5 0.001486 -0.000819 -0.000847 -0.003538 0.018762 0.000849
# 6 0.001209 0.002184 0.000213 0.003466 0.000849 0.024127
#
#
# Mechanical properties :
#
#
# Convention : Reuss Voigt Hill
#
# Bulk Modulus (GPa) = 58.83334 99.94553 79.38943
# Shear Modulus (GPa) = 40.71677 51.52496 46.12086
#
# Velocity S-wave (km/s) = 4.03605 4.54024 4.29555
# Velocity P-wave (km/s) = 6.72736 8.21406 7.50760
#
# Compressibility (1/GPa) = 0.01699717
#
# Stress axis : x y z
#
# Youngs Moduli (GPa) = 157.87201 57.07052 197.54816
#
# Poissons Ratio (x) = 0.11864 0.21129
# Poissons Ratio (y) = 0.32820 0.55555
# Poissons Ratio (z) = 0.16886 0.16049
#
# Static dielectric constant tensor:
#      x y z
#    x 4.637340 0.100660 0.344220 
#    y 0.100660 4.973860 -0.264310 
#    z 0.344220 -0.264310 7.305030 
# 
# 
# High freq. dielectric constant tensor:
#      x y z
#    x 1.974610 0.002520 0.006690 
#    y 0.002520 2.017170 -0.002530 
#    z 0.006690 -0.002530 2.061670 
# 
# From -- ./inp_files/28944.got.cif
#   From: 2010.06.25/outbox.cif.g09.slc.cpg/sg2_15_cif.got.tgz:28944.got - 2010.06.27 13:26:56.
