data_PCOD8021278
_publ_section_title
;
Structure prediction by ZEFSAII (Michael W. Deem and Ramdas Pophale) SiO2 
 PCOD8021278
Probable space group: P -1
;
_chemical_formula_sum "Si O2"
_cell_formula_units_Z 14
_cell_length_a 5.339957
_cell_length_b 12.550292
_cell_length_c 16.046257
_cell_angle_alpha 136.340185
_cell_angle_beta 124.377451
_cell_angle_gamma 54.337579
_cell_volume 583.298744
_symmetry_space_group_name_H-M "P -1"
_symmetry_group_IT_number 2
_symmetry_cell_setting 'triclinic'
loop_
_space_group_symop_operation_xyz
x,y,z
-x,-y,-z
loop_
_atom_site_type_symbol
_atom_site_label
_atom_site_fract_x
_atom_site_fract_y
_atom_site_fract_z
Si Si1 0.438966 0.435866 0.690880
Si Si2 0.645753 0.009189 0.914509
Si Si3 0.482908 0.899647 0.651870
Si Si4 0.315152 0.472910 0.870360
Si Si5 0.926105 0.813510 0.365112
Si Si6 0.343976 0.272160 0.127624
Si Si7 0.968380 0.759475 0.522186
O O1 0.526359 0.441328 0.808243
O O2 0.457289 0.601407 0.746191
O O3 0.083107 0.420573 0.596911
O O4 0.687075 0.271022 0.605035
O O5 0.594660 0.999755 0.801177
O O6 0.556884 0.860293 0.856039
O O7 0.420020 0.182226 0.001889
O O8 0.000000 0.000000 0.000000
O O9 0.796120 0.839984 0.619780
O O10 0.335506 0.764816 0.589710
O O11 0.183860 0.018117 0.610774
O O12 0.200969 0.317833 0.780910
O O13 0.028051 0.634162 0.888898
O O14 0.500000 0.500000 0.000000
O O15 0.791840 0.844076 0.451655
#
# Coordination Sequence:
#
# PCOD8021278 Si02
#       7
#     2   2   2   2   2   2   2
#     4  10  22  43  69  97 145 183 224 297 362 411
#     4  11  27  47  71  98 140 194 237 301 343 415
#     4  12  27  41  74 103 143 187 246 280 357 427
#     4  10  23  37  68 104 141 183 233 289 362 426
#     4  10  23  39  67 105 146 183 225 295 357 419
#     4  10  24  46  68  97 141 183 240 290 360 409
#     4  11  24  45  67 107 144 187 230 296 354 424
#
# _framework density 24.001421000000001
#
# number of rings (size 3 to 8) (size 9 to 14) (size 15 to 20)
#    0.000    1.429    1.429    1.714   14.000    1.143 
#    0.000    1.429    0.000    0.000    0.000    0.000 
#    0.000    0.000    0.000    0.000    0.000    0.000 
#
# Total GULP energy -173503.505022 kJ/mol
# GULP energy per Si atom -12393.107502 kJ/mol
# Density = 2.394679 g / cm^3
# Si number density = 24.001421 Si / 1000 Ang^3
#
#
#
# Elastic Constant Matrix: (Units=GPa)
#
#
# Indices 1 2 3 4 5 6 
#
# 1 133.5017 21.8793 47.0300 9.7703 -10.3696 9.8820
# 2 21.8793 53.1618 9.3917 23.2280 -3.6137 8.6470
# 3 47.0300 9.3917 102.6828 -1.6712 -20.5904 6.9492
# 4 9.7703 23.2280 -1.6712 39.8167 3.4450 4.7648
# 5 -10.3696 -3.6137 -20.5904 3.4450 49.1213 3.5547
# 6 9.8820 8.6470 6.9492 4.7648 3.5547 19.4652
#
#
#
# Elastic Compliance Matrix: (Units=1/GPa)
#
#
# Indices 1 2 3 4 5 6 
#
# 1 0.009535 -0.002484 -0.003923 -0.000826 0.000403 -0.002208
# 2 -0.002484 0.027978 -0.000551 -0.015052 0.002925 -0.007820
# 3 -0.003923 -0.000551 0.012789 0.001855 0.004625 -0.003628
# 4 -0.000826 -0.015052 0.001855 0.034602 -0.002822 -0.001511
# 5 0.000403 0.002925 0.004625 -0.002822 0.023280 -0.006716
# 6 -0.002208 -0.007820 -0.003628 -0.001511 -0.006716 0.058860
#
#
# Mechanical properties :
#
#
# Convention : Reuss Voigt Hill
#
# Bulk Modulus (GPa) = 27.48248 49.54983 38.51615
# Shear Modulus (GPa) = 25.89504 35.75033 30.82268
#
# Velocity S-wave (km/s) = 3.28822 3.86360 3.58746
# Velocity P-wave (km/s) = 5.08839 6.37123 5.76560
#
# Compressibility (1/GPa) = 0.03638682
#
# Stress axis : x y z
#
# Youngs Moduli (GPa) = 104.87873 35.74299 78.19251
#
# Poissons Ratio (x) = 0.08877 0.30675
# Poissons Ratio (y) = 0.26047 0.04306
# Poissons Ratio (z) = 0.41144 0.01968
#
# Static dielectric constant tensor:
#      x y z
#    x 4.649760 0.288880 -0.104130 
#    y 0.288880 3.883000 0.274090 
#    z -0.104130 0.274090 4.646020 
# 
# 
# High freq. dielectric constant tensor:
#      x y z
#    x 1.964590 0.022500 -0.000280 
#    y 0.022500 1.907550 0.017410 
#    z -0.000280 0.017410 1.979140 
# 
# From -- ./inp_files/126782.got.cif
#   From: 2010.06.25/outbox.cif.g09.slc.cpg/sg2_64_cif.got.tgz:126782.got - 2010.06.27 13:26:56.
