data_PCOD8021405
_publ_section_title
;
Structure prediction by ZEFSAII (Michael W. Deem and Ramdas Pophale) SiO2 
 PCOD8021405
Probable space group: P -1
;
_chemical_formula_sum "Si O2"
_cell_formula_units_Z 16
_cell_length_a 17.991111
_cell_length_b 20.759802
_cell_length_c 5.439890
_cell_angle_alpha 82.863992
_cell_angle_beta 101.125898
_cell_angle_gamma 159.847088
_cell_volume 677.029590
_symmetry_space_group_name_H-M "P -1"
_symmetry_group_IT_number 2
_symmetry_cell_setting 'triclinic'
loop_
_space_group_symop_operation_xyz
x,y,z
-x,-y,-z
loop_
_atom_site_type_symbol
_atom_site_label
_atom_site_fract_x
_atom_site_fract_y
_atom_site_fract_z
Si Si1 0.224207 0.145369 0.152175
Si Si2 0.827420 0.715389 0.543896
Si Si3 0.037765 0.773592 0.368704
Si Si4 0.799502 0.003714 0.006153
Si Si5 0.891101 0.513931 0.503929
Si Si6 0.507447 0.840159 0.236659
Si Si7 0.386568 0.331945 0.687206
Si Si8 0.809704 0.338664 0.146938
O O1 0.305357 0.232740 0.429387
O O2 0.388751 0.291459 0.956334
O O3 0.220397 0.063312 0.200891
O O4 0.000000 0.000000 0.000000
O O5 0.637899 0.556064 0.704032
O O6 0.769419 0.730705 0.329312
O O7 0.854213 0.671084 0.428442
O O8 0.053956 0.914210 0.733806
O O9 0.934928 0.619455 0.366681
O O10 0.276179 0.968106 0.561132
O O11 0.078522 0.832654 0.090930
O O12 0.567689 0.837770 0.058933
O O13 0.691913 0.355257 0.650246
O O14 0.811163 0.399493 0.305264
O O15 0.133560 0.684609 0.678539
O O16 0.423075 0.840936 0.061800
O O17 0.000000 0.500000 0.000000
#
# Coordination Sequence:
#
# PCOD8021405 Si02
#       8
#     2   2   2   2   2   2   2   2
#     4  12  25  43  71  98 135 185 240 289 362 416
#     4  10  25  43  64  95 136 171 237 288 352 418
#     4  11  25  42  65  99 139 177 226 290 348 421
#     4  11  25  42  65  95 141 176 231 293 345 425
#     4  10  22  43  71  97 135 179 223 280 347 419
#     4  10  23  43  65  99 136 179 225 287 344 419
#     4  11  26  44  70  98 130 190 235 299 356 422
#     4   9  20  42  70  99 132 174 228 277 336 425
#
# _framework density 23.632645
#
# number of rings (size 3 to 8) (size 9 to 14) (size 15 to 20)
#    0.000    1.500    1.250    1.875    7.000    6.500 
#    0.000    8.750    0.000    0.000    0.000    0.000 
#    0.000    0.000    0.000    0.000    0.000    0.000 
#
# Total GULP energy -198276.400126 kJ/mol
# GULP energy per Si atom -12392.275008 kJ/mol
# Density = 2.357886 g / cm^3
# Si number density = 23.632645 Si / 1000 Ang^3
#
#
#
# Elastic Constant Matrix: (Units=GPa)
#
#
# Indices 1 2 3 4 5 6 
#
# 1 131.9957 38.5564 28.8889 -22.6812 -3.8505 7.9124
# 2 38.5564 63.8075 12.3896 -13.7255 6.4655 12.2817
# 3 28.8889 12.3896 75.2836 -19.9830 2.3477 4.3825
# 4 -22.6812 -13.7255 -19.9830 30.8366 0.6883 9.4773
# 5 -3.8505 6.4655 2.3477 0.6883 35.7415 -2.9236
# 6 7.9124 12.2817 4.3825 9.4773 -2.9236 44.7417
#
#
#
# Elastic Compliance Matrix: (Units=1/GPa)
#
#
# Indices 1 2 3 4 5 6 
#
# 1 0.010320 -0.004884 -0.001977 0.004430 0.001950 -0.001102
# 2 -0.004884 0.022577 0.001436 0.009953 -0.005546 -0.007945
# 3 -0.001977 0.001436 0.017247 0.011753 -0.002189 -0.004367
# 4 0.004430 0.009953 0.011753 0.052793 -0.004432 -0.016139
# 5 0.001950 -0.005546 -0.002189 -0.004432 0.029771 0.004276
# 6 -0.001102 -0.007945 -0.004367 -0.016139 0.004276 0.028852
#
#
# Mechanical properties :
#
#
# Convention : Reuss Voigt Hill
#
# Bulk Modulus (GPa) = 25.44957 47.86185 36.65571
# Shear Modulus (GPa) = 26.95301 35.01407 30.98354
#
# Velocity S-wave (km/s) = 3.38079 3.85333 3.62477
# Velocity P-wave (km/s) = 5.10214 6.33198 5.75003
#
# Compressibility (1/GPa) = 0.03929339
#
# Stress axis : x y z
#
# Youngs Moduli (GPa) = 96.90298 44.29304 57.97956
#
# Poissons Ratio (x) = 0.21635 0.11462
# Poissons Ratio (y) = 0.47332 -0.08326
# Poissons Ratio (z) = 0.19157 -0.06361
#
# Static dielectric constant tensor:
#      x y z
#    x 4.800850 0.497630 0.397100 
#    y 0.497630 4.145790 -0.009940 
#    z 0.397100 -0.009940 4.478420 
# 
# 
# High freq. dielectric constant tensor:
#      x y z
#    x 1.944040 0.029060 0.005820 
#    y 0.029060 1.919720 -0.007590 
#    z 0.005820 -0.007590 1.944810 
# 
# From -- ./inp_files/51702.got.cif
#   From: 2010.06.25/outbox.cif.g09.slc.cpg/sg2_26_cif.got.tgz:51702.got - 2010.06.27 13:26:56.
