data_PCOD8021414
_publ_section_title
;
Structure prediction by ZEFSAII (Michael W. Deem and Ramdas Pophale) SiO2 
 PCOD8021414
Probable space group: P -1
;
_chemical_formula_sum "Si O2"
_cell_formula_units_Z 16
_cell_length_a 9.019218
_cell_length_b 8.751119
_cell_length_c 20.277346
_cell_angle_alpha 58.493817
_cell_angle_beta 121.710892
_cell_angle_gamma 147.233654
_cell_volume 725.500110
_symmetry_space_group_name_H-M "P -1"
_symmetry_group_IT_number 2
_symmetry_cell_setting 'triclinic'
loop_
_space_group_symop_operation_xyz
x,y,z
-x,-y,-z
loop_
_atom_site_type_symbol
_atom_site_label
_atom_site_fract_x
_atom_site_fract_y
_atom_site_fract_z
Si Si1 0.142238 0.938136 0.074866
Si Si2 0.425786 0.585315 0.287657
Si Si3 0.517671 0.372479 0.860795
Si Si4 0.685667 0.437261 0.173777
Si Si5 0.197465 0.842910 0.537906
Si Si6 0.151213 0.808118 0.686631
Si Si7 0.370623 0.624519 0.567211
Si Si8 0.090162 0.775776 0.961619
O O1 0.921967 0.641574 0.128424
O O2 0.398858 0.177850 0.127819
O O3 0.229445 0.905114 0.036821
O O4 0.000000 0.000000 0.000000
O O5 0.374148 0.563082 0.202798
O O6 0.564608 0.503992 0.349668
O O7 0.144485 0.383948 0.307777
O O8 0.626512 0.903772 0.285094
O O9 0.323841 0.392267 0.821476
O O10 0.792403 0.633261 0.910892
O O11 0.332641 0.047299 0.908821
O O12 0.767897 0.335801 0.260983
O O13 0.155585 0.866617 0.598138
O O14 0.341735 0.763146 0.582016
O O15 0.905934 0.616644 0.484737
O O16 0.386109 0.144434 0.480162
O O17 0.000000 0.500000 0.000000
#
# Coordination Sequence:
#
# PCOD8021414 Si02
#       8
#     2   2   2   2   2   2   2   2
#     4  12  23  44  69  97 123 168 227 274 328 392
#     4  12  27  43  65  98 139 173 215 269 336 386
#     4  12  25  47  65  94 132 176 219 267 334 396
#     4  12  25  44  70  92 131 173 222 275 323 394
#     4  10  22  43  71  99 131 172 226 258 320 389
#     4  12  27  43  65 101 133 176 216 272 327 388
#     4  10  22  43  71  99 131 176 214 270 317 392
#     4  12  27  42  68  98 128 171 214 279 337 395
#
# _framework density 22.053754000000001
#
# number of rings (size 3 to 8) (size 9 to 14) (size 15 to 20)
#    0.000    0.500    2.500    5.250    5.250    3.000 
#    0.000    7.500    0.000    0.000    0.000    0.000 
#    0.000    0.000    0.000    0.000    0.000    0.000 
#
# Total GULP energy -198395.181931 kJ/mol
# GULP energy per Si atom -12399.698871 kJ/mol
# Density = 2.200356 g / cm^3
# Si number density = 22.053754 Si / 1000 Ang^3
#
#
#
# Elastic Constant Matrix: (Units=GPa)
#
#
# Indices 1 2 3 4 5 6 
#
# 1 94.2337 21.0960 38.6600 -6.7812 -19.7120 5.8619
# 2 21.0960 126.8328 29.1374 -13.0900 -14.1823 17.4248
# 3 38.6600 29.1374 87.5635 -12.8034 -15.6505 4.7900
# 4 -6.7812 -13.0900 -12.8034 34.9488 0.0411 -3.1208
# 5 -19.7120 -14.1823 -15.6505 0.0411 47.8434 -0.9413
# 6 5.8619 17.4248 4.7900 -3.1208 -0.9413 43.8871
#
#
#
# Elastic Compliance Matrix: (Units=1/GPa)
#
#
# Indices 1 2 3 4 5 6 
#
# 1 0.013700 -0.000501 -0.005071 0.000523 0.003818 -0.000958
# 2 -0.000501 0.009323 -0.002034 0.002361 0.001827 -0.003206
# 3 -0.005071 -0.002034 0.015308 0.003872 0.002315 0.000139
# 4 0.000523 0.002361 0.003872 0.031089 0.002172 0.000827
# 5 0.003818 0.001827 0.002315 0.002172 0.023755 -0.000824
# 6 -0.000958 -0.003206 0.000139 0.000827 -0.000824 0.024213
#
#
# Mechanical properties :
#
#
# Convention : Reuss Voigt Hill
#
# Bulk Modulus (GPa) = 43.25269 54.04629 48.64949
# Shear Modulus (GPa) = 35.63603 39.98495 37.81049
#
# Velocity S-wave (km/s) = 4.02415 4.26263 4.14511
# Velocity P-wave (km/s) = 6.42236 6.98474 6.70944
#
# Compressibility (1/GPa) = 0.02311995
#
# Stress axis : x y z
#
# Youngs Moduli (GPa) = 72.99085 107.25678 65.32452
#
# Poissons Ratio (x) = 0.05377 0.33124
# Poissons Ratio (y) = 0.03659 0.13287
# Poissons Ratio (z) = 0.37012 0.21816
#
# Static dielectric constant tensor:
#      x y z
#    x 4.108090 0.193330 0.239290 
#    y 0.193330 4.131040 -0.056390 
#    z 0.239290 -0.056390 3.996300 
# 
# 
# High freq. dielectric constant tensor:
#      x y z
#    x 1.877480 0.001670 0.001990 
#    y 0.001670 1.885580 -0.005310 
#    z 0.001990 -0.005310 1.871880 
# 
# From -- ./inp_files/217768.got.cif
#   From: 2010.06.25/outbox.cif.g09.slc.cpg/sg2_109_cif.got.tgz:217768.got - 2010.06.27 13:26:56.
