data_PCOD8021632
_publ_section_title
;
Structure prediction by ZEFSAII (Michael W. Deem and Ramdas Pophale) SiO2 
 PCOD8021632
Probable space group: P -1
;
_chemical_formula_sum "Si O2"
_cell_formula_units_Z 14
_cell_length_a 12.443772
_cell_length_b 6.518865
_cell_length_c 7.674470
_cell_angle_alpha 101.919488
_cell_angle_beta 99.683296
_cell_angle_gamma 67.609670
_cell_volume 560.438149
_symmetry_space_group_name_H-M "P -1"
_symmetry_group_IT_number 2
_symmetry_cell_setting 'triclinic'
loop_
_space_group_symop_operation_xyz
x,y,z
-x,-y,-z
loop_
_atom_site_type_symbol
_atom_site_label
_atom_site_fract_x
_atom_site_fract_y
_atom_site_fract_z
Si Si1 0.076100 0.250258 0.782074
Si Si2 0.686492 0.046182 0.256947
Si Si3 0.068203 0.266546 0.158549
Si Si4 0.248477 0.479597 0.231872
Si Si5 0.135987 0.933980 0.438796
Si Si6 0.624083 0.315009 0.961110
Si Si7 0.551303 0.943739 0.693276
O O1 0.050327 0.073357 0.604127
O O2 0.027297 0.507616 0.749803
O O3 0.215858 0.190315 0.815010
O O4 0.024521 0.204117 0.947711
O O5 0.559231 0.031830 0.209997
O O6 0.730231 0.099597 0.468514
O O7 0.688610 0.230729 0.147205
O O8 0.179032 0.322109 0.128164
O O9 0.104658 0.074783 0.277623
O O10 0.290988 0.588021 0.101238
O O11 0.361828 0.315993 0.337285
O O12 0.151670 0.675224 0.357010
O O13 0.612104 0.110396 0.810123
O O14 0.500000 0.500000 0.000000
O O15 0.500000 0.000000 0.500000
#
# Coordination Sequence:
#
# PCOD8021632 Si02
#       7
#     2   2   2   2   2   2   2
#     4   9  23  42  74  98 133 177 222 276 340 397
#     4  10  22  44  65  96 134 174 224 267 338 392
#     4  11  22  48  70 100 134 175 225 280 335 397
#     4  12  25  42  68  96 137 179 219 280 334 393
#     4  10  24  44  69  99 138 171 226 278 329 406
#     4  12  26  42  66  96 138 176 226 275 323 408
#     4  12  26  42  66  97 134 178 223 274 339 394
#
# _framework density 24.980456
#
# number of rings (size 3 to 8) (size 9 to 14) (size 15 to 20)
#    0.857    0.286    1.429    5.143    4.000    1.714 
#    2.571    6.429    0.000    0.000    0.000    0.000 
#    0.000    0.000    0.000    0.000    0.000    0.000 
#
# Total GULP energy -173468.972044 kJ/mol
# GULP energy per Si atom -12390.640860 kJ/mol
# Density = 2.492360 g / cm^3
# Si number density = 24.980456 Si / 1000 Ang^3
#
#
#
# Elastic Constant Matrix: (Units=GPa)
#
#
# Indices 1 2 3 4 5 6 
#
# 1 58.9773 57.4879 39.5662 3.4802 -15.5834 -10.0580
# 2 57.4879 166.7390 73.6005 -11.2784 -1.9844 -28.5825
# 3 39.5662 73.6005 131.3649 -5.1518 4.0263 -1.4834
# 4 3.4802 -11.2784 -5.1518 51.8453 -8.5598 -4.6700
# 5 -15.5834 -1.9844 4.0263 -8.5598 37.3638 0.6192
# 6 -10.0580 -28.5825 -1.4834 -4.6700 0.6192 48.5650
#
#
#
# Elastic Compliance Matrix: (Units=1/GPa)
#
#
# Indices 1 2 3 4 5 6 
#
# 1 0.033085 -0.008770 -0.005542 -0.002371 0.013369 0.001123
# 2 -0.008770 0.011728 -0.003693 0.002909 -0.002058 0.005280
# 3 -0.005542 -0.003693 0.011425 -0.000177 -0.003730 -0.002942
# 4 -0.002371 0.002909 -0.000177 0.021000 0.003943 0.003185
# 5 0.013369 -0.002058 -0.003730 0.003943 0.033512 0.001395
# 6 0.001123 0.005280 -0.002942 0.003185 0.001395 0.024129
#
#
# Mechanical properties :
#
#
# Convention : Reuss Voigt Hill
#
# Bulk Modulus (GPa) = 49.43191 77.59893 63.51542
# Shear Modulus (GPa) = 28.14791 39.98327 34.06559
#
# Velocity S-wave (km/s) = 3.36042 4.00507 3.69682
# Velocity P-wave (km/s) = 5.90659 7.24698 6.61084
#
# Compressibility (1/GPa) = 0.02022985
#
# Stress axis : x y z
#
# Youngs Moduli (GPa) = 30.22473 85.26286 87.52904
#
# Poissons Ratio (x) = 0.74773 0.48506
# Poissons Ratio (y) = 0.26506 0.32325
# Poissons Ratio (z) = 0.16750 0.31488
#
# Static dielectric constant tensor:
#      x y z
#    x 4.945170 -0.392100 0.037750 
#    y -0.392100 4.570830 0.047620 
#    z 0.037750 0.047620 4.582080 
# 
# 
# High freq. dielectric constant tensor:
#      x y z
#    x 2.013450 -0.027560 0.007110 
#    y -0.027560 1.997160 0.003050 
#    z 0.007110 0.003050 2.005070 
# 
# From -- ./inp_files/289021.got.cif
#   From: 2010.06.25/outbox.cif.g09.slc.cpg/sg2_145_cif.got.tgz:289021.got - 2010.06.27 13:26:56.
