data_PCOD8021091
_publ_section_title
;
Structure prediction by ZEFSAII (Michael W. Deem and Ramdas Pophale) SiO2 
 PCOD8021091
Probable space group: P -1
;
_chemical_formula_sum "Si O2"
_cell_formula_units_Z 16
_cell_length_a 6.678371
_cell_length_b 21.648084
_cell_length_c 6.078830
_cell_angle_alpha 55.310013
_cell_angle_beta 76.034410
_cell_angle_gamma 90.226490
_cell_volume 690.176958
_symmetry_space_group_name_H-M "P -1"
_symmetry_group_IT_number 2
_symmetry_cell_setting 'triclinic'
loop_
_space_group_symop_operation_xyz
x,y,z
-x,-y,-z
loop_
_atom_site_type_symbol
_atom_site_label
_atom_site_fract_x
_atom_site_fract_y
_atom_site_fract_z
Si Si1 0.651277 0.481647 0.187550
Si Si2 0.597243 0.617659 0.165585
Si Si3 0.560752 0.880609 0.720106
Si Si4 0.339966 0.986554 0.267724
Si Si5 0.992932 0.860472 0.490615
Si Si6 0.209676 0.771563 0.281429
Si Si7 0.031504 0.283408 0.940700
Si Si8 0.740762 0.355685 0.145042
O O1 0.742633 0.561996 0.121715
O O2 0.541555 0.427232 0.517616
O O3 0.805409 0.433236 0.118341
O O4 0.500000 0.500000 0.000000
O O5 0.725748 0.690654 0.111880
O O6 0.463879 0.646497 0.947348
O O7 0.416868 0.928802 0.531964
O O8 0.741449 0.857722 0.559793
O O9 0.676966 0.932400 0.782904
O O10 0.409026 0.807209 0.008128
O O11 0.108333 0.947044 0.330739
O O12 0.500000 0.000000 0.000000
O O13 0.087986 0.835111 0.288649
O O14 0.048843 0.802193 0.778331
O O15 0.300880 0.719769 0.539629
O O16 0.028686 0.717644 0.297298
O O17 0.930573 0.349750 0.946283
#
# Coordination Sequence:
#
# PCOD8021091 Si02
#       8
#     2   2   2   2   2   2   2   2
#     4   9  20  41  68  96 130 174 231 270 335 405
#     4  10  22  43  67  96 133 178 221 280 335 402
#     4  11  25  44  71  94 137 180 221 287 335 399
#     4  11  23  46  69  98 136 174 231 281 333 406
#     4  11  25  43  67 102 132 181 227 274 346 401
#     4  11  24  46  65 104 140 176 232 278 336 417
#     4  11  25  42  64 100 137 171 227 276 333 412
#     4  10  23  42  67  96 134 173 222 283 334 396
#
# _framework density 23.182461
#
# number of rings (size 3 to 8) (size 9 to 14) (size 15 to 20)
#    0.000    1.500    2.500    1.125    3.500    6.000 
#    0.000    8.750    0.000    0.000    0.000    0.000 
#    0.000    0.000    0.000    0.000    0.000    0.000 
#
# Total GULP energy -198247.511853 kJ/mol
# GULP energy per Si atom -12390.469491 kJ/mol
# Density = 2.312970 g / cm^3
# Si number density = 23.182461 Si / 1000 Ang^3
#
#
#
# Elastic Constant Matrix: (Units=GPa)
#
#
# Indices 1 2 3 4 5 6 
#
# 1 76.9001 24.3162 21.0697 5.2252 2.3537 7.8304
# 2 24.3162 83.7303 10.2673 7.5825 9.0748 11.7828
# 3 21.0697 10.2673 79.3940 8.1855 13.2774 13.3032
# 4 5.2252 7.5825 8.1855 27.5389 -3.1976 -2.6022
# 5 2.3537 9.0748 13.2774 -3.1976 28.5114 6.8183
# 6 7.8304 11.7828 13.3032 -2.6022 6.8183 46.8091
#
#
#
# Elastic Compliance Matrix: (Units=1/GPa)
#
#
# Indices 1 2 3 4 5 6 
#
# 1 0.015352 -0.004044 -0.003667 -0.000570 0.001858 -0.000810
# 2 -0.004044 0.014256 0.000860 -0.004186 -0.004417 -0.002746
# 3 -0.003667 0.000860 0.015761 -0.005368 -0.007113 -0.003345
# 4 -0.000570 -0.004186 -0.005368 0.040400 0.007494 0.003829
# 5 0.001858 -0.004417 -0.007113 0.007494 0.041137 -0.002753
# 6 -0.000810 -0.002746 -0.003345 0.003829 -0.002753 0.023754
#
#
# Mechanical properties :
#
#
# Convention : Reuss Voigt Hill
#
# Bulk Modulus (GPa) = 31.57979 39.03675 35.30827
# Shear Modulus (GPa) = 28.58454 32.86328 30.72391
#
# Velocity S-wave (km/s) = 3.51525 3.76918 3.64443
# Velocity P-wave (km/s) = 5.48889 5.98479 5.74219
#
# Compressibility (1/GPa) = 0.03166582
#
# Stress axis : x y z
#
# Youngs Moduli (GPa) = 65.13857 70.14409 63.44891
#
# Poissons Ratio (x) = 0.28369 0.23268
# Poissons Ratio (y) = 0.26344 -0.05457
# Poissons Ratio (z) = 0.23888 -0.06032
#
# Static dielectric constant tensor:
#      x y z
#    x 3.899690 -0.031250 0.160250 
#    y -0.031250 4.836610 0.217140 
#    z 0.160250 0.217140 4.234020 
# 
# 
# High freq. dielectric constant tensor:
#      x y z
#    x 1.894410 -0.003950 0.006800 
#    y -0.003950 1.937940 0.006210 
#    z 0.006800 0.006210 1.915440 
# 
# From -- ./inp_files/12737.got.cif
#   From: 2010.06.25/outbox.cif.g09.slc.cpg/sg2_7_cif.got.tgz:12737.got - 2010.06.27 13:26:56.
