data_PCOD8021954
_publ_section_title
;
Structure prediction by ZEFSAII (Michael W. Deem and Ramdas Pophale) SiO2 
 PCOD8021954
Probable space group: P -1
;
_chemical_formula_sum "Si O2"
_cell_formula_units_Z 16
_cell_length_a 21.818366
_cell_length_b 9.970717
_cell_length_c 18.041166
_cell_angle_alpha 35.215079
_cell_angle_beta 161.388750
_cell_angle_gamma 144.776921
_cell_volume 702.632766
_symmetry_space_group_name_H-M "P -1"
_symmetry_group_IT_number 2
_symmetry_cell_setting 'triclinic'
loop_
_space_group_symop_operation_xyz
x,y,z
-x,-y,-z
loop_
_atom_site_type_symbol
_atom_site_label
_atom_site_fract_x
_atom_site_fract_y
_atom_site_fract_z
Si Si1 0.064828 0.018232 0.836603
Si Si2 0.510988 0.401319 0.839853
Si Si3 0.657394 0.734094 0.444070
Si Si4 0.812354 0.610547 0.311815
Si Si5 0.056806 0.351896 0.803854
Si Si6 0.388643 0.794380 0.363840
Si Si7 0.510356 0.178953 0.091505
Si Si8 0.280415 0.777729 0.414091
O O1 0.886527 0.823062 0.686339
O O2 0.096029 0.264189 0.715063
O O3 0.257630 0.906926 0.105462
O O4 0.022583 0.102114 0.832698
O O5 0.367255 0.259632 0.676143
O O6 0.407626 0.594747 0.673194
O O7 0.552981 0.227663 0.030849
O O8 0.710820 0.542893 0.963718
O O9 0.586671 0.465910 0.516743
O O10 0.532344 0.911336 0.256192
O O11 0.981474 0.559975 0.581185
O O12 0.664793 0.358968 0.238258
O O13 0.708295 0.796990 0.150273
O O14 0.940930 0.289911 0.776617
O O15 0.270996 0.765099 0.320313
O O16 0.607738 0.959515 0.548429
#
# Coordination Sequence:
#
# PCOD8021954 Si02
#       8
#     2   2   2   2   2   2   2   2
#     4  12  23  43  68  99 132 177 221 273 329 390
#     4  11  22  44  68 100 136 170 218 281 329 390
#     4  11  25  42  63  96 140 178 212 271 338 386
#     4  11  23  39  72 102 128 165 230 274 325 400
#     4  12  22  41  76  99 127 169 229 275 327 391
#     4  10  23  45  66  94 141 174 221 274 317 395
#     4  11  21  41  67  99 135 174 211 276 340 385
#     4  10  22  44  71 101 125 177 229 272 320 386
#
# _framework density 22.771495999999999
#
# number of rings (size 3 to 8) (size 9 to 14) (size 15 to 20)
#    0.000    1.000    5.000    1.875    1.750    0.500 
#    4.500    3.750    0.000    0.000    0.000    0.000 
#    0.000    0.000    0.000    0.000    0.000    0.000 
#
# Total GULP energy -198448.575529 kJ/mol
# GULP energy per Si atom -12403.035971 kJ/mol
# Density = 2.271967 g / cm^3
# Si number density = 22.771496 Si / 1000 Ang^3
#
#
#
# Elastic Constant Matrix: (Units=GPa)
#
#
# Indices 1 2 3 4 5 6 
#
# 1 47.6577 -5.1487 -6.7673 3.4994 11.4628 2.8309
# 2 -5.1487 109.0179 22.0278 -21.1291 4.1352 -12.5077
# 3 -6.7673 22.0278 55.8657 -7.3879 2.3332 -7.0725
# 4 3.4994 -21.1291 -7.3879 45.1798 1.1751 -3.0417
# 5 11.4628 4.1352 2.3332 1.1751 38.4355 0.8353
# 6 2.8309 -12.5077 -7.0725 -3.0417 0.8353 25.9962
#
#
#
# Elastic Compliance Matrix: (Units=1/GPa)
#
#
# Indices 1 2 3 4 5 6 
#
# 1 0.023274 0.000461 0.002600 -0.001079 -0.007083 -0.001504
# 2 0.000461 0.011490 -0.003049 0.005234 -0.001464 0.005308
# 3 0.002600 -0.003049 0.020273 0.002008 -0.001828 0.004059
# 4 -0.001079 0.005234 0.002008 0.025444 -0.001276 0.006201
# 5 -0.007083 -0.001464 -0.001828 -0.001276 0.028470 -0.001494
# 6 -0.001504 0.005308 0.004059 0.006201 -0.001494 0.043063
#
#
# Mechanical properties :
#
#
# Convention : Reuss Voigt Hill
#
# Bulk Modulus (GPa) = 18.16174 25.86275 22.01224
# Shear Modulus (GPa) = 29.35239 35.41759 32.38499
#
# Velocity S-wave (km/s) = 3.59416 3.94807 3.77526
# Velocity P-wave (km/s) = 5.02164 5.67143 5.35640
#
# Compressibility (1/GPa) = 0.05506081
#
# Stress axis : x y z
#
# Youngs Moduli (GPa) = 42.96606 87.03438 49.32626
#
# Poissons Ratio (x) = -0.04010 -0.12827
# Poissons Ratio (y) = -0.01980 0.15041
# Poissons Ratio (z) = -0.11173 0.26539
#
# Static dielectric constant tensor:
#      x y z
#    x 3.830270 0.002440 -0.031950 
#    y 0.002440 4.055340 -0.253280 
#    z -0.031950 -0.253280 4.210800 
# 
# 
# High freq. dielectric constant tensor:
#      x y z
#    x 1.877500 -0.000610 -0.006760 
#    y -0.000610 1.890090 -0.016270 
#    z -0.006760 -0.016270 1.910000 
# 
# From -- ./inp_files/577563.got.cif
#   From: 2010.06.25/outbox.cif.g09.slc.cpg/sg2_289_cif.got.tgz:577563.got - 2010.06.27 13:26:56.
