data_PCOD8021291
_publ_section_title
;
Structure prediction by ZEFSAII (Michael W. Deem and Ramdas Pophale) SiO2 
 PCOD8021291
Probable space group: P -1
;
_chemical_formula_sum "Si O2"
_cell_formula_units_Z 16
_cell_length_a 9.111306
_cell_length_b 9.032017
_cell_length_c 14.571899
_cell_angle_alpha 123.652102
_cell_angle_beta 105.603042
_cell_angle_gamma 111.689537
_cell_volume 733.179494
_symmetry_space_group_name_H-M "P -1"
_symmetry_group_IT_number 2
_symmetry_cell_setting 'triclinic'
loop_
_space_group_symop_operation_xyz
x,y,z
-x,-y,-z
loop_
_atom_site_type_symbol
_atom_site_label
_atom_site_fract_x
_atom_site_fract_y
_atom_site_fract_z
Si Si1 0.276718 0.096567 0.828360
Si Si2 0.826306 0.228606 0.902110
Si Si3 0.605640 0.442112 0.562204
Si Si4 0.167943 0.281995 0.720086
Si Si5 0.276613 0.085860 0.524304
Si Si6 0.048274 0.063531 0.137252
Si Si7 0.611626 0.088454 0.360201
Si Si8 0.629610 0.225512 0.036126
O O1 0.250558 0.252833 0.816521
O O2 0.255864 0.902602 0.695107
O O3 0.498362 0.257419 0.961514
O O4 0.130733 0.981160 0.851497
O O5 0.906033 0.088557 0.857215
O O6 0.627263 0.105171 0.765271
O O7 0.771606 0.209675 0.993244
O O8 0.000000 0.500000 0.000000
O O9 0.500000 0.500000 0.500000
O O10 0.444670 0.231452 0.527577
O O11 0.769924 0.661497 0.728177
O O12 0.687718 0.348405 0.476357
O O13 0.250705 0.245829 0.632573
O O14 0.236183 0.536261 0.802483
O O15 0.929876 0.108251 0.628860
O O16 0.343295 0.974293 0.559311
O O17 0.000000 0.000000 0.000000
O O18 0.500000 0.000000 0.000000
#
# Coordination Sequence:
#
# PCOD8021291 Si02
#       8
#     2   2   2   2   2   2   2   2
#     4  10  23  45  68  98 138 184 232 280 345 425
#     4  11  25  43  68  99 136 184 231 283 344 420
#     4  12  25  44  70  98 145 181 223 296 349 416
#     4  10  22  43  69  99 134 184 236 278 348 415
#     4  10  24  41  70 100 133 180 237 290 333 418
#     4  12  27  43  69 107 142 181 228 288 363 406
#     4  10  24  46  69 100 130 184 243 279 347 412
#     4  11  24  40  68  99 138 178 226 290 346 409
#
# _framework density 21.822759000000001
#
# number of rings (size 3 to 8) (size 9 to 14) (size 15 to 20)
#    0.000    1.250    1.250    3.000    7.000    3.500 
#    0.000    0.000    0.000    0.000    0.000    0.000 
#    0.000    0.000    0.000    0.000    0.000    0.000 
#
# Total GULP energy -198382.966239 kJ/mol
# GULP energy per Si atom -12398.935390 kJ/mol
# Density = 2.177309 g / cm^3
# Si number density = 21.822759 Si / 1000 Ang^3
#
#
#
# Elastic Constant Matrix: (Units=GPa)
#
#
# Indices 1 2 3 4 5 6 
#
# 1 107.3135 39.1551 36.9720 2.9736 -21.0584 3.2580
# 2 39.1551 88.9148 42.8270 2.1776 -20.4202 6.9415
# 3 36.9720 42.8270 127.0376 14.7959 -18.4263 -2.3662
# 4 2.9736 2.1776 14.7959 38.3364 -8.1758 -0.9029
# 5 -21.0584 -20.4202 -18.4263 -8.1758 29.7015 -4.3423
# 6 3.2580 6.9415 -2.3662 -0.9029 -4.3423 40.5441
#
#
#
# Elastic Compliance Matrix: (Units=1/GPa)
#
#
# Indices 1 2 3 4 5 6 
#
# 1 0.012185 -0.003261 -0.001759 0.001122 0.005630 0.000105
# 2 -0.003261 0.016172 -0.003815 0.002202 0.006759 -0.001956
# 3 -0.001759 -0.003815 0.010345 -0.003200 0.001891 0.001530
# 4 0.001122 0.002202 -0.003200 0.028924 0.008416 0.000892
# 5 0.005630 0.006759 0.001891 0.008416 0.046330 0.003650
# 6 0.000105 -0.001956 0.001530 0.000892 0.003650 0.025491
#
#
# Mechanical properties :
#
#
# Convention : Reuss Voigt Hill
#
# Bulk Modulus (GPa) = 47.54886 62.35269 54.95078
# Shear Modulus (GPa) = 30.46401 35.33719 32.90060
#
# Velocity S-wave (km/s) = 3.74033 4.02840 3.88703
# Velocity P-wave (km/s) = 6.36312 7.09025 6.73651
#
# Compressibility (1/GPa) = 0.02103100
#
# Stress axis : x y z
#
# Youngs Moduli (GPa) = 82.06875 61.83653 96.66308
#
# Poissons Ratio (x) = 0.20167 0.17002
# Poissons Ratio (y) = 0.26765 0.36879
# Poissons Ratio (z) = 0.14435 0.23592
#
# Static dielectric constant tensor:
#      x y z
#    x 4.250000 -0.120410 -0.063350 
#    y -0.120410 3.466950 -0.171660 
#    z -0.063350 -0.171660 4.172520 
# 
# 
# High freq. dielectric constant tensor:
#      x y z
#    x 1.875280 -0.006870 -0.008950 
#    y -0.006870 1.849670 -0.006920 
#    z -0.008950 -0.006920 1.868090 
# 
# From -- ./inp_files/495743.got.cif
#   From: 2010.06.25/outbox.cif.g09.slc.cpg/sg2_248_cif.got.tgz:495743.got - 2010.06.27 13:26:56.
