data_PCOD8021506
_publ_section_title
;
Structure prediction by ZEFSAII (Michael W. Deem and Ramdas Pophale) SiO2 
 PCOD8021506
Probable space group: P -1
;
_chemical_formula_sum "Si O2"
_cell_formula_units_Z 14
_cell_length_a 17.878821
_cell_length_b 12.162083
_cell_length_c 12.135310
_cell_angle_alpha 144.385364
_cell_angle_beta 152.664297
_cell_angle_gamma 28.035938
_cell_volume 564.423794
_symmetry_space_group_name_H-M "P -1"
_symmetry_group_IT_number 2
_symmetry_cell_setting 'triclinic'
loop_
_space_group_symop_operation_xyz
x,y,z
-x,-y,-z
loop_
_atom_site_type_symbol
_atom_site_label
_atom_site_fract_x
_atom_site_fract_y
_atom_site_fract_z
Si Si1 0.603132 0.562477 0.383298
Si Si2 0.703779 0.517238 0.727117
Si Si3 0.822693 0.007946 0.835036
Si Si4 0.633507 0.126438 0.070633
Si Si5 0.208777 0.252352 0.602416
Si Si6 0.686893 0.101380 0.369660
Si Si7 0.139651 0.266714 0.134352
O O1 0.595067 0.579991 0.518634
O O2 0.690135 0.298560 0.244373
O O3 0.747250 0.629645 0.581046
O O4 0.372469 0.731812 0.173366
O O5 0.745040 0.274053 0.623911
O O6 0.556762 0.744460 0.798331
O O7 0.918473 0.477170 0.968480
O O8 0.728029 0.919528 0.557460
O O9 0.906595 0.850381 0.925518
O O10 0.000000 0.000000 0.000000
O O11 0.728460 0.030681 0.238335
O O12 0.388469 0.277646 0.878018
O O13 0.727018 0.910098 0.934206
O O14 0.000000 0.500000 0.500000
O O15 0.182397 0.139103 0.584177
#
# Coordination Sequence:
#
# PCOD8021506 Si02
#       7
#     2   2   2   2   2   2   2
#     4  11  24  47  73 103 149 192 241 307 368 434
#     4  10  22  43  77 106 144 196 247 299 370 437
#     4  12  26  48  72 103 150 197 245 296 365 444
#     4  11  26  46  73 109 146 190 245 308 368 433
#     4  12  25  45  71 111 147 194 250 300 364 440
#     4  10  22  45  75 107 147 189 248 308 360 436
#     4  12  26  47  72 110 151 192 241 303 375 436
#
# _framework density 24.804057
#
# number of rings (size 3 to 8) (size 9 to 14) (size 15 to 20)
#    0.000    0.857    2.857    3.000    6.000    2.857 
#    7.714    0.000    0.000    0.000    0.000    0.000 
#    0.000    0.000    0.000    0.000    0.000    0.000 
#
# Total GULP energy -173620.064375 kJ/mol
# GULP energy per Si atom -12401.433170 kJ/mol
# Density = 2.474760 g / cm^3
# Si number density = 24.804057 Si / 1000 Ang^3
#
#
#
# Elastic Constant Matrix: (Units=GPa)
#
#
# Indices 1 2 3 4 5 6 
#
# 1 89.8174 30.1127 17.4536 -0.8050 9.0544 18.0819
# 2 30.1127 121.0180 43.8326 -5.4593 17.2710 22.6104
# 3 17.4536 43.8326 78.4646 -11.7125 9.3960 4.8389
# 4 -0.8050 -5.4593 -11.7125 36.0421 -7.5086 4.5187
# 5 9.0544 17.2710 9.3960 -7.5086 41.0854 -2.2754
# 6 18.0819 22.6104 4.8389 4.5187 -2.2754 31.7330
#
#
#
# Elastic Compliance Matrix: (Units=1/GPa)
#
#
# Indices 1 2 3 4 5 6 
#
# 1 0.013449 -0.001127 -0.001656 -0.000080 -0.002501 -0.006775
# 2 -0.001127 0.012736 -0.005862 0.000113 -0.004179 -0.007854
# 3 -0.001656 -0.005862 0.016930 0.004306 -0.000150 0.001915
# 4 -0.000080 0.000113 0.004306 0.030656 0.004325 -0.004747
# 5 -0.002501 -0.004179 -0.000150 0.004325 0.027793 0.005803
# 6 -0.006775 -0.007854 0.001915 -0.004747 0.005803 0.041770
#
#
# Mechanical properties :
#
#
# Convention : Reuss Voigt Hill
#
# Bulk Modulus (GPa) = 38.72482 52.45532 45.59007
# Shear Modulus (GPa) = 29.54483 34.96551 32.25517
#
# Velocity S-wave (km/s) = 3.45502 3.75863 3.61002
# Velocity P-wave (km/s) = 5.61804 6.32694 5.98300
#
# Compressibility (1/GPa) = 0.02582323
#
# Stress axis : x y z
#
# Youngs Moduli (GPa) = 74.35510 78.51778 59.06541
#
# Poissons Ratio (x) = 0.08851 0.09784
# Poissons Ratio (y) = 0.08382 0.34626
# Poissons Ratio (z) = 0.12317 0.46029
#
# Static dielectric constant tensor:
#      x y z
#    x 4.315030 0.309660 0.111720 
#    y 0.309660 4.578420 0.173360 
#    z 0.111720 0.173360 4.495420 
# 
# 
# High freq. dielectric constant tensor:
#      x y z
#    x 1.979610 0.016170 0.007040 
#    y 0.016170 1.990850 -0.000060 
#    z 0.007040 -0.000060 1.991820 
# 
# From -- ./inp_files/465153.got.cif
#   From: 2010.06.25/outbox.cif.g09.slc.cpg/sg2_233_cif.got.tgz:465153.got - 2010.06.27 13:26:56.
