data_PCOD8021647
_publ_section_title
;
Structure prediction by ZEFSAII (Michael W. Deem and Ramdas Pophale) SiO2 
 PCOD8021647
Probable space group: P -1
;
_chemical_formula_sum "Si O2"
_cell_formula_units_Z 12
_cell_length_a 8.879169
_cell_length_b 8.322707
_cell_length_c 10.999713
_cell_angle_alpha 136.666143
_cell_angle_beta 106.752193
_cell_angle_gamma 69.075888
_cell_volume 520.526619
_symmetry_space_group_name_H-M "P -1"
_symmetry_group_IT_number 2
_symmetry_cell_setting 'triclinic'
loop_
_space_group_symop_operation_xyz
x,y,z
-x,-y,-z
loop_
_atom_site_type_symbol
_atom_site_label
_atom_site_fract_x
_atom_site_fract_y
_atom_site_fract_z
Si Si1 0.668175 0.311628 0.066411
Si Si2 0.267529 0.704688 0.663528
Si Si3 0.586789 0.945801 0.252081
Si Si4 0.030942 0.195105 0.521062
Si Si5 0.891498 0.530330 0.109281
Si Si6 0.630196 0.767683 0.450840
O O1 0.745824 0.189016 0.142344
O O2 0.803103 0.309658 0.990910
O O3 0.594053 0.601242 0.235691
O O4 0.533512 0.182022 0.917852
O O5 0.329121 0.415368 0.525160
O O6 0.091074 0.770285 0.600045
O O7 0.399455 0.811258 0.679817
O O8 0.764753 0.783558 0.203956
O O9 0.523352 0.021611 0.419153
O O10 0.006575 0.443655 0.730521
O O11 0.213403 0.121862 0.472863
O O12 0.000000 0.000000 0.500000
O O13 0.000000 0.500000 0.000000
#
# Coordination Sequence:
#
# PCOD8021647 Si02
#       6
#     2   2   2   2   2   2
#     4   9  24  43  66 100 134 169 223 273 328 388
#     4  10  22  44  66 101 132 171 226 264 333 394
#     4  12  22  44  68  98 136 173 218 273 333 392
#     4  11  22  45  68  95 131 178 221 267 328 393
#     4  11  26  45  66  99 132 176 224 274 327 393
#     4   9  24  41  68 100 130 174 219 271 331 381
#
# _framework density 23.053574000000001
#
# number of rings (size 3 to 8) (size 9 to 14) (size 15 to 20)
#    1.000    0.667    1.667    2.000    2.333    4.000 
#    3.000    1.667    0.000    0.000    0.000    0.000 
#    0.000    0.000    0.000    0.000    0.000    0.000 
#
# Total GULP energy -148708.201239 kJ/mol
# GULP energy per Si atom -12392.350103 kJ/mol
# Density = 2.300110 g / cm^3
# Si number density = 23.053574 Si / 1000 Ang^3
#
#
#
# Elastic Constant Matrix: (Units=GPa)
#
#
# Indices 1 2 3 4 5 6 
#
# 1 195.1328 70.9464 89.3950 -3.3574 -6.3236 25.8266
# 2 70.9464 89.0467 47.4069 -13.0548 -0.6293 14.7446
# 3 89.3950 47.4069 112.7396 -23.4956 9.5781 -3.0752
# 4 -3.3574 -13.0548 -23.4956 39.3416 6.3162 6.3995
# 5 -6.3236 -0.6293 9.5781 6.3162 52.4021 -3.2763
# 6 25.8266 14.7446 -3.0752 6.3995 -3.2763 44.7547
#
#
#
# Elastic Compliance Matrix: (Units=1/GPa)
#
#
# Indices 1 2 3 4 5 6 
#
# 1 0.011328 -0.004416 -0.008663 -0.005438 0.003261 -0.004661
# 2 -0.004416 0.017737 -0.003103 0.004424 -0.000547 -0.004181
# 3 -0.008663 -0.003103 0.019755 0.010020 -0.005555 0.005539
# 4 -0.005438 0.004424 0.010020 0.033969 -0.006715 -0.002980
# 5 0.003261 -0.000547 -0.005555 -0.006715 0.021322 0.000438
# 6 -0.004661 -0.004181 0.005539 -0.002980 0.000438 0.027250
#
#
# Mechanical properties :
#
#
# Convention : Reuss Voigt Hill
#
# Bulk Modulus (GPa) = 60.76264 90.26840 75.51552
# Shear Modulus (GPa) = 29.54906 39.91107 34.73007
#
# Velocity S-wave (km/s) = 3.58405 4.16532 3.88557
# Velocity P-wave (km/s) = 6.59860 7.89773 7.27721
#
# Compressibility (1/GPa) = 0.01645748
#
# Stress axis : x y z
#
# Youngs Moduli (GPa) = 88.27747 56.37933 50.61998
#
# Poissons Ratio (x) = 0.24895 0.43852
# Poissons Ratio (y) = 0.38980 0.15706
# Poissons Ratio (z) = 0.76474 0.17493
#
# Static dielectric constant tensor:
#      x y z
#    x 4.199250 0.317850 0.202700 
#    y 0.317850 4.526460 -0.194340 
#    z 0.202700 -0.194340 4.333960 
# 
# 
# High freq. dielectric constant tensor:
#      x y z
#    x 1.915410 0.032630 0.012090 
#    y 0.032630 1.929400 -0.015480 
#    z 0.012090 -0.015480 1.902240 
# 
# From -- ./inp_files/191192.got.cif
#   From: 2010.06.25/outbox.cif.g09.slc.cpg/sg2_96_cif.got.tgz:191192.got - 2010.06.27 13:26:56.
