data_PCOD8021170
_publ_section_title
;
Structure prediction by ZEFSAII (Michael W. Deem and Ramdas Pophale) SiO2 
 PCOD8021170
Probable space group: P -1
;
_chemical_formula_sum "Si O2"
_cell_formula_units_Z 14
_cell_length_a 14.662202
_cell_length_b 6.495744
_cell_length_c 14.771802
_cell_angle_alpha 73.619482
_cell_angle_beta 153.101922
_cell_angle_gamma 109.276221
_cell_volume 600.550214
_symmetry_space_group_name_H-M "P -1"
_symmetry_group_IT_number 2
_symmetry_cell_setting 'triclinic'
loop_
_space_group_symop_operation_xyz
x,y,z
-x,-y,-z
loop_
_atom_site_type_symbol
_atom_site_label
_atom_site_fract_x
_atom_site_fract_y
_atom_site_fract_z
Si Si1 0.494371 0.132789 0.189216
Si Si2 0.446444 0.644102 0.601195
Si Si3 0.140343 0.327788 0.118691
Si Si4 0.702339 0.532862 0.234662
Si Si5 0.883184 0.109443 0.758013
Si Si6 0.735767 0.777858 0.415206
Si Si7 0.066539 0.148428 0.723901
O O1 0.447138 0.221981 0.234647
O O2 0.694737 0.294166 0.302824
O O3 0.556263 0.897985 0.278028
O O4 0.292023 0.108881 0.952880
O O5 0.622643 0.568203 0.704759
O O6 0.326218 0.801577 0.416607
O O7 0.280140 0.434062 0.509113
O O8 0.141559 0.152240 0.222107
O O9 0.000000 0.500000 0.000000
O O10 0.059892 0.212514 0.969131
O O11 0.692032 0.713026 0.280423
O O12 0.901664 0.627600 0.336972
O O13 0.500000 0.500000 0.000000
O O14 0.935873 0.182253 0.692412
O O15 0.957690 0.932759 0.600844
#
# Coordination Sequence:
#
# PCOD8021170 Si02
#       7
#     2   2   2   2   2   2   2
#     4  10  22  43  68  95 137 181 223 279 332 391
#     4  11  24  45  69  98 141 172 223 281 338 408
#     4  11  27  46  72 100 131 174 229 279 346 406
#     4   9  22  43  63 101 138 181 225 277 329 390
#     4  11  25  45  69 101 131 182 222 279 343 398
#     4  11  24  40  68 105 132 183 226 269 338 398
#     4  11  22  43  68  95 139 175 232 273 330 400
#
# _framework density 23.311955000000001
#
# number of rings (size 3 to 8) (size 9 to 14) (size 15 to 20)
#    0.000    1.429    2.857    0.857    4.000    3.429 
#    2.571    0.000    0.000    0.000    0.000    0.000 
#    0.000    0.000    0.000    0.000    0.000    0.000 
#
# Total GULP energy -173563.859319 kJ/mol
# GULP energy per Si atom -12397.418523 kJ/mol
# Density = 2.325890 g / cm^3
# Si number density = 23.311955 Si / 1000 Ang^3
#
#
#
# Elastic Constant Matrix: (Units=GPa)
#
#
# Indices 1 2 3 4 5 6 
#
# 1 113.8072 47.8717 27.5686 0.4917 15.0152 11.3194
# 2 47.8717 126.1202 33.1493 -9.2423 8.2228 4.4606
# 3 27.5686 33.1493 92.7589 14.0707 12.8241 1.8988
# 4 0.4917 -9.2423 14.0707 43.5532 -7.1639 0.2981
# 5 15.0152 8.2228 12.8241 -7.1639 39.1298 0.2326
# 6 11.3194 4.4606 1.8988 0.2981 0.2326 31.1328
#
#
#
# Elastic Compliance Matrix: (Units=1/GPa)
#
#
# Indices 1 2 3 4 5 6 
#
# 1 0.011485 -0.003722 -0.001401 -0.000990 -0.003326 -0.003523
# 2 -0.003722 0.010390 -0.003263 0.003457 0.000947 0.000024
# 3 -0.001401 -0.003263 0.013858 -0.005878 -0.004396 0.000221
# 4 -0.000990 0.003457 -0.005878 0.026668 0.006463 -0.000080
# 5 -0.003326 0.000947 -0.004396 0.006463 0.029251 0.001061
# 6 -0.003523 0.000024 0.000221 -0.000080 0.001061 0.033377
#
#
# Mechanical properties :
#
#
# Convention : Reuss Voigt Hill
#
# Bulk Modulus (GPa) = 52.73884 61.09617 56.91751
# Shear Modulus (GPa) = 33.75593 37.70293 35.72943
#
# Velocity S-wave (km/s) = 3.80940 4.02596 3.91917
# Velocity P-wave (km/s) = 6.48235 6.91925 6.70436
#
# Compressibility (1/GPa) = 0.01896136
#
# Stress axis : x y z
#
# Youngs Moduli (GPa) = 87.06643 96.24541 72.16096
#
# Poissons Ratio (x) = 0.35826 0.10111
# Poissons Ratio (y) = 0.32409 0.23543
# Poissons Ratio (z) = 0.12199 0.31400
#
# Static dielectric constant tensor:
#      x y z
#    x 4.165920 0.314290 -0.076360 
#    y 0.314290 4.259850 0.120060 
#    z -0.076360 0.120060 4.261400 
# 
# 
# High freq. dielectric constant tensor:
#      x y z
#    x 1.917050 0.012430 -0.002940 
#    y 0.012430 1.918830 0.000950 
#    z -0.002940 0.000950 1.937810 
# 
# From -- ./inp_files/340216.got.cif
#   From: 2010.06.25/outbox.cif.g09.slc.cpg/sg2_171_cif.got.tgz:340216.got - 2010.06.27 13:26:56.
