data_PCOD8021534
_publ_section_title
;
Structure prediction by ZEFSAII (Michael W. Deem and Ramdas Pophale) SiO2 
 PCOD8021534
Probable space group: P -1
;
_chemical_formula_sum "Si O2"
_cell_formula_units_Z 16
_cell_length_a 7.293156
_cell_length_b 14.447663
_cell_length_c 22.887922
_cell_angle_alpha 18.435706
_cell_angle_beta 80.560819
_cell_angle_gamma 79.056996
_cell_volume 747.795995
_symmetry_space_group_name_H-M "P -1"
_symmetry_group_IT_number 2
_symmetry_cell_setting 'triclinic'
loop_
_space_group_symop_operation_xyz
x,y,z
-x,-y,-z
loop_
_atom_site_type_symbol
_atom_site_label
_atom_site_fract_x
_atom_site_fract_y
_atom_site_fract_z
Si Si1 0.625314 0.112345 0.855640
Si Si2 0.367963 0.097990 0.501956
Si Si3 0.199379 0.141869 0.201582
Si Si4 0.923750 0.793644 0.360301
Si Si5 0.296713 0.775006 0.086349
Si Si6 0.011026 0.852770 0.956277
Si Si7 0.458732 0.225753 0.545316
Si Si8 0.916005 0.363630 0.178496
O O1 0.706144 0.075572 0.939416
O O2 0.505805 0.429782 0.661275
O O3 0.811948 0.057258 0.840249
O O4 0.490230 0.862977 0.995231
O O5 0.282418 0.429858 0.295925
O O6 0.487654 0.094993 0.556988
O O7 0.500000 0.000000 0.500000
O O8 0.201604 0.895147 0.639976
O O9 0.106936 0.247741 0.204579
O O10 0.087442 0.887173 0.335702
O O11 0.407842 0.983559 0.294546
O O12 0.205531 0.410840 0.994470
O O13 0.000000 0.500000 0.500000
O O14 0.753422 0.772532 0.424957
O O15 0.862766 0.039206 0.167357
O O16 0.115647 0.896413 0.985454
O O17 0.974021 0.518929 0.142508
#
# Coordination Sequence:
#
# PCOD8021534 Si02
#       8
#     2   2   2   2   2   2   2   2
#     4  10  22  44  62  97 135 166 222 278 319 401
#     4  11  24  44  67  98 136 174 227 270 317 402
#     4  10  24  45  68  98 135 175 216 275 337 391
#     4  11  23  42  66 101 133 164 223 278 327 401
#     4  10  24  42  64  95 131 176 219 268 335 382
#     4  11  23  40  68  94 131 177 216 269 339 383
#     4  11  24  42  71  98 131 179 213 274 342 386
#     4  10  23  46  65  97 140 168 226 278 317 401
#
# _framework density 21.396211000000001
#
# number of rings (size 3 to 8) (size 9 to 14) (size 15 to 20)
#    0.000    1.500    2.500    1.125    3.500    4.500 
#    6.750    0.000    0.000    0.000    0.000    0.000 
#    0.000    0.000    0.000    0.000    0.000    0.000 
#
# Total GULP energy -198350.228014 kJ/mol
# GULP energy per Si atom -12396.889251 kJ/mol
# Density = 2.134751 g / cm^3
# Si number density = 21.396211 Si / 1000 Ang^3
#
#
#
# Elastic Constant Matrix: (Units=GPa)
#
#
# Indices 1 2 3 4 5 6 
#
# 1 94.0533 37.5995 53.8551 -3.7328 -0.9585 2.8076
# 2 37.5995 92.3972 30.4736 -10.3840 -3.1236 -4.4140
# 3 53.8551 30.4736 110.8562 -4.4766 -19.5331 7.4995
# 4 -3.7328 -10.3840 -4.4766 34.2582 -0.3796 -6.7000
# 5 -0.9585 -3.1236 -19.5331 -0.3796 37.1220 2.8210
# 6 2.8076 -4.4140 7.4995 -6.7000 2.8210 28.5638
#
#
#
# Elastic Compliance Matrix: (Units=1/GPa)
#
#
# Indices 1 2 3 4 5 6 
#
# 1 0.016723 -0.004504 -0.007599 -0.000598 -0.003944 -0.000096
# 2 -0.004504 0.013909 -0.001762 0.004290 -0.000139 0.004075
# 3 -0.007599 -0.001762 0.014849 -0.000163 0.007789 -0.004231
# 4 -0.000598 0.004290 -0.000163 0.032023 -0.000042 0.008280
# 5 -0.003944 -0.000139 0.007789 -0.000042 0.031286 -0.004778
# 6 -0.000096 0.004075 -0.004231 0.008280 -0.004778 0.039174
#
#
# Mechanical properties :
#
#
# Convention : Reuss Voigt Hill
#
# Bulk Modulus (GPa) = 56.33663 60.12922 58.23293
# Shear Modulus (GPa) = 27.53159 31.68070 29.60615
#
# Velocity S-wave (km/s) = 3.59102 3.85212 3.72386
# Velocity P-wave (km/s) = 6.60161 6.92451 6.76499
#
# Compressibility (1/GPa) = 0.01775044
#
# Stress axis : x y z
#
# Youngs Moduli (GPa) = 59.79864 71.89562 67.34601
#
# Poissons Ratio (x) = 0.32383 0.51174
# Poissons Ratio (y) = 0.26934 0.11868
# Poissons Ratio (z) = 0.45439 0.12670
#
# Static dielectric constant tensor:
#      x y z
#    x 3.624310 0.048160 -0.260050 
#    y 0.048160 4.128590 -0.029640 
#    z -0.260050 -0.029640 3.952470 
# 
# 
# High freq. dielectric constant tensor:
#      x y z
#    x 1.823160 0.001050 -0.014480 
#    y 0.001050 1.851270 -0.002910 
#    z -0.014480 -0.002910 1.846570 
# 
# From -- ./inp_files/124266.got.cif
#   From: 2010.06.25/outbox.cif.g09.slc.cpg/sg2_63_cif.got.tgz:124266.got - 2010.06.27 13:26:56.
