data_PCOD8021974
_publ_section_title
;
Structure prediction by ZEFSAII (Michael W. Deem and Ramdas Pophale) SiO2 
 PCOD8021974
Probable space group: P -1
;
_chemical_formula_sum "Si O2"
_cell_formula_units_Z 14
_cell_length_a 12.610807
_cell_length_b 11.236077
_cell_length_c 7.962147
_cell_angle_alpha 121.602607
_cell_angle_beta 35.824182
_cell_angle_gamma 110.700281
_cell_volume 556.611746
_symmetry_space_group_name_H-M "P -1"
_symmetry_group_IT_number 2
_symmetry_cell_setting 'triclinic'
loop_
_space_group_symop_operation_xyz
x,y,z
-x,-y,-z
loop_
_atom_site_type_symbol
_atom_site_label
_atom_site_fract_x
_atom_site_fract_y
_atom_site_fract_z
Si Si1 0.854142 0.473140 0.305432
Si Si2 0.536527 0.542089 0.171466
Si Si3 0.082837 0.638183 0.345459
Si Si4 0.083806 0.805389 0.796588
Si Si5 0.470140 0.867400 0.555090
Si Si6 0.169104 0.881382 0.206907
Si Si7 0.264380 0.995055 0.503386
O O1 0.641528 0.510945 0.544910
O O2 0.864204 0.309431 0.213624
O O3 0.914345 0.551009 0.455912
O O4 0.000000 0.500000 0.000000
O O5 0.544316 0.709614 0.283383
O O6 0.500000 0.500000 0.000000
O O7 0.724991 0.461920 0.943766
O O8 0.014116 0.739308 0.664970
O O9 0.108922 0.729721 0.212974
O O10 0.269915 0.872399 0.554566
O O11 0.939719 0.923325 0.154711
O O12 0.500000 0.000000 0.500000
O O13 0.593741 0.895539 0.578914
O O14 0.265933 0.877015 0.898034
O O15 0.295859 0.920451 0.227555
O O16 0.000000 0.000000 0.500000
#
# Coordination Sequence:
#
# PCOD8021974 Si02
#       7
#     2   2   2   2   2   2   2
#     4  12  26  43  73 107 149 196 245 307 377 442
#     4  12  28  49  78 112 152 198 256 312 371 454
#     4  11  26  49  76 107 154 198 253 311 380 446
#     4  10  22  44  71 108 146 192 248 304 368 449
#     4  12  28  47  76 113 150 196 253 308 377 449
#     4  11  28  49  75 109 150 196 253 312 375 452
#     4  10  24  44  77 101 149 197 244 311 374 438
#
# _framework density 25.152183000000001
#
# number of rings (size 3 to 8) (size 9 to 14) (size 15 to 20)
#    0.000    0.857    1.429    3.429   14.000    3.429 
#    0.000    0.000    0.000    0.000    0.000    0.000 
#    0.000    0.000    0.000    0.000    0.000    0.000 
#
# Total GULP energy -173510.759036 kJ/mol
# GULP energy per Si atom -12393.625645 kJ/mol
# Density = 2.509494 g / cm^3
# Si number density = 25.152183 Si / 1000 Ang^3
#
#
#
# Elastic Constant Matrix: (Units=GPa)
#
#
# Indices 1 2 3 4 5 6 
#
# 1 50.2770 54.3218 5.3806 0.1425 -9.2293 2.3072
# 2 54.3218 164.4659 47.1687 13.6949 -5.6212 2.1798
# 3 5.3806 47.1687 81.9129 5.4511 8.9803 -18.9828
# 4 0.1425 13.6949 5.4511 40.3809 -3.7533 2.2572
# 5 -9.2293 -5.6212 8.9803 -3.7533 43.7261 -4.0880
# 6 2.3072 2.1798 -18.9828 2.2572 -4.0880 58.1109
#
#
#
# Elastic Compliance Matrix: (Units=1/GPa)
#
#
# Indices 1 2 3 4 5 6 
#
# 1 0.033976 -0.012659 0.004416 0.004004 0.005053 0.000768
# 2 -0.012659 0.012427 -0.006553 -0.003191 -0.000189 -0.001994
# 3 0.004416 -0.006553 0.017359 -0.000728 -0.003018 0.005557
# 4 0.004004 -0.003191 -0.000728 0.026246 0.002734 -0.001104
# 5 0.005053 -0.000189 -0.003018 0.002734 0.024809 0.000460
# 6 0.000768 -0.001994 0.005557 -0.001104 0.000460 0.019143
#
#
# Mechanical properties :
#
#
# Convention : Reuss Voigt Hill
#
# Bulk Modulus (GPa) = 29.26749 56.71090 42.98919
# Shear Modulus (GPa) = 28.58076 41.09590 34.83833
#
# Velocity S-wave (km/s) = 3.37458 4.04653 3.72573
# Velocity P-wave (km/s) = 5.18123 6.66547 5.96966
#
# Compressibility (1/GPa) = 0.03416761
#
# Stress axis : x y z
#
# Youngs Moduli (GPa) = 29.43272 80.47219 57.60798
#
# Poissons Ratio (x) = 1.01872 -0.25437
# Poissons Ratio (y) = 0.37260 0.37751
# Poissons Ratio (z) = -0.12996 0.52734
#
# Static dielectric constant tensor:
#      x y z
#    x 4.164800 0.153860 -2.889180 
#    y 0.153860 5.040560 -0.559430 
#    z -2.889180 -0.559430 -1.445050 
# 
# 
# High freq. dielectric constant tensor:
#      x y z
#    x 2.020930 0.021700 0.014090 
#    y 0.021700 2.025310 0.001990 
#    z 0.014090 0.001990 1.995870 
# 
# From -- ./inp_files/308425.got.cif
#   From: 2010.06.25/outbox.cif.g09.slc.cpg/sg2_155_cif.got.tgz:308425.got - 2010.06.27 13:26:56.
