data_PCOD8021546
_publ_section_title
;
Structure prediction by ZEFSAII (Michael W. Deem and Ramdas Pophale) SiO2 
 PCOD8021546
Probable space group: P -1
;
_chemical_formula_sum "Si O2"
_cell_formula_units_Z 12
_cell_length_a 5.201153
_cell_length_b 11.577860
_cell_length_c 12.579410
_cell_angle_alpha 129.594466
_cell_angle_beta 66.245261
_cell_angle_gamma 123.258840
_cell_volume 486.433948
_symmetry_space_group_name_H-M "P -1"
_symmetry_group_IT_number 2
_symmetry_cell_setting 'triclinic'
loop_
_space_group_symop_operation_xyz
x,y,z
-x,-y,-z
loop_
_atom_site_type_symbol
_atom_site_label
_atom_site_fract_x
_atom_site_fract_y
_atom_site_fract_z
Si Si1 0.202930 0.694048 0.527300
Si Si2 0.883581 0.315609 0.228997
Si Si3 0.002801 0.682206 0.129009
Si Si4 0.756059 0.595517 0.348171
Si Si5 0.381480 0.318663 0.992483
Si Si6 0.448330 0.002981 0.796229
O O1 0.040226 0.609387 0.618462
O O2 0.447711 0.623310 0.409500
O O3 0.382665 0.890046 0.635355
O O4 0.957482 0.678306 0.467644
O O5 0.687157 0.400820 0.250971
O O6 0.672015 0.119670 0.153155
O O7 0.210079 0.363976 0.143927
O O8 0.241492 0.596849 0.002737
O O9 0.954436 0.674039 0.257351
O O10 0.692673 0.620217 0.073392
O O11 0.189193 0.877378 0.184445
O O12 0.265961 0.120808 0.890553
#
# Coordination Sequence:
#
# PCOD8021546 Si02
#       6
#     2   2   2   2   2   2
#     4  10  25  40  67  89 129 161 212 249 308 368
#     4  10  23  43  68  89 128 163 206 266 296 373
#     4  10  24  40  65  93 128 160 205 256 310 369
#     4  12  24  44  61  96 125 168 205 249 313 370
#     4  10  22  44  63  97 120 161 214 249 318 357
#     4   8  23  41  64  95 119 165 205 259 306 360
#
# _framework density 24.669332000000001
#
# number of rings (size 3 to 8) (size 9 to 14) (size 15 to 20)
#    2.000    0.000    0.000    2.500    2.333    6.000 
#    3.000    0.000    0.000    0.000    0.000    0.000 
#    0.000    0.000    0.000    0.000    0.000    0.000 
#
# Total GULP energy -148731.756441 kJ/mol
# GULP energy per Si atom -12394.313037 kJ/mol
# Density = 2.461318 g / cm^3
# Si number density = 24.669332 Si / 1000 Ang^3
#
#
#
# Elastic Constant Matrix: (Units=GPa)
#
#
# Indices 1 2 3 4 5 6 
#
# 1 78.9198 37.8515 27.6217 3.2693 14.1623 8.5990
# 2 37.8515 100.1465 37.1930 -0.0104 -1.7755 -3.7107
# 3 27.6217 37.1930 132.0870 -16.0448 -12.7088 -8.3784
# 4 3.2693 -0.0104 -16.0448 51.8464 -10.8525 -6.6299
# 5 14.1623 -1.7755 -12.7088 -10.8525 35.8865 -1.1178
# 6 8.5990 -3.7107 -8.3784 -6.6299 -1.1178 28.5645
#
#
#
# Elastic Compliance Matrix: (Units=1/GPa)
#
#
# Indices 1 2 3 4 5 6 
#
# 1 0.021883 -0.006867 -0.005562 -0.007388 -0.013533 -0.011356
# 2 -0.006867 0.013392 -0.001661 0.001069 0.003223 0.003694
# 3 -0.005562 -0.001661 0.011178 0.006361 0.008199 0.006535
# 4 -0.007388 0.001069 0.006361 0.025902 0.013389 0.010764
# 5 -0.013533 0.003223 0.008199 0.013389 0.040680 0.011597
# 6 -0.011356 0.003694 0.006535 0.010764 0.011597 0.043776
#
#
# Mechanical properties :
#
#
# Convention : Reuss Voigt Hill
#
# Bulk Modulus (GPa) = 54.72593 57.38729 56.05661
# Shear Modulus (GPa) = 26.16701 37.15862 31.66281
#
# Velocity S-wave (km/s) = 3.26039 3.88528 3.58647
# Velocity P-wave (km/s) = 6.03369 6.59092 6.31845
#
# Compressibility (1/GPa) = 0.01827287
#
# Stress axis : x y z
#
# Youngs Moduli (GPa) = 45.69699 74.67382 89.46429
#
# Poissons Ratio (x) = 0.51276 0.49764
# Poissons Ratio (y) = 0.31379 0.14857
# Poissons Ratio (z) = 0.25419 0.12401
#
# Static dielectric constant tensor:
#      x y z
#    x 4.086910 -0.005350 -0.043510 
#    y -0.005350 4.714340 0.231810 
#    z -0.043510 0.231810 4.311800 
# 
# 
# High freq. dielectric constant tensor:
#      x y z
#    x 1.977790 0.003110 -0.000100 
#    y 0.003110 2.014140 0.014940 
#    z -0.000100 0.014940 1.984760 
# 
# From -- ./inp_files/24156.got.cif
#   From: 2010.06.25/outbox.cif.g09.slc.cpg/sg2_13_cif.got.tgz:24156.got - 2010.06.27 13:26:56.
