data_PCOD8021717
_publ_section_title
;
Structure prediction by ZEFSAII (Michael W. Deem and Ramdas Pophale) SiO2 
 PCOD8021717
Probable space group: P -1
;
_chemical_formula_sum "Si O2"
_cell_formula_units_Z 14
_cell_length_a 14.270529
_cell_length_b 9.196904
_cell_length_c 11.587790
_cell_angle_alpha 52.483002
_cell_angle_beta 150.537629
_cell_angle_gamma 118.831282
_cell_volume 588.804104
_symmetry_space_group_name_H-M "P -1"
_symmetry_group_IT_number 2
_symmetry_cell_setting 'triclinic'
loop_
_space_group_symop_operation_xyz
x,y,z
-x,-y,-z
loop_
_atom_site_type_symbol
_atom_site_label
_atom_site_fract_x
_atom_site_fract_y
_atom_site_fract_z
Si Si1 0.556668 0.682056 0.118230
Si Si2 0.870186 0.910568 0.310509
Si Si3 0.199240 0.787436 0.280654
Si Si4 0.918890 0.840427 0.148208
Si Si5 0.486606 0.269913 0.203772
Si Si6 0.226682 0.498111 0.256614
Si Si7 0.579990 0.252580 0.817738
O O1 0.564790 0.464592 0.218496
O O2 0.414958 0.753213 0.035080
O O3 0.770811 0.742425 0.341606
O O4 0.476183 0.781056 0.865589
O O5 0.992119 0.838972 0.361261
O O6 0.693663 0.055876 0.998876
O O7 0.000000 0.000000 0.500000
O O8 0.379038 0.864481 0.501546
O O9 0.269067 0.610199 0.362734
O O10 0.062743 0.728840 0.266123
O O11 0.103096 0.946763 0.017930
O O12 0.731726 0.735554 0.992723
O O13 0.357953 0.297479 0.510872
O O14 0.300577 0.587534 0.177074
O O15 0.000000 0.500000 0.000000
#
# Coordination Sequence:
#
# PCOD8021717 Si02
#       7
#     2   2   2   2   2   2   2
#     4  10  23  43  65 100 130 180 224 275 341 403
#     4  11  25  45  69 103 142 180 228 278 340 414
#     4  11  22  44  67  98 132 175 233 279 340 402
#     4  10  24  43  66 101 130 181 226 280 342 393
#     4  10  22  44  67  93 137 171 229 279 334 407
#     4  11  26  44  71 102 135 177 228 284 340 403
#     4  11  24  45  68  98 138 177 225 278 341 398
#
# _framework density 23.777011000000002
#
# number of rings (size 3 to 8) (size 9 to 14) (size 15 to 20)
#    0.000    1.429    2.857    0.857    6.000    0.000 
#   10.286    2.143    0.000    0.000    0.000    0.000 
#    0.000    0.000    0.000    0.000    0.000    0.000 
#
# Total GULP energy -173465.134139 kJ/mol
# GULP energy per Si atom -12390.366724 kJ/mol
# Density = 2.372289 g / cm^3
# Si number density = 23.777011 Si / 1000 Ang^3
#
#
#
# Elastic Constant Matrix: (Units=GPa)
#
#
# Indices 1 2 3 4 5 6 
#
# 1 172.7186 27.2808 25.0773 25.8381 -10.8635 3.4301
# 2 27.2808 75.5169 19.0574 18.7896 4.2015 12.7659
# 3 25.0773 19.0574 104.1954 25.4784 5.9438 4.2016
# 4 25.8381 18.7896 25.4784 43.4499 -7.5831 4.9979
# 5 -10.8635 4.2015 5.9438 -7.5831 31.8805 4.8093
# 6 3.4301 12.7659 4.2016 4.9979 4.8093 25.0565
#
#
#
# Elastic Compliance Matrix: (Units=1/GPa)
#
#
# Indices 1 2 3 4 5 6 
#
# 1 0.006670 -0.001756 -0.000826 -0.002386 0.002060 0.000200
# 2 -0.001756 0.016709 -0.000874 -0.005440 -0.002955 -0.006474
# 3 -0.000826 -0.000874 0.011844 -0.006880 -0.004122 0.000736
# 4 -0.002386 -0.005440 -0.006880 0.032989 0.009664 -0.004183
# 5 0.002060 -0.002955 -0.004122 0.009664 0.036587 -0.007036
# 6 0.000200 -0.006474 0.000736 -0.004183 -0.007036 0.045242
#
#
# Mechanical properties :
#
#
# Convention : Reuss Voigt Hill
#
# Bulk Modulus (GPa) = 35.32166 55.02909 45.17537
# Shear Modulus (GPa) = 30.05006 38.81175 34.43090
#
# Velocity S-wave (km/s) = 3.55889 4.04458 3.80949
# Velocity P-wave (km/s) = 5.63695 6.70862 6.19600
#
# Compressibility (1/GPa) = 0.02831124
#
# Stress axis : x y z
#
# Youngs Moduli (GPa) = 149.93425 59.84700 84.43250
#
# Poissons Ratio (x) = 0.10508 0.06977
# Poissons Ratio (y) = 0.26325 0.07376
# Poissons Ratio (z) = 0.12389 0.05228
#
# Static dielectric constant tensor:
#      x y z
#    x 4.700080 0.059620 -0.147880 
#    y 0.059620 4.023660 0.008190 
#    z -0.147880 0.008190 4.248450 
# 
# 
# High freq. dielectric constant tensor:
#      x y z
#    x 1.969940 0.005880 -0.011740 
#    y 0.005880 1.920830 0.002510 
#    z -0.011740 0.002510 1.932600 
# 
# From -- ./inp_files/370577.got.cif
#   From: 2010.06.25/outbox.cif.g09.slc.cpg/sg2_186_cif.got.tgz:370577.got - 2010.06.27 13:26:56.
