data_PCOD8021498
_publ_section_title
;
Structure prediction by ZEFSAII (Michael W. Deem and Ramdas Pophale) SiO2 
 PCOD8021498
Probable space group: P -1
;
_chemical_formula_sum "Si O2"
_cell_formula_units_Z 14
_cell_length_a 13.275624
_cell_length_b 12.647224
_cell_length_c 8.913037
_cell_angle_alpha 101.969692
_cell_angle_beta 126.704818
_cell_angle_gamma 34.595269
_cell_volume 531.626974
_symmetry_space_group_name_H-M "P -1"
_symmetry_group_IT_number 2
_symmetry_cell_setting 'triclinic'
loop_
_space_group_symop_operation_xyz
x,y,z
-x,-y,-z
loop_
_atom_site_type_symbol
_atom_site_label
_atom_site_fract_x
_atom_site_fract_y
_atom_site_fract_z
Si Si1 0.247483 0.609697 0.952543
Si Si2 0.170167 0.769302 0.522550
Si Si3 0.147361 0.908349 0.260371
Si Si4 0.382394 0.297307 0.424648
Si Si5 0.879710 0.416790 0.444048
Si Si6 0.066583 0.300347 0.086785
Si Si7 0.655442 0.874449 0.431638
O O1 0.298026 0.478739 0.832274
O O2 0.102259 0.671028 0.988697
O O3 0.522394 0.460295 0.202734
O O4 0.044584 0.851989 0.761718
O O5 0.167805 0.785783 0.344770
O O6 0.043729 0.748084 0.437710
O O7 0.000000 0.000000 0.500000
O O8 0.461120 0.708255 0.455733
O O9 0.000000 0.000000 0.000000
O O10 0.288562 0.368064 0.540870
O O11 0.606302 0.034477 0.499818
O O12 0.122739 0.490759 0.137681
O O13 0.163782 0.258856 0.597294
O O14 0.359304 0.042019 0.189390
O O15 0.167265 0.306407 0.315397
#
# Coordination Sequence:
#
# PCOD8021498 Si02
#       7
#     2   2   2   2   2   2   2
#     4  11  23  46  63  98 137 176 221 275 328 399
#     4  12  24  42  67  96 135 182 216 273 338 391
#     4  12  26  41  67  97 135 178 220 270 335 398
#     4  12  23  43  67  99 132 175 223 274 332 395
#     4  11  25  41  67 101 136 169 226 273 327 402
#     4  10  22  43  75  91 131 180 225 270 333 396
#     4  10  23  49  66  97 135 175 220 283 330 384
#
# _framework density 26.334254999999999
#
# number of rings (size 3 to 8) (size 9 to 14) (size 15 to 20)
#    0.000    0.857    5.714    1.714    4.000    1.714 
#    0.000    6.429    0.000    0.000    0.000    0.000 
#    0.000    0.000    0.000    0.000    0.000    0.000 
#
# Total GULP energy -173528.372797 kJ/mol
# GULP energy per Si atom -12394.883771 kJ/mol
# Density = 2.627432 g / cm^3
# Si number density = 26.334255 Si / 1000 Ang^3
#
#
#
# Elastic Constant Matrix: (Units=GPa)
#
#
# Indices 1 2 3 4 5 6 
#
# 1 129.4811 21.0612 48.1015 -6.7084 -11.2464 -32.8895
# 2 21.0612 109.5382 28.7702 3.2512 -7.0007 -14.5147
# 3 48.1015 28.7702 154.2486 -7.8719 -12.5343 -8.2704
# 4 -6.7084 3.2512 -7.8719 30.0221 -4.1237 6.1337
# 5 -11.2464 -7.0007 -12.5343 -4.1237 46.6035 -2.9451
# 6 -32.8895 -14.5147 -8.2704 6.1337 -2.9451 38.4758
#
#
#
# Elastic Compliance Matrix: (Units=1/GPa)
#
#
# Indices 1 2 3 4 5 6 
#
# 1 0.011364 -0.000065 -0.002812 0.000276 0.002585 0.009239
# 2 -0.000065 0.010240 -0.001704 -0.002210 0.001114 0.003879
# 3 -0.002812 -0.001704 0.007800 0.002102 0.001248 -0.001610
# 4 0.000276 -0.002210 0.002102 0.035733 0.003108 -0.005604
# 5 0.002585 0.001114 0.001248 0.003108 0.023123 0.004172
# 6 0.009239 0.003879 -0.001610 -0.005604 0.004172 0.036218
#
#
# Mechanical properties :
#
#
# Convention : Reuss Voigt Hill
#
# Bulk Modulus (GPa) = 49.40319 65.45929 57.43124
# Shear Modulus (GPa) = 35.61582 42.70927 39.16254
#
# Velocity S-wave (km/s) = 3.68156 4.03154 3.86052
# Velocity P-wave (km/s) = 6.07228 6.82511 6.45968
#
# Compressibility (1/GPa) = 0.02024161
#
# Stress axis : x y z
#
# Youngs Moduli (GPa) = 87.99735 97.65617 128.20286
#
# Poissons Ratio (x) = 0.00637 0.36053
# Poissons Ratio (y) = 0.00574 0.21845
# Poissons Ratio (z) = 0.24746 0.16640
#
# Static dielectric constant tensor:
#      x y z
#    x 5.435210 -0.033410 0.005240 
#    y -0.033410 4.956620 -0.125190 
#    z 0.005240 -0.125190 4.662420 
# 
# 
# High freq. dielectric constant tensor:
#      x y z
#    x 2.095260 -0.000170 0.001080 
#    y -0.000170 2.049170 -0.001820 
#    z 0.001080 -0.001820 2.047830 
# 
# From -- ./inp_files/294001.got.cif
#   From: 2010.06.25/outbox.cif.g09.slc.cpg/sg2_148_cif.got.tgz:294001.got - 2010.06.27 13:26:56.
