data_PCOD8021361
_publ_section_title
;
Structure prediction by ZEFSAII (Michael W. Deem and Ramdas Pophale) SiO2 
 PCOD8021361
Probable space group: P -1
;
_chemical_formula_sum "Si O2"
_cell_formula_units_Z 14
_cell_length_a 8.798557
_cell_length_b 18.701222
_cell_length_c 10.977167
_cell_angle_alpha 32.914897
_cell_angle_beta 138.340273
_cell_angle_gamma 138.171642
_cell_volume 616.625084
_symmetry_space_group_name_H-M "P -1"
_symmetry_group_IT_number 2
_symmetry_cell_setting 'triclinic'
loop_
_space_group_symop_operation_xyz
x,y,z
-x,-y,-z
loop_
_atom_site_type_symbol
_atom_site_label
_atom_site_fract_x
_atom_site_fract_y
_atom_site_fract_z
Si Si1 0.924245 0.298103 0.936730
Si Si2 0.147689 0.004254 0.737151
Si Si3 0.743952 0.942024 0.995505
Si Si4 0.580916 0.618695 0.976981
Si Si5 0.457485 0.354108 0.619225
Si Si6 0.823148 0.570543 0.852478
Si Si7 0.621453 0.904459 0.489729
O O1 0.712380 0.363198 0.696118
O O2 0.809794 0.132427 0.100497
O O3 0.127778 0.343439 0.886378
O O4 0.055842 0.343104 0.080648
O O5 0.866881 0.993644 0.579449
O O6 0.243621 0.025630 0.900089
O O7 0.313220 0.120573 0.576644
O O8 0.628958 0.774100 0.152819
O O9 0.572587 0.016482 0.722430
O O10 0.000000 0.000000 0.000000
O O11 0.512264 0.753000 0.701469
O O12 0.500000 0.500000 0.000000
O O13 0.428868 0.556366 0.095343
O O14 0.500000 0.500000 0.500000
O O15 0.245331 0.326018 0.431007
O O16 0.000000 0.500000 0.000000
#
# Coordination Sequence:
#
# PCOD8021361 Si02
#       7
#     2   2   2   2   2   2   2
#     4  10  22  45  69 103 131 179 240 287 344 413
#     4  10  23  44  73 100 132 181 232 289 349 409
#     4  12  29  44  70 107 143 186 234 291 357 419
#     4   9  22  39  67 103 131 181 230 287 342 407
#     4  12  27  44  70 100 141 189 228 288 356 420
#     4  11  24  43  68  97 145 183 226 282 360 417
#     4  10  22  43  70  99 139 173 239 284 345 411
#
# _framework density 22.704234
#
# number of rings (size 3 to 8) (size 9 to 14) (size 15 to 20)
#    0.000    1.429    2.857    0.429   10.000    3.429 
#    0.000    0.000    0.000    0.000    0.000    0.000 
#    0.000    0.000    0.000    0.000    0.000    0.000 
#
# Total GULP energy -173567.452101 kJ/mol
# GULP energy per Si atom -12397.675150 kJ/mol
# Density = 2.265256 g / cm^3
# Si number density = 22.704234 Si / 1000 Ang^3
#
#
#
# Elastic Constant Matrix: (Units=GPa)
#
#
# Indices 1 2 3 4 5 6 
#
# 1 92.6888 23.1444 36.6768 -7.0861 23.0262 23.0591
# 2 23.1444 74.5968 32.6029 -7.1014 12.8581 2.4597
# 3 36.6768 32.6029 135.9031 -2.5973 37.5559 18.2888
# 4 -7.0861 -7.1014 -2.5973 45.7366 9.7695 -2.6524
# 5 23.0262 12.8581 37.5559 9.7695 41.8739 6.2696
# 6 23.0591 2.4597 18.2888 -2.6524 6.2696 42.1653
#
#
#
# Elastic Compliance Matrix: (Units=1/GPa)
#
#
# Indices 1 2 3 4 5 6 
#
# 1 0.015302 -0.002817 -0.000657 0.002921 -0.006631 -0.006749
# 2 -0.002817 0.015972 -0.002866 0.002369 -0.001674 0.002250
# 3 -0.000657 -0.002866 0.011027 0.001756 -0.008629 -0.002862
# 4 0.002921 0.002369 0.001756 0.024908 -0.009799 0.000526
# 5 -0.006631 -0.001674 -0.008629 -0.009799 0.037885 0.001217
# 6 -0.006749 0.002250 -0.002862 0.000526 0.001217 0.028369
#
#
# Mechanical properties :
#
#
# Convention : Reuss Voigt Hill
#
# Bulk Modulus (GPa) = 33.76134 54.22631 43.99383
# Shear Modulus (GPa) = 32.04784 40.00613 36.02699
#
# Velocity S-wave (km/s) = 3.76112 4.20224 3.98778
# Velocity P-wave (km/s) = 5.81065 6.89063 6.37355
#
# Compressibility (1/GPa) = 0.02961968
#
# Stress axis : x y z
#
# Youngs Moduli (GPa) = 65.35156 62.60969 90.68996
#
# Poissons Ratio (x) = 0.17635 0.05962
# Poissons Ratio (y) = 0.18407 0.25994
# Poissons Ratio (z) = 0.04296 0.17946
#
# Static dielectric constant tensor:
#      x y z
#    x 4.415070 0.484930 -0.089740 
#    y 0.484930 4.436390 -0.110960 
#    z -0.089740 -0.110960 4.317210 
# 
# 
# High freq. dielectric constant tensor:
#      x y z
#    x 1.888920 0.014490 0.016040 
#    y 0.014490 1.896970 -0.006770 
#    z 0.016040 -0.006770 1.901730 
# 
# From -- ./inp_files/259737.got.cif
#   From: 2010.06.25/outbox.cif.g09.slc.cpg/sg2_130_cif.got.tgz:259737.got - 2010.06.27 13:26:56.
