data_PCOD8021620
_publ_section_title
;
Structure prediction by ZEFSAII (Michael W. Deem and Ramdas Pophale) SiO2 
 PCOD8021620
Probable space group: P -1
;
_chemical_formula_sum "Si O2"
_cell_formula_units_Z 16
_cell_length_a 22.608183
_cell_length_b 28.019016
_cell_length_c 11.896480
_cell_angle_alpha 30.817033
_cell_angle_beta 32.449992
_cell_angle_gamma 10.725131
_cell_volume 718.456571
_symmetry_space_group_name_H-M "P -1"
_symmetry_group_IT_number 2
_symmetry_cell_setting 'triclinic'
loop_
_space_group_symop_operation_xyz
x,y,z
-x,-y,-z
loop_
_atom_site_type_symbol
_atom_site_label
_atom_site_fract_x
_atom_site_fract_y
_atom_site_fract_z
Si Si1 0.473493 0.771158 0.908250
Si Si2 0.247800 0.623336 0.619879
Si Si3 0.272037 0.993412 0.166267
Si Si4 0.234500 0.632603 0.161358
Si Si5 0.184583 0.576072 0.595819
Si Si6 0.266229 0.248151 0.499951
Si Si7 0.168932 0.562927 0.201720
Si Si8 0.715365 0.798773 0.857129
O O1 0.591407 0.779706 0.745013
O O2 0.548111 0.703075 0.792273
O O3 0.664290 0.546640 0.128990
O O4 0.102514 0.050862 0.960671
O O5 0.500000 0.500000 0.500000
O O6 0.214632 0.638344 0.508531
O O7 0.909858 0.917782 0.621999
O O8 0.526938 0.724273 0.244356
O O9 0.030785 0.208448 0.018117
O O10 0.423378 0.968055 0.032075
O O11 0.207904 0.598739 0.388478
O O12 0.324458 0.490912 0.203479
O O13 0.500000 0.500000 0.000000
O O14 0.853663 0.780949 0.735102
O O15 0.000000 0.500000 0.500000
O O16 0.066589 0.329622 0.585421
O O17 0.571731 0.953799 0.658594
O O18 0.000000 0.500000 0.000000
#
# Coordination Sequence:
#
# PCOD8021620 Si02
#       8
#     2   2   2   2   2   2   2   2
#     4  10  22  44  65  94 125 166 221 264 318 385
#     4  11  26  43  67  92 124 179 219 256 318 390
#     4   9  21  43  68  93 125 167 213 256 320 387
#     4  12  27  40  62  96 129 172 212 261 327 375
#     4  11  24  43  63  95 132 162 211 271 322 382
#     4   9  17  38  67  95 127 165 215 266 326 389
#     4   9  21  42  67  92 125 168 212 264 316 386
#     4   9  18  39  66  97 132 163 210 272 332 381
#
# _framework density 22.269960999999999
#
# number of rings (size 3 to 8) (size 9 to 14) (size 15 to 20)
#    0.000    2.000    1.250    1.500    5.250    3.000 
#    6.750    0.000    0.000    0.000    0.000    0.000 
#    0.000    0.000    0.000    0.000    0.000    0.000 
#
# Total GULP energy -198211.623004 kJ/mol
# GULP energy per Si atom -12388.226438 kJ/mol
# Density = 2.221927 g / cm^3
# Si number density = 22.269961 Si / 1000 Ang^3
#
#
#
# Elastic Constant Matrix: (Units=GPa)
#
#
# Indices 1 2 3 4 5 6 
#
# 1 135.1578 17.8976 27.2713 32.8937 -15.3219 -7.0893
# 2 17.8976 71.9952 18.8962 24.7637 -10.6412 -10.8049
# 3 27.2713 18.8962 74.4636 13.1224 -10.8292 -8.3082
# 4 32.8937 24.7637 13.1224 40.2561 -7.1254 -10.5183
# 5 -15.3219 -10.6412 -10.8292 -7.1254 31.4369 11.3984
# 6 -7.0893 -10.8049 -8.3082 -10.5183 11.3984 24.2722
#
#
#
# Elastic Compliance Matrix: (Units=1/GPa)
#
#
# Indices 1 2 3 4 5 6 
#
# 1 0.009947 0.001032 -0.002256 -0.008073 0.003518 -0.002558
# 2 0.001032 0.018618 -0.002641 -0.010455 0.002871 0.001807
# 3 -0.002256 -0.002641 0.015633 -0.000647 0.002497 0.002064
# 4 -0.008073 -0.010455 -0.000647 0.040645 -0.002709 0.011652
# 5 0.003518 0.002871 0.002497 -0.002709 0.041004 -0.017269
# 6 -0.002558 0.001807 0.002064 0.011652 -0.017269 0.055122
#
#
# Mechanical properties :
#
#
# Convention : Reuss Voigt Hill
#
# Bulk Modulus (GPa) = 27.42115 45.52741 36.47428
# Shear Modulus (GPa) = 24.89371 33.69646 29.29508
#
# Velocity S-wave (km/s) = 3.34700 3.89407 3.63085
# Velocity P-wave (km/s) = 5.22268 6.38014 5.83020
#
# Compressibility (1/GPa) = 0.03646820
#
# Stress axis : x y z
#
# Youngs Moduli (GPa) = 100.53725 53.71125 63.96661
#
# Poissons Ratio (x) = -0.05544 0.14430
# Poissons Ratio (y) = -0.10378 0.16894
# Poissons Ratio (z) = 0.22680 0.14186
#
# Static dielectric constant tensor:
#      x y z
#    x 3.879600 -0.168940 -0.258370 
#    y -0.168940 0.958400 -0.150680 
#    z -0.258370 -0.150680 4.041610 
# 
# 
# High freq. dielectric constant tensor:
#      x y z
#    x 1.853630 -0.007570 -0.018220 
#    y -0.007570 1.889420 0.002830 
#    z -0.018220 0.002830 1.874790 
# 
# From -- ./inp_files/475772.got.cif
#   From: 2010.06.25/outbox.cif.g09.slc.cpg/sg2_238_cif.got.tgz:475772.got - 2010.06.27 13:26:56.
