data_PCOD8021618
_publ_section_title
;
Structure prediction by ZEFSAII (Michael W. Deem and Ramdas Pophale) SiO2 
 PCOD8021618
Probable space group: P -1
;
_chemical_formula_sum "Si O2"
_cell_formula_units_Z 16
_cell_length_a 18.454012
_cell_length_b 8.985950
_cell_length_c 11.025131
_cell_angle_alpha 40.965939
_cell_angle_beta 43.617910
_cell_angle_gamma 41.990892
_cell_volume 744.665680
_symmetry_space_group_name_H-M "P -1"
_symmetry_group_IT_number 2
_symmetry_cell_setting 'triclinic'
loop_
_space_group_symop_operation_xyz
x,y,z
-x,-y,-z
loop_
_atom_site_type_symbol
_atom_site_label
_atom_site_fract_x
_atom_site_fract_y
_atom_site_fract_z
Si Si1 0.691133 0.868198 0.817018
Si Si2 0.698787 0.493467 0.853610
Si Si3 0.469738 0.264780 0.729217
Si Si4 0.930244 0.082706 0.710463
Si Si5 0.076577 0.267715 0.262865
Si Si6 0.674254 0.271879 0.257912
Si Si7 0.927414 0.191297 0.071877
Si Si8 0.557474 0.945972 0.595311
O O1 0.741786 0.677155 0.759433
O O2 0.799940 0.902098 0.718560
O O3 0.595576 0.131948 0.721526
O O4 0.632100 0.759312 0.053524
O O5 0.806884 0.261213 0.808335
O O6 0.602826 0.657453 0.766203
O O7 0.639297 0.389880 0.092022
O O8 0.425492 0.569357 0.615233
O O9 0.463926 0.144857 0.679714
O O10 0.968945 0.251398 0.472812
O O11 0.914803 0.855698 0.803005
O O12 0.032983 0.953274 0.761546
O O13 0.051980 0.558252 0.106413
O O14 0.794258 0.259445 0.166937
O O15 0.671955 0.001597 0.419387
O O16 0.000000 0.000000 0.000000
O O17 0.500000 0.000000 0.500000
#
# Coordination Sequence:
#
# PCOD8021618 Si02
#       8
#     2   2   2   2   2   2   2   2
#     4   9  18  38  69  90 120 171 214 261 321 373
#     4  10  22  44  65  93 129 167 215 266 318 387
#     4   9  19  40  64  93 124 163 216 267 309 385
#     4  11  26  41  65  99 134 172 211 270 326 384
#     4  11  24  44  63  98 133 172 213 266 333 379
#     4  11  23  43  67  97 120 175 220 258 329 373
#     4  12  24  43  70  97 126 173 223 268 312 388
#     4  11  26  42  64 100 130 165 212 268 325 387
#
# _framework density 21.486152000000001
#
# number of rings (size 3 to 8) (size 9 to 14) (size 15 to 20)
#    0.000    1.500    3.750    1.500    5.250    3.500 
#    4.500    0.000    0.000    0.000    0.000    0.000 
#    0.000    0.000    0.000    0.000    0.000    0.000 
#
# Total GULP energy -198323.846719 kJ/mol
# GULP energy per Si atom -12395.240420 kJ/mol
# Density = 2.143725 g / cm^3
# Si number density = 21.486152 Si / 1000 Ang^3
#
#
#
# Elastic Constant Matrix: (Units=GPa)
#
#
# Indices 1 2 3 4 5 6 
#
# 1 113.0074 50.2676 28.5120 0.9959 24.9480 7.6490
# 2 50.2676 148.4816 45.8570 5.5506 9.0100 10.0378
# 3 28.5120 45.8570 66.5007 -6.3235 9.0949 6.7095
# 4 0.9959 5.5506 -6.3235 32.6904 3.0427 3.8305
# 5 24.9480 9.0100 9.0949 3.0427 38.4019 -5.3710
# 6 7.6490 10.0378 6.7095 3.8305 -5.3710 26.3680
#
#
#
# Elastic Compliance Matrix: (Units=1/GPa)
#
#
# Indices 1 2 3 4 5 6 
#
# 1 0.012576 -0.003021 -0.001801 0.000929 -0.007630 -0.003729
# 2 -0.003021 0.009579 -0.005650 -0.002652 0.001164 -0.000710
# 3 -0.001801 -0.005650 0.021200 0.005957 -0.003602 -0.004320
# 4 0.000929 -0.002652 0.005957 0.033405 -0.004967 -0.006640
# 5 -0.007630 0.001164 -0.003602 -0.004967 0.033399 0.010211
# 6 -0.003729 -0.000710 -0.004320 -0.006640 0.010211 0.043421
#
#
# Mechanical properties :
#
#
# Convention : Reuss Voigt Hill
#
# Bulk Modulus (GPa) = 44.61899 64.14032 54.37966
# Shear Modulus (GPa) = 27.47361 33.04893 30.26127
#
# Velocity S-wave (km/s) = 3.57972 3.92618 3.75695
# Velocity P-wave (km/s) = 6.15608 7.10422 6.64708
#
# Compressibility (1/GPa) = 0.02241198
#
# Stress axis : x y z
#
# Youngs Moduli (GPa) = 79.51905 104.39470 47.16886
#
# Poissons Ratio (x) = 0.31537 0.08493
# Poissons Ratio (y) = 0.24022 0.26650
# Poissons Ratio (z) = 0.14318 0.58983
#
# Static dielectric constant tensor:
#      x y z
#    x 3.795950 0.157330 0.318230 
#    y 0.157330 3.901900 -0.150870 
#    z 0.318230 -0.150870 4.047650 
# 
# 
# High freq. dielectric constant tensor:
#      x y z
#    x 1.834820 0.005180 0.014910 
#    y 0.005180 1.851070 -0.000740 
#    z 0.014910 -0.000740 1.859270 
# 
# From -- ./inp_files/461798.got.cif
#   From: 2010.06.25/outbox.cif.g09.slc.cpg/sg2_231_cif.got.tgz:461798.got - 2010.06.27 13:26:56.
