data_PCOD8021742
_publ_section_title
;
Structure prediction by ZEFSAII (Michael W. Deem and Ramdas Pophale) SiO2 
 PCOD8021742
Probable space group: P -1
;
_chemical_formula_sum "Si O2"
_cell_formula_units_Z 16
_cell_length_a 19.119279
_cell_length_b 12.019334
_cell_length_c 12.271884
_cell_angle_alpha 127.951329
_cell_angle_beta 142.706741
_cell_angle_gamma 26.932276
_cell_volume 726.829831
_symmetry_space_group_name_H-M "P -1"
_symmetry_group_IT_number 2
_symmetry_cell_setting 'triclinic'
loop_
_space_group_symop_operation_xyz
x,y,z
-x,-y,-z
loop_
_atom_site_type_symbol
_atom_site_label
_atom_site_fract_x
_atom_site_fract_y
_atom_site_fract_z
Si Si1 0.649908 0.863471 0.326335
Si Si2 0.529755 0.254568 0.939874
Si Si3 0.627791 0.325233 0.681054
Si Si4 0.823570 0.146907 0.605104
Si Si5 0.621975 0.659208 0.858939
Si Si6 0.783145 0.952724 0.270744
Si Si7 0.951401 0.502504 0.278033
Si Si8 0.736193 0.218390 0.995465
O O1 0.545681 0.827298 0.220792
O O2 0.804414 0.667046 0.300673
O O3 0.799484 0.781325 0.555552
O O4 0.464294 0.165569 0.247633
O O5 0.346323 0.537311 0.941016
O O6 0.585893 0.260708 0.895221
O O7 0.743780 0.043969 0.153254
O O8 0.755856 0.123892 0.616394
O O9 0.373354 0.553871 0.504355
O O10 0.646515 0.469659 0.752202
O O11 0.735131 0.183593 0.844477
O O12 0.884002 0.972168 0.481490
O O13 0.023821 0.040092 0.816391
O O14 0.451093 0.858406 0.864582
O O15 0.856967 0.473961 0.070681
O O16 0.944171 0.655998 0.293527
#
# Coordination Sequence:
#
# PCOD8021742 Si02
#       8
#     2   2   2   2   2   2   2   2
#     4  10  18  30  48  81 106 141 174 219 280 322
#     4  11  20  35  53  81 127 142 172 224 279 347
#     4  10  21  39  57  82 110 142 191 235 262 314
#     4  10  21  37  58  79 108 149 190 228 265 318
#     4  10  17  31  52  76 112 132 176 235 270 313
#     4  10  17  33  52  82 114 138 172 230 278 321
#     4  10  17  28  54  79 108 137 180 226 279 323
#     4  11  22  36  54  80 115 155 176 220 279 335
#
# _framework density 22.013404000000001
#
# number of rings (size 3 to 8) (size 9 to 14) (size 15 to 20)
#    0.000    1.750    5.000    1.875    0.000    4.500 
#    2.250    0.000    0.000    0.750    0.000   16.625 
#    0.000    0.000    0.000    0.000    0.000    0.000 
#
# Total GULP energy -198336.459702 kJ/mol
# GULP energy per Si atom -12396.028731 kJ/mol
# Density = 2.196330 g / cm^3
# Si number density = 22.013404 Si / 1000 Ang^3
#
#
#
# Elastic Constant Matrix: (Units=GPa)
#
#
# Indices 1 2 3 4 5 6 
#
# 1 60.0654 11.9856 23.4028 -3.3877 -8.3373 16.5772
# 2 11.9856 23.0942 15.0221 -7.5315 -1.5610 14.8217
# 3 23.4028 15.0221 161.7102 -24.8077 -9.2854 7.9231
# 4 -3.3877 -7.5315 -24.8077 19.1772 -1.0193 -2.9810
# 5 -8.3373 -1.5610 -9.2854 -1.0193 22.8924 -1.0395
# 6 16.5772 14.8217 7.9231 -2.9810 -1.0395 24.8310
#
#
#
# Elastic Compliance Matrix: (Units=1/GPa)
#
#
# Indices 1 2 3 4 5 6 
#
# 1 0.022285 -0.001760 -0.002265 -0.001363 0.006426 -0.012999
# 2 -0.001760 0.080986 -0.001391 0.023063 0.003354 -0.043813
# 3 -0.002265 -0.001391 0.008313 0.010124 0.002950 0.001029
# 4 -0.001363 0.023063 0.010124 0.073413 0.008136 -0.006932
# 5 0.006426 0.003354 0.002950 0.008136 0.047617 -0.004264
# 6 -0.012999 -0.043813 0.001029 -0.006932 -0.004264 0.073763
#
#
# Mechanical properties :
#
#
# Convention : Reuss Voigt Hill
#
# Bulk Modulus (GPa) = 9.92541 38.41009 24.16775
# Shear Modulus (GPa) = 14.25342 26.34407 20.29875
#
# Velocity S-wave (km/s) = 2.54734 3.46313 3.03992
# Velocity P-wave (km/s) = 3.62912 5.78597 4.82949
#
# Compressibility (1/GPa) = 0.10075147
#
# Stress axis : x y z
#
# Youngs Moduli (GPa) = 44.87372 12.34782 120.29403
#
# Poissons Ratio (x) = 0.02173 0.27245
# Poissons Ratio (y) = 0.07898 0.16736
# Poissons Ratio (z) = 0.10163 0.01718
#
# Static dielectric constant tensor:
#      x y z
#    x 3.562650 0.215510 -0.148610 
#    y 0.215510 3.775380 -0.184780 
#    z -0.148610 -0.184780 4.247460 
# 
# 
# High freq. dielectric constant tensor:
#      x y z
#    x 1.819810 0.025260 -0.011380 
#    y 0.025260 1.835930 -0.007320 
#    z -0.011380 -0.007320 1.886640 
# 
# From -- ./inp_files/428956.got.cif
#   From: 2010.06.25/outbox.cif.g09.slc.cpg/sg2_215_cif.got.tgz:428956.got - 2010.06.27 13:26:56.
