data_PCOD8021374
_publ_section_title
;
Structure prediction by ZEFSAII (Michael W. Deem and Ramdas Pophale) SiO2 
 PCOD8021374
Probable space group: P -1
;
_chemical_formula_sum "Si O2"
_cell_formula_units_Z 14
_cell_length_a 8.483312
_cell_length_b 9.604857
_cell_length_c 9.638278
_cell_angle_alpha 70.386142
_cell_angle_beta 65.859351
_cell_angle_gamma 64.040822
_cell_volume 632.494033
_symmetry_space_group_name_H-M "P -1"
_symmetry_group_IT_number 2
_symmetry_cell_setting 'triclinic'
loop_
_space_group_symop_operation_xyz
x,y,z
-x,-y,-z
loop_
_atom_site_type_symbol
_atom_site_label
_atom_site_fract_x
_atom_site_fract_y
_atom_site_fract_z
Si Si1 0.324055 0.529354 0.452461
Si Si2 0.034232 0.082583 0.269962
Si Si3 0.273994 0.849991 0.451317
Si Si4 0.015605 0.854628 0.141651
Si Si5 0.315548 0.513874 0.138268
Si Si6 0.695592 0.730108 0.285906
Si Si7 0.832284 0.652058 0.970163
O O1 0.500000 0.500000 0.500000
O O2 0.225202 0.717100 0.423192
O O3 0.211458 0.431047 0.602719
O O4 0.642423 0.526851 0.700862
O O5 0.093665 0.203025 0.115317
O O6 0.817168 0.159361 0.362521
O O7 0.169871 0.027410 0.372459
O O8 0.072129 0.912797 0.244516
O O9 0.490998 0.819939 0.389808
O O10 0.815579 0.839329 0.229649
O O11 0.166145 0.686649 0.102331
O O12 0.000000 0.000000 0.000000
O O13 0.251697 0.379207 0.134234
O O14 0.500000 0.500000 0.000000
O O15 0.686204 0.691613 0.137700
O O16 0.000000 0.500000 0.000000
#
# Coordination Sequence:
#
# PCOD8021374 Si02
#       7
#     2   2   2   2   2   2   2
#     4  10  22  43  71 102 139 181 235 298 348 423
#     4  11  24  43  68 100 141 183 233 296 356 426
#     4  10  23  42  67  99 137 183 231 292 363 420
#     4  12  25  45  69 105 144 184 239 298 357 426
#     4  12  26  45  74 109 142 191 244 293 361 433
#     4  11  24  43  71 100 142 188 233 296 358 420
#     4  12  24  45  71 104 141 187 237 292 361 428
#
# _framework density 22.134595000000001
#
# number of rings (size 3 to 8) (size 9 to 14) (size 15 to 20)
#    0.000    0.857    4.286    2.571    0.000    8.571 
#    0.000    0.000    0.000    0.000    0.000    0.000 
#    0.000    0.000    0.000    0.000    0.000    0.000 
#
# Total GULP energy -173449.317005 kJ/mol
# GULP energy per Si atom -12389.236929 kJ/mol
# Density = 2.208422 g / cm^3
# Si number density = 22.134595 Si / 1000 Ang^3
#
#
#
# Elastic Constant Matrix: (Units=GPa)
#
#
# Indices 1 2 3 4 5 6 
#
# 1 92.7415 43.5009 50.5871 -6.9723 -2.7656 8.1583
# 2 43.5009 107.1697 55.5122 -10.5796 -11.8635 9.0933
# 3 50.5871 55.5122 162.0131 -11.2905 -4.3106 -1.7551
# 4 -6.9723 -10.5796 -11.2905 42.9829 1.2063 -1.4353
# 5 -2.7656 -11.8635 -4.3106 1.2063 47.4466 5.8951
# 6 8.1583 9.0933 -1.7551 -1.4353 5.8951 43.7450
#
#
#
# Elastic Compliance Matrix: (Units=1/GPa)
#
#
# Indices 1 2 3 4 5 6 
#
# 1 0.014635 -0.004121 -0.003152 0.000473 -0.000233 -0.001952
# 2 -0.004121 0.013328 -0.003112 0.001625 0.003077 -0.002488
# 3 -0.003152 -0.003112 0.008297 0.000970 -0.000439 0.001658
# 4 0.000473 0.001625 0.000970 0.024015 -0.000141 0.000420
# 5 -0.000233 0.003077 -0.000439 -0.000141 0.022245 -0.003616
# 6 -0.001952 -0.002488 0.001658 0.000420 -0.003616 0.024309
#
#
# Mechanical properties :
#
#
# Convention : Reuss Voigt Hill
#
# Bulk Modulus (GPa) = 64.55853 73.45831 69.00842
# Shear Modulus (GPa) = 37.66145 40.98984 39.32565
#
# Velocity S-wave (km/s) = 4.12937 4.30798 4.21962
# Velocity P-wave (km/s) = 7.20869 7.61604 7.41516
#
# Compressibility (1/GPa) = 0.01548982
#
# Stress axis : x y z
#
# Youngs Moduli (GPa) = 68.32707 75.03063 120.53176
#
# Poissons Ratio (x) = 0.30923 0.37992
# Poissons Ratio (y) = 0.28161 0.37505
# Poissons Ratio (z) = 0.21537 0.23347
#
# Static dielectric constant tensor:
#      x y z
#    x 4.139870 0.405520 0.237310 
#    y 0.405520 4.519200 -0.036470 
#    z 0.237310 -0.036470 4.405860 
# 
# 
# High freq. dielectric constant tensor:
#      x y z
#    x 1.858580 0.004260 0.006930 
#    y 0.004260 1.878200 -0.005830 
#    z 0.006930 -0.005830 1.885900 
# 
# From -- ./inp_files/378141.got.cif
#   From: 2010.06.25/outbox.cif.g09.slc.cpg/sg2_190_cif.got.tgz:378141.got - 2010.06.27 13:26:56.
