data_PCOD8021398
_publ_section_title
;
Structure prediction by ZEFSAII (Michael W. Deem and Ramdas Pophale) SiO2 
 PCOD8021398
Probable space group: P -1
;
_chemical_formula_sum "Si O2"
_cell_formula_units_Z 16
_cell_length_a 18.851154
_cell_length_b 16.718925
_cell_length_c 11.559236
_cell_angle_alpha 30.085335
_cell_angle_beta 41.926963
_cell_angle_gamma 23.412341
_cell_volume 702.382723
_symmetry_space_group_name_H-M "P -1"
_symmetry_group_IT_number 2
_symmetry_cell_setting 'triclinic'
loop_
_space_group_symop_operation_xyz
x,y,z
-x,-y,-z
loop_
_atom_site_type_symbol
_atom_site_label
_atom_site_fract_x
_atom_site_fract_y
_atom_site_fract_z
Si Si1 0.491937 0.742608 0.521318
Si Si2 0.333593 0.805180 0.976520
Si Si3 0.021534 0.785375 0.241699
Si Si4 0.571032 0.657127 0.279763
Si Si5 0.923482 0.393920 0.120797
Si Si6 0.270267 0.888782 0.207168
Si Si7 0.579280 0.757925 0.632338
Si Si8 0.078294 0.230883 0.383018
O O1 0.541104 0.764901 0.310476
O O2 0.508019 0.853011 0.466163
O O3 0.288652 0.916085 0.539451
O O4 0.632392 0.426535 0.776725
O O5 0.512124 0.674332 0.873728
O O6 0.158659 0.068530 0.781529
O O7 0.291622 0.921548 0.009584
O O8 0.043996 0.689332 0.464422
O O9 0.199290 0.512615 0.293826
O O10 0.000000 0.000000 0.000000
O O11 0.713795 0.590308 0.118503
O O12 0.375443 0.889516 0.159466
O O13 0.645938 0.387443 0.535111
O O14 0.996256 0.261648 0.326010
O O15 0.929062 0.570525 0.859932
O O16 0.055339 0.142539 0.184421
O O17 0.500000 0.000000 0.500000
#
# Coordination Sequence:
#
# PCOD8021398 Si02
#       8
#     2   2   2   2   2   2   2   2
#     4  11  21  47  72  99 139 184 237 290 344 427
#     4  11  25  45  72 102 141 185 236 290 350 427
#     4  12  25  48  77 102 136 193 241 287 351 429
#     4  10  22  43  71  96 134 184 228 288 346 410
#     4  11  24  44  65 103 140 185 221 291 352 418
#     4  10  23  42  67 104 135 172 239 289 337 419
#     4  12  27  43  70 108 142 183 232 295 358 414
#     4  11  25  42  72 101 139 180 238 284 348 427
#
# _framework density 22.779605
#
# number of rings (size 3 to 8) (size 9 to 14) (size 15 to 20)
#    0.000    1.000    3.750    2.250    3.500    4.000 
#    0.000    0.000    0.000    0.000    0.000    0.000 
#    0.000    0.000    0.000    0.000    0.000    0.000 
#
# Total GULP energy -198485.055676 kJ/mol
# GULP energy per Si atom -12405.315980 kJ/mol
# Density = 2.272776 g / cm^3
# Si number density = 22.779605 Si / 1000 Ang^3
#
#
#
# Elastic Constant Matrix: (Units=GPa)
#
#
# Indices 1 2 3 4 5 6 
#
# 1 96.7255 35.9822 31.9342 6.8603 4.5687 22.0712
# 2 35.9822 164.1624 35.2739 11.4340 4.9704 9.4431
# 3 31.9342 35.2739 69.2744 14.0612 18.3523 6.6977
# 4 6.8603 11.4340 14.0612 39.8440 2.3160 2.6039
# 5 4.5687 4.9704 18.3523 2.3160 17.0944 7.2580
# 6 22.0712 9.4431 6.6977 2.6039 7.2580 41.8516
#
#
#
# Elastic Compliance Matrix: (Units=1/GPa)
#
#
# Indices 1 2 3 4 5 6 
#
# 1 0.014654 -0.001454 -0.007410 0.000562 0.007599 -0.007567
# 2 -0.001454 0.007153 -0.003378 -0.000701 0.002313 -0.000664
# 3 -0.007410 -0.003378 0.027845 -0.006290 -0.028429 0.005536
# 4 0.000562 -0.000701 -0.006290 0.027302 0.003736 -0.001478
# 5 0.007599 0.002313 -0.028429 0.003736 0.092728 -0.016293
# 6 -0.007567 -0.000664 0.005536 -0.001478 -0.016293 0.030066
#
#
# Mechanical properties :
#
#
# Convention : Reuss Voigt Hill
#
# Bulk Modulus (GPa) = 39.73494 59.61589 49.67542
# Shear Modulus (GPa) = 21.49418 34.88946 28.19182
#
# Velocity S-wave (km/s) = 3.07509 3.91782 3.52176
# Velocity P-wave (km/s) = 5.48537 6.83325 6.19607
#
# Compressibility (1/GPa) = 0.02516677
#
# Stress axis : x y z
#
# Youngs Moduli (GPa) = 68.24227 139.80028 35.91340
#
# Poissons Ratio (x) = 0.20321 0.26614
# Poissons Ratio (y) = 0.09919 0.12133
# Poissons Ratio (z) = 0.50571 0.47229
#
# Static dielectric constant tensor:
#      x y z
#    x 4.236110 -0.035180 0.306890 
#    y -0.035180 4.365170 0.039320 
#    z 0.306890 0.039320 3.875120 
# 
# 
# High freq. dielectric constant tensor:
#      x y z
#    x 1.893600 -0.000090 0.012920 
#    y -0.000090 1.917820 0.005130 
#    z 0.012920 0.005130 1.887310 
# 
# From -- ./inp_files/307010.got.cif
#   From: 2010.06.25/outbox.cif.g09.slc.cpg/sg2_154_cif.got.tgz:307010.got - 2010.06.27 13:26:56.
