data_PCOD8021978
_publ_section_title
;
Structure prediction by ZEFSAII (Michael W. Deem and Ramdas Pophale) SiO2 
 PCOD8021978
Probable space group: P -1
;
_chemical_formula_sum "Si O2"
_cell_formula_units_Z 16
_cell_length_a 5.926467
_cell_length_b 11.324784
_cell_length_c 12.635963
_cell_angle_alpha 63.097030
_cell_angle_beta 103.006941
_cell_angle_gamma 120.173143
_cell_volume 653.818539
_symmetry_space_group_name_H-M "P -1"
_symmetry_group_IT_number 2
_symmetry_cell_setting 'triclinic'
loop_
_space_group_symop_operation_xyz
x,y,z
-x,-y,-z
loop_
_atom_site_type_symbol
_atom_site_label
_atom_site_fract_x
_atom_site_fract_y
_atom_site_fract_z
Si Si1 0.202066 0.324403 0.624698
Si Si2 0.397544 0.619590 0.956603
Si Si3 0.925783 0.862354 0.971014
Si Si4 0.918424 0.531643 0.814343
Si Si5 0.644380 0.641540 0.601531
Si Si6 0.316357 0.053204 0.528710
Si Si7 0.323930 0.052133 0.770074
Si Si8 0.146398 0.732689 0.206054
O O1 0.393892 0.482851 0.631122
O O2 0.170164 0.331457 0.492720
O O3 0.287278 0.199342 0.711412
O O4 0.930535 0.273634 0.676384
O O5 0.629335 0.787525 0.927626
O O6 0.226567 0.622137 0.836531
O O7 0.500000 0.500000 0.000000
O O8 0.222295 0.575674 0.059569
O O9 0.106317 0.910556 0.866280
O O10 0.949276 0.734866 0.094320
O O11 0.000000 0.000000 0.000000
O O12 0.810729 0.647851 0.721991
O O13 0.842348 0.421004 0.750408
O O14 0.549646 0.768378 0.547382
O O15 0.339951 0.005834 0.670137
O O16 0.500000 0.000000 0.500000
O O17 0.000000 0.000000 0.500000
O O18 0.594467 0.108973 0.839819
#
# Coordination Sequence:
#
# PCOD8021978 Si02
#       8
#     2   2   2   2   2   2   2   2
#     4  10  22  44  71 110 141 184 252 321 386 462
#     4  11  25  47  70 104 157 197 256 317 385 472
#     4  12  24  45  74 106 150 205 256 321 405 456
#     4  11  24  45  73 111 148 194 255 320 392 467
#     4  10  23  47  75 108 144 195 255 318 394 463
#     4  11  29  55  76 111 162 212 264 324 395 479
#     4  11  25  46  73 109 152 194 264 322 388 472
#     4  12  23  43  76 106 148 191 249 330 390 465
#
# _framework density 24.471620000000001
#
# number of rings (size 3 to 8) (size 9 to 14) (size 15 to 20)
#    0.000    1.000    3.750    1.875    3.500    2.500 
#    4.500    0.000    0.000    0.000    0.000    0.000 
#    0.000    0.000    0.000    0.000    0.000    0.000 
#
# Total GULP energy -198288.480824 kJ/mol
# GULP energy per Si atom -12393.030052 kJ/mol
# Density = 2.441592 g / cm^3
# Si number density = 24.471620 Si / 1000 Ang^3
#
#
#
# Elastic Constant Matrix: (Units=GPa)
#
#
# Indices 1 2 3 4 5 6 
#
# 1 110.3187 45.9115 34.8308 13.9750 -11.8084 14.4629
# 2 45.9115 105.5285 26.2870 10.9130 -7.7988 6.0264
# 3 34.8308 26.2870 112.4257 5.0740 -6.5523 6.4817
# 4 13.9750 10.9130 5.0740 37.6633 1.1085 0.1564
# 5 -11.8084 -7.7988 -6.5523 1.1085 41.7219 5.6002
# 6 14.4629 6.0264 6.4817 0.1564 5.6002 52.1223
#
#
#
# Elastic Compliance Matrix: (Units=1/GPa)
#
#
# Indices 1 2 3 4 5 6 
#
# 1 0.012709 -0.004190 -0.002466 -0.003243 0.002921 -0.003039
# 2 -0.004190 0.011886 -0.001343 -0.001734 0.000889 -0.000135
# 3 -0.002466 -0.001343 0.010044 -0.000067 0.000695 -0.000484
# 4 -0.003243 -0.001734 -0.000067 0.028325 -0.002174 0.001257
# 5 0.002921 0.000889 0.000695 -0.002174 0.025631 -0.003747
# 6 -0.003039 -0.000135 -0.000484 0.001257 -0.003747 0.020504
#
#
# Mechanical properties :
#
#
# Convention : Reuss Voigt Hill
#
# Bulk Modulus (GPa) = 53.64494 60.25905 56.95199
# Shear Modulus (GPa) = 38.07762 41.05107 39.56434
#
# Velocity S-wave (km/s) = 3.94888 4.10017 4.02524
# Velocity P-wave (km/s) = 6.53915 6.86241 6.70273
#
# Compressibility (1/GPa) = 0.01864109
#
# Stress axis : x y z
#
# Youngs Moduli (GPa) = 78.68523 84.12959 99.55949
#
# Poissons Ratio (x) = 0.35252 0.24550
# Poissons Ratio (y) = 0.32970 0.13373
# Poissons Ratio (z) = 0.19402 0.11300
#
# Static dielectric constant tensor:
#      x y z
#    x 4.648750 0.040420 -0.156330 
#    y 0.040420 4.473200 -0.034540 
#    z -0.156330 -0.034540 4.689540 
# 
# 
# High freq. dielectric constant tensor:
#      x y z
#    x 1.969290 0.002320 -0.000430 
#    y 0.002320 1.979130 0.001860 
#    z -0.000430 0.001860 1.977270 
# 
# From -- ./inp_files/364078.got.cif
#   From: 2010.06.25/outbox.cif.g09.slc.cpg/sg2_183_cif.got.tgz:364078.got - 2010.06.27 13:26:56.
