data_PCOD8021444
_publ_section_title
;
Structure prediction by ZEFSAII (Michael W. Deem and Ramdas Pophale) SiO2 
 PCOD8021444
Probable space group: P -1
;
_chemical_formula_sum "Si O2"
_cell_formula_units_Z 14
_cell_length_a 12.253111
_cell_length_b 9.874371
_cell_length_c 8.970511
_cell_angle_alpha 73.939943
_cell_angle_beta 142.548116
_cell_angle_gamma 107.919199
_cell_volume 627.000080
_symmetry_space_group_name_H-M "P -1"
_symmetry_group_IT_number 2
_symmetry_cell_setting 'triclinic'
loop_
_space_group_symop_operation_xyz
x,y,z
-x,-y,-z
loop_
_atom_site_type_symbol
_atom_site_label
_atom_site_fract_x
_atom_site_fract_y
_atom_site_fract_z
Si Si1 0.909310 0.008430 0.238392
Si Si2 0.493946 0.988110 0.174663
Si Si3 0.781521 0.800617 0.653324
Si Si4 0.109095 0.259181 0.888114
Si Si5 0.408426 0.473381 0.565856
Si Si6 0.339205 0.535048 0.920919
Si Si7 0.291232 0.721790 0.560363
O O1 0.035994 0.105979 0.231974
O O2 0.875463 0.848077 0.195281
O O3 0.000000 0.000000 0.500000
O O4 0.717617 0.065492 0.007160
O O5 0.566172 0.136496 0.294523
O O6 0.607525 0.871469 0.396634
O O7 0.500000 0.000000 0.000000
O O8 0.770726 0.644621 0.610820
O O9 0.778907 0.780265 0.834859
O O10 0.190212 0.408117 0.856557
O O11 0.900464 0.247928 0.720098
O O12 0.500000 0.500000 0.500000
O O13 0.372593 0.619995 0.560599
O O14 0.553329 0.397098 0.839172
O O15 0.239696 0.645734 0.687639
O O16 0.500000 0.500000 0.000000
#
# Coordination Sequence:
#
# PCOD8021444 Si02
#       7
#     2   2   2   2   2   2   2
#     4  12  26  45  77 106 146 189 243 304 359 438
#     4  12  25  50  78 109 143 194 248 297 370 433
#     4  12  27  47  74 108 153 184 243 306 363 437
#     4  12  25  48  70 110 146 189 248 302 366 429
#     4  11  24  47  71 107 145 190 241 300 368 430
#     4  10  22  43  72  97 139 191 242 292 354 431
#     4  11  25  45  77 104 146 196 246 297 364 437
#
# _framework density 22.328544999999998
#
# number of rings (size 3 to 8) (size 9 to 14) (size 15 to 20)
#    0.000    0.571    4.286    3.429    4.000    2.286 
#    5.143    0.000    0.000    0.000    0.000    0.000 
#    0.000    0.000    0.000    0.000    0.000    0.000 
#
# Total GULP energy -173509.657875 kJ/mol
# GULP energy per Si atom -12393.546991 kJ/mol
# Density = 2.227772 g / cm^3
# Si number density = 22.328545 Si / 1000 Ang^3
#
#
#
# Elastic Constant Matrix: (Units=GPa)
#
#
# Indices 1 2 3 4 5 6 
#
# 1 90.6609 18.3873 48.1163 -0.7171 2.6275 -2.0319
# 2 18.3873 84.1323 34.2916 16.5329 -7.0876 -8.4012
# 3 48.1163 34.2916 148.8220 -0.0171 -1.3486 -8.3635
# 4 -0.7171 16.5329 -0.0171 40.5624 0.7915 -1.1937
# 5 2.6275 -7.0876 -1.3486 0.7915 54.7298 6.7001
# 6 -2.0319 -8.4012 -8.3635 -1.1937 6.7001 40.5988
#
#
#
# Elastic Compliance Matrix: (Units=1/GPa)
#
#
# Indices 1 2 3 4 5 6 
#
# 1 0.013519 -0.001598 -0.004028 0.000898 -0.000931 -0.000304
# 2 -0.001598 0.014917 -0.002795 -0.006087 0.001788 0.001957
# 3 -0.004028 -0.002795 0.008725 0.001105 -0.000100 0.001066
# 4 0.000898 -0.006087 0.001105 0.027174 -0.001198 0.000010
# 5 -0.000931 0.001788 -0.000100 -0.001198 0.018912 -0.002854
# 6 -0.000304 0.001957 0.001066 0.000010 -0.002854 0.025712
#
#
# Mechanical properties :
#
#
# Convention : Reuss Voigt Hill
#
# Bulk Modulus (GPa) = 49.21597 58.35616 53.78607
# Shear Modulus (GPa) = 37.71468 42.03288 39.87378
#
# Velocity S-wave (km/s) = 4.11430 4.34345 4.23043
# Velocity P-wave (km/s) = 6.68278 7.16562 6.92841
#
# Compressibility (1/GPa) = 0.02031861
#
# Stress axis : x y z
#
# Youngs Moduli (GPa) = 73.96800 67.03932 114.61355
#
# Poissons Ratio (x) = 0.10713 0.46169
# Poissons Ratio (y) = 0.11820 0.32034
# Poissons Ratio (z) = 0.29796 0.18737
#
# Static dielectric constant tensor:
#      x y z
#    x 4.167230 -0.025510 -0.245090 
#    y -0.025510 4.414650 0.315800 
#    z -0.245090 0.315800 5.086000 
# 
# 
# High freq. dielectric constant tensor:
#      x y z
#    x 1.878090 0.008650 -0.008570 
#    y 0.008650 1.882150 0.014190 
#    z -0.008570 0.014190 1.902890 
# 
# From -- ./inp_files/243767.got.cif
#   From: 2010.06.25/outbox.cif.g09.slc.cpg/sg2_122_cif.got.tgz:243767.got - 2010.06.27 13:26:56.
