data_PCOD8021458
_publ_section_title
;
Structure prediction by ZEFSAII (Michael W. Deem and Ramdas Pophale) SiO2 
 PCOD8021458
Probable space group: P -1
;
_chemical_formula_sum "Si O2"
_cell_formula_units_Z 12
_cell_length_a 9.279003
_cell_length_b 13.182694
_cell_length_c 8.548696
_cell_angle_alpha 85.175430
_cell_angle_beta 66.787236
_cell_angle_gamma 35.939838
_cell_volume 507.724112
_symmetry_space_group_name_H-M "P -1"
_symmetry_group_IT_number 2
_symmetry_cell_setting 'triclinic'
loop_
_space_group_symop_operation_xyz
x,y,z
-x,-y,-z
loop_
_atom_site_type_symbol
_atom_site_label
_atom_site_fract_x
_atom_site_fract_y
_atom_site_fract_z
Si Si1 0.082889 0.567990 0.297022
Si Si2 0.246142 0.799274 0.502244
Si Si3 0.687559 0.153824 0.189364
Si Si4 0.344923 0.065739 0.721048
Si Si5 0.873674 0.508894 0.200198
Si Si6 0.088287 0.224493 0.343735
O O1 0.431170 0.348423 0.169012
O O2 0.986736 0.703995 0.184138
O O3 0.890684 0.573336 0.336843
O O4 0.993955 0.654620 0.494715
O O5 0.316657 0.795862 0.645561
O O6 0.540244 0.654448 0.292664
O O7 0.144512 0.738663 0.557711
O O8 0.000000 0.000000 0.500000
O O9 0.651496 0.053261 0.220523
O O10 0.000000 0.000000 0.000000
O O11 0.500000 0.000000 0.500000
O O12 0.566758 0.000489 0.758627
O O13 0.057957 0.304300 0.184750
O O14 0.000000 0.500000 0.000000
#
# Coordination Sequence:
#
# PCOD8021458 Si02
#       6
#     2   2   2   2   2   2
#     4  11  23  47  73  99 145 187 238 288 363 420
#     4  12  26  46  71 106 149 184 241 298 358 425
#     4  12  27  46  72 102 146 192 240 292 351 429
#     4  10  22  43  73 104 132 188 236 285 359 429
#     4  12  26  44  72 107 143 189 238 297 358 427
#     4  11  22  46  76 102 142 188 238 296 365 424
#
# _framework density 23.634884
#
# number of rings (size 3 to 8) (size 9 to 14) (size 15 to 20)
#    0.000    0.667    3.333    6.000    2.333    2.000 
#    0.000    2.500    0.000    0.000    0.000    0.000 
#    0.000    0.000    0.000    0.000    0.000    0.000 
#
# Total GULP energy -148706.949689 kJ/mol
# GULP energy per Si atom -12392.245807 kJ/mol
# Density = 2.358109 g / cm^3
# Si number density = 23.634884 Si / 1000 Ang^3
#
#
#
# Elastic Constant Matrix: (Units=GPa)
#
#
# Indices 1 2 3 4 5 6 
#
# 1 142.9221 61.1592 38.8438 -4.7828 -32.8062 -10.7634
# 2 61.1592 237.2253 58.0113 -0.9503 -32.0195 -39.8005
# 3 38.8438 58.0113 90.0882 -7.8282 -40.5034 -11.6951
# 4 -4.7828 -0.9503 -7.8282 27.6400 1.8770 -6.3552
# 5 -32.8062 -32.0195 -40.5034 1.8770 30.9348 2.4600
# 6 -10.7634 -39.8005 -11.6951 -6.3552 2.4600 45.4795
#
#
#
# Elastic Compliance Matrix: (Units=1/GPa)
#
#
# Indices 1 2 3 4 5 6 
#
# 1 0.009795 -0.001228 0.002207 0.001805 0.011784 0.001426
# 2 -0.001228 0.006008 -0.001667 0.000389 0.002355 0.004466
# 3 0.002207 -0.001667 0.030380 0.007582 0.039471 0.005800
# 4 0.001805 0.000389 0.007582 0.039817 0.009209 0.007783
# 5 0.011784 0.002355 0.039471 0.009209 0.097506 0.011013
# 6 0.001426 0.004466 0.005800 0.007783 0.011013 0.028217
#
#
# Mechanical properties :
#
#
# Convention : Reuss Voigt Hill
#
# Bulk Modulus (GPa) = 22.31770 87.36269 54.84020
# Shear Modulus (GPa) = 21.92654 41.62561 31.77607
#
# Velocity S-wave (km/s) = 3.04915 4.20121 3.67066
# Velocity P-wave (km/s) = 4.67543 7.78314 6.42016
#
# Compressibility (1/GPa) = 0.04480748
#
# Stress axis : x y z
#
# Youngs Moduli (GPa) = 102.09270 166.43439 32.91654
#
# Poissons Ratio (x) = 0.20440 -0.07266
# Poissons Ratio (y) = 0.12538 0.05488
# Poissons Ratio (z) = -0.22535 0.27746
#
# Static dielectric constant tensor:
#      x y z
#    x 4.673820 -0.323060 -0.233650 
#    y -0.323060 5.391020 -0.033820 
#    z -0.233650 -0.033820 4.166330 
# 
# 
# High freq. dielectric constant tensor:
#      x y z
#    x 1.946340 -0.012440 -0.009750 
#    y -0.012440 1.970180 -0.008280 
#    z -0.009750 -0.008280 1.905350 
# 
# From -- ./inp_files/186462.got.cif
#   From: 2010.06.25/outbox.cif.g09.slc.cpg/sg2_94_cif.got.tgz:186462.got - 2010.06.27 13:26:56.
