data_PCOD8021685
_publ_section_title
;
Structure prediction by ZEFSAII (Michael W. Deem and Ramdas Pophale) SiO2 
 PCOD8021685
Probable space group: P -1
;
_chemical_formula_sum "Si O2"
_cell_formula_units_Z 16
_cell_length_a 15.176054
_cell_length_b 8.642729
_cell_length_c 26.836724
_cell_angle_alpha 36.342220
_cell_angle_beta 19.009287
_cell_angle_gamma 44.991610
_cell_volume 651.947226
_symmetry_space_group_name_H-M "P -1"
_symmetry_group_IT_number 2
_symmetry_cell_setting 'triclinic'
loop_
_space_group_symop_operation_xyz
x,y,z
-x,-y,-z
loop_
_atom_site_type_symbol
_atom_site_label
_atom_site_fract_x
_atom_site_fract_y
_atom_site_fract_z
Si Si1 0.357601 0.955758 0.213171
Si Si2 0.166714 0.859221 0.524003
Si Si3 0.683314 0.051204 0.473802
Si Si4 0.800041 0.146942 0.778353
Si Si5 0.904163 0.266494 0.797242
Si Si6 0.908232 0.275446 0.150212
Si Si7 0.404444 0.043657 0.812901
Si Si8 0.915895 0.572641 0.165292
O O1 0.117160 0.051555 0.344549
O O2 0.246009 0.737711 0.282931
O O3 0.509926 0.842490 0.206302
O O4 0.578126 0.214345 0.001766
O O5 0.367715 0.987213 0.429786
O O6 0.325560 0.976451 0.357915
O O7 0.096439 0.532806 0.651682
O O8 0.691920 0.358033 0.374836
O O9 0.433255 0.828005 0.638183
O O10 0.994479 0.039595 0.294341
O O11 0.945402 0.342843 0.695519
O O12 0.500000 0.000000 0.000000
O O13 0.983575 0.993239 0.843338
O O14 0.028080 0.418894 0.100552
O O15 0.000000 0.500000 0.000000
O O16 0.261017 0.242506 0.810842
O O17 0.181153 0.743864 0.011738
#
# Coordination Sequence:
#
# PCOD8021685 Si02
#       8
#     2   2   2   2   2   2   2   2
#     4  10  22  44  66  96 137 177 227 279 329 400
#     4  11  24  41  69  99 134 179 227 277 328 404
#     4  11  23  43  70  98 135 178 225 271 337 402
#     4   9  21  41  69  97 129 172 228 274 323 401
#     4  11  22  42  69  98 133 178 231 269 338 400
#     4  12  25  41  68 100 142 172 219 285 341 397
#     4  11  24  42  67 100 139 175 222 277 346 389
#     4  11  24  42  68  97 137 178 220 279 332 406
#
# _framework density 24.541862999999999
#
# number of rings (size 3 to 8) (size 9 to 14) (size 15 to 20)
#    0.000    1.250    1.250    4.125    1.750    6.000 
#    0.000    0.625    0.000    0.000    0.000    0.000 
#    0.000    0.000    0.000    0.000    0.000    0.000 
#
# Total GULP energy -198211.772435 kJ/mol
# GULP energy per Si atom -12388.235777 kJ/mol
# Density = 2.448600 g / cm^3
# Si number density = 24.541863 Si / 1000 Ang^3
#
#
#
# Elastic Constant Matrix: (Units=GPa)
#
#
# Indices 1 2 3 4 5 6 
#
# 1 145.5703 9.7630 32.4645 12.0451 10.0965 -0.5337
# 2 9.7630 50.3306 30.7870 11.4776 -8.0623 3.4264
# 3 32.4645 30.7870 108.5915 7.8537 8.6697 -9.7663
# 4 12.0451 11.4776 7.8537 30.1711 2.8683 7.1357
# 5 10.0965 -8.0623 8.6697 2.8683 31.8272 9.2789
# 6 -0.5337 3.4264 -9.7663 7.1357 9.2789 19.0593
#
#
#
# Elastic Compliance Matrix: (Units=1/GPa)
#
#
# Indices 1 2 3 4 5 6 
#
# 1 0.007647 -0.000300 -0.001701 -0.002631 -0.002229 0.001466
# 2 -0.000300 0.032533 -0.011623 -0.006682 0.017270 -0.017719
# 3 -0.001701 -0.011623 0.015460 -0.001650 -0.011132 0.016001
# 4 -0.002631 -0.006682 -0.001650 0.040711 0.000331 -0.015121
# 5 -0.002229 0.017270 -0.011132 0.000331 0.049095 -0.032897
# 6 0.001466 -0.017719 0.016001 -0.015121 -0.032897 0.085570
#
#
# Mechanical properties :
#
#
# Convention : Reuss Voigt Hill
#
# Bulk Modulus (GPa) = 35.22113 50.05793 42.63953
# Shear Modulus (GPa) = 18.67571 31.64339 25.15955
#
# Velocity S-wave (km/s) = 2.76157 3.59467 3.20530
# Velocity P-wave (km/s) = 4.95489 6.13760 5.57768
#
# Compressibility (1/GPa) = 0.02839205
#
# Stress axis : x y z
#
# Youngs Moduli (GPa) = 130.77656 30.73784 64.68378
#
# Poissons Ratio (x) = 0.00921 0.11003
# Poissons Ratio (y) = 0.03919 0.75183
# Poissons Ratio (z) = 0.22245 0.35727
#
# Static dielectric constant tensor:
#      x y z
#    x 5.016240 0.264850 -0.112740 
#    y 0.264850 4.180170 0.160110 
#    z -0.112740 0.160110 4.409710 
# 
# 
# High freq. dielectric constant tensor:
#      x y z
#    x 1.999050 0.011140 -0.002920 
#    y 0.011140 1.950300 0.018950 
#    z -0.002920 0.018950 1.975470 
# 
# From -- ./inp_files/619236.got.cif
#   From: 2010.06.25/outbox.cif.g09.slc.cpg/sg2_310_cif.got.tgz:619236.got - 2010.06.27 13:26:56.
