data_PCOD8021802
_publ_section_title
;
Structure prediction by ZEFSAII (Michael W. Deem and Ramdas Pophale) SiO2 
 PCOD8021802
Probable space group: P -1
;
_chemical_formula_sum "Si O2"
_cell_formula_units_Z 16
_cell_length_a 12.185749
_cell_length_b 21.453302
_cell_length_c 9.418024
_cell_angle_alpha 27.180947
_cell_angle_beta 133.028220
_cell_angle_gamma 137.492789
_cell_volume 757.114330
_symmetry_space_group_name_H-M "P -1"
_symmetry_group_IT_number 2
_symmetry_cell_setting 'triclinic'
loop_
_space_group_symop_operation_xyz
x,y,z
-x,-y,-z
loop_
_atom_site_type_symbol
_atom_site_label
_atom_site_fract_x
_atom_site_fract_y
_atom_site_fract_z
Si Si1 0.208937 0.603520 0.636823
Si Si2 0.468873 0.108284 0.648650
Si Si3 0.487479 0.072814 0.197703
Si Si4 0.704159 0.563816 0.703045
Si Si5 0.850945 0.893136 0.181343
Si Si6 0.856114 0.869336 0.568534
Si Si7 0.621127 0.411408 0.646550
Si Si8 0.882488 0.598395 0.296172
O O1 0.382392 0.734599 0.540405
O O2 0.174143 0.545166 0.563469
O O3 0.058076 0.654322 0.417753
O O4 0.203021 0.482075 0.995609
O O5 0.312890 0.132289 0.519284
O O6 0.451481 0.025893 0.651457
O O7 0.500000 0.000000 0.000000
O O8 0.500000 0.000000 0.500000
O O9 0.300767 0.056208 0.055321
O O10 0.611434 0.245484 0.944492
O O11 0.814085 0.730821 0.410347
O O12 0.650799 0.441253 0.780313
O O13 0.539222 0.576487 0.586546
O O14 0.888413 0.886405 0.394450
O O15 0.000000 0.000000 0.000000
O O16 0.865713 0.720247 0.933456
O O17 0.000000 0.000000 0.500000
O O18 0.763636 0.547941 0.425678
#
# Coordination Sequence:
#
# PCOD8021802 Si02
#       8
#     2   2   2   2   2   2   2   2
#     4  11  24  42  67 101 135 175 221 278 336 402
#     4  12  24  43  71  97 138 181 228 276 335 407
#     4  11  25  44  67 104 137 184 226 277 338 402
#     4  10  22  44  68  97 131 179 224 270 342 402
#     4  11  26  45  69  99 138 178 227 281 339 410
#     4  12  27  45  69 102 137 181 226 282 344 403
#     4  10  23  42  69  98 134 174 225 277 334 406
#     4  11  25  42  67 102 136 172 223 281 341 396
#
# _framework density 21.132871000000002
#
# number of rings (size 3 to 8) (size 9 to 14) (size 15 to 20)
#    0.000    1.000    2.500    3.000    5.250    4.500 
#    0.000    0.000    0.000    0.000    0.000    0.000 
#    0.000    0.000    0.000    0.000    0.000    0.000 
#
# Total GULP energy -198250.199302 kJ/mol
# GULP energy per Si atom -12390.637456 kJ/mol
# Density = 2.108477 g / cm^3
# Si number density = 21.132871 Si / 1000 Ang^3
#
#
#
# Elastic Constant Matrix: (Units=GPa)
#
#
# Indices 1 2 3 4 5 6 
#
# 1 110.6403 50.3790 55.1520 -4.7637 -11.6962 11.5308
# 2 50.3790 113.2287 44.5517 -8.4017 0.9898 6.9186
# 3 55.1520 44.5517 135.7569 10.0102 -8.5555 15.8298
# 4 -4.7637 -8.4017 10.0102 48.8662 2.1266 -3.0865
# 5 -11.6962 0.9898 -8.5555 2.1266 31.8075 -2.9912
# 6 11.5308 6.9186 15.8298 -3.0865 -2.9912 36.6401
#
#
#
# Elastic Compliance Matrix: (Units=1/GPa)
#
#
# Indices 1 2 3 4 5 6 
#
# 1 0.013501 -0.004420 -0.003702 0.001056 0.003903 -0.001407
# 2 -0.004420 0.011962 -0.002494 0.002270 -0.002804 0.000172
# 3 -0.003702 -0.002494 0.010361 -0.003163 0.001433 -0.002990
# 4 0.001056 0.002270 -0.003163 0.021828 -0.001776 0.002300
# 5 0.003903 -0.002804 0.001433 -0.001776 0.033586 0.001274
# 6 -0.001407 0.000172 -0.002990 0.002300 0.001274 0.029292
#
#
# Mechanical properties :
#
#
# Convention : Reuss Voigt Hill
#
# Bulk Modulus (GPa) = 68.53377 73.31015 70.92196
# Shear Modulus (GPa) = 34.10026 37.43230 35.76628
#
# Velocity S-wave (km/s) = 4.02134 4.21323 4.11840
# Velocity P-wave (km/s) = 7.35268 7.64420 7.49986
#
# Compressibility (1/GPa) = 0.01459135
#
# Stress axis : x y z
#
# Youngs Moduli (GPa) = 74.06742 83.59739 96.51799
#
# Poissons Ratio (x) = 0.36952 0.35732
# Poissons Ratio (y) = 0.32740 0.24072
# Poissons Ratio (z) = 0.27420 0.20849
#
# Static dielectric constant tensor:
#      x y z
#    x 3.725760 0.105260 0.022770 
#    y 0.105260 4.060240 -0.016110 
#    z 0.022770 -0.016110 3.896260 
# 
# 
# High freq. dielectric constant tensor:
#      x y z
#    x 1.827550 -0.002770 -0.000980 
#    y -0.002770 1.841420 -0.000190 
#    z -0.000980 -0.000190 1.845340 
# 
# From -- ./inp_files/282660.got.cif
#   From: 2010.06.25/outbox.cif.g09.slc.cpg/sg2_142_cif.got.tgz:282660.got - 2010.06.27 13:26:56.
