data_PCOD8021425
_publ_section_title
;
Structure prediction by ZEFSAII (Michael W. Deem and Ramdas Pophale) SiO2 
 PCOD8021425
Probable space group: P -1
;
_chemical_formula_sum "Si O2"
_cell_formula_units_Z 12
_cell_length_a 14.689621
_cell_length_b 9.509280
_cell_length_c 15.749309
_cell_angle_alpha 46.049986
_cell_angle_beta 161.163618
_cell_angle_gamma 132.262846
_cell_volume 510.215242
_symmetry_space_group_name_H-M "P -1"
_symmetry_group_IT_number 2
_symmetry_cell_setting 'triclinic'
loop_
_space_group_symop_operation_xyz
x,y,z
-x,-y,-z
loop_
_atom_site_type_symbol
_atom_site_label
_atom_site_fract_x
_atom_site_fract_y
_atom_site_fract_z
Si Si1 0.762057 0.992780 0.556682
Si Si2 0.268416 0.779523 0.124697
Si Si3 0.245918 0.629013 0.703324
Si Si4 0.140281 0.158239 0.123218
Si Si5 0.347876 0.573885 0.115405
Si Si6 0.028824 0.232086 0.430527
O O1 0.676286 0.206986 0.367399
O O2 0.589294 0.846294 0.401882
O O3 0.679414 0.956733 0.598960
O O4 0.095491 0.954162 0.854853
O O5 0.285973 0.598550 0.151467
O O6 0.105552 0.730219 0.090301
O O7 0.000000 0.500000 0.500000
O O8 0.155923 0.720931 0.672102
O O9 0.500000 0.500000 0.000000
O O10 0.331588 0.340520 0.175170
O O11 0.000000 0.000000 0.000000
O O12 0.650594 0.677326 0.313958
O O13 0.105739 0.677842 0.808710
O O14 0.000000 0.000000 0.500000
#
# Coordination Sequence:
#
# PCOD8021425 Si02
#       6
#     2   2   2   2   2   2
#     4  10  24  44  73 100 145 187 249 297 370 425
#     4  10  22  43  72 102 142 187 241 297 372 426
#     4  12  26  46  73 105 144 196 244 296 365 436
#     4  10  27  45  73 106 150 191 246 304 373 430
#     4  12  25  45  76 108 146 191 248 299 371 438
#     4  12  28  48  75 110 150 190 249 307 363 438
#
# _framework density 23.519486000000001
#
# number of rings (size 3 to 8) (size 9 to 14) (size 15 to 20)
#    1.000    0.000    0.000    6.000    4.667    2.667 
#    0.000    0.000    0.000    0.000    0.000    0.000 
#    0.000    0.000    0.000    0.000    0.000    0.000 
#
# Total GULP energy -148711.729929 kJ/mol
# GULP energy per Si atom -12392.644161 kJ/mol
# Density = 2.346595 g / cm^3
# Si number density = 23.519486 Si / 1000 Ang^3
#
#
#
# Elastic Constant Matrix: (Units=GPa)
#
#
# Indices 1 2 3 4 5 6 
#
# 1 89.7521 59.4575 29.1494 -5.3834 -11.3703 -9.7168
# 2 59.4575 198.4821 66.3624 12.0556 -19.5442 1.5362
# 3 29.1494 66.3624 154.9838 10.2309 -14.7870 -2.8763
# 4 -5.3834 12.0556 10.2309 38.3901 -3.7567 -1.6532
# 5 -11.3703 -19.5442 -14.7870 -3.7567 38.5115 4.4327
# 6 -9.7168 1.5362 -2.8763 -1.6532 4.4327 36.0308
#
#
#
# Elastic Compliance Matrix: (Units=1/GPa)
#
#
# Indices 1 2 3 4 5 6 
#
# 1 0.015285 -0.004335 -0.001039 0.004142 0.001836 0.004188
# 2 -0.004335 0.007341 -0.002055 -0.002287 0.001659 -0.001955
# 3 -0.001039 -0.002055 0.007765 -0.001418 0.001473 0.000181
# 4 0.004142 -0.002287 -0.001418 0.028014 0.002004 0.002140
# 5 0.001836 0.001659 0.001473 0.002004 0.028441 -0.002865
# 6 0.004188 -0.001955 0.000181 0.002140 -0.002865 0.029432
#
#
# Mechanical properties :
#
#
# Convention : Reuss Voigt Hill
#
# Bulk Modulus (GPa) = 64.37701 83.68406 74.03054
# Shear Modulus (GPa) = 36.67997 41.80305 39.24151
#
# Velocity S-wave (km/s) = 3.95341 4.22047 4.08912
# Velocity P-wave (km/s) = 6.94769 7.70765 7.33751
#
# Compressibility (1/GPa) = 0.01553350
#
# Stress axis : x y z
#
# Youngs Moduli (GPa) = 65.42243 136.21659 128.77878
#
# Poissons Ratio (x) = 0.59044 0.13385
# Poissons Ratio (y) = 0.28358 0.26467
# Poissons Ratio (z) = 0.06800 0.27996
#
# Static dielectric constant tensor:
#      x y z
#    x 4.194340 -0.011020 -0.148840 
#    y -0.011020 4.128040 0.165770 
#    z -0.148840 0.165770 4.270240 
# 
# 
# High freq. dielectric constant tensor:
#      x y z
#    x 1.927830 -0.008500 -0.009440 
#    y -0.008500 1.932840 0.009490 
#    z -0.009440 0.009490 1.944850 
# 
# From -- ./inp_files/80325.got.cif
#   From: 2010.06.25/outbox.cif.g09.slc.cpg/sg2_41_cif.got.tgz:80325.got - 2010.06.27 13:26:56.
