data_PCOD8021067
_publ_section_title
;
Structure prediction by ZEFSAII (Michael W. Deem and Ramdas Pophale) SiO2 
 PCOD8021067
Probable space group: P -1
;
_chemical_formula_sum "Si O2"
_cell_formula_units_Z 16
_cell_length_a 20.979848
_cell_length_b 12.251027
_cell_length_c 18.030374
_cell_angle_alpha 146.948156
_cell_angle_beta 19.740200
_cell_angle_gamma 147.599892
_cell_volume 814.151521
_symmetry_space_group_name_H-M "P -1"
_symmetry_group_IT_number 2
_symmetry_cell_setting 'triclinic'
loop_
_space_group_symop_operation_xyz
x,y,z
-x,-y,-z
loop_
_atom_site_type_symbol
_atom_site_label
_atom_site_fract_x
_atom_site_fract_y
_atom_site_fract_z
Si Si1 0.567136 0.105282 0.323561
Si Si2 0.952266 0.077641 0.816221
Si Si3 0.575650 0.208123 0.084071
Si Si4 0.977234 0.182983 0.680839
Si Si5 0.609120 0.742416 0.532624
Si Si6 0.389538 0.521081 0.402269
Si Si7 0.166804 0.398170 0.285441
Si Si8 0.459002 0.633928 0.221775
O O1 0.430516 0.115644 0.409164
O O2 0.551540 0.267449 0.495203
O O3 0.488335 0.876802 0.314515
O O4 0.791790 0.157595 0.080559
O O5 0.915226 0.086364 0.774445
O O6 0.160002 0.234683 0.703698
O O7 0.943210 0.843539 0.715398
O O8 0.450809 0.174083 0.277093
O O9 0.549772 0.401358 0.175504
O O10 0.806405 0.267770 0.883228
O O11 0.500000 0.000000 0.000000
O O12 0.174555 0.375739 0.578665
O O13 0.000000 0.000000 0.500000
O O14 0.500000 0.500000 0.500000
O O15 0.396652 0.577810 0.341556
O O16 0.272250 0.503146 0.304414
O O17 0.000000 0.500000 0.500000
O O18 0.339994 0.425094 0.049755
#
# Coordination Sequence:
#
# PCOD8021067 Si02
#       8
#     2   2   2   2   2   2   2   2
#     4  11  24  42  66  92 130 173 221 269 318 389
#     4  11  23  39  65  94 125 168 220 269 320 387
#     4  12  25  40  63  95 130 169 211 270 327 383
#     4  12  23  40  61  94 127 165 210 267 332 382
#     4  12  23  41  65  96 131 170 219 269 325 390
#     4  12  25  42  63  94 134 172 212 267 329 391
#     4  10  22  43  67  94 124 168 218 271 323 379
#     4  10  24  42  66  95 127 171 217 264 324 390
#
# _framework density 19.652360999999999
#
# number of rings (size 3 to 8) (size 9 to 14) (size 15 to 20)
#    0.000    0.750    5.000    1.875    1.750    5.000 
#    0.000    0.000    0.000    6.000    0.000    0.000 
#    0.000    0.000    0.000    0.000    0.000    0.000 
#
# Total GULP energy -198488.862334 kJ/mol
# GULP energy per Si atom -12405.553896 kJ/mol
# Density = 1.960763 g / cm^3
# Si number density = 19.652361 Si / 1000 Ang^3
#
#
#
# Elastic Constant Matrix: (Units=GPa)
#
#
# Indices 1 2 3 4 5 6 
#
# 1 119.3973 37.3725 51.5994 9.8610 0.9564 -7.4595
# 2 37.3725 61.3745 36.1301 5.7339 0.2348 9.4493
# 3 51.5994 36.1301 101.7226 12.5020 -14.5608 -0.2521
# 4 9.8610 5.7339 12.5020 34.4829 5.6042 0.1637
# 5 0.9564 0.2348 -14.5608 5.6042 49.6051 -1.0865
# 6 -7.4595 9.4493 -0.2521 0.1637 -1.0865 39.0700
#
#
#
# Elastic Compliance Matrix: (Units=1/GPa)
#
#
# Indices 1 2 3 4 5 6 
#
# 1 0.012248 -0.005336 -0.004398 -0.000821 -0.001331 0.003567
# 2 -0.005336 0.024289 -0.006238 0.000109 -0.002009 -0.006990
# 3 -0.004398 -0.006238 0.015533 -0.004181 0.005166 0.000930
# 4 -0.000821 0.000109 -0.004181 0.031512 -0.004782 -0.000475
# 5 -0.001331 -0.002009 0.005166 -0.004782 0.022271 0.000904
# 6 0.003567 -0.006990 0.000930 -0.000475 0.000904 0.028000
#
#
# Mechanical properties :
#
#
# Convention : Reuss Voigt Hill
#
# Bulk Modulus (GPa) = 49.69135 59.18873 54.44004
# Shear Modulus (GPa) = 28.98452 35.12443 32.05448
#
# Velocity S-wave (km/s) = 3.84456 4.23222 4.04304
# Velocity P-wave (km/s) = 6.71175 7.35292 7.03964
#
# Compressibility (1/GPa) = 0.02012423
#
# Stress axis : x y z
#
# Youngs Moduli (GPa) = 81.64753 41.17116 64.37883
#
# Poissons Ratio (x) = 0.21970 0.28315
# Poissons Ratio (y) = 0.43569 0.40162
# Poissons Ratio (z) = 0.35910 0.25684
#
# Static dielectric constant tensor:
#      x y z
#    x 3.756140 -0.028270 -0.102190 
#    y -0.028270 3.956110 -0.215730 
#    z -0.102190 -0.215730 3.904630 
# 
# 
# High freq. dielectric constant tensor:
#      x y z
#    x 1.781890 0.003100 -0.004610 
#    y 0.003100 1.771320 0.004820 
#    z -0.004610 0.004820 1.775940 
# 
# From -- ./inp_files/282848.got.cif
#   From: 2010.06.25/outbox.cif.g09.slc.cpg/sg2_142_cif.got.tgz:282848.got - 2010.06.27 13:26:56.
