data_PCOD8021346
_publ_section_title
;
Structure prediction by ZEFSAII (Michael W. Deem and Ramdas Pophale) SiO2 
 PCOD8021346
Probable space group: P -1
;
_chemical_formula_sum "Si O2"
_cell_formula_units_Z 16
_cell_length_a 10.422066
_cell_length_b 22.267011
_cell_length_c 7.614842
_cell_angle_alpha 144.122188
_cell_angle_beta 136.275274
_cell_angle_gamma 39.103523
_cell_volume 631.790607
_symmetry_space_group_name_H-M "P -1"
_symmetry_group_IT_number 2
_symmetry_cell_setting 'triclinic'
loop_
_space_group_symop_operation_xyz
x,y,z
-x,-y,-z
loop_
_atom_site_type_symbol
_atom_site_label
_atom_site_fract_x
_atom_site_fract_y
_atom_site_fract_z
Si Si1 0.567892 0.692836 0.366417
Si Si2 0.688539 0.063764 0.978480
Si Si3 0.782726 0.900089 0.380369
Si Si4 0.974468 0.650445 0.881563
Si Si5 0.293113 0.523537 0.245282
Si Si6 0.661846 0.048677 0.297355
Si Si7 0.161894 0.492709 0.385482
Si Si8 0.382456 0.689621 0.517772
O O1 0.748097 0.690665 0.665401
O O2 0.456503 0.815584 0.446875
O O3 0.403056 0.678426 0.299332
O O4 0.662356 0.595860 0.084539
O O5 0.441576 0.098475 0.826954
O O6 0.819213 0.953895 0.723031
O O7 0.785847 0.029648 0.190219
O O8 0.709666 0.175752 0.196836
O O9 0.809674 0.976763 0.433726
O O10 0.972436 0.769080 0.228238
O O11 0.999896 0.560311 0.855275
O O12 0.147572 0.580795 0.737208
O O13 0.500000 0.500000 0.500000
O O14 0.112358 0.556274 0.296051
O O15 0.238783 0.628737 0.296802
O O16 0.500000 0.000000 0.000000
O O17 0.392411 0.384584 0.344968
#
# Coordination Sequence:
#
# PCOD8021346 Si02
#       8
#     2   2   2   2   2   2   2   2
#     4  10  18  31  50  74 106 126 161 210 262 293
#     4   9  17  28  49  76 101 124 167 207 258 292
#     4  10  17  28  51  73 103 131 160 204 261 304
#     4  10  18  34  49  72 108 134 155 202 262 310
#     4  10  21  31  50  73  95 133 178 207 239 294
#     4   9  16  28  44  76 102 125 157 209 252 304
#     4   9  19  32  50  71 103 132 167 201 244 310
#     4   9  17  35  49  75 101 133 166 209 248 293
#
# _framework density 25.324846999999998
#
# number of rings (size 3 to 8) (size 9 to 14) (size 15 to 20)
#    0.000    2.500    5.000    0.375    3.500    1.500 
#    0.000    0.000    0.000    0.750    0.000    1.750 
#    0.000    0.000    0.000    0.000    0.000    0.000 
#
# Total GULP energy -198310.552628 kJ/mol
# GULP energy per Si atom -12394.409539 kJ/mol
# Density = 2.526721 g / cm^3
# Si number density = 25.324847 Si / 1000 Ang^3
#
#
#
# Elastic Constant Matrix: (Units=GPa)
#
#
# Indices 1 2 3 4 5 6 
#
# 1 124.4822 53.3343 84.8432 15.4124 -11.8484 45.7080
# 2 53.3343 97.6179 55.0936 35.9522 -12.0075 37.9402
# 3 84.8432 55.0936 199.9595 39.2675 -23.6778 27.0013
# 4 15.4124 35.9522 39.2675 35.7503 0.2631 8.0808
# 5 -11.8484 -12.0075 -23.6778 0.2631 53.4041 -8.6594
# 6 45.7080 37.9402 27.0013 8.0808 -8.6594 43.2078
#
#
#
# Elastic Compliance Matrix: (Units=1/GPa)
#
#
# Indices 1 2 3 4 5 6 
#
# 1 0.017594 -0.003129 -0.006012 0.005210 -0.001667 -0.013416
# 2 -0.003129 0.026011 0.001032 -0.022504 0.003239 -0.015316
# 3 -0.006012 0.001032 0.009146 -0.008988 0.003336 0.002087
# 4 0.005210 -0.022504 -0.008988 0.056489 -0.006883 0.007922
# 5 -0.001667 0.003239 0.003336 -0.006883 0.020974 0.002325
# 6 -0.013416 -0.015316 0.002087 0.007922 0.002325 0.048465
#
#
# Mechanical properties :
#
#
# Convention : Reuss Voigt Hill
#
# Bulk Modulus (GPa) = 27.37292 89.84464 58.60878
# Shear Modulus (GPa) = 24.14609 41.72500 32.93554
#
# Velocity S-wave (km/s) = 3.09116 4.06346 3.61019
# Velocity P-wave (km/s) = 4.85515 7.58745 6.36954
#
# Compressibility (1/GPa) = 0.03653245
#
# Stress axis : x y z
#
# Youngs Moduli (GPa) = 56.83828 38.44588 109.34208
#
# Poissons Ratio (x) = 0.12031 0.65734
# Poissons Ratio (y) = 0.17786 -0.11287
# Poissons Ratio (z) = 0.34170 -0.03969
#
# Static dielectric constant tensor:
#      x y z
#    x 8.415300 4.172240 -0.853700 
#    y 4.172240 8.851850 -1.068030 
#    z -0.853700 -1.068030 4.684100 
# 
# 
# High freq. dielectric constant tensor:
#      x y z
#    x 2.012340 0.010330 0.010520 
#    y 0.010330 2.014560 -0.001030 
#    z 0.010520 -0.001030 2.016420 
# 
# From -- ./inp_files/254080.got.cif
#   From: 2010.06.25/outbox.cif.g09.slc.cpg/sg2_128_cif.got.tgz:254080.got - 2010.06.27 13:26:56.
