data_PCOD8021604
_publ_section_title
;
Structure prediction by ZEFSAII (Michael W. Deem and Ramdas Pophale) SiO2 
 PCOD8021604
Probable space group: P -1
;
_chemical_formula_sum "Si O2"
_cell_formula_units_Z 12
_cell_length_a 8.025706
_cell_length_b 8.667935
_cell_length_c 12.179743
_cell_angle_alpha 80.367474
_cell_angle_beta 33.427026
_cell_angle_gamma 85.567528
_cell_volume 457.130941
_symmetry_space_group_name_H-M "P -1"
_symmetry_group_IT_number 2
_symmetry_cell_setting 'triclinic'
loop_
_space_group_symop_operation_xyz
x,y,z
-x,-y,-z
loop_
_atom_site_type_symbol
_atom_site_label
_atom_site_fract_x
_atom_site_fract_y
_atom_site_fract_z
Si Si1 0.162539 0.524657 0.292410
Si Si2 0.666064 0.981308 0.644076
Si Si3 0.651909 0.309430 0.514719
Si Si4 0.745092 0.600553 0.081034
Si Si5 0.885426 0.959494 0.946099
Si Si6 0.216443 0.217243 0.585103
O O1 0.530162 0.521461 0.107112
O O2 0.000000 0.500000 0.500000
O O3 0.005319 0.390706 0.309253
O O4 0.084627 0.695202 0.274063
O O5 0.620046 0.821597 0.615116
O O6 0.621529 0.123969 0.571067
O O7 0.452349 0.982954 0.869590
O O8 0.000000 0.000000 0.500000
O O9 0.485455 0.389210 0.694214
O O10 0.472054 0.331495 0.497305
O O11 0.890986 0.774001 0.940681
O O12 0.000000 0.500000 0.000000
O O13 0.000000 0.000000 0.000000
O O14 0.100168 0.052931 0.728130
#
# Coordination Sequence:
#
# PCOD8021604 Si02
#       6
#     2   2   2   2   2   2
#     4  10  23  44  70  98 141 189 240 291 348 433
#     4  11  24  43  72 105 143 186 237 294 361 421
#     4  10  22  44  65 106 135 189 241 285 351 432
#     4  10  22  44  70  99 146 190 226 297 360 410
#     4  11  24  44  72 108 144 177 246 297 348 431
#     4  12  23  46  78 103 143 190 238 298 364 413
#
# _framework density 26.250684
#
# number of rings (size 3 to 8) (size 9 to 14) (size 15 to 20)
#    0.000    1.333    3.333    4.000    0.000    6.667 
#    3.000    0.833    0.000    0.000    0.000    0.000 
#    0.000    0.000    0.000    0.000    0.000    0.000 
#
# Total GULP energy -148717.509229 kJ/mol
# GULP energy per Si atom -12393.125769 kJ/mol
# Density = 2.619094 g / cm^3
# Si number density = 26.250684 Si / 1000 Ang^3
#
#
#
# Elastic Constant Matrix: (Units=GPa)
#
#
# Indices 1 2 3 4 5 6 
#
# 1 143.0719 48.0752 33.2574 -3.7216 -56.8423 9.7806
# 2 48.0752 94.1765 32.0093 -4.2549 -21.8385 12.6714
# 3 33.2574 32.0093 85.3388 -4.9701 -32.6556 0.0668
# 4 -3.7216 -4.2549 -4.9701 42.0906 -5.8550 -6.7650
# 5 -56.8423 -21.8385 -32.6556 -5.8550 51.6996 -2.3125
# 6 9.7806 12.6714 0.0668 -6.7650 -2.3125 41.4028
#
#
#
# Elastic Compliance Matrix: (Units=1/GPa)
#
#
# Indices 1 2 3 4 5 6 
#
# 1 0.014173 -0.004129 0.002146 0.003134 0.015518 -0.000709
# 2 -0.004129 0.014333 -0.004303 -0.000181 -0.001381 -0.003511
# 3 0.002146 -0.004303 0.017306 0.003800 0.011996 0.002073
# 4 0.003134 -0.000181 0.003800 0.026371 0.008940 0.004117
# 5 0.015518 -0.001381 0.011996 0.008940 0.044441 0.000681
# 6 -0.000709 -0.003511 0.002073 0.004117 0.000681 0.026102
#
#
# Mechanical properties :
#
#
# Convention : Reuss Voigt Hill
#
# Bulk Modulus (GPa) = 30.08424 61.03009 45.55716
# Shear Modulus (GPa) = 30.05202 40.98830 35.52016
#
# Velocity S-wave (km/s) = 3.38717 3.95577 3.68246
# Velocity P-wave (km/s) = 5.17518 6.64556 5.95592
#
# Compressibility (1/GPa) = 0.03324000
#
# Stress axis : x y z
#
# Youngs Moduli (GPa) = 70.55513 69.77012 57.78421
#
# Poissons Ratio (x) = 0.28810 -0.12403
# Poissons Ratio (y) = 0.29135 0.24865
# Poissons Ratio (z) = -0.15145 0.30023
#
# Static dielectric constant tensor:
#      x y z
#    x 5.068350 0.172260 -0.776310 
#    y 0.172260 4.348450 -0.422830 
#    z -0.776310 -0.422830 5.761770 
# 
# 
# High freq. dielectric constant tensor:
#      x y z
#    x 2.063710 0.004970 -0.020570 
#    y 0.004970 2.050880 -0.000980 
#    z -0.020570 -0.000980 2.045380 
# 
# From -- ./inp_files/380202.got.cif
#   From: 2010.06.25/outbox.cif.g09.slc.cpg/sg2_191_cif.got.tgz:380202.got - 2010.06.27 13:26:56.
