data_PCOD8021641
_publ_section_title
;
Structure prediction by ZEFSAII (Michael W. Deem and Ramdas Pophale) SiO2 
 PCOD8021641
Probable space group: P -1
;
_chemical_formula_sum "Si O2"
_cell_formula_units_Z 12
_cell_length_a 10.360769
_cell_length_b 5.218431
_cell_length_c 10.261588
_cell_angle_alpha 82.650515
_cell_angle_beta 97.548503
_cell_angle_gamma 81.565317
_cell_volume 537.892103
_symmetry_space_group_name_H-M "P -1"
_symmetry_group_IT_number 2
_symmetry_cell_setting 'triclinic'
loop_
_space_group_symop_operation_xyz
x,y,z
-x,-y,-z
loop_
_atom_site_type_symbol
_atom_site_label
_atom_site_fract_x
_atom_site_fract_y
_atom_site_fract_z
Si Si1 0.482847 0.999674 0.844954
Si Si2 0.972278 0.545818 0.842718
Si Si3 0.424738 0.559248 0.704322
Si Si4 0.784216 0.088710 0.495286
Si Si5 0.028659 0.079306 0.698878
Si Si6 0.314800 0.268060 0.292806
O O1 0.402618 0.278443 0.770669
O O2 0.399655 0.773173 0.805603
O O3 0.626021 0.944179 0.796664
O O4 0.500000 0.000000 0.000000
O O5 0.051744 0.298889 0.791402
O O6 0.817122 0.561797 0.793222
O O7 0.024731 0.805660 0.787637
O O8 0.000000 0.500000 0.000000
O O9 0.320141 0.653174 0.570519
O O10 0.575738 0.547185 0.673365
O O11 0.891310 0.180765 0.599263
O O12 0.709240 0.877579 0.567650
O O13 0.852447 0.950221 0.385085
#
# Coordination Sequence:
#
# PCOD8021641 Si02
#       6
#     2   2   2   2   2   2
#     4  10  23  41  59  94 129 168 212 257 318 377
#     4  11  24  45  66  93 128 172 220 257 320 379
#     4  10  23  39  66  93 124 172 204 266 324 373
#     4  10  22  44  65  98 135 162 221 256 330 383
#     4  10  25  42  66  97 127 173 208 276 306 379
#     4   9  24  39  66  93 130 165 207 271 314 375
#
# _framework density 22.309304000000001
#
# number of rings (size 3 to 8) (size 9 to 14) (size 15 to 20)
#    1.000    1.000    0.000    1.500    4.667   13.333 
#    0.000    0.000    0.000    0.000    0.000    0.000 
#    0.000    0.000    0.000    0.000    0.000    0.000 
#
# Total GULP energy -148789.277510 kJ/mol
# GULP energy per Si atom -12399.106459 kJ/mol
# Density = 2.225853 g / cm^3
# Si number density = 22.309304 Si / 1000 Ang^3
#
#
#
# Elastic Constant Matrix: (Units=GPa)
#
#
# Indices 1 2 3 4 5 6 
#
# 1 63.9838 21.1156 43.4377 -8.7235 -12.3684 -6.6868
# 2 21.1156 139.7963 52.5841 -2.5492 -9.4770 -8.1727
# 3 43.4377 52.5841 145.2544 -8.0581 -21.7351 -14.3974
# 4 -8.7235 -2.5492 -8.0581 36.0239 -7.8496 -0.7787
# 5 -12.3684 -9.4770 -21.7351 -7.8496 26.7096 -0.5616
# 6 -6.6868 -8.1727 -14.3974 -0.7787 -0.5616 9.3161
#
#
#
# Elastic Compliance Matrix: (Units=1/GPa)
#
#
# Indices 1 2 3 4 5 6 
#
# 1 0.022116 -0.000612 -0.003513 0.006814 0.009400 0.011044
# 2 -0.000612 0.008400 -0.002391 0.000173 0.000872 0.003302
# 3 -0.003513 -0.002391 0.011682 0.003738 0.008430 0.014256
# 4 0.006814 0.000173 0.003738 0.034196 0.016617 0.014679
# 5 0.009400 0.000872 0.008430 0.016617 0.054375 0.025207
# 6 0.011044 0.003302 0.014256 0.014679 0.025207 0.142943
#
#
# Mechanical properties :
#
#
# Convention : Reuss Voigt Hill
#
# Bulk Modulus (GPa) = 34.28454 64.81216 49.54835
# Shear Modulus (GPa) = 16.86529 29.86973 23.36751
#
# Velocity S-wave (km/s) = 2.75248 3.66306 3.23992
# Velocity P-wave (km/s) = 5.05002 6.85604 6.02113
#
# Compressibility (1/GPa) = 0.02916766
#
# Stress axis : x y z
#
# Youngs Moduli (GPa) = 45.21603 119.04405 85.59996
#
# Poissons Ratio (x) = 0.07286 0.30070
# Poissons Ratio (y) = 0.02767 0.20463
# Poissons Ratio (z) = 0.15884 0.28458
#
# Static dielectric constant tensor:
#      x y z
#    x 3.964600 -0.130890 -0.011200 
#    y -0.130890 3.870510 -0.057350 
#    z -0.011200 -0.057350 3.965930 
# 
# 
# High freq. dielectric constant tensor:
#      x y z
#    x 1.872530 -0.009740 -0.001740 
#    y -0.009740 1.878890 -0.001880 
#    z -0.001740 -0.001880 1.879880 
# 
# From -- ./inp_files/229620.got.cif
#   From: 2010.06.25/outbox.cif.g09.slc.cpg/sg2_115_cif.got.tgz:229620.got - 2010.06.27 13:26:56.
