data_PCOD8021406
_publ_section_title
;
Structure prediction by ZEFSAII (Michael W. Deem and Ramdas Pophale) SiO2 
 PCOD8021406
Probable space group: P -1
;
_chemical_formula_sum "Si O2"
_cell_formula_units_Z 14
_cell_length_a 9.595686
_cell_length_b 9.214544
_cell_length_c 18.083983
_cell_angle_alpha 148.282669
_cell_angle_beta 50.389761
_cell_angle_gamma 128.382115
_cell_volume 635.322929
_symmetry_space_group_name_H-M "P -1"
_symmetry_group_IT_number 2
_symmetry_cell_setting 'triclinic'
loop_
_space_group_symop_operation_xyz
x,y,z
-x,-y,-z
loop_
_atom_site_type_symbol
_atom_site_label
_atom_site_fract_x
_atom_site_fract_y
_atom_site_fract_z
Si Si1 0.696419 0.033323 0.858254
Si Si2 0.608673 0.266667 0.836103
Si Si3 0.777240 0.775927 0.397867
Si Si4 0.059826 0.626949 0.342940
Si Si5 0.601832 0.463235 0.191146
Si Si6 0.562974 0.993036 0.353620
Si Si7 0.019345 0.747986 0.658307
O O1 0.675765 0.102312 0.809635
O O2 0.545255 0.759035 0.810091
O O3 0.684160 0.304326 0.028668
O O4 0.899699 0.974257 0.773843
O O5 0.784137 0.387332 0.777188
O O6 0.461773 0.050476 0.744560
O O7 0.500000 0.500000 0.000000
O O8 0.773712 0.610747 0.249468
O O9 0.862977 0.611255 0.361978
O O10 0.893519 0.096010 0.500041
O O11 0.560745 0.781892 0.484317
O O12 0.039647 0.356512 0.284457
O O13 0.498092 0.697112 0.291577
O O14 0.771347 0.100187 0.349933
O O15 0.000000 0.500000 0.500000
#
# Coordination Sequence:
#
# PCOD8021406 Si02
#       7
#     2   2   2   2   2   2   2
#     4  11  26  43  70  99 137 180 227 278 342 402
#     4  11  24  47  70  98 139 181 226 277 340 405
#     4  10  22  43  71  97 135 180 225 281 338 393
#     4  10  25  44  70 100 138 178 228 280 341 400
#     4  11  23  44  69  98 133 182 229 279 337 400
#     4  11  24  42  72  99 136 177 232 276 341 404
#     4  12  27  44  69 106 138 175 228 283 340 404
#
# _framework density 22.036037
#
# number of rings (size 3 to 8) (size 9 to 14) (size 15 to 20)
#    0.000    1.143    1.429    3.857   12.000    2.286 
#    0.000    1.429    0.000    0.000    0.000    0.000 
#    0.000    0.000    0.000    0.000    0.000    0.000 
#
# Total GULP energy -173604.758226 kJ/mol
# GULP energy per Si atom -12400.339873 kJ/mol
# Density = 2.198588 g / cm^3
# Si number density = 22.036037 Si / 1000 Ang^3
#
#
#
# Elastic Constant Matrix: (Units=GPa)
#
#
# Indices 1 2 3 4 5 6 
#
# 1 181.5081 53.6050 56.5486 2.5357 -4.3249 -12.8173
# 2 53.6050 111.4731 34.3355 -2.2162 -6.0152 -17.1221
# 3 56.5486 34.3355 102.2469 -4.9220 3.3026 -5.3645
# 4 2.5357 -2.2162 -4.9220 19.3783 -1.5329 -2.1824
# 5 -4.3249 -6.0152 3.3026 -1.5329 47.5586 -3.3317
# 6 -12.8173 -17.1221 -5.3645 -2.1824 -3.3317 40.3306
#
#
#
# Elastic Compliance Matrix: (Units=1/GPa)
#
#
# Indices 1 2 3 4 5 6 
#
# 1 0.007353 -0.002389 -0.003334 -0.001943 0.000593 0.000823
# 2 -0.002389 0.011594 -0.002335 0.001644 0.001750 0.004086
# 3 -0.003334 -0.002335 0.012592 0.003222 -0.001391 -0.000317
# 4 -0.001943 0.001644 0.003222 0.053405 0.001777 0.003546
# 5 0.000593 0.001750 -0.001391 0.001777 0.021640 0.002630
# 6 0.000823 0.004086 -0.000317 0.003546 0.002630 0.027158
#
#
# Mechanical properties :
#
#
# Convention : Reuss Voigt Hill
#
# Bulk Modulus (GPa) = 64.84136 76.02291 70.43214
# Shear Modulus (GPa) = 32.25849 38.16942 35.21396
#
# Velocity S-wave (km/s) = 3.83024 4.16641 4.00186
# Velocity P-wave (km/s) = 7.00357 7.59734 7.30649
#
# Compressibility (1/GPa) = 0.01542225
#
# Stress axis : x y z
#
# Youngs Moduli (GPa) = 135.99791 86.25447 79.41837
#
# Poissons Ratio (x) = 0.20609 0.26477
# Poissons Ratio (y) = 0.32494 0.18543
# Poissons Ratio (z) = 0.45339 0.20139
#
# Static dielectric constant tensor:
#      x y z
#    x 4.230400 -0.339390 0.029500 
#    y -0.339390 3.735600 -0.111500 
#    z 0.029500 -0.111500 4.122910 
# 
# 
# High freq. dielectric constant tensor:
#      x y z
#    x 1.892500 -0.012470 0.001270 
#    y -0.012470 1.855270 -0.006650 
#    z 0.001270 -0.006650 1.867850 
# 
# From -- ./inp_files/217823.got.cif
#   From: 2010.06.25/outbox.cif.g09.slc.cpg/sg2_109_cif.got.tgz:217823.got - 2010.06.27 13:26:56.
