data_PCOD8021543
_publ_section_title
;
Structure prediction by ZEFSAII (Michael W. Deem and Ramdas Pophale) SiO2 
 PCOD8021543
Probable space group: P -1
;
_chemical_formula_sum "Si O2"
_cell_formula_units_Z 14
_cell_length_a 4.868079
_cell_length_b 13.334759
_cell_length_c 9.848074
_cell_angle_alpha 87.646020
_cell_angle_beta 98.963674
_cell_angle_gamma 94.143833
_cell_volume 629.537731
_symmetry_space_group_name_H-M "P -1"
_symmetry_group_IT_number 2
_symmetry_cell_setting 'triclinic'
loop_
_space_group_symop_operation_xyz
x,y,z
-x,-y,-z
loop_
_atom_site_type_symbol
_atom_site_label
_atom_site_fract_x
_atom_site_fract_y
_atom_site_fract_z
Si Si1 0.753569 0.953372 0.388900
Si Si2 0.066544 0.487803 0.349405
Si Si3 0.985962 0.265298 0.279360
Si Si4 0.700531 0.266341 0.968207
Si Si5 0.172079 0.202813 0.812784
Si Si6 0.499829 0.851515 0.620566
Si Si7 0.436607 0.403283 0.761756
O O1 0.880096 0.898465 0.272926
O O2 0.555230 0.873511 0.464108
O O3 0.572219 0.043975 0.317938
O O4 0.000000 0.000000 0.500000
O O5 0.124531 0.373753 0.323935
O O6 0.800990 0.518207 0.238022
O O7 0.000000 0.500000 0.500000
O O8 0.347915 0.556429 0.338831
O O9 0.764975 0.228664 0.380342
O O10 0.228323 0.189198 0.286321
O O11 0.830329 0.268905 0.124760
O O12 0.418815 0.191891 0.944417
O O13 0.611203 0.379736 0.914316
O O14 0.895401 0.226091 0.868542
O O15 0.271910 0.296227 0.713955
#
# Coordination Sequence:
#
# PCOD8021543 Si02
#       7
#     2   2   2   2   2   2   2
#     4  11  25  45  74  99 128 173 224 266 345 401
#     4  12  26  40  65 102 132 175 218 270 331 387
#     4  12  26  44  66  97 142 171 217 280 325 381
#     4  10  23  44  67  94 134 182 222 260 327 386
#     4  10  23  42  72  94 130 170 225 275 310 396
#     4  11  26  43  68 100 132 171 218 274 341 389
#     4  10  22  44  63  95 132 176 224 257 327 387
#
# _framework density 22.238541000000001
#
# number of rings (size 3 to 8) (size 9 to 14) (size 15 to 20)
#    0.857    0.286    2.857    2.143    8.000    1.143 
#    0.000    4.286    0.000    0.000    0.000    0.000 
#    0.000    0.000    0.000    0.000    0.000    0.000 
#
# Total GULP energy -173494.607205 kJ/mol
# GULP energy per Si atom -12392.471943 kJ/mol
# Density = 2.218792 g / cm^3
# Si number density = 22.238541 Si / 1000 Ang^3
#
#
#
# Elastic Constant Matrix: (Units=GPa)
#
#
# Indices 1 2 3 4 5 6 
#
# 1 117.6114 34.3114 12.1977 -9.0451 0.7786 -21.4898
# 2 34.3114 101.7344 45.7806 -2.7588 10.7530 -24.3196
# 3 12.1977 45.7806 56.3772 6.7326 9.6695 -12.6961
# 4 -9.0451 -2.7588 6.7326 24.8571 -2.1819 5.6790
# 5 0.7786 10.7530 9.6695 -2.1819 32.0814 -6.0717
# 6 -21.4898 -24.3196 -12.6961 5.6790 -6.0717 35.8675
#
#
#
# Elastic Compliance Matrix: (Units=1/GPa)
#
#
# Indices 1 2 3 4 5 6 
#
# 1 0.010211 -0.002681 0.000382 0.002465 0.001517 0.004302
# 2 -0.002681 0.018123 -0.013191 0.003316 -0.000795 0.005353
# 3 0.000382 -0.013191 0.031290 -0.010990 -0.005156 0.003228
# 4 0.002465 0.003316 -0.010990 0.046384 0.004003 -0.006831
# 5 0.001517 -0.000795 -0.005156 0.004003 0.033918 0.003653
# 6 0.004302 0.005353 0.003228 -0.006831 0.003653 0.036930
#
#
# Mechanical properties :
#
#
# Convention : Reuss Voigt Hill
#
# Bulk Modulus (GPa) = 34.91071 51.14470 43.02771
# Shear Modulus (GPa) = 23.00082 30.79007 26.89545
#
# Velocity S-wave (km/s) = 3.21951 3.72497 3.48143
# Velocity P-wave (km/s) = 5.43624 6.44583 5.96244
#
# Compressibility (1/GPa) = 0.02864450
#
# Stress axis : x y z
#
# Youngs Moduli (GPa) = 97.93782 55.17798 31.95888
#
# Poissons Ratio (x) = 0.14792 -0.01220
# Poissons Ratio (y) = 0.26254 0.42156
# Poissons Ratio (z) = -0.03739 0.72784
#
# Static dielectric constant tensor:
#      x y z
#    x 4.327940 -0.202410 -0.057860 
#    y -0.202410 4.226400 -0.257270 
#    z -0.057860 -0.257270 3.651000 
# 
# 
# High freq. dielectric constant tensor:
#      x y z
#    x 1.902100 -0.011590 -0.003050 
#    y -0.011590 1.870590 -0.018670 
#    z -0.003050 -0.018670 1.839970 
# 
# From -- ./inp_files/133239.got.cif
#   From: 2010.06.25/outbox.cif.g09.slc.cpg/sg2_67_cif.got.tgz:133239.got - 2010.06.27 13:26:56.
