data_PCOD8021054
_publ_section_title
;
Structure prediction by ZEFSAII (Michael W. Deem and Ramdas Pophale) SiO2 
 PCOD8021054
Probable space group: P -1
;
_chemical_formula_sum "Si O2"
_cell_formula_units_Z 16
_cell_length_a 16.875103
_cell_length_b 16.385978
_cell_length_c 8.767608
_cell_angle_alpha 100.232030
_cell_angle_beta 95.613632
_cell_angle_gamma 155.539786
_cell_volume 761.618942
_symmetry_space_group_name_H-M "P -1"
_symmetry_group_IT_number 2
_symmetry_cell_setting 'triclinic'
loop_
_space_group_symop_operation_xyz
x,y,z
-x,-y,-z
loop_
_atom_site_type_symbol
_atom_site_label
_atom_site_fract_x
_atom_site_fract_y
_atom_site_fract_z
Si Si1 0.180965 0.718735 0.487193
Si Si2 0.122362 0.431590 0.748807
Si Si3 0.064227 0.818575 0.052804
Si Si4 0.632280 0.667274 0.932881
Si Si5 0.157445 0.260101 0.216492
Si Si6 0.352741 0.795128 0.060070
Si Si7 0.005338 0.583907 0.876082
Si Si8 0.404083 0.581176 0.663908
O O1 0.206169 0.670298 0.350143
O O2 0.000000 0.500000 0.500000
O O3 0.090971 0.717725 0.404211
O O4 0.437846 0.990937 0.706107
O O5 0.192359 0.434987 0.633568
O O6 0.036144 0.296258 0.835372
O O7 0.369701 0.732386 0.930895
O O8 0.348283 0.123991 0.227975
O O9 0.899023 0.726845 0.916810
O O10 0.040385 0.716234 0.898386
O O11 0.666467 0.633464 0.795173
O O12 0.456215 0.565140 0.799147
O O13 0.500000 0.500000 0.000000
O O14 0.901459 0.967782 0.132579
O O15 0.308518 0.445050 0.447217
O O16 0.084802 0.512591 0.998314
O O17 0.278780 0.809293 0.966152
#
# Coordination Sequence:
#
# PCOD8021054 Si02
#       8
#     2   2   2   2   2   2   2   2
#     4  11  24  34  58  88 117 160 213 259 308 362
#     4  10  24  41  56  91 122 162 208 254 308 360
#     4  10  23  40  61  86 126 161 199 255 307 357
#     4  10  22  43  67  92 126 159 190 244 298 359
#     4  10  23  40  63  97 121 155 204 237 300 367
#     4   9  20  39  57  79 117 158 207 255 302 359
#     4   9  20  37  58  81 112 163 204 251 307 354
#     4  11  24  39  66  93 124 158 200 248 297 365
#
# _framework density 21.007881000000001
#
# number of rings (size 3 to 8) (size 9 to 14) (size 15 to 20)
#    0.000    2.000    0.000    2.250    5.250    5.500 
#    0.000    0.000    0.000    0.000    0.000    0.000 
#    0.000    0.000    0.000    0.000    0.000    0.000 
#
# Total GULP energy -198312.107245 kJ/mol
# GULP energy per Si atom -12394.506703 kJ/mol
# Density = 2.096007 g / cm^3
# Si number density = 21.007881 Si / 1000 Ang^3
#
#
#
# Elastic Constant Matrix: (Units=GPa)
#
#
# Indices 1 2 3 4 5 6 
#
# 1 117.7253 31.5186 42.8221 9.9111 -20.0048 -5.4659
# 2 31.5186 77.5968 27.5872 -6.7601 2.6316 -15.4217
# 3 42.8221 27.5872 135.7997 17.0964 -17.7940 -3.9276
# 4 9.9111 -6.7601 17.0964 27.4222 -2.0191 0.1514
# 5 -20.0048 2.6316 -17.7940 -2.0191 32.7004 -2.3888
# 6 -5.4659 -15.4217 -3.9276 0.1514 -2.3888 26.3918
#
#
#
# Elastic Compliance Matrix: (Units=1/GPa)
#
#
# Indices 1 2 3 4 5 6 
#
# 1 0.011758 -0.004888 -0.001327 -0.004140 0.006608 0.000003
# 2 -0.004888 0.018911 -0.003803 0.008352 -0.005413 0.008934
# 3 -0.001327 -0.003803 0.009916 -0.006309 0.004458 -0.000581
# 4 -0.004140 0.008352 -0.006309 0.043665 -0.003760 0.002493
# 5 0.006608 -0.005413 0.004458 -0.003760 0.037419 0.002278
# 6 0.000003 0.008934 -0.000581 0.002493 0.002278 0.043217
#
#
# Mechanical properties :
#
#
# Convention : Reuss Voigt Hill
#
# Bulk Modulus (GPa) = 48.66380 59.44194 54.05287
# Shear Modulus (GPa) = 26.07265 32.58248 29.32756
#
# Velocity S-wave (km/s) = 3.52673 3.94250 3.74040
# Velocity P-wave (km/s) = 6.30861 7.00578 6.66632
#
# Compressibility (1/GPa) = 0.02054915
#
# Stress axis : x y z
#
# Youngs Moduli (GPa) = 85.05205 52.87846 100.84338
#
# Poissons Ratio (x) = 0.25847 0.13385
# Poissons Ratio (y) = 0.41574 0.38348
# Poissons Ratio (z) = 0.11289 0.20108
#
# Static dielectric constant tensor:
#      x y z
#    x 4.768560 0.228560 -0.137130 
#    y 0.228560 4.055910 0.438450 
#    z -0.137130 0.438450 5.416800 
# 
# 
# High freq. dielectric constant tensor:
#      x y z
#    x 1.836770 -0.004030 -0.007570 
#    y -0.004030 1.824560 -0.004780 
#    z -0.007570 -0.004780 1.823730 
# 
# From -- ./inp_files/315464.got.cif
#   From: 2010.06.25/outbox.cif.g09.slc.cpg/sg2_158_cif.got.tgz:315464.got - 2010.06.27 13:26:56.
