data_PCOD8021313
_publ_section_title
;
Structure prediction by ZEFSAII (Michael W. Deem and Ramdas Pophale) SiO2 
 PCOD8021313
Probable space group: P -1
;
_chemical_formula_sum "Si O2"
_cell_formula_units_Z 16
_cell_length_a 17.453335
_cell_length_b 15.586075
_cell_length_c 12.681386
_cell_angle_alpha 132.117253
_cell_angle_beta 148.121340
_cell_angle_gamma 25.329350
_cell_volume 704.140843
_symmetry_space_group_name_H-M "P -1"
_symmetry_group_IT_number 2
_symmetry_cell_setting 'triclinic'
loop_
_space_group_symop_operation_xyz
x,y,z
-x,-y,-z
loop_
_atom_site_type_symbol
_atom_site_label
_atom_site_fract_x
_atom_site_fract_y
_atom_site_fract_z
Si Si1 0.046647 0.478240 0.276794
Si Si2 0.203655 0.173266 0.071302
Si Si3 0.409722 0.423213 0.565799
Si Si4 0.621143 0.940243 0.204599
Si Si5 0.767038 0.293815 0.573605
Si Si6 0.696938 0.704967 0.368505
Si Si7 0.825304 0.048388 0.575249
Si Si8 0.382840 0.699713 0.060679
O O1 0.995972 0.401150 0.079879
O O2 0.145998 0.521971 0.362678
O O3 0.271469 0.280319 0.460141
O O4 0.783237 0.708024 0.225412
O O5 0.349416 0.146958 0.127903
O O6 0.473049 0.946951 0.263411
O O7 0.027872 0.187443 0.834566
O O8 0.298358 0.625052 0.558225
O O9 0.555358 0.262967 0.504851
O O10 0.603223 0.301498 0.795780
O O11 0.825926 0.912112 0.432938
O O12 0.500000 0.000000 0.000000
O O13 0.500000 0.500000 0.500000
O O14 0.837696 0.110404 0.528597
O O15 0.000000 0.500000 0.500000
O O16 0.572115 0.661356 0.186959
O O17 0.069941 0.920457 0.834812
O O18 0.500000 0.500000 0.000000
#
# Coordination Sequence:
#
# PCOD8021313 Si02
#       8
#     2   2   2   2   2   2   2   2
#     4  11  24  43  72 102 143 185 241 294 356 428
#     4  12  24  47  73 102 145 188 235 301 360 430
#     4  10  22  43  70 102 138 191 237 286 365 424
#     4  12  27  44  73 106 140 193 245 291 364 429
#     4  10  24  44  72 105 142 183 238 296 364 427
#     4  11  23  46  68 107 143 185 244 294 360 427
#     4  11  22  47  69 103 146 183 241 300 352 432
#     4  11  24  43  70 100 143 189 236 293 356 428
#
# _framework density 22.722728
#
# number of rings (size 3 to 8) (size 9 to 14) (size 15 to 20)
#    0.000    1.000    3.750    3.000    3.500    1.000 
#    6.750    1.875    0.000    0.000    0.000    0.000 
#    0.000    0.000    0.000    0.000    0.000    0.000 
#
# Total GULP energy -198210.678252 kJ/mol
# GULP energy per Si atom -12388.167391 kJ/mol
# Density = 2.267101 g / cm^3
# Si number density = 22.722728 Si / 1000 Ang^3
#
#
#
# Elastic Constant Matrix: (Units=GPa)
#
#
# Indices 1 2 3 4 5 6 
#
# 1 92.5265 22.5316 35.4286 4.4472 -0.4616 13.7711
# 2 22.5316 101.2277 25.9639 11.1848 -3.7392 3.8830
# 3 35.4286 25.9639 112.5420 -0.4593 -0.2111 9.4434
# 4 4.4472 11.1848 -0.4593 39.6347 5.2968 -0.4701
# 5 -0.4616 -3.7392 -0.2111 5.2968 36.2251 -10.7702
# 6 13.7711 3.8830 9.4434 -0.4701 -10.7702 24.0144
#
#
#
# Elastic Compliance Matrix: (Units=1/GPa)
#
#
# Indices 1 2 3 4 5 6 
#
# 1 0.013612 -0.001904 -0.003253 -0.000839 -0.002046 -0.007153
# 2 -0.001904 0.011224 -0.002072 -0.003215 0.001847 0.000857
# 3 -0.003253 -0.002072 0.010594 0.001189 -0.001090 -0.002432
# 4 -0.000839 -0.003215 0.001189 0.026842 -0.004553 -0.000983
# 5 -0.002046 0.001847 -0.001090 -0.004553 0.033220 0.016113
# 6 -0.007153 0.000857 -0.002432 -0.000983 0.016113 0.053768
#
#
# Mechanical properties :
#
#
# Convention : Reuss Voigt Hill
#
# Bulk Modulus (GPa) = 47.67933 52.68270 50.18102
# Shear Modulus (GPa) = 29.28969 34.79964 32.04467
#
# Velocity S-wave (km/s) = 3.59417 3.91767 3.75940
# Velocity P-wave (km/s) = 6.18488 6.61056 6.40126
#
# Compressibility (1/GPa) = 0.02097345
#
# Stress axis : x y z
#
# Youngs Moduli (GPa) = 73.46714 89.09153 94.38978
#
# Poissons Ratio (x) = 0.16962 0.30703
# Poissons Ratio (y) = 0.13987 0.19555
# Poissons Ratio (z) = 0.23897 0.18457
#
# Static dielectric constant tensor:
#      x y z
#    x 5.322990 6.582680 -2.152170 
#    y 6.582680 38.509320 -14.770850 
#    z -2.152170 -14.770850 9.546260 
# 
# 
# High freq. dielectric constant tensor:
#      x y z
#    x 1.905900 0.009510 -0.005230 
#    y 0.009510 1.896790 -0.015460 
#    z -0.005230 -0.015460 1.898000 
# 
# From -- ./inp_files/466133.got.cif
#   From: 2010.06.25/outbox.cif.g09.slc.cpg/sg2_234_cif.got.tgz:466133.got - 2010.06.27 13:26:56.
