data_PCOD8021010
_publ_section_title
;
Structure prediction by ZEFSAII (Michael W. Deem and Ramdas Pophale) SiO2 
 PCOD8021010
Probable space group: P -1
;
_chemical_formula_sum "Si O2"
_cell_formula_units_Z 16
_cell_length_a 11.475874
_cell_length_b 12.072334
_cell_length_c 14.647274
_cell_angle_alpha 149.459218
_cell_angle_beta 119.049591
_cell_angle_gamma 81.366355
_cell_volume 718.781939
_symmetry_space_group_name_H-M "P -1"
_symmetry_group_IT_number 2
_symmetry_cell_setting 'triclinic'
loop_
_space_group_symop_operation_xyz
x,y,z
-x,-y,-z
loop_
_atom_site_type_symbol
_atom_site_label
_atom_site_fract_x
_atom_site_fract_y
_atom_site_fract_z
Si Si1 0.291559 0.809215 0.116108
Si Si2 0.086981 0.411149 0.907750
Si Si3 0.888931 0.715774 0.604116
Si Si4 0.824899 0.223975 0.537069
Si Si5 0.972940 0.433147 0.299018
Si Si6 0.176449 0.295411 0.038191
Si Si7 0.458408 0.403956 0.635429
Si Si8 0.508219 0.370501 0.001271
O O1 0.340486 0.648802 0.961267
O O2 0.437987 0.128006 0.410916
O O3 0.240395 0.680437 0.106299
O O4 0.143017 0.771038 0.972874
O O5 0.954855 0.205770 0.633681
O O6 0.149579 0.279904 0.905811
O O7 0.000000 0.500000 0.000000
O O8 0.876388 0.492737 0.375768
O O9 0.700654 0.620198 0.481252
O O10 0.954943 0.707290 0.722162
O O11 0.020185 0.017813 0.826705
O O12 0.812723 0.453941 0.737333
O O13 0.879557 0.287066 0.496322
O O14 0.652971 0.933234 0.263512
O O15 0.357565 0.352585 0.163237
O O16 0.457870 0.432638 0.763995
O O17 0.500000 0.500000 0.000000
#
# Coordination Sequence:
#
# PCOD8021010 Si02
#       8
#     2   2   2   2   2   2   2   2
#     4  11  23  44  67  98 140 177 228 279 341 407
#     4   9  20  37  67  94 130 182 217 280 335 403
#     4  11  24  45  72 101 135 181 234 286 349 401
#     4  10  22  43  66  96 139 179 228 284 339 407
#     4  10  23  47  70  96 138 178 230 294 336 412
#     4  11  23  41  67 102 138 178 231 281 341 412
#     4  12  25  43  69 102 140 182 230 283 345 408
#     4  12  26  40  65 105 139 180 227 276 342 409
#
# _framework density 22.259879999999999
#
# number of rings (size 3 to 8) (size 9 to 14) (size 15 to 20)
#    0.000    1.250    2.500    3.750    5.250    3.000 
#    2.250    6.250    0.000    0.000    0.000    0.000 
#    0.000    0.000    0.000    0.000    0.000    0.000 
#
# Total GULP energy -198324.241119 kJ/mol
# GULP energy per Si atom -12395.265070 kJ/mol
# Density = 2.220922 g / cm^3
# Si number density = 22.259880 Si / 1000 Ang^3
#
#
#
# Elastic Constant Matrix: (Units=GPa)
#
#
# Indices 1 2 3 4 5 6 
#
# 1 93.7257 24.9402 15.5615 -9.7241 19.6311 -14.5002
# 2 24.9402 143.9857 37.7438 -10.2715 13.9721 -4.3414
# 3 15.5615 37.7438 76.8542 -5.5864 12.2542 -5.9447
# 4 -9.7241 -10.2715 -5.5864 16.8790 2.7676 1.3425
# 5 19.6311 13.9721 12.2542 2.7676 40.2021 -5.0067
# 6 -14.5002 -4.3414 -5.9447 1.3425 -5.0067 33.1534
#
#
#
# Elastic Compliance Matrix: (Units=1/GPa)
#
#
# Indices 1 2 3 4 5 6 
#
# 1 0.013840 -0.000984 -0.000389 0.007909 -0.006270 0.004587
# 2 -0.000984 0.008436 -0.003426 0.003740 -0.001708 -0.000350
# 3 -0.000389 -0.003426 0.015682 0.003322 -0.003436 0.001539
# 4 0.007909 0.003740 0.003322 0.068957 -0.010908 0.000105
# 5 -0.006270 -0.001708 -0.003436 -0.010908 0.030511 0.001467
# 6 0.004587 -0.000350 0.001539 0.000105 0.001467 0.032617
#
#
# Mechanical properties :
#
#
# Convention : Reuss Voigt Hill
#
# Bulk Modulus (GPa) = 35.26486 52.33965 43.80226
# Shear Modulus (GPa) = 26.44186 33.80156 30.12171
#
# Velocity S-wave (km/s) = 3.45029 3.90102 3.68256
# Velocity P-wave (km/s) = 5.63466 6.62228 6.14833
#
# Compressibility (1/GPa) = 0.02835684
#
# Stress axis : x y z
#
# Youngs Moduli (GPa) = 72.25687 118.54217 63.76879
#
# Poissons Ratio (x) = 0.11666 0.02483
# Poissons Ratio (y) = 0.07111 0.21850
# Poissons Ratio (z) = 0.02814 0.40618
#
# Static dielectric constant tensor:
#      x y z
#    x 4.283820 -0.009640 0.109570 
#    y -0.009640 4.469320 0.075870 
#    z 0.109570 0.075870 4.288190 
# 
# 
# High freq. dielectric constant tensor:
#      x y z
#    x 1.892870 0.000450 0.000520 
#    y 0.000450 1.863280 -0.011100 
#    z 0.000520 -0.011100 1.875040 
# 
# From -- ./inp_files/398839.got.cif
#   From: 2010.06.25/outbox.cif.g09.slc.cpg/sg2_200_cif.got.tgz:398839.got - 2010.06.27 13:26:56.
