data_PCOD8021148
_publ_section_title
;
Structure prediction by ZEFSAII (Michael W. Deem and Ramdas Pophale) SiO2 
 PCOD8021148
Probable space group: P -1
;
_chemical_formula_sum "Si O2"
_cell_formula_units_Z 16
_cell_length_a 11.241831
_cell_length_b 16.079786
_cell_length_c 8.213835
_cell_angle_alpha 101.908841
_cell_angle_beta 140.099210
_cell_angle_gamma 58.267985
_cell_volume 755.331041
_symmetry_space_group_name_H-M "P -1"
_symmetry_group_IT_number 2
_symmetry_cell_setting 'triclinic'
loop_
_space_group_symop_operation_xyz
x,y,z
-x,-y,-z
loop_
_atom_site_type_symbol
_atom_site_label
_atom_site_fract_x
_atom_site_fract_y
_atom_site_fract_z
Si Si1 0.493821 0.465447 0.756121
Si Si2 0.138104 0.107758 0.585419
Si Si3 0.309138 0.724359 0.330008
Si Si4 0.863773 0.093986 0.020666
Si Si5 0.069531 0.701993 0.344113
Si Si6 0.257964 0.455730 0.798915
Si Si7 0.580272 0.081454 0.971209
Si Si8 0.604026 0.732938 0.905532
O O1 0.555594 0.396552 0.632201
O O2 0.289556 0.585309 0.556034
O O3 0.411070 0.418621 0.782601
O O4 0.716545 0.458903 0.050719
O O5 0.024122 0.071269 0.332214
O O6 0.956976 0.227511 0.501777
O O7 0.229552 0.035654 0.813452
O O8 0.343055 0.096885 0.697018
O O9 0.099519 0.749711 0.232066
O O10 0.474056 0.743005 0.608901
O O11 0.214961 0.798373 0.103935
O O12 0.649612 0.101192 0.876853
O O13 0.000000 0.000000 0.000000
O O14 0.845399 0.705238 0.090747
O O15 0.000000 0.500000 0.500000
O O16 0.363938 0.357864 0.987966
O O17 0.548097 0.160125 0.110286
#
# Coordination Sequence:
#
# PCOD8021148 Si02
#       8
#     2   2   2   2   2   2   2   2
#     4  11  25  40  64  91 126 164 209 259 312 364
#     4  10  23  42  68  91 122 164 209 258 308 368
#     4  12  26  40  60  93 133 165 199 260 312 372
#     4  12  25  40  65  95 126 162 205 256 316 372
#     4  11  23  42  64  90 125 168 209 253 311 369
#     4  11  23  41  65  89 119 164 213 259 304 364
#     4  10  22  43  68  93 121 162 211 258 307 368
#     4  11  23  41  66  91 124 165 212 254 311 371
#
# _framework density 21.182765
#
# number of rings (size 3 to 8) (size 9 to 14) (size 15 to 20)
#    0.000    1.000    2.500    3.750    3.500    3.000 
#    0.000    0.000    0.000    0.000    0.000    0.000 
#    0.000    0.000    0.000    0.000    0.000    0.000 
#
# Total GULP energy -198459.770886 kJ/mol
# GULP energy per Si atom -12403.735680 kJ/mol
# Density = 2.113455 g / cm^3
# Si number density = 21.182765 Si / 1000 Ang^3
#
#
#
# Elastic Constant Matrix: (Units=GPa)
#
#
# Indices 1 2 3 4 5 6 
#
# 1 150.7317 36.3287 42.8295 1.7816 12.1855 20.1443
# 2 36.3287 91.8279 25.0497 -2.1451 14.2080 -7.1990
# 3 42.8295 25.0497 51.0157 1.5537 11.2755 -4.6972
# 4 1.7816 -2.1451 1.5537 35.9716 8.5432 -0.4213
# 5 12.1855 14.2080 11.2755 8.5432 28.0914 -0.3420
# 6 20.1443 -7.1990 -4.6972 -0.4213 -0.3420 37.2346
#
#
#
# Elastic Compliance Matrix: (Units=1/GPa)
#
#
# Indices 1 2 3 4 5 6 
#
# 1 0.010569 -0.002500 -0.008312 -0.000411 0.000053 -0.007254
# 2 -0.002500 0.013946 -0.003312 0.002406 -0.005327 0.003609
# 3 -0.008312 -0.003312 0.030448 0.000663 -0.007049 0.007641
# 4 -0.000411 0.002406 0.000663 0.030453 -0.010554 0.001019
# 5 0.000053 -0.005327 -0.007049 -0.010554 0.044288 -0.001661
# 6 -0.007254 0.003609 0.007641 0.001019 -0.001661 0.032439
#
#
# Mechanical properties :
#
#
# Convention : Reuss Voigt Hill
#
# Bulk Modulus (GPa) = 37.43469 55.77676 46.60572
# Shear Modulus (GPa) = 25.08808 32.88400 28.98604
#
# Velocity S-wave (km/s) = 3.44519 3.94432 3.70317
# Velocity P-wave (km/s) = 5.79106 6.86527 6.35092
#
# Compressibility (1/GPa) = 0.02671319
#
# Stress axis : x y z
#
# Youngs Moduli (GPa) = 94.61803 71.70486 32.84282
#
# Poissons Ratio (x) = 0.17928 0.27300
# Poissons Ratio (y) = 0.23656 0.10878
# Poissons Ratio (z) = 0.78650 0.23751
#
# Static dielectric constant tensor:
#      x y z
#    x 4.108090 0.191270 0.107450 
#    y 0.191270 3.984310 0.051430 
#    z 0.107450 0.051430 3.758680 
# 
# 
# High freq. dielectric constant tensor:
#      x y z
#    x 1.845240 0.011680 0.006380 
#    y 0.011680 1.841840 0.001670 
#    z 0.006380 0.001670 1.823110 
# 
# From -- ./inp_files/273519.got.cif
#   From: 2010.06.25/outbox.cif.g09.slc.cpg/sg2_137_cif.got.tgz:273519.got - 2010.06.27 13:26:56.
