data_PCOD8021712
_publ_section_title
;
Structure prediction by ZEFSAII (Michael W. Deem and Ramdas Pophale) SiO2 
 PCOD8021712
Probable space group: P -1
;
_chemical_formula_sum "Si O2"
_cell_formula_units_Z 16
_cell_length_a 11.000503
_cell_length_b 8.937379
_cell_length_c 8.891996
_cell_angle_alpha 113.889921
_cell_angle_beta 63.397009
_cell_angle_gamma 118.656324
_cell_volume 665.457888
_symmetry_space_group_name_H-M "P -1"
_symmetry_group_IT_number 2
_symmetry_cell_setting 'triclinic'
loop_
_space_group_symop_operation_xyz
x,y,z
-x,-y,-z
loop_
_atom_site_type_symbol
_atom_site_label
_atom_site_fract_x
_atom_site_fract_y
_atom_site_fract_z
Si Si1 0.818365 0.044094 0.609095
Si Si2 0.065905 0.230883 0.031454
Si Si3 0.601915 0.337398 0.525908
Si Si4 0.446925 0.815471 0.186473
Si Si5 0.717845 0.433971 0.068042
Si Si6 0.267294 0.849712 0.832396
Si Si7 0.018798 0.039692 0.261556
Si Si8 0.323241 0.337497 0.551144
O O1 0.681380 0.104360 0.704348
O O2 0.944917 0.142760 0.457491
O O3 0.876991 0.049194 0.748512
O O4 0.799880 0.849283 0.480749
O O5 0.889587 0.141836 0.102477
O O6 0.117918 0.185647 0.146761
O O7 0.137451 0.441014 0.051996
O O8 0.102522 0.122887 0.829607
O O9 0.545783 0.281301 0.701676
O O10 0.694270 0.221453 0.375244
O O11 0.472488 0.297817 0.457480
O O12 0.690018 0.546623 0.539362
O O13 0.604131 0.963906 0.124747
O O14 0.411816 0.665942 0.017249
O O15 0.754517 0.286539 0.075762
O O16 0.674297 0.562482 0.252846
#
# Coordination Sequence:
#
# PCOD8021712 Si02
#       8
#     2   2   2   2   2   2   2   2
#     4  11  22  44  69  97 132 175 224 277 328 394
#     4  11  23  44  65  99 134 179 218 274 329 400
#     4  10  23  41  68  98 128 179 220 274 329 395
#     4  12  25  42  72 103 132 170 228 276 330 394
#     4  11  25  43  65  98 138 178 216 275 334 392
#     4  11  23  42  68  96 137 175 217 270 340 393
#     4  10  24  40  69  95 131 179 227 268 330 394
#     4  10  22  44  67  91 140 174 218 274 335 389
#
# _framework density 24.043596000000001
#
# number of rings (size 3 to 8) (size 9 to 14) (size 15 to 20)
#    0.000    1.250    2.500    2.625    3.500    0.500 
#    2.250    1.250    0.000    0.000    0.000    0.000 
#    0.000    0.000    0.000    0.000    0.000    0.000 
#
# Total GULP energy -198237.492782 kJ/mol
# GULP energy per Si atom -12389.843299 kJ/mol
# Density = 2.398887 g / cm^3
# Si number density = 24.043596 Si / 1000 Ang^3
#
#
#
# Elastic Constant Matrix: (Units=GPa)
#
#
# Indices 1 2 3 4 5 6 
#
# 1 71.1196 25.4460 20.2064 -12.7901 3.3468 -2.3593
# 2 25.4460 135.8381 49.5958 -14.3629 21.6071 -0.0731
# 3 20.2064 49.5958 73.7280 -15.6667 20.5107 -4.9336
# 4 -12.7901 -14.3629 -15.6667 31.0540 -4.0665 5.2074
# 5 3.3468 21.6071 20.5107 -4.0665 41.3840 -6.9300
# 6 -2.3593 -0.0731 -4.9336 5.2074 -6.9300 27.9841
#
#
#
# Elastic Compliance Matrix: (Units=1/GPa)
#
#
# Indices 1 2 3 4 5 6 
#
# 1 0.016238 -0.001829 -0.002612 0.004648 0.001460 0.000400
# 2 -0.001829 0.010282 -0.005549 0.001185 -0.002687 -0.001992
# 3 -0.002612 -0.005549 0.021208 0.006061 -0.006686 0.000721
# 4 0.004648 0.001185 0.006061 0.038572 -0.001215 -0.006015
# 5 0.001460 -0.002687 -0.006686 -0.001215 0.029736 0.006527
# 6 0.000400 -0.001992 0.000721 -0.006015 0.006527 0.038626
#
#
# Mechanical properties :
#
#
# Convention : Reuss Voigt Hill
#
# Bulk Modulus (GPa) = 36.03770 52.35354 44.19562
# Shear Modulus (GPa) = 27.19005 32.44694 29.81850
#
# Velocity S-wave (km/s) = 3.36648 3.67755 3.52545
# Velocity P-wave (km/s) = 5.48926 6.31301 5.91549
#
# Compressibility (1/GPa) = 0.02774872
#
# Stress axis : x y z
#
# Youngs Moduli (GPa) = 61.58517 97.25703 47.15141
#
# Poissons Ratio (x) = 0.17785 0.12314
# Poissons Ratio (y) = 0.11262 0.26166
# Poissons Ratio (z) = 0.16084 0.53971
#
# Static dielectric constant tensor:
#      x y z
#    x 4.094090 -0.007600 0.168100 
#    y -0.007600 4.480570 -0.164870 
#    z 0.168100 -0.164870 4.405790 
# 
# 
# High freq. dielectric constant tensor:
#      x y z
#    x 1.939060 -0.009170 0.006230 
#    y -0.009170 1.956540 -0.014440 
#    z 0.006230 -0.014440 1.962640 
# 
# From -- ./inp_files/199508.got.cif
#   From: 2010.06.25/outbox.cif.g09.slc.cpg/sg2_100_cif.got.tgz:199508.got - 2010.06.27 13:26:56.
