data_PCOD8021753
_publ_section_title
;
Structure prediction by ZEFSAII (Michael W. Deem and Ramdas Pophale) SiO2 
 PCOD8021753
Probable space group: P -1
;
_chemical_formula_sum "Si O2"
_cell_formula_units_Z 16
_cell_length_a 11.542215
_cell_length_b 8.413237
_cell_length_c 9.142635
_cell_angle_alpha 96.023754
_cell_angle_beta 53.755538
_cell_angle_gamma 85.144645
_cell_volume 700.062795
_symmetry_space_group_name_H-M "P -1"
_symmetry_group_IT_number 2
_symmetry_cell_setting 'triclinic'
loop_
_space_group_symop_operation_xyz
x,y,z
-x,-y,-z
loop_
_atom_site_type_symbol
_atom_site_label
_atom_site_fract_x
_atom_site_fract_y
_atom_site_fract_z
Si Si1 0.267125 0.773317 0.686253
Si Si2 0.267534 0.342101 0.961192
Si Si3 0.574858 0.814591 0.446498
Si Si4 0.259363 0.713942 0.008432
Si Si5 0.996968 0.739870 0.415872
Si Si6 0.472985 0.833731 0.068245
Si Si7 0.950744 0.394502 0.325117
Si Si8 0.260344 0.017580 0.468907
O O1 0.444256 0.710397 0.539427
O O2 0.231038 0.814248 0.887645
O O3 0.183878 0.630376 0.680117
O O4 0.213110 0.935134 0.645339
O O5 0.311082 0.241340 0.772743
O O6 0.277918 0.525946 0.937603
O O7 0.374666 0.276281 0.008425
O O8 0.103797 0.325818 0.124994
O O9 0.664544 0.825714 0.530957
O O10 0.500000 0.000000 0.500000
O O11 0.406566 0.739244 0.980961
O O12 0.125244 0.775732 0.220665
O O13 0.058665 0.707278 0.529589
O O14 0.876819 0.905137 0.520749
O O15 0.932539 0.585207 0.390921
O O16 0.365586 0.873365 0.291105
O O17 0.500000 0.000000 0.000000
#
# Coordination Sequence:
#
# PCOD8021753 Si02
#       8
#     2   2   2   2   2   2   2   2
#     4  11  24  44  64 103 131 177 221 274 331 396
#     4  11  24  45  71  99 135 177 222 281 332 399
#     4  10  22  44  67  98 138 171 221 275 336 392
#     4  11  27  42  69 102 136 177 225 274 336 399
#     4  10  24  46  67  98 135 180 221 275 334 400
#     4  12  24  44  69  98 134 176 230 275 331 396
#     4  10  24  45  70  97 135 175 227 273 335 396
#     4  11  24  44  69  93 137 181 219 276 334 398
#
# _framework density 22.855091000000002
#
# number of rings (size 3 to 8) (size 9 to 14) (size 15 to 20)
#    0.000    1.250    2.500    2.625    5.250    5.000 
#    4.500    0.000    0.000    0.000    0.000    0.000 
#    0.000    0.000    0.000    0.000    0.000    0.000 
#
# Total GULP energy -198405.103872 kJ/mol
# GULP energy per Si atom -12400.318992 kJ/mol
# Density = 2.280307 g / cm^3
# Si number density = 22.855091 Si / 1000 Ang^3
#
#
#
# Elastic Constant Matrix: (Units=GPa)
#
#
# Indices 1 2 3 4 5 6 
#
# 1 106.3865 16.0854 22.4321 -8.0938 14.6410 18.4832
# 2 16.0854 48.9293 29.0218 -7.3387 -6.0278 -4.3333
# 3 22.4321 29.0218 128.9012 -9.4040 8.8938 3.0524
# 4 -8.0938 -7.3387 -9.4040 38.6783 -1.7564 2.3892
# 5 14.6410 -6.0278 8.8938 -1.7564 31.7456 4.8550
# 6 18.4832 -4.3333 3.0524 2.3892 4.8550 42.5635
#
#
#
# Elastic Compliance Matrix: (Units=1/GPa)
#
#
# Indices 1 2 3 4 5 6 
#
# 1 0.011922 -0.004525 -0.000449 0.001597 -0.005366 -0.005083
# 2 -0.004525 0.027199 -0.005799 0.002938 0.008423 0.004024
# 3 -0.000449 -0.005799 0.009465 0.001000 -0.003376 -0.000745
# 4 0.001597 0.002938 0.001000 0.027184 0.001374 -0.002149
# 5 -0.005366 0.008423 -0.003376 0.001374 0.036724 -0.000836
# 6 -0.005083 0.004024 -0.000745 -0.002149 -0.000836 0.026381
#
#
# Mechanical properties :
#
#
# Convention : Reuss Voigt Hill
#
# Bulk Modulus (GPa) = 36.97973 46.58839 41.78406
# Shear Modulus (GPa) = 29.51022 37.04264 33.27643
#
# Velocity S-wave (km/s) = 3.59721 4.03024 3.81986
# Velocity P-wave (km/s) = 5.78519 6.48734 6.14630
#
# Compressibility (1/GPa) = 0.02704184
#
# Stress axis : x y z
#
# Youngs Moduli (GPa) = 83.88197 36.76591 105.65166
#
# Poissons Ratio (x) = 0.16635 0.04742
# Poissons Ratio (y) = 0.37953 0.61262
# Poissons Ratio (z) = 0.03765 0.21319
#
# Static dielectric constant tensor:
#      x y z
#    x 4.748080 0.551170 0.107380 
#    y 0.551170 4.230100 -0.017440 
#    z 0.107380 -0.017440 4.234130 
# 
# 
# High freq. dielectric constant tensor:
#      x y z
#    x 1.916920 0.010260 0.005320 
#    y 0.010260 1.892030 -0.007680 
#    z 0.005320 -0.007680 1.903140 
# 
# From -- ./inp_files/244363.got.cif
#   From: 2010.06.25/outbox.cif.g09.slc.cpg/sg2_123_cif.got.tgz:244363.got - 2010.06.27 13:26:56.
