data_PCOD8021297
_publ_section_title
;
Structure prediction by ZEFSAII (Michael W. Deem and Ramdas Pophale) SiO2 
 PCOD8021297
Probable space group: P -1
;
_chemical_formula_sum "Si O2"
_cell_formula_units_Z 16
_cell_length_a 9.237452
_cell_length_b 18.244897
_cell_length_c 12.919645
_cell_angle_alpha 144.499746
_cell_angle_beta 142.671510
_cell_angle_gamma 37.743108
_cell_volume 700.279168
_symmetry_space_group_name_H-M "P -1"
_symmetry_group_IT_number 2
_symmetry_cell_setting 'triclinic'
loop_
_space_group_symop_operation_xyz
x,y,z
-x,-y,-z
loop_
_atom_site_type_symbol
_atom_site_label
_atom_site_fract_x
_atom_site_fract_y
_atom_site_fract_z
Si Si1 0.806643 0.763563 0.748835
Si Si2 0.098675 0.915138 0.207637
Si Si3 0.205274 0.780526 0.592929
Si Si4 0.712788 0.059004 0.453574
Si Si5 0.971316 0.591397 0.188375
Si Si6 0.513060 0.154037 0.831728
Si Si7 0.250567 0.435571 0.367090
Si Si8 0.816724 0.284894 0.279841
O O1 0.496535 0.846768 0.643140
O O2 0.877819 0.613717 0.667855
O O3 0.951946 0.740285 0.696521
O O4 0.914899 0.841853 0.982046
O O5 0.282624 0.847975 0.335636
O O6 0.269847 0.930917 0.227416
O O7 0.901828 0.060269 0.314713
O O8 0.137819 0.682447 0.362323
O O9 0.516077 0.705781 0.702178
O O10 0.052137 0.781710 0.614129
O O11 0.629213 0.937357 0.306783
O O12 0.000000 0.000000 0.500000
O O13 0.055893 0.497307 0.231188
O O14 0.676971 0.703839 0.167626
O O15 0.000000 0.500000 0.000000
O O16 0.640310 0.204388 0.055767
O O17 0.346565 0.550284 0.600040
#
# Coordination Sequence:
#
# PCOD8021297 Si02
#       8
#     2   2   2   2   2   2   2   2
#     4  11  26  45  68 100 148 180 221 286 351 414
#     4  11  25  45  69 104 135 185 232 282 344 409
#     4  11  21  40  67  96 133 170 238 279 331 409
#     4  12  26  43  69 104 139 181 225 289 351 402
#     4  11  23  39  67  98 133 177 227 284 329 401
#     4  11  23  44  71 101 136 175 236 286 337 409
#     4  11  24  43  67 101 137 183 224 282 344 410
#     4  10  22  43  70 100 130 187 229 273 348 408
#
# _framework density 22.848032
#
# number of rings (size 3 to 8) (size 9 to 14) (size 15 to 20)
#    0.000    1.000    1.250    6.000    3.500    6.000 
#    2.250    1.250    0.000    0.000    0.000    0.000 
#    0.000    0.000    0.000    0.000    0.000    0.000 
#
# Total GULP energy -198242.236154 kJ/mol
# GULP energy per Si atom -12390.139760 kJ/mol
# Density = 2.279603 g / cm^3
# Si number density = 22.848032 Si / 1000 Ang^3
#
#
#
# Elastic Constant Matrix: (Units=GPa)
#
#
# Indices 1 2 3 4 5 6 
#
# 1 65.2380 3.6412 35.1166 -1.1472 2.8149 0.8557
# 2 3.6412 101.6331 31.8874 -3.7230 -3.4705 -4.2008
# 3 35.1166 31.8874 145.8644 -5.2916 -14.3888 5.2910
# 4 -1.1472 -3.7230 -5.2916 26.7677 -3.2646 -1.3381
# 5 2.8149 -3.4705 -14.3888 -3.2646 30.9143 -0.4523
# 6 0.8557 -4.2008 5.2910 -1.3381 -0.4523 37.1176
#
#
#
# Elastic Compliance Matrix: (Units=1/GPa)
#
#
# Indices 1 2 3 4 5 6 
#
# 1 0.018101 0.000760 -0.004942 -0.000558 -0.003917 0.000305
# 2 0.000760 0.010717 -0.002534 0.001114 0.000095 0.001598
# 3 -0.004942 -0.002534 0.009165 0.001740 0.004595 -0.001361
# 4 -0.000558 0.001114 0.001740 0.038519 0.005073 0.001341
# 5 -0.003917 0.000095 0.004595 0.005073 0.035390 0.000060
# 6 0.000305 0.001598 -0.001361 0.001341 0.000060 0.027358
#
#
# Mechanical properties :
#
#
# Convention : Reuss Voigt Hill
#
# Bulk Modulus (GPa) = 40.72874 50.44732 45.58803
# Shear Modulus (GPa) = 31.08160 35.09928 33.09044
#
# Velocity S-wave (km/s) = 3.69231 3.92370 3.80976
# Velocity P-wave (km/s) = 6.00351 6.53105 6.27283
#
# Compressibility (1/GPa) = 0.02455269
#
# Stress axis : x y z
#
# Youngs Moduli (GPa) = 55.24443 93.30751 109.10871
#
# Poissons Ratio (x) = -0.07095 0.53920
# Poissons Ratio (y) = -0.04201 0.27649
# Poissons Ratio (z) = 0.27301 0.23645
#
# Static dielectric constant tensor:
#      x y z
#    x 4.117810 0.070400 -0.128140 
#    y 0.070400 4.255370 -0.103200 
#    z -0.128140 -0.103200 4.359760 
# 
# 
# High freq. dielectric constant tensor:
#      x y z
#    x 1.902120 0.000530 -0.011540 
#    y 0.000530 1.901840 -0.004770 
#    z -0.011540 -0.004770 1.912010 
# 
# From -- ./inp_files/403441.got.cif
#   From: 2010.06.25/outbox.cif.g09.slc.cpg/sg2_202_cif.got.tgz:403441.got - 2010.06.27 13:26:56.
