data_PCOD8021408
_publ_section_title
;
Structure prediction by ZEFSAII (Michael W. Deem and Ramdas Pophale) SiO2 
 PCOD8021408
Probable space group: P -1
;
_chemical_formula_sum "Si O2"
_cell_formula_units_Z 14
_cell_length_a 10.258515
_cell_length_b 18.968667
_cell_length_c 20.686216
_cell_angle_alpha 159.312000
_cell_angle_beta 155.607367
_cell_angle_gamma 33.422684
_cell_volume 583.113466
_symmetry_space_group_name_H-M "P -1"
_symmetry_group_IT_number 2
_symmetry_cell_setting 'triclinic'
loop_
_space_group_symop_operation_xyz
x,y,z
-x,-y,-z
loop_
_atom_site_type_symbol
_atom_site_label
_atom_site_fract_x
_atom_site_fract_y
_atom_site_fract_z
Si Si1 0.150665 0.163536 0.931317
Si Si2 0.119608 0.176297 0.157319
Si Si3 0.144481 0.218873 0.831419
Si Si4 0.766319 0.205182 0.530391
Si Si5 0.863768 0.116698 0.203834
Si Si6 0.667545 0.504880 0.258271
Si Si7 0.260043 0.505662 0.954028
O O1 0.022988 0.151711 0.789819
O O2 0.998204 0.344877 0.051736
O O3 0.040979 0.960656 0.748376
O O4 0.531200 0.206514 0.137998
O O5 0.451308 0.287114 0.430966
O O6 0.885264 0.345227 0.190060
O O7 0.168692 0.074265 0.022506
O O8 0.000000 0.000000 0.000000
O O9 0.847423 0.276681 0.702963
O O10 0.285738 0.035745 0.702176
O O11 0.436261 0.399711 0.119643
O O12 0.067245 0.286857 0.691708
O O13 0.120343 0.296715 0.448153
O O14 0.453907 0.578655 0.168133
O O15 0.500000 0.500000 0.000000
#
# Coordination Sequence:
#
# PCOD8021408 Si02
#       7
#     2   2   2   2   2   2   2
#     4  11  24  47  68 101 141 185 232 289 350 417
#     4  12  23  44  74 106 140 186 228 289 354 415
#     4  10  22  45  69 101 136 184 232 278 356 406
#     4  10  22  43  71  97 140 178 232 287 336 423
#     4  11  26  44  71 108 141 181 236 287 353 420
#     4  11  25  45  69 108 142 180 234 291 345 423
#     4  11  26  44  69 102 136 190 237 285 354 414
#
# _framework density 24.009050999999999
#
# number of rings (size 3 to 8) (size 9 to 14) (size 15 to 20)
#    0.000    1.143    2.857    1.714    2.000    7.429 
#    0.000    3.571    0.000    0.000    0.000    0.000 
#    0.000    0.000    0.000    0.000    0.000    0.000 
#
# Total GULP energy -173576.589115 kJ/mol
# GULP energy per Si atom -12398.327794 kJ/mol
# Density = 2.395440 g / cm^3
# Si number density = 24.009051 Si / 1000 Ang^3
#
#
#
# Elastic Constant Matrix: (Units=GPa)
#
#
# Indices 1 2 3 4 5 6 
#
# 1 117.7381 38.9470 29.5544 -5.3513 -2.2942 23.1803
# 2 38.9470 129.3646 38.8881 -4.6295 -5.7456 -4.4347
# 3 29.5544 38.8881 123.0455 -3.7872 3.8373 12.9796
# 4 -5.3513 -4.6295 -3.7872 29.9849 3.7382 1.5413
# 5 -2.2942 -5.7456 3.8373 3.7382 20.2032 7.6834
# 6 23.1803 -4.4347 12.9796 1.5413 7.6834 37.7454
#
#
#
# Elastic Compliance Matrix: (Units=1/GPa)
#
#
# Indices 1 2 3 4 5 6 
#
# 1 0.011474 -0.003235 -0.000967 0.001419 0.003278 -0.007819
# 2 -0.003235 0.009726 -0.002733 0.000205 0.001447 0.003767
# 3 -0.000967 -0.002733 0.009595 0.000989 -0.001871 -0.002686
# 4 0.001419 0.000205 0.000989 0.034559 -0.005825 -0.001413
# 5 0.003278 0.001447 -0.001871 -0.005825 0.056450 -0.012452
# 6 -0.007819 0.003767 -0.002686 -0.001413 -0.012452 0.035254
#
#
# Mechanical properties :
#
#
# Convention : Reuss Voigt Hill
#
# Bulk Modulus (GPa) = 59.08498 64.99192 62.03845
# Shear Modulus (GPa) = 28.31705 35.10392 31.71049
#
# Velocity S-wave (km/s) = 3.43801 3.82791 3.63819
# Velocity P-wave (km/s) = 6.35789 6.83123 6.59881
#
# Compressibility (1/GPa) = 0.01692477
#
# Stress axis : x y z
#
# Youngs Moduli (GPa) = 87.15108 102.81202 104.21777
#
# Poissons Ratio (x) = 0.33264 0.10080
# Poissons Ratio (y) = 0.28197 0.28483
# Poissons Ratio (z) = 0.08429 0.28099
#
# Static dielectric constant tensor:
#      x y z
#    x 4.261540 0.158450 0.051070 
#    y 0.158450 4.637650 -0.234130 
#    z 0.051070 -0.234130 4.394760 
# 
# 
# High freq. dielectric constant tensor:
#      x y z
#    x 1.943570 0.002680 0.008310 
#    y 0.002680 1.970920 -0.005470 
#    z 0.008310 -0.005470 1.943450 
# 
# From -- ./inp_files/610926.got.cif
#   From: 2010.06.25/outbox.cif.g09.slc.cpg/sg2_306_cif.got.tgz:610926.got - 2010.06.27 13:26:56.
