data_PCOD8021925
_publ_section_title
;
Structure prediction by ZEFSAII (Michael W. Deem and Ramdas Pophale) SiO2 
 PCOD8021925
Probable space group: P -1
;
_chemical_formula_sum "Si O2"
_cell_formula_units_Z 16
_cell_length_a 9.134529
_cell_length_b 20.575517
_cell_length_c 9.042309
_cell_angle_alpha 58.179854
_cell_angle_beta 45.662270
_cell_angle_gamma 39.715159
_cell_volume 776.485921
_symmetry_space_group_name_H-M "P -1"
_symmetry_group_IT_number 2
_symmetry_cell_setting 'triclinic'
loop_
_space_group_symop_operation_xyz
x,y,z
-x,-y,-z
loop_
_atom_site_type_symbol
_atom_site_label
_atom_site_fract_x
_atom_site_fract_y
_atom_site_fract_z
Si Si1 0.903929 0.101482 0.369504
Si Si2 0.771590 0.745374 0.752939
Si Si3 0.326044 0.218856 0.656562
Si Si4 0.272690 0.112232 0.588341
Si Si5 0.568419 0.558309 0.785737
Si Si6 0.136149 0.893391 0.960452
Si Si7 0.018362 0.239025 0.127095
Si Si8 0.959669 0.591066 0.565227
O O1 0.603698 0.192447 0.535881
O O2 0.909598 0.093663 0.197589
O O3 0.068102 0.137578 0.259313
O O4 0.000000 0.000000 0.500000
O O5 0.850638 0.808015 0.553960
O O6 0.450408 0.809128 0.885783
O O7 0.937576 0.636199 0.686994
O O8 0.871542 0.726737 0.872970
O O9 0.422136 0.133515 0.568242
O O10 0.121039 0.331137 0.601672
O O11 0.199112 0.205953 0.896383
O O12 0.500000 0.000000 0.500000
O O13 0.017604 0.140187 0.820011
O O14 0.294581 0.669564 0.802412
O O15 0.765309 0.564460 0.736933
O O16 0.726551 0.504125 0.583508
O O17 0.500000 0.500000 0.000000
O O18 0.000000 0.000000 0.000000
#
# Coordination Sequence:
#
# PCOD8021925 Si02
#       8
#     2   2   2   2   2   2   2   2
#     4  12  27  42  66  96 138 180 222 274 321 389
#     4  11  26  41  63  97 139 170 218 278 329 392
#     4  11  22  42  66  94 132 170 223 270 321 395
#     4  11  22  40  65  89 126 183 224 264 321 389
#     4  11  22  43  77  97 124 172 222 270 339 401
#     4  12  23  41  62  90 130 180 227 267 327 383
#     4  12  26  42  66 103 133 173 225 274 334 394
#     4  10  22  44  70  96 126 171 216 274 334 396
#
# _framework density 20.605653
#
# number of rings (size 3 to 8) (size 9 to 14) (size 15 to 20)
#    0.000    0.750    7.500    0.000    5.250    1.000 
#    0.000    0.625    0.000    0.000    0.000    0.000 
#    0.000    0.000    0.000    0.000    0.000    0.000 
#
# Total GULP energy -198334.449221 kJ/mol
# GULP energy per Si atom -12395.903076 kJ/mol
# Density = 2.055875 g / cm^3
# Si number density = 20.605653 Si / 1000 Ang^3
#
#
#
# Elastic Constant Matrix: (Units=GPa)
#
#
# Indices 1 2 3 4 5 6 
#
# 1 85.3432 22.2236 35.6591 3.3642 0.3599 13.4351
# 2 22.2236 67.8365 41.0120 6.8494 8.3198 23.1259
# 3 35.6591 41.0120 118.0546 0.7314 -21.1361 -0.0684
# 4 3.3642 6.8494 0.7314 40.8959 8.6068 -1.3622
# 5 0.3599 8.3198 -21.1361 8.6068 25.9787 -2.7089
# 6 13.4351 23.1259 -0.0684 -1.3622 -2.7089 32.3668
#
#
#
# Elastic Compliance Matrix: (Units=1/GPa)
#
#
# Indices 1 2 3 4 5 6 
#
# 1 0.015501 0.004137 -0.007689 -0.000328 -0.008745 -0.010152
# 2 0.004137 0.044764 -0.023447 -0.000853 -0.037033 -0.036885
# 3 -0.007689 -0.023447 0.024385 -0.001504 0.030296 0.022468
# 4 -0.000328 -0.000853 -0.001504 0.026724 -0.009689 0.001056
# 5 -0.008745 -0.037033 0.030296 -0.009689 0.082151 0.036621
# 6 -0.010152 -0.036885 0.022468 0.001056 0.036621 0.064621
#
#
# Mechanical properties :
#
#
# Convention : Reuss Voigt Hill
#
# Bulk Modulus (GPa) = 32.62434 52.11374 42.36904
# Shear Modulus (GPa) = 15.51061 31.33758 23.42410
#
# Velocity S-wave (km/s) = 2.74658 3.90401 3.37527
# Velocity P-wave (km/s) = 5.09169 6.75778 5.98301
#
# Compressibility (1/GPa) = 0.03065196
#
# Stress axis : x y z
#
# Youngs Moduli (GPa) = 64.51326 22.33948 41.00918
#
# Poissons Ratio (x) = -0.09241 0.31530
# Poissons Ratio (y) = -0.26687 0.96153
# Poissons Ratio (z) = 0.49602 0.52379
#
# Static dielectric constant tensor:
#      x y z
#    x 3.627320 0.254660 0.006320 
#    y 0.254660 3.739130 -0.031430 
#    z 0.006320 -0.031430 3.655570 
# 
# 
# High freq. dielectric constant tensor:
#      x y z
#    x 1.797000 0.019280 -0.014830 
#    y 0.019280 1.804480 0.009560 
#    z -0.014830 0.009560 1.825570 
# 
# From -- ./inp_files/201796.got.cif
#   From: 2010.06.25/outbox.cif.g09.slc.cpg/sg2_101_cif.got.tgz:201796.got - 2010.06.27 13:26:56.
