data_PCOD8021934
_publ_section_title
;
Structure prediction by ZEFSAII (Michael W. Deem and Ramdas Pophale) SiO2 
 PCOD8021934
Probable space group: P -1
;
_chemical_formula_sum "Si O2"
_cell_formula_units_Z 16
_cell_length_a 8.688728
_cell_length_b 16.996131
_cell_length_c 6.599847
_cell_angle_alpha 104.656392
_cell_angle_beta 101.709182
_cell_angle_gamma 51.206765
_cell_volume 733.644256
_symmetry_space_group_name_H-M "P -1"
_symmetry_group_IT_number 2
_symmetry_cell_setting 'triclinic'
loop_
_space_group_symop_operation_xyz
x,y,z
-x,-y,-z
loop_
_atom_site_type_symbol
_atom_site_label
_atom_site_fract_x
_atom_site_fract_y
_atom_site_fract_z
Si Si1 0.569659 0.903098 0.088447
Si Si2 0.849352 0.861343 0.478715
Si Si3 0.481677 0.617391 0.930645
Si Si4 0.736912 0.471331 0.249435
Si Si5 0.839641 0.731256 0.735092
Si Si6 0.776682 0.217395 0.711874
Si Si7 0.822938 0.038044 0.822268
Si Si8 0.408080 0.343953 0.414002
O O1 0.646744 0.911488 0.332045
O O2 0.383700 0.901640 0.071716
O O3 0.742021 0.802073 0.951891
O O4 0.500000 0.000000 0.000000
O O5 0.878105 0.782504 0.600209
O O6 0.024445 0.802268 0.323576
O O7 0.855641 0.944498 0.650359
O O8 0.407335 0.559192 0.761411
O O9 0.558546 0.659217 0.818967
O O10 0.665669 0.540312 0.074275
O O11 0.294761 0.713348 0.062073
O O12 0.724735 0.537632 0.475714
O O13 0.958239 0.372904 0.206491
O O14 0.699105 0.705821 0.591138
O O15 0.815283 0.111193 0.701851
O O16 0.619445 0.276398 0.531304
O O17 0.000000 0.000000 0.000000
#
# Coordination Sequence:
#
# PCOD8021934 Si02
#       8
#     2   2   2   2   2   2   2   2
#     4  12  26  46  70  99 141 185 230 281 349 410
#     4  12  27  46  71 101 143 187 232 286 345 417
#     4  10  22  44  70  98 139 175 232 287 344 410
#     4  10  23  42  67 102 135 180 230 282 346 412
#     4  12  26  43  71  99 144 181 232 282 352 410
#     4  11  25  42  69 102 137 180 237 279 350 399
#     4  12  27  46  73 102 141 183 235 292 343 412
#     4  11  24  42  70 102 138 183 227 291 337 418
#
# _framework density 21.808935999999999
#
# number of rings (size 3 to 8) (size 9 to 14) (size 15 to 20)
#    0.000    0.750    1.250    5.250    7.000    4.500 
#    0.000    0.000    0.000    0.000    0.000    0.000 
#    0.000    0.000    0.000    0.000    0.000    0.000 
#
# Total GULP energy -198513.948721 kJ/mol
# GULP energy per Si atom -12407.121795 kJ/mol
# Density = 2.175930 g / cm^3
# Si number density = 21.808936 Si / 1000 Ang^3
#
#
#
# Elastic Constant Matrix: (Units=GPa)
#
#
# Indices 1 2 3 4 5 6 
#
# 1 130.2994 49.3146 56.5102 2.4345 -12.8826 3.5304
# 2 49.3146 125.5186 54.5166 9.2263 -10.7224 -0.8802
# 3 56.5102 54.5166 112.6520 9.9843 -6.4289 0.7654
# 4 2.4345 9.2263 9.9843 33.8714 1.6483 1.2501
# 5 -12.8826 -10.7224 -6.4289 1.6483 43.4623 -1.4822
# 6 3.5304 -0.8802 0.7654 1.2501 -1.4822 46.0160
#
#
#
# Elastic Compliance Matrix: (Units=1/GPa)
#
#
# Indices 1 2 3 4 5 6 
#
# 1 0.010519 -0.002241 -0.004170 0.001019 0.001884 -0.000748
# 2 -0.002241 0.010783 -0.003858 -0.001732 0.001509 0.000538
# 3 -0.004170 -0.003858 0.013047 -0.002491 -0.000160 0.000092
# 4 0.001019 -0.001732 -0.002491 0.030774 -0.001693 -0.000960
# 5 0.001884 0.001509 -0.000160 -0.001693 0.024004 0.000706
# 6 -0.000748 0.000538 0.000092 -0.000960 0.000706 0.021847
#
#
# Mechanical properties :
#
#
# Convention : Reuss Voigt Hill
#
# Bulk Modulus (GPa) = 72.40780 76.57255 74.49018
# Shear Modulus (GPa) = 36.73378 38.54518 37.63948
#
# Velocity S-wave (km/s) = 4.10853 4.20861 4.15887
# Velocity P-wave (km/s) = 7.46858 7.66834 7.56912
#
# Compressibility (1/GPa) = 0.01381067
#
# Stress axis : x y z
#
# Youngs Moduli (GPa) = 95.06940 92.73737 76.64706
#
# Poissons Ratio (x) = 0.20780 0.31961
# Poissons Ratio (y) = 0.21303 0.29573
# Poissons Ratio (z) = 0.39643 0.35781
#
# Static dielectric constant tensor:
#      x y z
#    x 4.077390 0.045210 0.032040 
#    y 0.045210 4.122150 0.124780 
#    z 0.032040 0.124780 3.969190 
# 
# 
# High freq. dielectric constant tensor:
#      x y z
#    x 1.866450 0.001840 0.000420 
#    y 0.001840 1.872130 0.001690 
#    z 0.000420 0.001690 1.861120 
# 
# From -- ./inp_files/40028.got.cif
#   From: 2010.06.25/outbox.cif.g09.slc.cpg/sg2_21_cif.got.tgz:40028.got - 2010.06.27 13:26:56.
