data_PCOD8021285
_publ_section_title
;
Structure prediction by ZEFSAII (Michael W. Deem and Ramdas Pophale) SiO2 
 PCOD8021285
Probable space group: P -1
;
_chemical_formula_sum "Si O2"
_cell_formula_units_Z 16
_cell_length_a 11.479158
_cell_length_b 5.226282
_cell_length_c 23.965265
_cell_angle_alpha 118.914780
_cell_angle_beta 146.618168
_cell_angle_gamma 62.388450
_cell_volume 687.113928
_symmetry_space_group_name_H-M "P -1"
_symmetry_group_IT_number 2
_symmetry_cell_setting 'triclinic'
loop_
_space_group_symop_operation_xyz
x,y,z
-x,-y,-z
loop_
_atom_site_type_symbol
_atom_site_label
_atom_site_fract_x
_atom_site_fract_y
_atom_site_fract_z
Si Si1 0.415896 0.828314 0.201060
Si Si2 0.090954 0.503153 0.392831
Si Si3 0.842887 0.364030 0.754834
Si Si4 0.435877 0.134195 0.123936
Si Si5 0.405156 0.786011 0.606293
Si Si6 0.408470 0.127648 0.419160
Si Si7 0.996068 0.272040 0.924198
Si Si8 0.103275 0.105281 0.734487
O O1 0.468113 0.476820 0.181047
O O2 0.195276 0.919545 0.157570
O O3 0.391483 0.988243 0.149459
O O4 0.607134 0.952705 0.325503
O O5 0.190617 0.621990 0.503075
O O6 0.289410 0.452022 0.421575
O O7 0.918121 0.745551 0.320171
O O8 0.002403 0.197543 0.339166
O O9 0.625557 0.576018 0.680910
O O10 0.954605 0.435062 0.865321
O O11 0.009919 0.350011 0.768589
O O12 0.780132 0.036569 0.699492
O O13 0.645063 0.969866 0.160936
O O14 0.232725 0.089488 0.998677
O O15 0.405125 0.905395 0.555453
O O16 0.500000 0.000000 0.500000
O O17 0.000000 0.500000 0.000000
#
# Coordination Sequence:
#
# PCOD8021285 Si02
#       8
#     2   2   2   2   2   2   2   2
#     4  11  24  43  70  97 126 171 221 282 330 385
#     4  11  23  39  63  97 134 175 213 265 332 389
#     4  11  22  38  65 101 136 165 218 271 335 396
#     4  11  25  47  66  89 133 178 224 269 325 386
#     4  12  21  37  65  99 133 163 219 277 335 382
#     4  11  20  35  59  97 141 163 203 267 335 386
#     4  10  22  43  69  99 127 167 219 284 335 379
#     4  11  25  43  63  93 135 181 219 257 322 406
#
# _framework density 23.285803000000001
#
# number of rings (size 3 to 8) (size 9 to 14) (size 15 to 20)
#    0.000    1.000    3.750    4.500    0.000    1.500 
#    0.000    3.750    0.000    6.750    0.000    0.000 
#    0.000    0.000    0.000    0.000    0.000    0.000 
#
# Total GULP energy -198258.783323 kJ/mol
# GULP energy per Si atom -12391.173958 kJ/mol
# Density = 2.323280 g / cm^3
# Si number density = 23.285803 Si / 1000 Ang^3
#
#
#
# Elastic Constant Matrix: (Units=GPa)
#
#
# Indices 1 2 3 4 5 6 
#
# 1 53.2605 19.1648 35.7048 -12.3823 -20.9659 13.7829
# 2 19.1648 86.5669 26.1841 -16.9210 -9.9073 13.9111
# 3 35.7048 26.1841 110.7369 -20.7375 -15.0837 -5.0626
# 4 -12.3823 -16.9210 -20.7375 38.2840 0.2981 -0.1651
# 5 -20.9659 -9.9073 -15.0837 0.2981 27.6885 -7.6985
# 6 13.7829 13.9111 -5.0626 -0.1651 -7.6985 30.0948
#
#
#
# Elastic Compliance Matrix: (Units=1/GPa)
#
#
# Indices 1 2 3 4 5 6 
#
# 1 0.037636 0.000217 -0.008721 0.007330 0.019948 -0.013661
# 2 0.000217 0.014597 -0.002602 0.005067 0.002043 -0.006734
# 3 -0.008721 -0.002602 0.013783 0.003513 0.002187 0.008094
# 4 0.007330 0.005067 0.003513 0.032559 0.008135 -0.002849
# 5 0.019948 0.002043 0.002187 0.008135 0.054224 0.004203
# 6 -0.013661 -0.006734 0.008094 -0.002849 0.004203 0.045019
#
#
# Mechanical properties :
#
#
# Convention : Reuss Voigt Hill
#
# Bulk Modulus (GPa) = 22.82892 45.85240 34.34066
# Shear Modulus (GPa) = 21.31005 30.51417 25.91211
#
# Velocity S-wave (km/s) = 3.02843 3.62390 3.33946
# Velocity P-wave (km/s) = 4.69613 6.10279 5.44507
#
# Compressibility (1/GPa) = 0.04380408
#
# Stress axis : x y z
#
# Youngs Moduli (GPa) = 26.57061 68.50572 72.55129
#
# Poissons Ratio (x) = -0.01485 0.63270
# Poissons Ratio (y) = -0.00576 0.18879
# Poissons Ratio (z) = 0.23172 0.17826
#
# Static dielectric constant tensor:
#      x y z
#    x 4.222580 0.031810 0.300400 
#    y 0.031810 4.498270 0.152950 
#    z 0.300400 0.152950 4.946730 
# 
# 
# High freq. dielectric constant tensor:
#      x y z
#    x 1.899070 0.011900 -0.001950 
#    y 0.011900 1.916540 0.000460 
#    z -0.001950 0.000460 1.930010 
# 
# From -- ./inp_files/109608.got.cif
#   From: 2010.06.25/outbox.cif.g09.slc.cpg/sg2_55_cif.got.tgz:109608.got - 2010.06.27 13:26:56.
