data_PCOD8021828
_publ_section_title
;
Structure prediction by ZEFSAII (Michael W. Deem and Ramdas Pophale) SiO2 
 PCOD8021828
Probable space group: P -1
;
_chemical_formula_sum "Si O2"
_cell_formula_units_Z 16
_cell_length_a 11.279308
_cell_length_b 12.062386
_cell_length_c 11.379206
_cell_angle_alpha 68.095745
_cell_angle_beta 39.589517
_cell_angle_gamma 95.303350
_cell_volume 701.441112
_symmetry_space_group_name_H-M "P -1"
_symmetry_group_IT_number 2
_symmetry_cell_setting 'triclinic'
loop_
_space_group_symop_operation_xyz
x,y,z
-x,-y,-z
loop_
_atom_site_type_symbol
_atom_site_label
_atom_site_fract_x
_atom_site_fract_y
_atom_site_fract_z
Si Si1 0.307457 0.658021 0.553175
Si Si2 0.258933 0.860768 0.381634
Si Si3 0.841936 0.880130 0.999281
Si Si4 0.224734 0.272896 0.109779
Si Si5 0.575273 0.213533 0.942912
Si Si6 0.013473 0.170147 0.860336
Si Si7 0.573146 0.397951 0.273276
Si Si8 0.152226 0.639287 0.098307
O O1 0.301773 0.801153 0.492956
O O2 0.566276 0.718898 0.284696
O O3 0.275167 0.592122 0.735095
O O4 0.097926 0.529141 0.675660
O O5 0.328506 0.802092 0.244927
O O6 0.972089 0.772340 0.623338
O O7 0.409209 0.045069 0.199266
O O8 0.010185 0.901628 0.966489
O O9 0.929565 0.868762 0.811280
O O10 0.863246 0.033392 0.930420
O O11 0.431742 0.277005 0.006170
O O12 0.331385 0.433164 0.901332
O O13 0.794517 0.343257 0.809817
O O14 0.290088 0.293583 0.557428
O O15 0.878491 0.236481 0.960380
O O16 0.621898 0.325628 0.158465
#
# Coordination Sequence:
#
# PCOD8021828 Si02
#       8
#     2   2   2   2   2   2   2   2
#     4  11  22  47  72 103 141 178 228 285 350 409
#     4  11  25  47  70  97 136 188 233 285 335 412
#     4  10  22  44  69 101 139 184 228 281 349 406
#     4  12  24  45  72  99 138 187 226 283 350 411
#     4  11  28  47  66 100 137 189 239 277 338 405
#     4  10  24  43  67 103 143 176 227 290 342 411
#     4  11  26  44  71 111 140 175 229 285 355 418
#     4  12  25  43  71 101 141 182 226 287 342 413
#
# _framework density 22.810182999999999
#
# number of rings (size 3 to 8) (size 9 to 14) (size 15 to 20)
#    0.000    1.000    2.500    3.000    5.250    4.000 
#    0.000    2.500    0.000    0.000    0.000    0.000 
#    0.000    0.000    0.000    0.000    0.000    0.000 
#
# Total GULP energy -198350.400999 kJ/mol
# GULP energy per Si atom -12396.900062 kJ/mol
# Density = 2.275827 g / cm^3
# Si number density = 22.810183 Si / 1000 Ang^3
#
#
#
# Elastic Constant Matrix: (Units=GPa)
#
#
# Indices 1 2 3 4 5 6 
#
# 1 119.0703 46.1014 25.4605 -12.8861 1.5416 -14.3304
# 2 46.1014 106.1707 21.5104 -8.4354 -0.7637 -20.1302
# 3 25.4605 21.5104 62.9523 -10.0656 0.8229 -7.6034
# 4 -12.8861 -8.4354 -10.0656 34.8348 -12.2926 -5.9600
# 5 1.5416 -0.7637 0.8229 -12.2926 27.5350 -8.4988
# 6 -14.3304 -20.1302 -7.6034 -5.9600 -8.4988 36.6970
#
#
#
# Elastic Compliance Matrix: (Units=1/GPa)
#
#
# Indices 1 2 3 4 5 6 
#
# 1 0.010957 -0.003405 -0.002331 0.003761 0.001965 0.002994
# 2 -0.003405 0.012974 -0.001538 0.004380 0.004803 0.007292
# 3 -0.002331 -0.001538 0.018751 0.006069 0.003446 0.003915
# 4 0.003761 0.004380 0.006069 0.045054 0.025509 0.018354
# 5 0.001965 0.004803 0.003446 0.025509 0.054038 0.020773
# 6 0.002994 0.007292 0.003915 0.018354 0.020773 0.041023
#
#
# Mechanical properties :
#
#
# Convention : Reuss Voigt Hill
#
# Bulk Modulus (GPa) = 35.54206 52.70423 44.12314
# Shear Modulus (GPa) = 24.18702 32.82140 28.50421
#
# Velocity S-wave (km/s) = 3.25985 3.79739 3.53884
# Velocity P-wave (km/s) = 5.45750 6.51019 6.00695
#
# Compressibility (1/GPa) = 0.02813568
#
# Stress axis : x y z
#
# Youngs Moduli (GPa) = 91.26593 77.07686 53.32934
#
# Poissons Ratio (x) = 0.26244 0.12430
# Poissons Ratio (y) = 0.31076 0.08200
# Poissons Ratio (z) = 0.21272 0.11852
#
# Static dielectric constant tensor:
#      x y z
#    x 4.217830 -0.138000 0.052170 
#    y -0.138000 4.286740 -0.014930 
#    z 0.052170 -0.014930 4.064190 
# 
# 
# High freq. dielectric constant tensor:
#      x y z
#    x 1.903370 -0.015450 -0.000580 
#    y -0.015450 1.909010 -0.001370 
#    z -0.000580 -0.001370 1.896670 
# 
# From -- ./inp_files/427963.got.cif
#   From: 2010.06.25/outbox.cif.g09.slc.cpg/sg2_214_cif.got.tgz:427963.got - 2010.06.27 13:26:56.
