data_PCOD8021704
_publ_section_title
;
Structure prediction by ZEFSAII (Michael W. Deem and Ramdas Pophale) SiO2 
 PCOD8021704
Probable space group: P -1
;
_chemical_formula_sum "Si O2"
_cell_formula_units_Z 16
_cell_length_a 8.547663
_cell_length_b 8.324656
_cell_length_c 12.052197
_cell_angle_alpha 84.531768
_cell_angle_beta 84.409301
_cell_angle_gamma 123.115312
_cell_volume 703.439782
_symmetry_space_group_name_H-M "P -1"
_symmetry_group_IT_number 2
_symmetry_cell_setting 'triclinic'
loop_
_space_group_symop_operation_xyz
x,y,z
-x,-y,-z
loop_
_atom_site_type_symbol
_atom_site_label
_atom_site_fract_x
_atom_site_fract_y
_atom_site_fract_z
Si Si1 0.199435 0.699871 0.485867
Si Si2 0.343800 0.763542 0.230118
Si Si3 0.626608 0.166605 0.125766
Si Si4 0.213672 0.068865 0.498467
Si Si5 0.947187 0.085714 0.097553
Si Si6 0.686613 0.751345 0.286691
Si Si7 0.836600 0.487344 0.938244
Si Si8 0.419343 0.670579 0.663645
O O1 0.272151 0.776929 0.353030
O O2 0.336672 0.665043 0.548762
O O3 0.000000 0.500000 0.500000
O O4 0.198013 0.869765 0.536963
O O5 0.513477 0.734888 0.235995
O O6 0.173422 0.589958 0.180710
O O7 0.419513 0.965434 0.145525
O O8 0.780771 0.119503 0.086119
O O9 0.654044 0.245048 0.244922
O O10 0.641823 0.325958 0.027711
O O11 0.311183 0.213404 0.585632
O O12 0.350524 0.192114 0.376051
O O13 0.000000 0.000000 0.500000
O O14 0.135162 0.303904 0.092011
O O15 0.887003 0.933454 0.212603
O O16 0.000000 0.000000 0.000000
O O17 0.661413 0.548035 0.279288
O O18 0.000000 0.500000 0.000000
#
# Coordination Sequence:
#
# PCOD8021704 Si02
#       8
#     2   2   2   2   2   2   2   2
#     4  12  26  41  72 106 145 190 239 287 357 427
#     4  11  23  44  68 103 139 188 235 292 355 423
#     4  10  22  44  70 100 133 186 232 289 353 425
#     4  12  26  46  67 108 145 188 239 290 356 422
#     4  10  22  44  67 102 136 177 230 296 353 415
#     4  11  25  43  70 100 147 188 235 295 352 420
#     4  10  23  42  71  99 137 179 238 290 350 427
#     4  12  24  47  73 102 147 191 239 291 356 423
#
# _framework density 22.745374000000002
#
# number of rings (size 3 to 8) (size 9 to 14) (size 15 to 20)
#    0.000    1.000    2.500    4.125    7.000    0.000 
#    4.500    9.375    0.000    0.000    0.000    0.000 
#    0.000    0.000    0.000    0.000    0.000    0.000 
#
# Total GULP energy -198318.019665 kJ/mol
# GULP energy per Si atom -12394.876229 kJ/mol
# Density = 2.269360 g / cm^3
# Si number density = 22.745374 Si / 1000 Ang^3
#
#
#
# Elastic Constant Matrix: (Units=GPa)
#
#
# Indices 1 2 3 4 5 6 
#
# 1 80.2189 44.0893 36.2222 -0.4975 -7.8580 0.4232
# 2 44.0893 176.1567 34.7496 -13.9844 -8.3277 -16.7222
# 3 36.2222 34.7496 85.4886 -0.2871 -15.1217 -3.4150
# 4 -0.4975 -13.9844 -0.2871 59.2523 0.9410 4.6038
# 5 -7.8580 -8.3277 -15.1217 0.9410 34.6860 6.1499
# 6 0.4232 -16.7222 -3.4150 4.6038 6.1499 28.9038
#
#
#
# Elastic Compliance Matrix: (Units=1/GPa)
#
#
# Indices 1 2 3 4 5 6 
#
# 1 0.017068 -0.003408 -0.005778 -0.000469 0.001085 -0.003061
# 2 -0.003408 0.007277 -0.001419 0.001381 -0.000382 0.003953
# 3 -0.005778 -0.001419 0.015638 -0.000395 0.005165 0.000075
# 4 -0.000469 0.001381 -0.000395 0.017353 -0.000065 -0.001991
# 5 0.001085 -0.000382 0.005165 -0.000065 0.032392 -0.006508
# 6 -0.003061 0.003953 0.000075 -0.001991 -0.006508 0.038640
#
#
# Mechanical properties :
#
#
# Convention : Reuss Voigt Hill
#
# Bulk Modulus (GPa) = 53.27247 63.55406 58.41326
# Shear Modulus (GPa) = 32.08527 39.68863 35.88695
#
# Velocity S-wave (km/s) = 3.75991 4.18174 3.97642
# Velocity P-wave (km/s) = 6.50548 7.16367 6.84249
#
# Compressibility (1/GPa) = 0.01877142
#
# Stress axis : x y z
#
# Youngs Moduli (GPa) = 58.58974 137.42817 63.94786
#
# Poissons Ratio (x) = 0.46841 0.36951
# Poissons Ratio (y) = 0.19970 0.09072
# Poissons Ratio (z) = 0.33855 0.19496
#
# Static dielectric constant tensor:
#      x y z
#    x 4.282950 0.857400 -1.422980 
#    y 0.857400 6.143260 -2.466820 
#    z -1.422980 -2.466820 7.363530 
# 
# 
# High freq. dielectric constant tensor:
#      x y z
#    x 1.860770 -0.003930 -0.010890 
#    y -0.003930 1.929220 -0.011490 
#    z -0.010890 -0.011490 1.905350 
# 
# From -- ./inp_files/382288.got.cif
#   From: 2010.06.25/outbox.cif.g09.slc.cpg/sg2_192_cif.got.tgz:382288.got - 2010.06.27 13:26:56.
