data_PCOD8021253
_publ_section_title
;
Structure prediction by ZEFSAII (Michael W. Deem and Ramdas Pophale) SiO2 
 PCOD8021253
Probable space group: P -1
;
_chemical_formula_sum "Si O2"
_cell_formula_units_Z 16
_cell_length_a 17.897095
_cell_length_b 9.590219
_cell_length_c 11.585195
_cell_angle_alpha 39.902219
_cell_angle_beta 44.529872
_cell_angle_gamma 73.537895
_cell_volume 725.002933
_symmetry_space_group_name_H-M "P -1"
_symmetry_group_IT_number 2
_symmetry_cell_setting 'triclinic'
loop_
_space_group_symop_operation_xyz
x,y,z
-x,-y,-z
loop_
_atom_site_type_symbol
_atom_site_label
_atom_site_fract_x
_atom_site_fract_y
_atom_site_fract_z
Si Si1 0.508007 0.776168 0.201026
Si Si2 0.881369 0.280390 0.540117
Si Si3 0.251661 0.082761 0.281084
Si Si4 0.652244 0.761128 0.669389
Si Si5 0.338135 0.178995 0.790091
Si Si6 0.878192 0.655043 0.676466
Si Si7 0.357820 0.925923 0.707963
Si Si8 0.887027 0.744016 0.356944
O O1 0.372811 0.478086 0.548777
O O2 0.562332 0.856134 0.221564
O O3 0.608443 0.731043 0.055162
O O4 0.500000 0.000000 0.000000
O O5 0.854632 0.483388 0.492288
O O6 0.034520 0.401774 0.306045
O O7 0.831093 0.209592 0.506559
O O8 0.803703 0.006054 0.875126
O O9 0.289117 0.093671 0.365161
O O10 0.157698 0.179969 0.310937
O O11 0.746756 0.696877 0.546913
O O12 0.669045 0.004902 0.430055
O O13 0.500000 0.500000 0.000000
O O14 0.337375 0.087007 0.721704
O O15 0.945971 0.786083 0.394765
O O16 0.740791 0.386362 0.960483
O O17 0.500000 0.000000 0.500000
O O18 0.000000 0.000000 0.000000
#
# Coordination Sequence:
#
# PCOD8021253 Si02
#       8
#     2   2   2   2   2   2   2   2
#     4  10  22  43  69  94 144 179 226 288 358 413
#     4  11  23  44  72  95 137 182 229 290 350 418
#     4  10  24  45  63 102 135 176 228 283 351 419
#     4  11  25  43  68 101 142 180 230 295 352 423
#     4  10  23  40  64 105 129 177 239 283 338 429
#     4  11  23  45  67  97 140 178 230 287 345 424
#     4  12  24  40  70  97 133 181 230 282 359 413
#     4  11  24  44  70 103 136 182 241 287 348 430
#
# _framework density 22.068875999999999
#
# number of rings (size 3 to 8) (size 9 to 14) (size 15 to 20)
#    0.000    1.250    1.250    4.500    3.500    3.000 
#    0.000    5.625    0.000    0.000    0.000    0.000 
#    0.000    0.000    0.000    0.000    0.000    0.000 
#
# Total GULP energy -198276.679778 kJ/mol
# GULP energy per Si atom -12392.292486 kJ/mol
# Density = 2.201865 g / cm^3
# Si number density = 22.068876 Si / 1000 Ang^3
#
#
#
# Elastic Constant Matrix: (Units=GPa)
#
#
# Indices 1 2 3 4 5 6 
#
# 1 118.1109 50.2334 34.9050 6.1267 -3.2311 0.6031
# 2 50.2334 138.9854 41.6520 3.6468 -6.6515 5.8449
# 3 34.9050 41.6520 120.2388 -1.7698 -0.9435 1.4631
# 4 6.1267 3.6468 -1.7698 32.5385 -5.3038 0.3824
# 5 -3.2311 -6.6515 -0.9435 -5.3038 38.7333 -0.2984
# 6 0.6031 5.8449 1.4631 0.3824 -0.2984 30.1900
#
#
#
# Elastic Compliance Matrix: (Units=1/GPa)
#
#
# Indices 1 2 3 4 5 6 
#
# 1 0.010488 -0.003173 -0.001977 -0.001725 0.000050 0.000523
# 2 -0.003173 0.009140 -0.002221 -0.000335 0.001193 -0.001582
# 3 -0.001977 -0.002221 0.009676 0.001122 -0.000157 -0.000015
# 4 -0.001725 -0.000335 0.001122 0.031842 0.004184 -0.000317
# 5 0.000050 0.001193 -0.000157 0.004184 0.026595 -0.000014
# 6 0.000523 -0.001582 -0.000015 -0.000317 -0.000014 0.033424
#
#
# Mechanical properties :
#
#
# Convention : Reuss Voigt Hill
#
# Bulk Modulus (GPa) = 68.67364 70.10176 69.38770
# Shear Modulus (GPa) = 35.52105 36.99534 36.25819
#
# Velocity S-wave (km/s) = 4.01628 4.09878 4.05774
# Velocity P-wave (km/s) = 7.25898 7.36437 7.31186
#
# Compressibility (1/GPa) = 0.01456163
#
# Stress axis : x y z
#
# Youngs Moduli (GPa) = 95.34316 109.41107 103.35151
#
# Poissons Ratio (x) = 0.34713 0.20433
# Poissons Ratio (y) = 0.30249 0.22959
# Poissons Ratio (z) = 0.18850 0.24305
#
# Static dielectric constant tensor:
#      x y z
#    x 5.339550 0.182070 0.115460 
#    y 0.182070 4.143910 0.119320 
#    z 0.115460 0.119320 4.129470 
# 
# 
# High freq. dielectric constant tensor:
#      x y z
#    x 1.873090 0.010560 -0.005020 
#    y 0.010560 1.871850 0.008080 
#    z -0.005020 0.008080 1.866720 
# 
# From -- ./inp_files/402950.got.cif
#   From: 2010.06.25/outbox.cif.g09.slc.cpg/sg2_202_cif.got.tgz:402950.got - 2010.06.27 13:26:56.
