data_PCOD8021269
_publ_section_title
;
Structure prediction by ZEFSAII (Michael W. Deem and Ramdas Pophale) SiO2 
 PCOD8021269
Probable space group: P -1
;
_chemical_formula_sum "Si O2"
_cell_formula_units_Z 16
_cell_length_a 9.702691
_cell_length_b 15.396809
_cell_length_c 9.756164
_cell_angle_alpha 144.436539
_cell_angle_beta 65.938138
_cell_angle_gamma 110.186949
_cell_volume 773.770473
_symmetry_space_group_name_H-M "P -1"
_symmetry_group_IT_number 2
_symmetry_cell_setting 'triclinic'
loop_
_space_group_symop_operation_xyz
x,y,z
-x,-y,-z
loop_
_atom_site_type_symbol
_atom_site_label
_atom_site_fract_x
_atom_site_fract_y
_atom_site_fract_z
Si Si1 0.472797 0.886327 0.487510
Si Si2 0.333503 0.350818 0.752434
Si Si3 0.121483 0.632617 0.604495
Si Si4 0.546512 0.389145 0.454194
Si Si5 0.443262 0.924260 0.059936
Si Si6 0.792116 0.342171 0.706479
Si Si7 0.905837 0.112938 0.848287
Si Si8 0.979900 0.790683 0.359744
O O1 0.600491 0.763711 0.308898
O O2 0.319207 0.798000 0.405425
O O3 0.500000 0.000000 0.500000
O O4 0.456739 0.995496 0.762204
O O5 0.452547 0.390387 0.634770
O O6 0.189921 0.272174 0.639397
O O7 0.292429 0.502181 0.041798
O O8 0.279399 0.583542 0.541480
O O9 0.135479 0.668827 0.486022
O O10 0.000000 0.500000 0.500000
O O11 0.070628 0.784433 0.895332
O O12 0.500000 0.500000 0.500000
O O13 0.515765 0.244880 0.189940
O O14 0.265839 0.939349 0.178576
O O15 0.500000 0.000000 0.000000
O O16 0.921239 0.325771 0.746243
O O17 0.968015 0.210047 0.820147
O O18 0.996516 0.959144 0.630526
#
# Coordination Sequence:
#
# PCOD8021269 Si02
#       8
#     2   2   2   2   2   2   2   2
#     4  12  25  42  70 101 136 176 223 287 344 390
#     4  12  25  47  68 101 140 181 233 277 338 422
#     4  11  25  46  66 100 143 176 218 290 347 400
#     4  11  26  42  73  98 132 182 229 275 336 413
#     4  11  20  45  69  94 131 178 226 281 326 404
#     4  12  27  43  69 104 142 175 226 288 345 401
#     4  10  22  43  69  96 136 174 239 269 331 417
#     4  11  24  43  72  97 131 189 224 279 336 407
#
# _framework density 20.677966999999999
#
# number of rings (size 3 to 8) (size 9 to 14) (size 15 to 20)
#    0.000    0.750    3.750    3.000    8.750    0.500 
#    2.250    0.000    0.000    0.000    0.000    0.000 
#    0.000    0.000    0.000    0.000    0.000    0.000 
#
# Total GULP energy -198377.041088 kJ/mol
# GULP energy per Si atom -12398.565068 kJ/mol
# Density = 2.063090 g / cm^3
# Si number density = 20.677967 Si / 1000 Ang^3
#
#
#
# Elastic Constant Matrix: (Units=GPa)
#
#
# Indices 1 2 3 4 5 6 
#
# 1 97.5671 56.9089 34.4544 5.9737 4.3099 5.3664
# 2 56.9089 161.4686 63.3572 5.5923 -3.8492 -8.1983
# 3 34.4544 63.3572 154.1694 -1.2623 6.6781 -4.5542
# 4 5.9737 5.5923 -1.2623 32.2029 2.2487 0.8528
# 5 4.3099 -3.8492 6.6781 2.2487 32.8058 4.8278
# 6 5.3664 -8.1983 -4.5542 0.8528 4.8278 41.5371
#
#
#
# Elastic Compliance Matrix: (Units=1/GPa)
#
#
# Indices 1 2 3 4 5 6 
#
# 1 0.013565 -0.004403 -0.001243 -0.001624 -0.001560 -0.002543
# 2 -0.004403 0.009004 -0.002757 -0.001043 0.001998 0.001833
# 3 -0.001243 -0.002757 0.008013 0.001143 -0.001973 0.000701
# 4 -0.001624 -0.001043 0.001143 0.031746 -0.002280 -0.000258
# 5 -0.001560 0.001998 -0.001973 -0.002280 0.031964 -0.003289
# 6 -0.002543 0.001833 0.000701 -0.000258 -0.003289 0.025230
#
#
# Mechanical properties :
#
#
# Convention : Reuss Voigt Hill
#
# Bulk Modulus (GPa) = 72.59553 80.29402 76.44477
# Shear Modulus (GPa) = 35.48152 38.54146 37.01149
#
# Velocity S-wave (km/s) = 4.14685 4.32196 4.23531
# Velocity P-wave (km/s) = 7.62315 7.98879 7.80811
#
# Compressibility (1/GPa) = 0.01377495
#
# Stress axis : x y z
#
# Youngs Moduli (GPa) = 73.72023 111.06583 124.80274
#
# Poissons Ratio (x) = 0.48905 0.15511
# Poissons Ratio (y) = 0.32461 0.34408
# Poissons Ratio (z) = 0.09162 0.30621
#
# Static dielectric constant tensor:
#      x y z
#    x 3.764530 0.281860 0.258920 
#    y 0.281860 3.955140 0.195330 
#    z 0.258920 0.195330 3.872560 
# 
# 
# High freq. dielectric constant tensor:
#      x y z
#    x 1.809050 0.010860 0.005840 
#    y 0.010860 1.822630 0.004820 
#    z 0.005840 0.004820 1.825170 
# 
# From -- ./inp_files/188580.got.cif
#   From: 2010.06.25/outbox.cif.g09.slc.cpg/sg2_95_cif.got.tgz:188580.got - 2010.06.27 13:26:56.
