data_PCOD8021565
_publ_section_title
;
Structure prediction by ZEFSAII (Michael W. Deem and Ramdas Pophale) SiO2 
 PCOD8021565
Probable space group: P -1
;
_chemical_formula_sum "Si O2"
_cell_formula_units_Z 12
_cell_length_a 8.720879
_cell_length_b 11.695418
_cell_length_c 14.152970
_cell_angle_alpha 125.542815
_cell_angle_beta 137.059099
_cell_angle_gamma 32.219535
_cell_volume 521.429248
_symmetry_space_group_name_H-M "P -1"
_symmetry_group_IT_number 2
_symmetry_cell_setting 'triclinic'
loop_
_space_group_symop_operation_xyz
x,y,z
-x,-y,-z
loop_
_atom_site_type_symbol
_atom_site_label
_atom_site_fract_x
_atom_site_fract_y
_atom_site_fract_z
Si Si1 0.122995 0.268880 0.598755
Si Si2 0.861433 0.166144 0.311241
Si Si3 0.076889 0.067545 0.154439
Si Si4 0.849788 0.915161 0.305013
Si Si5 0.099044 0.355459 0.244140
Si Si6 0.060934 0.544875 0.145251
O O1 0.953488 0.245271 0.592023
O O2 0.076442 0.208003 0.449468
O O3 0.918632 0.514727 0.620416
O O4 0.518057 0.115009 0.728063
O O5 0.466178 0.382827 0.263881
O O6 0.893109 0.105071 0.186531
O O7 0.022567 0.967049 0.355987
O O8 0.919470 0.296172 0.168208
O O9 0.000000 0.000000 0.000000
O O10 0.841537 0.793068 0.165889
O O11 0.480749 0.135775 0.280739
O O12 0.910406 0.513692 0.144173
O O13 0.000000 0.500000 0.000000
#
# Coordination Sequence:
#
# PCOD8021565 Si02
#       6
#     2   2   2   2   2   2
#     4  10  22  44  64  92 125 164 207 254 308 367
#     4  11  24  39  66  95 125 163 207 254 309 368
#     4  11  26  41  63  91 126 167 208 254 310 366
#     4   9  21  40  66  94 123 159 206 256 309 362
#     4   9  22  41  64  88 129 162 204 254 307 367
#     4  10  23  38  64  94 125 161 206 254 309 365
#
# _framework density 23.013670000000001
#
# number of rings (size 3 to 8) (size 9 to 14) (size 15 to 20)
#    0.000    2.000    0.000    1.000    9.333   12.667 
#    0.000    0.000    0.000    0.000    0.000    0.000 
#    0.000    0.000    0.000    0.000    0.000    0.000 
#
# Total GULP energy -148675.573912 kJ/mol
# GULP energy per Si atom -12389.631159 kJ/mol
# Density = 2.296129 g / cm^3
# Si number density = 23.013670 Si / 1000 Ang^3
#
#
#
# Elastic Constant Matrix: (Units=GPa)
#
#
# Indices 1 2 3 4 5 6 
#
# 1 95.7723 28.7982 7.0813 13.4924 4.3449 12.1597
# 2 28.7982 134.8666 34.5558 35.0287 9.1249 17.7085
# 3 7.0813 34.5558 109.6103 26.4095 0.3608 5.4668
# 4 13.4924 35.0287 26.4095 41.7418 -3.8956 6.6201
# 5 4.3449 9.1249 0.3608 -3.8956 22.0809 11.6572
# 6 12.1597 17.7085 5.4668 6.6201 11.6572 33.4830
#
#
#
# Elastic Compliance Matrix: (Units=1/GPa)
#
#
# Indices 1 2 3 4 5 6 
#
# 1 0.011590 -0.001585 0.000449 -0.002311 -0.000568 -0.002790
# 2 -0.001585 0.010624 -0.001281 -0.007738 -0.004507 -0.001735
# 3 0.000449 -0.001281 0.010968 -0.006143 -0.000967 0.000275
# 4 -0.002311 -0.007738 -0.006143 0.037334 0.013604 -0.006183
# 5 -0.000568 -0.004507 -0.000967 0.013604 0.060827 -0.021119
# 6 -0.002790 -0.001735 0.000275 -0.006183 -0.021119 0.040327
#
#
# Mechanical properties :
#
#
# Convention : Reuss Voigt Hill
#
# Bulk Modulus (GPa) = 35.27717 53.45776 44.36747
# Shear Modulus (GPa) = 26.88836 37.44873 32.16854
#
# Velocity S-wave (km/s) = 3.42184 4.03828 3.74277
# Velocity P-wave (km/s) = 5.56544 6.70990 6.16429
#
# Compressibility (1/GPa) = 0.02834694
#
# Stress axis : x y z
#
# Youngs Moduli (GPa) = 86.27877 94.12723 91.17699
#
# Poissons Ratio (x) = 0.14919 -0.04091
# Poissons Ratio (y) = 0.13675 0.11681
# Poissons Ratio (z) = -0.03871 0.12059
#
# Static dielectric constant tensor:
#      x y z
#    x 4.676280 0.280800 0.013230 
#    y 0.280800 5.028640 0.196250 
#    z 0.013230 0.196250 3.926630 
# 
# 
# High freq. dielectric constant tensor:
#      x y z
#    x 1.904140 0.005550 -0.008210 
#    y 0.005550 1.921270 0.027070 
#    z -0.008210 0.027070 1.889970 
# 
# From -- ./inp_files/22022.got.cif
#   From: 2010.06.25/outbox.cif.g09.slc.cpg/sg2_12_cif.got.tgz:22022.got - 2010.06.27 13:26:56.
