data_PCOD8021375
_publ_section_title
;
Structure prediction by ZEFSAII (Michael W. Deem and Ramdas Pophale) SiO2 
 PCOD8021375
Probable space group: P -1
;
_chemical_formula_sum "Si O2"
_cell_formula_units_Z 14
_cell_length_a 8.380197
_cell_length_b 11.979656
_cell_length_c 15.151614
_cell_angle_alpha 152.451213
_cell_angle_beta 62.011334
_cell_angle_gamma 128.165182
_cell_volume 540.059401
_symmetry_space_group_name_H-M "P -1"
_symmetry_group_IT_number 2
_symmetry_cell_setting 'triclinic'
loop_
_space_group_symop_operation_xyz
x,y,z
-x,-y,-z
loop_
_atom_site_type_symbol
_atom_site_label
_atom_site_fract_x
_atom_site_fract_y
_atom_site_fract_z
Si Si1 0.369033 0.574343 0.481901
Si Si2 0.939067 0.270916 0.783268
Si Si3 0.962841 0.907353 0.659744
Si Si4 0.656454 0.430822 0.221931
Si Si5 0.307463 0.909213 0.874447
Si Si6 0.862416 0.498547 0.688215
Si Si7 0.283692 0.470160 0.065511
O O1 0.591343 0.601872 0.424278
O O2 0.416812 0.824920 0.710884
O O3 0.266573 0.600229 0.436917
O O4 0.226042 0.278343 0.356854
O O5 0.751564 0.274984 0.780048
O O6 0.144767 0.348475 0.727796
O O7 0.876760 0.983657 0.647593
O O8 0.000000 0.500000 0.000000
O O9 0.068151 0.731912 0.472838
O O10 0.111448 0.177271 0.866799
O O11 0.713059 0.231808 0.123572
O O12 0.452851 0.241195 0.079658
O O13 0.068897 0.802199 0.832700
O O14 0.727391 0.520262 0.818486
O O15 0.500000 0.500000 0.000000
#
# Coordination Sequence:
#
# PCOD8021375 Si02
#       7
#     2   2   2   2   2   2   2
#     4  11  25  44  72 108 143 183 239 288 353 421
#     4  10  24  47  69 104 141 183 234 290 358 413
#     4  10  24  47  70 101 149 181 231 300 345 422
#     4  11  23  43  73 102 142 182 236 294 346 420
#     4  10  22  43  71 102 140 183 238 292 348 415
#     4  11  24  47  72 104 146 188 237 289 356 415
#     4  11  25  47  71 103 140 188 237 286 355 423
#
# _framework density 25.923075000000001
#
# number of rings (size 3 to 8) (size 9 to 14) (size 15 to 20)
#    0.000    1.429    1.429    3.000   10.000    4.571 
#    0.000    0.000    0.000    0.000    0.000    0.000 
#    0.000    0.000    0.000    0.000    0.000    0.000 
#
# Total GULP energy -173560.571301 kJ/mol
# GULP energy per Si atom -12397.183664 kJ/mol
# Density = 2.586407 g / cm^3
# Si number density = 25.923075 Si / 1000 Ang^3
#
#
#
# Elastic Constant Matrix: (Units=GPa)
#
#
# Indices 1 2 3 4 5 6 
#
# 1 62.0142 61.2971 16.6301 11.5321 -18.9469 -3.1965
# 2 61.2971 150.2100 55.1180 -28.4297 -21.6146 2.0388
# 3 16.6301 55.1180 102.4392 -15.9169 -0.2837 -1.2662
# 4 11.5321 -28.4297 -15.9169 39.3887 5.4955 -10.5545
# 5 -18.9469 -21.6146 -0.2837 5.4955 48.3252 -13.8622
# 6 -3.1965 2.0388 -1.2662 -10.5545 -13.8622 35.1379
#
#
#
# Elastic Compliance Matrix: (Units=1/GPa)
#
#
# Indices 1 2 3 4 5 6 
#
# 1 0.053939 -0.027153 0.000145 -0.037026 0.013402 0.000653
# 2 -0.027153 0.023619 -0.004531 0.024107 -0.002166 0.002383
# 3 0.000145 -0.004531 0.012517 0.002182 -0.001971 0.000605
# 4 -0.037026 0.024107 0.002182 0.058192 -0.007521 0.009824
# 5 0.013402 -0.002166 -0.001971 -0.007521 0.028799 0.010376
# 6 0.000653 0.002383 0.000605 0.009824 0.010376 0.035446
#
#
# Mechanical properties :
#
#
# Convention : Reuss Voigt Hill
#
# Bulk Modulus (GPa) = 37.03983 64.52822 50.78402
# Shear Modulus (GPa) = 17.56922 36.67824 27.12373
#
# Velocity S-wave (km/s) = 2.60618 3.76558 3.23819
# Velocity P-wave (km/s) = 4.83483 6.62211 5.79776
#
# Compressibility (1/GPa) = 0.02699797
#
# Stress axis : x y z
#
# Youngs Moduli (GPa) = 18.53957 42.33900 79.88844
#
# Poissons Ratio (x) = 1.14961 -0.01160
# Poissons Ratio (y) = 0.50340 0.36199
# Poissons Ratio (z) = -0.00269 0.19184
#
# Static dielectric constant tensor:
#      x y z
#    x 5.229810 -0.339730 -0.179580 
#    y -0.339730 4.777710 0.084750 
#    z -0.179580 0.084750 5.001240 
# 
# 
# High freq. dielectric constant tensor:
#      x y z
#    x 2.042310 -0.000030 0.006910 
#    y -0.000030 2.033850 -0.014930 
#    z 0.006910 -0.014930 2.053140 
# 
# From -- ./inp_files/501083.got.cif
#   From: 2010.06.25/outbox.cif.g09.slc.cpg/sg2_251_cif.got.tgz:501083.got - 2010.06.27 13:26:56.
