data_PCOD8021624
_publ_section_title
;
Structure prediction by ZEFSAII (Michael W. Deem and Ramdas Pophale) SiO2 
 PCOD8021624
Probable space group: P -1
;
_chemical_formula_sum "Si O2"
_cell_formula_units_Z 12
_cell_length_a 9.027663
_cell_length_b 7.671742
_cell_length_c 10.350205
_cell_angle_alpha 133.928416
_cell_angle_beta 63.832728
_cell_angle_gamma 104.828567
_cell_volume 461.967279
_symmetry_space_group_name_H-M "P -1"
_symmetry_group_IT_number 2
_symmetry_cell_setting 'triclinic'
loop_
_space_group_symop_operation_xyz
x,y,z
-x,-y,-z
loop_
_atom_site_type_symbol
_atom_site_label
_atom_site_fract_x
_atom_site_fract_y
_atom_site_fract_z
Si Si1 0.282363 0.703816 0.752913
Si Si2 0.893569 0.824473 0.842202
Si Si3 0.662335 0.594797 0.184894
Si Si4 0.125336 0.636135 0.229578
Si Si5 0.871751 0.992823 0.362208
Si Si6 0.380562 0.399255 0.324858
O O1 0.232486 0.531896 0.801163
O O2 0.267817 0.572668 0.552822
O O3 0.476745 0.758938 0.729341
O O4 0.156463 0.945816 0.926632
O O5 0.953567 0.593491 0.789571
O O6 0.731657 0.781972 0.797901
O O7 0.041493 0.867153 0.711412
O O8 0.709515 0.874449 0.306937
O O9 0.467166 0.569028 0.273116
O O10 0.713470 0.460661 0.962875
O O11 0.994772 0.775565 0.257789
O O12 0.186836 0.815460 0.406805
#
# Coordination Sequence:
#
# PCOD8021624 Si02
#       6
#     2   2   2   2   2   2
#     4   9  21  40  70  92 128 172 209 261 321 377
#     4  12  24  42  67 100 127 167 216 265 318 380
#     4  10  22  44  65  95 125 174 213 256 322 378
#     4  11  26  40  68  97 129 169 214 265 321 376
#     4  11  25  44  65  91 135 170 212 263 319 380
#     4   9  22  41  69  95 128 171 213 256 328 376
#
# _framework density 25.975866
#
# number of rings (size 3 to 8) (size 9 to 14) (size 15 to 20)
#    1.000    0.667    1.667    1.500    4.667    4.000 
#    0.000    1.667    0.000    0.000    0.000    0.000 
#    0.000    0.000    0.000    0.000    0.000    0.000 
#
# Total GULP energy -148800.101219 kJ/mol
# GULP energy per Si atom -12400.008435 kJ/mol
# Density = 2.591674 g / cm^3
# Si number density = 25.975866 Si / 1000 Ang^3
#
#
#
# Elastic Constant Matrix: (Units=GPa)
#
#
# Indices 1 2 3 4 5 6 
#
# 1 40.7137 14.6600 -4.1810 -8.6358 -1.6490 -1.4494
# 2 14.6600 113.5655 32.6883 -18.1301 1.0205 4.6602
# 3 -4.1810 32.6883 151.9775 -28.2995 12.6481 3.7198
# 4 -8.6358 -18.1301 -28.2995 47.2618 -5.8474 -3.5789
# 5 -1.6490 1.0205 12.6481 -5.8474 29.8962 14.5376
# 6 -1.4494 4.6602 3.7198 -3.5789 14.5376 40.4350
#
#
#
# Elastic Compliance Matrix: (Units=1/GPa)
#
#
# Indices 1 2 3 4 5 6 
#
# 1 0.027242 -0.003407 0.002351 0.005304 0.001057 0.001242
# 2 -0.003407 0.010206 -0.001965 0.002183 0.001420 -0.001435
# 3 0.002351 -0.001965 0.008069 0.004227 -0.002863 0.000972
# 4 0.005304 0.002183 0.004227 0.025940 0.003158 0.000710
# 5 0.001057 0.001420 -0.002863 0.003158 0.042518 -0.014869
# 6 0.001242 -0.001435 0.000972 0.000710 -0.014869 0.030260
#
#
# Mechanical properties :
#
#
# Convention : Reuss Voigt Hill
#
# Bulk Modulus (GPa) = 25.33308 43.62124 34.47716
# Shear Modulus (GPa) = 30.59299 41.05792 35.82546
#
# Velocity S-wave (km/s) = 3.43555 3.98001 3.71776
# Velocity P-wave (km/s) = 5.05085 6.16037 5.63299
#
# Compressibility (1/GPa) = 0.03947409
#
# Stress axis : x y z
#
# Youngs Moduli (GPa) = 36.70787 97.98540 123.93347
#
# Poissons Ratio (x) = 0.33386 -0.29143
# Poissons Ratio (y) = 0.12507 0.24359
# Poissons Ratio (z) = -0.08632 0.19259
#
# Static dielectric constant tensor:
#      x y z
#    x 4.449050 -0.006490 0.093040 
#    y -0.006490 4.674650 -0.064970 
#    z 0.093040 -0.064970 4.660400 
# 
# 
# High freq. dielectric constant tensor:
#      x y z
#    x 2.045280 0.000660 0.007040 
#    y 0.000660 2.035670 -0.008790 
#    z 0.007040 -0.008790 2.050220 
# 
# From -- ./inp_files/418507.got.cif
#   From: 2010.06.25/outbox.cif.g09.slc.cpg/sg2_210_cif.got.tgz:418507.got - 2010.06.27 13:26:56.
