data_PCOD8021039
_publ_section_title
;
Structure prediction by ZEFSAII (Michael W. Deem and Ramdas Pophale) SiO2 
 PCOD8021039
Probable space group: P -1
;
_chemical_formula_sum "Si O2"
_cell_formula_units_Z 14
_cell_length_a 12.317559
_cell_length_b 18.178265
_cell_length_c 9.073570
_cell_angle_alpha 45.073837
_cell_angle_beta 34.631963
_cell_angle_gamma 29.818597
_cell_volume 573.923581
_symmetry_space_group_name_H-M "P -1"
_symmetry_group_IT_number 2
_symmetry_cell_setting 'triclinic'
loop_
_space_group_symop_operation_xyz
x,y,z
-x,-y,-z
loop_
_atom_site_type_symbol
_atom_site_label
_atom_site_fract_x
_atom_site_fract_y
_atom_site_fract_z
Si Si1 0.814452 0.763073 0.557411
Si Si2 0.206747 0.980292 0.192989
Si Si3 0.598225 0.395470 0.900588
Si Si4 0.577428 0.917405 0.307820
Si Si5 0.791405 0.537322 0.993246
Si Si6 0.380368 0.325905 0.714990
Si Si7 0.274815 0.828905 0.715885
O O1 0.784412 0.790572 0.376050
O O2 0.738591 0.675136 0.804632
O O3 0.129553 0.660779 0.393246
O O4 0.616774 0.918966 0.639225
O O5 0.495390 0.813370 0.124206
O O6 0.000000 0.000000 0.500000
O O7 0.053576 0.032404 0.130035
O O8 0.256119 0.086359 0.003450
O O9 0.500000 0.500000 0.000000
O O10 0.369546 0.478472 0.911857
O O11 0.661723 0.253459 0.086692
O O12 0.400073 0.895097 0.467841
O O13 0.113293 0.387172 0.840302
O O14 0.697212 0.556885 0.241953
O O15 0.592462 0.285416 0.411359
#
# Coordination Sequence:
#
# PCOD8021039 Si02
#       7
#     2   2   2   2   2   2   2
#     4  11  24  42  69 106 138 181 238 284 364 405
#     4  10  22  43  67 102 142 177 235 279 347 422
#     4  12  27  44  73 106 136 185 243 295 352 413
#     4  11  23  41  71 104 140 181 228 294 354 413
#     4  11  24  48  69  97 148 184 232 296 345 430
#     4  10  24  44  70  98 141 194 222 281 364 414
#     4  11  24  43  73 103 141 179 236 300 345 412
#
# _framework density 24.393491000000001
#
# number of rings (size 3 to 8) (size 9 to 14) (size 15 to 20)
#    0.000    1.143    4.286    0.857    4.000    4.000 
#    0.000    9.286    0.000    0.000    0.000    0.000 
#    0.000    0.000    0.000    0.000    0.000    0.000 
#
# Total GULP energy -173464.272854 kJ/mol
# GULP energy per Si atom -12390.305204 kJ/mol
# Density = 2.433797 g / cm^3
# Si number density = 24.393491 Si / 1000 Ang^3
#
#
#
# Elastic Constant Matrix: (Units=GPa)
#
#
# Indices 1 2 3 4 5 6 
#
# 1 135.1710 32.7097 17.0522 13.2929 -18.7629 -24.5418
# 2 32.7097 74.6155 1.4933 12.2067 -7.7591 -24.3709
# 3 17.0522 1.4933 79.8274 -12.6860 -7.4352 8.0076
# 4 13.2929 12.2067 -12.6860 28.1098 -0.9850 -9.5119
# 5 -18.7629 -7.7591 -7.4352 -0.9850 35.3279 -2.1946
# 6 -24.5418 -24.3709 8.0076 -9.5119 -2.1946 41.2933
#
#
#
# Elastic Compliance Matrix: (Units=1/GPa)
#
#
# Indices 1 2 3 4 5 6 
#
# 1 0.010019 -0.001689 -0.002717 -0.003396 0.004591 0.004946
# 2 -0.001689 0.018233 -0.001308 -0.004499 0.003275 0.009149
# 3 -0.002717 -0.001308 0.014784 0.007396 0.001372 -0.003477
# 4 -0.003396 -0.004499 0.007396 0.043835 0.000236 0.004002
# 5 0.004591 0.003275 0.001372 0.000236 0.032142 0.006158
# 6 0.004946 0.009149 -0.003477 0.004002 0.006158 0.034479
#
#
# Mechanical properties :
#
#
# Convention : Reuss Voigt Hill
#
# Bulk Modulus (GPa) = 31.63734 43.56937 37.60335
# Shear Modulus (GPa) = 28.49730 36.83677 32.66704
#
# Velocity S-wave (km/s) = 3.42165 3.89022 3.66344
# Velocity P-wave (km/s) = 5.34865 6.17076 5.77435
#
# Compressibility (1/GPa) = 0.03160822
#
# Stress axis : x y z
#
# Youngs Moduli (GPa) = 99.81294 54.84451 67.64201
#
# Poissons Ratio (x) = 0.09264 0.18377
# Poissons Ratio (y) = 0.16861 0.08846
# Poissons Ratio (z) = 0.27117 0.07173
#
# Static dielectric constant tensor:
#      x y z
#    x 4.374030 -0.499820 -0.015600 
#    y -0.499820 4.711940 -0.108260 
#    z -0.015600 -0.108260 4.526160 
# 
# 
# High freq. dielectric constant tensor:
#      x y z
#    x 1.955010 -0.031570 -0.002350 
#    y -0.031570 1.971900 -0.006710 
#    z -0.002350 -0.006710 1.977930 
# 
# From -- ./inp_files/70112.got.cif
#   From: 2010.06.25/outbox.cif.g09.slc.cpg/sg2_36_cif.got.tgz:70112.got - 2010.06.27 13:26:56.
