data_PCOD8021127
_publ_section_title
;
Structure prediction by ZEFSAII (Michael W. Deem and Ramdas Pophale) SiO2 
 PCOD8021127
Probable space group: P -1
;
_chemical_formula_sum "Si O2"
_cell_formula_units_Z 12
_cell_length_a 12.092845
_cell_length_b 12.266199
_cell_length_c 5.129339
_cell_angle_alpha 78.728009
_cell_angle_beta 99.288724
_cell_angle_gamma 51.809555
_cell_volume 545.726942
_symmetry_space_group_name_H-M "P -1"
_symmetry_group_IT_number 2
_symmetry_cell_setting 'triclinic'
loop_
_space_group_symop_operation_xyz
x,y,z
-x,-y,-z
loop_
_atom_site_type_symbol
_atom_site_label
_atom_site_fract_x
_atom_site_fract_y
_atom_site_fract_z
Si Si1 0.205437 0.095437 0.255596
Si Si2 0.213730 0.439326 0.652835
Si Si3 0.671789 0.421781 0.556705
Si Si4 0.107585 0.923532 0.326213
Si Si5 0.890454 0.402394 0.957584
Si Si6 0.331290 0.118813 0.790306
O O1 0.232445 0.117104 0.960988
O O2 0.034073 0.240813 0.192025
O O3 0.221369 0.952542 0.349219
O O4 0.316627 0.077163 0.515884
O O5 0.331370 0.465400 0.679278
O O6 0.145992 0.478863 0.897945
O O7 0.293339 0.273092 0.687678
O O8 0.083746 0.550650 0.331586
O O9 0.500000 0.500000 0.500000
O O10 0.780069 0.256911 0.543188
O O11 0.752373 0.405502 0.867595
O O12 0.000000 0.000000 0.500000
O O13 0.000000 0.000000 0.000000
O O14 0.500000 0.000000 0.000000
#
# Coordination Sequence:
#
# PCOD8021127 Si02
#       6
#     2   2   2   2   2   2
#     4  12  25  44  73  99 135 188 224 287 348 410
#     4  10  23  44  66  96 137 171 232 281 339 411
#     4  10  25  43  72 103 141 180 229 295 351 407
#     4  12  24  46  72 104 144 178 235 286 344 432
#     4  10  22  43  68 103 130 172 234 273 358 407
#     4  12  28  45  67  97 140 181 236 283 344 418
#
# _framework density 21.989021000000001
#
# number of rings (size 3 to 8) (size 9 to 14) (size 15 to 20)
#    1.000    0.000    1.667    4.500    2.333    6.000 
#    0.000    0.000    0.000    0.000    0.000    0.000 
#    0.000    0.000    0.000    0.000    0.000    0.000 
#
# Total GULP energy -148729.587834 kJ/mol
# GULP energy per Si atom -12394.132320 kJ/mol
# Density = 2.193897 g / cm^3
# Si number density = 21.989021 Si / 1000 Ang^3
#
#
#
# Elastic Constant Matrix: (Units=GPa)
#
#
# Indices 1 2 3 4 5 6 
#
# 1 93.8601 45.8859 25.6617 -7.7520 -4.7833 25.6247
# 2 45.8859 84.1680 26.4984 5.1952 6.5995 15.9617
# 3 25.6617 26.4984 120.7511 13.5150 6.4326 0.7673
# 4 -7.7520 5.1952 13.5150 37.9551 -6.7936 3.6580
# 5 -4.7833 6.5995 6.4326 -6.7936 40.9540 -4.2208
# 6 25.6247 15.9617 0.7673 3.6580 -4.2208 46.1471
#
#
#
# Elastic Compliance Matrix: (Units=1/GPa)
#
#
# Indices 1 2 3 4 5 6 
#
# 1 0.018602 -0.008561 -0.003121 0.007617 0.004532 -0.007505
# 2 -0.008561 0.017885 -0.001363 -0.004382 -0.004547 -0.001478
# 3 -0.003121 -0.001363 0.009860 -0.004572 -0.002225 0.002199
# 4 0.007617 -0.004382 -0.004572 0.031841 0.007131 -0.004509
# 5 0.004532 -0.004547 -0.002225 0.007131 0.027318 0.001026
# 6 -0.007505 -0.001478 0.002199 -0.004509 0.001026 0.026764
#
#
# Mechanical properties :
#
#
# Convention : Reuss Voigt Hill
#
# Bulk Modulus (GPa) = 49.36610 54.98567 52.17589
# Shear Modulus (GPa) = 30.28261 38.39346 34.33804
#
# Velocity S-wave (km/s) = 3.71505 4.18308 3.95599
# Velocity P-wave (km/s) = 6.39540 6.95638 6.68178
#
# Compressibility (1/GPa) = 0.02025682
#
# Stress axis : x y z
#
# Youngs Moduli (GPa) = 53.75879 55.91403 101.41794
#
# Poissons Ratio (x) = 0.47866 0.31651
# Poissons Ratio (y) = 0.46021 0.13826
# Poissons Ratio (z) = 0.16777 0.07623
#
# Static dielectric constant tensor:
#      x y z
#    x 3.865430 0.146590 0.139420 
#    y 0.146590 3.939970 0.195980 
#    z 0.139420 0.195980 3.916700 
# 
# 
# High freq. dielectric constant tensor:
#      x y z
#    x 1.868380 0.017700 0.001720 
#    y 0.017700 1.859770 0.007400 
#    z 0.001720 0.007400 1.872710 
# 
# From -- ./inp_files/74561.got.cif
#   From: 2010.06.25/outbox.cif.g09.slc.cpg/sg2_38_cif.got.tgz:74561.got - 2010.06.27 13:26:56.
