data_PCOD8021897
_publ_section_title
;
Structure prediction by ZEFSAII (Michael W. Deem and Ramdas Pophale) SiO2 
 PCOD8021897
Probable space group: P -1
;
_chemical_formula_sum "Si O2"
_cell_formula_units_Z 16
_cell_length_a 9.166774
_cell_length_b 11.936252
_cell_length_c 11.584368
_cell_angle_alpha 86.317050
_cell_angle_beta 51.177280
_cell_angle_gamma 120.049894
_cell_volume 707.739246
_symmetry_space_group_name_H-M "P -1"
_symmetry_group_IT_number 2
_symmetry_cell_setting 'triclinic'
loop_
_space_group_symop_operation_xyz
x,y,z
-x,-y,-z
loop_
_atom_site_type_symbol
_atom_site_label
_atom_site_fract_x
_atom_site_fract_y
_atom_site_fract_z
Si Si1 0.819421 0.876881 0.699294
Si Si2 0.453355 0.344848 0.544405
Si Si3 0.907490 0.727667 0.095104
Si Si4 0.060782 0.645688 0.411516
Si Si5 0.123608 0.890305 0.743273
Si Si6 0.313163 0.779272 0.508105
Si Si7 0.638070 0.164344 0.974706
Si Si8 0.599599 0.616329 0.663857
O O1 0.686946 0.705317 0.735019
O O2 0.983717 0.921138 0.728620
O O3 0.586091 0.861269 0.848522
O O4 0.000000 0.000000 0.500000
O O5 0.500000 0.500000 0.500000
O O6 0.221315 0.233003 0.758792
O O7 0.691295 0.359268 0.460181
O O8 0.366844 0.275417 0.461613
O O9 0.701602 0.546029 0.172058
O O10 0.155854 0.777514 0.031183
O O11 0.972891 0.821969 0.941918
O O12 0.229516 0.777417 0.419435
O O13 0.218672 0.708870 0.208572
O O14 0.000000 0.500000 0.500000
O O15 0.781157 0.587433 0.538675
O O16 0.128909 0.768377 0.690525
O O17 0.401805 0.056331 0.622270
O O18 0.500000 0.000000 0.000000
#
# Coordination Sequence:
#
# PCOD8021897 Si02
#       8
#     2   2   2   2   2   2   2   2
#     4  12  28  49  74 103 147 192 245 303 361 432
#     4  10  22  44  70 102 139 188 232 290 361 427
#     4  11  26  45  70 105 145 184 242 294 365 434
#     4  12  25  46  74 108 146 189 245 301 365 435
#     4  11  27  46  70 106 142 189 243 297 368 432
#     4  11  25  45  74  98 145 188 240 297 365 430
#     4  12  29  48  74 108 145 193 245 301 367 443
#     4  11  24  47  71 102 146 187 239 295 364 431
#
# _framework density 22.607195999999998
#
# number of rings (size 3 to 8) (size 9 to 14) (size 15 to 20)
#    0.000    0.750    2.500    3.750   12.250    2.500 
#    0.000    0.000    0.000    0.000    0.000    0.000 
#    0.000    0.000    0.000    0.000    0.000    0.000 
#
# Total GULP energy -198327.623076 kJ/mol
# GULP energy per Si atom -12395.476442 kJ/mol
# Density = 2.255574 g / cm^3
# Si number density = 22.607196 Si / 1000 Ang^3
#
#
#
# Elastic Constant Matrix: (Units=GPa)
#
#
# Indices 1 2 3 4 5 6 
#
# 1 162.5444 20.5225 66.1476 -10.3898 5.2984 12.7816
# 2 20.5225 62.9429 12.1051 -14.4069 -3.5940 4.8897
# 3 66.1476 12.1051 117.7970 -7.9652 7.1869 0.4736
# 4 -10.3898 -14.4069 -7.9652 24.6028 -1.6047 -5.9197
# 5 5.2984 -3.5940 7.1869 -1.6047 51.4104 4.4607
# 6 12.7816 4.8897 0.4736 -5.9197 4.4607 45.6067
#
#
#
# Elastic Compliance Matrix: (Units=1/GPa)
#
#
# Indices 1 2 3 4 5 6 
#
# 1 0.008382 -0.001568 -0.004483 0.000672 -0.000149 -0.002033
# 2 -0.001568 0.019000 -0.000489 0.010325 0.001919 -0.000440
# 3 -0.004483 -0.000489 0.011244 0.001751 -0.001223 0.001539
# 4 0.000672 0.010325 0.001751 0.048814 0.001508 0.004875
# 5 -0.000149 0.001919 -0.001223 0.001508 0.019985 -0.001910
# 6 -0.002033 -0.000440 0.001539 0.004875 -0.001910 0.023347
#
#
# Mechanical properties :
#
#
# Convention : Reuss Voigt Hill
#
# Bulk Modulus (GPa) = 39.14622 60.09275 49.61948
# Shear Modulus (GPa) = 32.81573 40.62458 36.72016
#
# Velocity S-wave (km/s) = 3.81407 4.24367 4.03459
# Velocity P-wave (km/s) = 6.06214 7.11693 6.61061
#
# Compressibility (1/GPa) = 0.02554525
#
# Stress axis : x y z
#
# Youngs Moduli (GPa) = 119.30123 52.63275 88.93862
#
# Poissons Ratio (x) = 0.08251 0.39872
# Poissons Ratio (y) = 0.18703 0.04351
# Poissons Ratio (z) = 0.53484 0.02575
#
# Static dielectric constant tensor:
#      x y z
#    x 4.383730 0.420980 0.398670 
#    y 0.420980 4.515350 -0.407540 
#    z 0.398670 -0.407540 5.581910 
# 
# 
# High freq. dielectric constant tensor:
#      x y z
#    x 1.914830 0.019340 0.001410 
#    y 0.019340 1.897460 0.008770 
#    z 0.001410 0.008770 1.887790 
# 
# From -- ./inp_files/392572.got.cif
#   From: 2010.06.25/outbox.cif.g09.slc.cpg/sg2_197_cif.got.tgz:392572.got - 2010.06.27 13:26:56.
