data_PCOD8021989
_publ_section_title
;
Structure prediction by ZEFSAII (Michael W. Deem and Ramdas Pophale) SiO2 
 PCOD8021989
Probable space group: P -1
;
_chemical_formula_sum "Si O2"
_cell_formula_units_Z 16
_cell_length_a 8.906245
_cell_length_b 21.229974
_cell_length_c 20.961386
_cell_angle_alpha 19.690230
_cell_angle_beta 47.992423
_cell_angle_gamma 38.362512
_cell_volume 782.343218
_symmetry_space_group_name_H-M "P -1"
_symmetry_group_IT_number 2
_symmetry_cell_setting 'triclinic'
loop_
_space_group_symop_operation_xyz
x,y,z
-x,-y,-z
loop_
_atom_site_type_symbol
_atom_site_label
_atom_site_fract_x
_atom_site_fract_y
_atom_site_fract_z
Si Si1 0.921273 0.851881 0.358015
Si Si2 0.008608 0.215700 0.947992
Si Si3 0.767403 0.012953 0.026799
Si Si4 0.794480 0.702760 0.412064
Si Si5 0.652999 0.870158 0.733967
Si Si6 0.878933 0.488330 0.140198
Si Si7 0.218580 0.419403 0.776525
Si Si8 0.520562 0.340529 0.366579
O O1 0.927584 0.710072 0.430727
O O2 0.094202 0.665541 0.541696
O O3 0.631885 0.040194 0.286234
O O4 0.039161 0.983964 0.180965
O O5 0.713372 0.447553 0.811258
O O6 0.168280 0.251690 0.916225
O O7 0.129011 0.169946 0.886904
O O8 0.525671 0.279760 0.822647
O O9 0.659304 0.944822 0.179783
O O10 0.000000 0.000000 0.000000
O O11 0.584003 0.670340 0.524374
O O12 0.000000 0.500000 0.500000
O O13 0.833568 0.704704 0.782844
O O14 0.654397 0.093823 0.526516
O O15 0.742634 0.730436 0.908719
O O16 0.900594 0.531944 0.165821
O O17 0.726024 0.383020 0.277786
#
# Coordination Sequence:
#
# PCOD8021989 Si02
#       8
#     2   2   2   2   2   2   2   2
#     4  11  23  42  64  93 135 173 210 270 330 380
#     4  12  23  42  65  94 138 174 207 268 330 378
#     4  12  24  43  67  92 129 174 222 261 315 382
#     4  11  21  38  67  97 125 173 221 261 316 389
#     4  10  22  44  71  97 125 167 227 271 318 393
#     4  11  24  42  71  98 126 171 221 272 326 384
#     4  12  26  42  62  98 133 169 213 271 325 389
#     4  11  21  41  69  94 132 171 215 271 323 380
#
# _framework density 20.451381999999999
#
# number of rings (size 3 to 8) (size 9 to 14) (size 15 to 20)
#    0.000    0.750    6.250    3.000    0.000    3.000 
#    0.000    0.625    0.000    0.000    0.000    0.000 
#    0.000    0.000    0.000    0.000    0.000    0.000 
#
# Total GULP energy -198453.055343 kJ/mol
# GULP energy per Si atom -12403.315959 kJ/mol
# Density = 2.040483 g / cm^3
# Si number density = 20.451382 Si / 1000 Ang^3
#
#
#
# Elastic Constant Matrix: (Units=GPa)
#
#
# Indices 1 2 3 4 5 6 
#
# 1 98.1400 54.8850 36.5811 -0.1841 12.5974 5.6881
# 2 54.8850 106.3362 39.8433 -5.5680 12.1290 2.7168
# 3 36.5811 39.8433 108.7523 -0.9168 16.9721 2.2444
# 4 -0.1841 -5.5680 -0.9168 35.0033 -5.7000 2.3386
# 5 12.5974 12.1290 16.9721 -5.7000 37.3932 -1.8200
# 6 5.6881 2.7168 2.2444 2.3386 -1.8200 34.2523
#
#
#
# Elastic Compliance Matrix: (Units=1/GPa)
#
#
# Indices 1 2 3 4 5 6 
#
# 1 0.015207 -0.006770 -0.002266 -0.001287 -0.002186 -0.001868
# 2 -0.006770 0.014124 -0.002765 0.002018 -0.000737 0.000008
# 3 -0.002266 -0.002765 0.011549 -0.000733 -0.003708 -0.000308
# 4 -0.001287 0.002018 -0.000733 0.029719 0.004560 -0.001685
# 5 -0.002186 -0.000737 -0.003708 0.004560 0.030192 0.001957
# 6 -0.001868 0.000008 -0.000308 -0.001685 0.001957 0.029744
#
#
# Mechanical properties :
#
#
# Convention : Reuss Voigt Hill
#
# Bulk Modulus (GPa) = 57.87926 63.98305 60.93116
# Shear Modulus (GPa) = 31.26993 33.45769 32.36381
#
# Velocity S-wave (km/s) = 3.91447 4.04909 3.98235
# Velocity P-wave (km/s) = 6.98521 7.29476 7.14166
#
# Compressibility (1/GPa) = 0.01727734
#
# Stress axis : x y z
#
# Youngs Moduli (GPa) = 65.75974 70.79955 86.58388
#
# Poissons Ratio (x) = 0.47934 0.19619
# Poissons Ratio (y) = 0.44522 0.23944
# Poissons Ratio (z) = 0.14901 0.19579
#
# Static dielectric constant tensor:
#      x y z
#    x 3.537010 0.047500 0.068910 
#    y 0.047500 3.885090 0.130630 
#    z 0.068910 0.130630 4.087400 
# 
# 
# High freq. dielectric constant tensor:
#      x y z
#    x 1.782570 -0.000010 -0.000170 
#    y -0.000010 1.803810 -0.003150 
#    z -0.000170 -0.003150 1.820050 
# 
# From -- ./inp_files/299686.got.cif
#   From: 2010.06.25/outbox.cif.g09.slc.cpg/sg2_150_cif.got.tgz:299686.got - 2010.06.27 13:26:56.
