data_PCOD8021097
_publ_section_title
;
Structure prediction by ZEFSAII (Michael W. Deem and Ramdas Pophale) SiO2 
 PCOD8021097
Probable space group: P -1
;
_chemical_formula_sum "Si O2"
_cell_formula_units_Z 14
_cell_length_a 6.680975
_cell_length_b 7.906917
_cell_length_c 21.079688
_cell_angle_alpha 139.126272
_cell_angle_beta 59.384173
_cell_angle_gamma 121.890883
_cell_volume 606.507883
_symmetry_space_group_name_H-M "P -1"
_symmetry_group_IT_number 2
_symmetry_cell_setting 'triclinic'
loop_
_space_group_symop_operation_xyz
x,y,z
-x,-y,-z
loop_
_atom_site_type_symbol
_atom_site_label
_atom_site_fract_x
_atom_site_fract_y
_atom_site_fract_z
Si Si1 0.192118 0.965175 0.863768
Si Si2 0.372433 0.628373 0.155015
Si Si3 0.554303 0.248637 0.680508
Si Si4 0.719422 0.976528 0.999352
Si Si5 0.820791 0.829460 0.530790
Si Si6 0.028340 0.060429 0.691120
Si Si7 0.037451 0.637554 0.674334
O O1 0.955677 0.074494 0.945335
O O2 0.127388 0.721137 0.754938
O O3 0.406159 0.203026 0.872681
O O4 0.263927 0.856966 0.889914
O O5 0.453011 0.623908 0.213409
O O6 0.305842 0.324466 0.056702
O O7 0.138322 0.739142 0.215127
O O8 0.770925 0.438084 0.659636
O O9 0.585289 0.945510 0.598989
O O10 0.302147 0.227473 0.679619
O O11 0.500000 0.000000 0.000000
O O12 0.933552 0.862375 0.592194
O O13 0.774555 0.517770 0.430239
O O14 0.000000 0.000000 0.500000
O O15 0.030936 0.897093 0.709041
#
# Coordination Sequence:
#
# PCOD8021097 Si02
#       7
#     2   2   2   2   2   2   2
#     4  11  25  46  68 103 133 172 219 285 331 399
#     4  11  24  45  67 100 135 169 226 276 327 409
#     4  10  22  43  67  97 138 179 224 274 325 388
#     4  11  27  48  71  98 130 174 226 272 347 400
#     4   9  22  43  63 100 140 178 232 271 318 394
#     4  11  24  42  69 100 135 184 222 268 336 389
#     4  11  22  44  67 100 138 177 227 272 336 392
#
# _framework density 23.082965000000002
#
# number of rings (size 3 to 8) (size 9 to 14) (size 15 to 20)
#    0.000    1.429    2.857    0.857    2.000    6.857 
#    2.571    0.000    0.000    0.000    0.000    0.000 
#    0.000    0.000    0.000    0.000    0.000    0.000 
#
# Total GULP energy -173580.388703 kJ/mol
# GULP energy per Si atom -12398.599193 kJ/mol
# Density = 2.303043 g / cm^3
# Si number density = 23.082965 Si / 1000 Ang^3
#
#
#
# Elastic Constant Matrix: (Units=GPa)
#
#
# Indices 1 2 3 4 5 6 
#
# 1 150.7659 29.5385 50.7860 3.5492 0.0068 7.1039
# 2 29.5385 73.9053 23.7781 2.1968 -8.7150 16.6900
# 3 50.7860 23.7781 114.2734 4.6347 14.4375 -1.9855
# 4 3.5492 2.1968 4.6347 30.4612 -2.0397 -2.7139
# 5 0.0068 -8.7150 14.4375 -2.0397 25.0951 -9.6588
# 6 7.1039 16.6900 -1.9855 -2.7139 -9.6588 36.7224
#
#
#
# Elastic Compliance Matrix: (Units=1/GPa)
#
#
# Indices 1 2 3 4 5 6 
#
# 1 0.008178 -0.001914 -0.003361 -0.000296 0.000990 -0.000655
# 2 -0.001914 0.017586 -0.003609 -0.000684 0.005674 -0.006376
# 3 -0.003361 -0.003609 0.012096 -0.001668 -0.008079 0.000696
# 4 -0.000296 -0.000684 -0.001668 0.033871 0.005057 0.004111
# 5 0.000990 0.005674 -0.008079 0.005057 0.050944 0.010566
# 6 -0.000655 -0.006376 0.000696 0.004111 0.010566 0.033376
#
#
# Mechanical properties :
#
#
# Convention : Reuss Voigt Hill
#
# Bulk Modulus (GPa) = 49.76780 60.79441 55.28111
# Shear Modulus (GPa) = 27.69852 34.11188 30.90520
#
# Velocity S-wave (km/s) = 3.46779 3.84838 3.66303
# Velocity P-wave (km/s) = 6.13525 6.79273 6.47235
#
# Compressibility (1/GPa) = 0.02009331
#
# Stress axis : x y z
#
# Youngs Moduli (GPa) = 122.28592 56.86329 82.67294
#
# Poissons Ratio (x) = 0.10881 0.27784
# Poissons Ratio (y) = 0.23401 0.29835
# Poissons Ratio (z) = 0.41096 0.20521
#
# Static dielectric constant tensor:
#      x y z
#    x 4.165000 0.095290 -0.070530 
#    y 0.095290 4.105170 0.033270 
#    z -0.070530 0.033270 4.788690 
# 
# 
# High freq. dielectric constant tensor:
#      x y z
#    x 1.910060 0.010450 0.005270 
#    y 0.010450 1.909130 -0.009200 
#    z 0.005270 -0.009200 1.922860 
# 
# From -- ./inp_files/52062.got.cif
#   From: 2010.06.25/outbox.cif.g09.slc.cpg/sg2_27_cif.got.tgz:52062.got - 2010.06.27 13:26:56.
