data_PCOD8021774
_publ_section_title
;
Structure prediction by ZEFSAII (Michael W. Deem and Ramdas Pophale) SiO2 
 PCOD8021774
Probable space group: P -1
;
_chemical_formula_sum "Si O2"
_cell_formula_units_Z 16
_cell_length_a 9.664415
_cell_length_b 14.560653
_cell_length_c 15.835144
_cell_angle_alpha 139.689515
_cell_angle_beta 44.027897
_cell_angle_gamma 104.256908
_cell_volume 742.245328
_symmetry_space_group_name_H-M "P -1"
_symmetry_group_IT_number 2
_symmetry_cell_setting 'triclinic'
loop_
_space_group_symop_operation_xyz
x,y,z
-x,-y,-z
loop_
_atom_site_type_symbol
_atom_site_label
_atom_site_fract_x
_atom_site_fract_y
_atom_site_fract_z
Si Si1 0.124186 0.089594 0.400792
Si Si2 0.014914 0.528431 0.263992
Si Si3 0.364813 0.752586 0.170647
Si Si4 0.338162 0.500538 0.496492
Si Si5 0.268608 0.339772 0.682584
Si Si6 0.190625 0.877473 0.065717
Si Si7 0.163413 0.867465 0.756047
Si Si8 0.878225 0.327093 0.920784
O O1 0.150521 0.245761 0.496731
O O2 0.818467 0.184680 0.621955
O O3 0.311762 0.934814 0.284030
O O4 0.228485 0.985398 0.191700
O O5 0.915858 0.464392 0.332206
O O6 0.943310 0.503306 0.185150
O O7 0.328722 0.408609 0.049830
O O8 0.295130 0.668190 0.071396
O O9 0.500000 0.500000 0.500000
O O10 0.224631 0.670865 0.600534
O O11 0.524750 0.301825 0.224836
O O12 0.560162 0.176172 0.399253
O O13 0.165411 0.240398 0.696954
O O14 0.287288 0.453995 0.825014
O O15 0.062948 0.803083 0.117132
O O16 0.994766 0.029243 0.187187
O O17 0.000000 0.000000 0.000000
#
# Coordination Sequence:
#
# PCOD8021774 Si02
#       8
#     2   2   2   2   2   2   2   2
#     4  10  24  43  66 104 135 177 231 277 332 417
#     4  12  24  42  74  97 138 187 224 277 346 400
#     4  10  23  45  69  96 145 180 220 282 342 403
#     4  12  24  48  65  98 140 176 231 284 332 404
#     4  11  23  39  72 105 134 175 231 276 344 410
#     4  11  24  44  71  94 142 180 223 289 335 393
#     4  12  25  44  71  97 135 182 223 277 342 401
#     4  10  22  44  68 103 139 174 221 289 336 405
#
# _framework density 21.556215999999999
#
# number of rings (size 3 to 8) (size 9 to 14) (size 15 to 20)
#    0.000    1.000    5.000    0.375    1.750    4.000 
#    0.000    4.375    0.000    0.000    0.000    0.000 
#    0.000    0.000    0.000    0.000    0.000    0.000 
#
# Total GULP energy -198432.968593 kJ/mol
# GULP energy per Si atom -12402.060537 kJ/mol
# Density = 2.150715 g / cm^3
# Si number density = 21.556216 Si / 1000 Ang^3
#
#
#
# Elastic Constant Matrix: (Units=GPa)
#
#
# Indices 1 2 3 4 5 6 
#
# 1 52.6937 -1.5501 41.1850 2.5353 8.9608 -7.9782
# 2 -1.5501 83.9342 16.5663 -3.1063 -7.2649 -10.2644
# 3 41.1850 16.5663 112.0974 -7.6573 3.9615 -3.5896
# 4 2.5353 -3.1063 -7.6573 39.7071 -5.9382 0.3466
# 5 8.9608 -7.2649 3.9615 -5.9382 25.6530 0.1145
# 6 -7.9782 -10.2644 -3.5896 0.3466 0.1145 33.1794
#
#
#
# Elastic Compliance Matrix: (Units=1/GPa)
#
#
# Indices 1 2 3 4 5 6 
#
# 1 0.031154 0.002714 -0.011655 -0.005526 -0.009625 0.007161
# 2 0.002714 0.013413 -0.002904 0.000795 0.003463 0.004468
# 3 -0.011655 -0.002904 0.013729 0.003475 0.001943 -0.002259
# 4 -0.005526 0.000795 0.003475 0.027472 0.007983 -0.001022
# 5 -0.009625 0.003463 0.001943 0.007983 0.044878 -0.001271
# 6 0.007161 0.004468 -0.002259 -0.001022 -0.001271 0.033014
#
#
# Mechanical properties :
#
#
# Convention : Reuss Voigt Hill
#
# Bulk Modulus (GPa) = 28.89839 40.12533 34.51186
# Shear Modulus (GPa) = 25.14005 32.54284 28.84145
#
# Velocity S-wave (km/s) = 3.41875 3.88967 3.66179
# Velocity P-wave (km/s) = 5.38693 6.23116 5.82436
#
# Compressibility (1/GPa) = 0.03460401
#
# Stress axis : x y z
#
# Youngs Moduli (GPa) = 32.09867 74.55483 72.84093
#
# Poissons Ratio (x) = -0.20233 0.84897
# Poissons Ratio (y) = -0.08711 0.21155
# Poissons Ratio (z) = 0.37412 0.21653
#
# Static dielectric constant tensor:
#      x y z
#    x 3.781420 -0.131420 0.199770 
#    y -0.131420 4.553740 -0.026130 
#    z 0.199770 -0.026130 4.039300 
# 
# 
# High freq. dielectric constant tensor:
#      x y z
#    x 1.829530 -0.001820 0.015190 
#    y -0.001820 1.862950 -0.005100 
#    z 0.015190 -0.005100 1.849390 
# 
# From -- ./inp_files/505557.got.cif
#   From: 2010.06.25/outbox.cif.g09.slc.cpg/sg2_253_cif.got.tgz:505557.got - 2010.06.27 13:26:56.
