data_PCOD8021347
_publ_section_title
;
Structure prediction by ZEFSAII (Michael W. Deem and Ramdas Pophale) SiO2 
 PCOD8021347
Probable space group: P -1
;
_chemical_formula_sum "Si O2"
_cell_formula_units_Z 16
_cell_length_a 16.379059
_cell_length_b 8.260865
_cell_length_c 19.251990
_cell_angle_alpha 122.362262
_cell_angle_beta 157.735257
_cell_angle_gamma 68.648838
_cell_volume 760.300100
_symmetry_space_group_name_H-M "P -1"
_symmetry_group_IT_number 2
_symmetry_cell_setting 'triclinic'
loop_
_space_group_symop_operation_xyz
x,y,z
-x,-y,-z
loop_
_atom_site_type_symbol
_atom_site_label
_atom_site_fract_x
_atom_site_fract_y
_atom_site_fract_z
Si Si1 0.912286 0.681854 0.480970
Si Si2 0.681274 0.918134 0.092725
Si Si3 0.483131 0.489677 0.199038
Si Si4 0.886196 0.398991 0.138314
Si Si5 0.789483 0.950812 0.915339
Si Si6 0.674880 0.922075 0.661390
Si Si7 0.245482 0.366333 0.799328
Si Si8 0.409701 0.507578 0.562128
O O1 0.664464 0.607477 0.307482
O O2 0.906966 0.757619 0.415013
O O3 0.000000 0.500000 0.500000
O O4 0.094026 0.881551 0.711952
O O5 0.758657 0.798307 0.184878
O O6 0.574666 0.759266 0.908096
O O7 0.500000 0.000000 0.000000
O O8 0.583310 0.571404 0.372063
O O9 0.252653 0.532628 0.013897
O O10 0.856092 0.475577 0.209438
O O11 0.157831 0.516789 0.355086
O O12 0.794590 0.146371 0.009854
O O13 0.683176 0.968979 0.760656
O O14 0.622183 0.731622 0.768078
O O15 0.054877 0.961191 0.125780
O O16 0.572952 0.669630 0.515136
O O17 0.500000 0.000000 0.500000
O O18 0.500000 0.500000 0.000000
#
# Coordination Sequence:
#
# PCOD8021347 Si02
#       8
#     2   2   2   2   2   2   2   2
#     4  12  22  40  60  82 122 166 216 275 320 372
#     4  11  23  38  58  85 114 160 218 268 324 376
#     4  11  24  42  58  89 126 166 215 263 317 377
#     4  10  23  41  60  91 129 164 213 263 314 375
#     4  10  23  42  66  98 129 162 204 256 310 382
#     4  10  22  43  70  98 128 163 201 248 316 382
#     4  11  21  41  62  87 122 169 221 272 319 369
#     4  11  24  40  66  96 129 166 206 257 315 376
#
# _framework density 21.044321
#
# number of rings (size 3 to 8) (size 9 to 14) (size 15 to 20)
#    0.000    1.250    3.750    2.250    0.000    7.500 
#    0.000    0.000    0.000    0.000    0.000    0.000 
#    0.000    0.000    0.000    0.000    0.000    0.000 
#
# Total GULP energy -198388.068834 kJ/mol
# GULP energy per Si atom -12399.254302 kJ/mol
# Density = 2.099642 g / cm^3
# Si number density = 21.044321 Si / 1000 Ang^3
#
#
#
# Elastic Constant Matrix: (Units=GPa)
#
#
# Indices 1 2 3 4 5 6 
#
# 1 79.1661 33.2075 31.9353 1.7131 -2.4082 -6.6079
# 2 33.2075 90.6382 51.0360 4.8986 19.1448 -9.0018
# 3 31.9353 51.0360 119.1884 7.3124 10.9294 -3.7059
# 4 1.7131 4.8986 7.3124 53.0557 4.6738 -2.4532
# 5 -2.4082 19.1448 10.9294 4.6738 34.0138 -0.7203
# 6 -6.6079 -9.0018 -3.7059 -2.4532 -0.7203 29.0326
#
#
#
# Elastic Compliance Matrix: (Units=1/GPa)
#
#
# Indices 1 2 3 4 5 6 
#
# 1 0.016198 -0.005463 -0.002404 -0.000048 0.005039 0.001807
# 2 -0.005463 0.018338 -0.005474 0.000185 -0.008900 0.003538
# 3 -0.002404 -0.005474 0.011471 -0.000981 -0.000659 -0.000879
# 4 -0.000048 0.000185 -0.000981 0.019248 -0.002406 0.001488
# 5 0.005039 -0.008900 -0.000659 -0.002406 0.035287 -0.001025
# 6 0.001807 0.003538 -0.000879 0.001488 -0.001025 0.035941
#
#
# Mechanical properties :
#
#
# Convention : Reuss Voigt Hill
#
# Bulk Modulus (GPa) = 51.74430 57.92780 54.83605
# Shear Modulus (GPa) = 29.48003 34.74135 32.11069
#
# Velocity S-wave (km/s) = 3.74686 4.06749 3.91046
# Velocity P-wave (km/s) = 6.58485 7.04597 6.81931
#
# Compressibility (1/GPa) = 0.01932580
#
# Stress axis : x y z
#
# Youngs Moduli (GPa) = 61.73522 54.53198 87.17534
#
# Poissons Ratio (x) = 0.29794 0.20954
# Poissons Ratio (y) = 0.33729 0.47716
# Poissons Ratio (z) = 0.14839 0.29848
#
# Static dielectric constant tensor:
#      x y z
#    x 3.961830 -0.028390 -0.401790 
#    y -0.028390 3.872800 0.072850 
#    z -0.401790 0.072850 4.323430 
# 
# 
# High freq. dielectric constant tensor:
#      x y z
#    x 1.814100 -0.010640 -0.008840 
#    y -0.010640 1.824550 0.001700 
#    z -0.008840 0.001700 1.844020 
# 
# From -- ./inp_files/599583.got.cif
#   From: 2010.06.25/outbox.cif.g09.slc.cpg/sg2_300_cif.got.tgz:599583.got - 2010.06.27 13:26:56.
