data_PCOD8021864
_publ_section_title
;
Structure prediction by ZEFSAII (Michael W. Deem and Ramdas Pophale) SiO2 
 PCOD8021864
Probable space group: P -1
;
_chemical_formula_sum "Si O2"
_cell_formula_units_Z 14
_cell_length_a 8.934996
_cell_length_b 7.997632
_cell_length_c 10.500441
_cell_angle_alpha 89.411325
_cell_angle_beta 66.450404
_cell_angle_gamma 126.865295
_cell_volume 517.366457
_symmetry_space_group_name_H-M "P -1"
_symmetry_group_IT_number 2
_symmetry_cell_setting 'triclinic'
loop_
_space_group_symop_operation_xyz
x,y,z
-x,-y,-z
loop_
_atom_site_type_symbol
_atom_site_label
_atom_site_fract_x
_atom_site_fract_y
_atom_site_fract_z
Si Si1 0.388890 0.386244 0.729830
Si Si2 0.925221 0.209758 0.349198
Si Si3 0.903716 0.323250 0.648784
Si Si4 0.266180 0.908880 0.043128
Si Si5 0.570117 0.962610 0.273213
Si Si6 0.191397 0.216116 0.527604
Si Si7 0.739693 0.703841 0.957257
O O1 0.242151 0.276964 0.657822
O O2 0.592547 0.647705 0.635191
O O3 0.238149 0.338125 0.901179
O O4 0.482172 0.267053 0.732201
O O5 0.986197 0.417195 0.410248
O O6 0.684025 0.072679 0.370746
O O7 0.096098 0.299325 0.177557
O O8 0.934021 0.046844 0.436613
O O9 0.057379 0.288547 0.533778
O O10 0.671155 0.123141 0.659709
O O11 0.895594 0.299635 0.805966
O O12 0.255509 0.860487 0.895880
O O13 0.219488 0.073239 0.082561
O O14 0.500000 0.000000 0.000000
O O15 0.500000 0.500000 0.000000
#
# Coordination Sequence:
#
# PCOD8021864 Si02
#       7
#     2   2   2   2   2   2   2
#     4   9  21  42  67  95 140 177 221 287 336 396
#     4  11  23  41  70 100 131 179 226 277 345 402
#     4  11  22  42  66  99 138 173 226 284 334 405
#     4   9  18  35  58  89 134 165 207 279 327 383
#     4   9  21  39  62  97 136 168 222 284 330 399
#     4  10  22  44  69  95 136 183 225 277 338 409
#     4  11  21  39  68 102 134 176 225 282 339 405
#
# _framework density 27.060123000000001
#
# number of rings (size 3 to 8) (size 9 to 14) (size 15 to 20)
#    0.000    2.000    1.429    2.571    2.000    2.857 
#    5.143   10.714    6.286    0.000    0.000    0.000 
#    0.000    0.000    0.000    0.000    0.000    0.000 
#
# Total GULP energy -173546.643564 kJ/mol
# GULP energy per Si atom -12396.188826 kJ/mol
# Density = 2.699853 g / cm^3
# Si number density = 27.060123 Si / 1000 Ang^3
#
#
#
# Elastic Constant Matrix: (Units=GPa)
#
#
# Indices 1 2 3 4 5 6 
#
# 1 102.6936 47.1457 47.3419 1.5836 4.3226 -21.0350
# 2 47.1457 148.2469 81.5830 1.1385 5.1762 -14.1778
# 3 47.3419 81.5830 148.1291 -12.0670 15.2800 -13.9592
# 4 1.5836 1.1385 -12.0670 42.8644 -4.6646 0.4111
# 5 4.3226 5.1762 15.2800 -4.6646 51.2612 -4.0674
# 6 -21.0350 -14.1778 -13.9592 0.4111 -4.0674 17.8805
#
#
#
# Elastic Compliance Matrix: (Units=1/GPa)
#
#
# Indices 1 2 3 4 5 6 
#
# 1 0.014610 -0.001993 -0.002433 -0.001231 0.000685 0.013892
# 2 -0.001993 0.010357 -0.005065 -0.001576 0.000655 0.002098
# 3 -0.002433 -0.005065 0.010890 0.003044 -0.002168 0.001059
# 4 -0.001231 -0.001576 0.003044 0.024446 0.001538 -0.000533
# 5 0.000685 0.000655 -0.002168 0.001538 0.020508 0.004262
# 6 0.013892 0.002098 0.001059 -0.000533 0.004262 0.075742
#
#
# Mechanical properties :
#
#
# Convention : Reuss Voigt Hill
#
# Bulk Modulus (GPa) = 59.26638 83.46788 71.36713
# Shear Modulus (GPa) = 27.59974 37.26782 32.43378
#
# Velocity S-wave (km/s) = 3.19712 3.71512 3.46581
# Velocity P-wave (km/s) = 5.96473 7.02247 6.51510
#
# Compressibility (1/GPa) = 0.01687297
#
# Stress axis : x y z
#
# Youngs Moduli (GPa) = 68.44553 96.55498 91.82875
#
# Poissons Ratio (x) = 0.19244 0.22346
# Poissons Ratio (y) = 0.13642 0.46514
# Poissons Ratio (z) = 0.16656 0.48908
#
# Static dielectric constant tensor:
#      x y z
#    x 5.016960 0.037890 0.507620 
#    y 0.037890 4.628620 0.015520 
#    z 0.507620 0.015520 5.980990 
# 
# 
# High freq. dielectric constant tensor:
#      x y z
#    x 2.101110 0.004470 0.022840 
#    y 0.004470 2.069170 0.004720 
#    z 0.022840 0.004720 2.130970 
# 
# From -- ./inp_files/378649.got.cif
#   From: 2010.06.25/outbox.cif.g09.slc.cpg/sg2_190_cif.got.tgz:378649.got - 2010.06.27 13:26:56.
