data_PCOD8021218
_publ_section_title
;
Structure prediction by ZEFSAII (Michael W. Deem and Ramdas Pophale) SiO2 
 PCOD8021218
Probable space group: P -1
;
_chemical_formula_sum "Si O2"
_cell_formula_units_Z 16
_cell_length_a 15.500441
_cell_length_b 20.931035
_cell_length_c 8.363340
_cell_angle_alpha 58.022690
_cell_angle_beta 111.986915
_cell_angle_gamma 160.259179
_cell_volume 700.759211
_symmetry_space_group_name_H-M "P -1"
_symmetry_group_IT_number 2
_symmetry_cell_setting 'triclinic'
loop_
_space_group_symop_operation_xyz
x,y,z
-x,-y,-z
loop_
_atom_site_type_symbol
_atom_site_label
_atom_site_fract_x
_atom_site_fract_y
_atom_site_fract_z
Si Si1 0.141952 0.032413 0.408115
Si Si2 0.570342 0.639745 0.409184
Si Si3 0.014558 0.792171 0.849970
Si Si4 0.085175 0.483205 0.125403
Si Si5 0.597700 0.035578 0.183423
Si Si6 0.495925 0.301740 0.999707
Si Si7 0.275679 0.477694 0.704324
Si Si8 0.987913 0.410264 0.520808
O O1 0.400354 0.277142 0.335248
O O2 0.248262 0.086705 0.234550
O O3 0.863917 0.870919 0.405465
O O4 0.036365 0.885812 0.646030
O O5 0.500000 0.500000 0.500000
O O6 0.621503 0.730667 0.170696
O O7 0.303075 0.468335 0.553540
O O8 0.756600 0.542935 0.944712
O O9 0.324428 0.990377 0.779882
O O10 0.932330 0.737887 0.054093
O O11 0.396611 0.694889 0.005997
O O12 0.866948 0.265984 0.165127
O O13 0.103785 0.494765 0.312474
O O14 0.000000 0.500000 0.000000
O O15 0.346988 0.857941 0.369352
O O16 0.500000 0.000000 0.000000
O O17 0.149023 0.465940 0.651812
O O18 0.000000 0.500000 0.500000
#
# Coordination Sequence:
#
# PCOD8021218 Si02
#       8
#     2   2   2   2   2   2   2   2
#     4  11  24  44  73  97 132 183 228 284 352 407
#     4  12  24  49  70 100 136 179 231 293 353 401
#     4  10  22  43  69 101 133 180 229 276 344 415
#     4  11  25  42  67 104 140 180 232 282 349 421
#     4  11  22  41  68  98 140 179 225 283 345 416
#     4  10  23  46  69 100 140 174 228 292 337 416
#     4  11  25  46  69  99 141 177 233 287 337 421
#     4  12  24  43  68  99 142 185 229 284 349 417
#
# _framework density 22.832381000000002
#
# number of rings (size 3 to 8) (size 9 to 14) (size 15 to 20)
#    0.000    1.000    3.750    2.625    5.250    0.500 
#    6.750    0.000    0.000    0.000    0.000    0.000 
#    0.000    0.000    0.000    0.000    0.000    0.000 
#
# Total GULP energy -198209.666318 kJ/mol
# GULP energy per Si atom -12388.104145 kJ/mol
# Density = 2.278041 g / cm^3
# Si number density = 22.832381 Si / 1000 Ang^3
#
#
#
# Elastic Constant Matrix: (Units=GPa)
#
#
# Indices 1 2 3 4 5 6 
#
# 1 119.7870 15.8965 53.7683 0.9145 -15.2269 21.5658
# 2 15.8965 64.3390 8.3639 9.1082 -2.1649 18.6996
# 3 53.7683 8.3639 165.2268 12.7685 -15.2996 11.8480
# 4 0.9145 9.1082 12.7685 35.5494 6.1104 -2.8498
# 5 -15.2269 -2.1649 -15.2996 6.1104 43.0648 3.1401
# 6 21.5658 18.6996 11.8480 -2.8498 3.1401 35.9978
#
#
#
# Elastic Compliance Matrix: (Units=1/GPa)
#
#
# Indices 1 2 3 4 5 6 
#
# 1 0.011177 -0.000585 -0.002875 -0.000140 0.003340 -0.005748
# 2 -0.000585 0.019819 0.000751 -0.006694 0.002806 -0.010967
# 3 -0.002875 0.000751 0.007537 -0.003348 0.002291 -0.001613
# 4 -0.000140 -0.006694 -0.003348 0.032852 -0.006810 0.007858
# 5 0.003340 0.002806 0.002291 -0.006810 0.026840 -0.007093
# 6 -0.005748 -0.010967 -0.001613 0.007858 -0.007093 0.038692
#
#
# Mechanical properties :
#
#
# Convention : Reuss Voigt Hill
#
# Bulk Modulus (GPa) = 30.19954 56.15667 43.17810
# Shear Modulus (GPa) = 32.60029 41.01066 36.80547
#
# Velocity S-wave (km/s) = 3.78274 4.24271 4.01931
# Velocity P-wave (km/s) = 5.68631 6.97491 6.36331
#
# Compressibility (1/GPa) = 0.03311309
#
# Stress axis : x y z
#
# Youngs Moduli (GPa) = 89.47017 50.45666 132.68645
#
# Poissons Ratio (x) = 0.02951 0.38152
# Poissons Ratio (y) = 0.05233 -0.09959
# Poissons Ratio (z) = 0.25726 -0.03787
#
# Static dielectric constant tensor:
#      x y z
#    x 4.229300 0.283530 -0.611210 
#    y 0.283530 4.523950 -0.366700 
#    z -0.611210 -0.366700 4.697960 
# 
# 
# High freq. dielectric constant tensor:
#      x y z
#    x 1.904320 0.022830 -0.021890 
#    y 0.022830 1.903000 0.009770 
#    z -0.021890 0.009770 1.910220 
# 
# From -- ./inp_files/319304.got.cif
#   From: 2010.06.25/outbox.cif.g09.slc.cpg/sg2_160_cif.got.tgz:319304.got - 2010.06.27 13:26:56.
