data_PCOD8021119
_publ_section_title
;
Structure prediction by ZEFSAII (Michael W. Deem and Ramdas Pophale) SiO2 
 PCOD8021119
Probable space group: P -1
;
_chemical_formula_sum "Si O2"
_cell_formula_units_Z 14
_cell_length_a 9.048849
_cell_length_b 7.365150
_cell_length_c 10.118103
_cell_angle_alpha 74.715961
_cell_angle_beta 99.678594
_cell_angle_gamma 71.533123
_cell_volume 593.197069
_symmetry_space_group_name_H-M "P -1"
_symmetry_group_IT_number 2
_symmetry_cell_setting 'triclinic'
loop_
_space_group_symop_operation_xyz
x,y,z
-x,-y,-z
loop_
_atom_site_type_symbol
_atom_site_label
_atom_site_fract_x
_atom_site_fract_y
_atom_site_fract_z
Si Si1 0.335301 0.077746 0.537825
Si Si2 0.867979 0.051324 0.668182
Si Si3 0.834156 0.494711 0.875696
Si Si4 0.505602 0.224269 0.161869
Si Si5 0.864935 0.484111 0.579926
Si Si6 0.768857 0.882514 0.932251
Si Si7 0.818035 0.145725 0.102121
O O1 0.292438 0.315292 0.515098
O O2 0.500000 0.000000 0.500000
O O3 0.187705 0.057597 0.436846
O O4 0.361063 0.946203 0.697483
O O5 0.827003 0.285514 0.579425
O O6 0.772469 0.041931 0.789576
O O7 0.061225 0.930206 0.740729
O O8 0.633984 0.594099 0.814811
O O9 0.910379 0.481607 0.743798
O O10 0.887775 0.270671 0.989493
O O11 0.116081 0.350930 0.050505
O O12 0.414285 0.109493 0.082176
O O13 0.631558 0.292193 0.082682
O O14 0.000000 0.500000 0.500000
O O15 0.823452 0.941230 0.068532
#
# Coordination Sequence:
#
# PCOD8021119 Si02
#       7
#     2   2   2   2   2   2   2
#     4  12  23  52  73  98 147 190 239 296 355 422
#     4  12  26  45  74 102 141 197 232 298 361 415
#     4  10  23  44  72 100 143 187 233 288 361 416
#     4  10  23  46  71 103 141 189 235 292 349 425
#     4  12  26  45  71 107 143 185 244 293 355 425
#     4  10  22  43  68 100 140 184 227 289 352 418
#     4  12  24  43  72 107 144 181 240 289 354 430
#
# _framework density 23.600926999999999
#
# number of rings (size 3 to 8) (size 9 to 14) (size 15 to 20)
#    0.857    0.000    5.714    2.143    0.000    4.571 
#    2.571    0.000    0.000    0.000    0.000    0.000 
#    0.000    0.000    0.000    0.000    0.000    0.000 
#
# Total GULP energy -173522.557608 kJ/mol
# GULP energy per Si atom -12394.468401 kJ/mol
# Density = 2.354721 g / cm^3
# Si number density = 23.600927 Si / 1000 Ang^3
#
#
#
# Elastic Constant Matrix: (Units=GPa)
#
#
# Indices 1 2 3 4 5 6 
#
# 1 131.8403 44.7379 20.1095 5.4887 3.7341 1.3570
# 2 44.7379 102.4555 46.0543 -12.1796 5.7106 -3.9505
# 3 20.1095 46.0543 82.5814 -10.7804 6.5620 11.3395
# 4 5.4887 -12.1796 -10.7804 40.1721 2.1444 1.3049
# 5 3.7341 5.7106 6.5620 2.1444 43.5159 6.1458
# 6 1.3570 -3.9505 11.3395 1.3049 6.1458 36.6936
#
#
#
# Elastic Compliance Matrix: (Units=1/GPa)
#
#
# Indices 1 2 3 4 5 6 
#
# 1 0.009169 -0.004302 -0.000073 -0.002555 0.000012 -0.000691
# 2 -0.004302 0.015782 -0.007835 0.003197 -0.001297 0.004383
# 3 -0.000073 -0.007835 0.017777 0.002656 -0.000890 -0.006280
# 4 -0.002555 0.003197 0.002656 0.027053 -0.001786 -0.001045
# 5 0.000012 -0.001297 -0.000890 -0.001786 0.023909 -0.003806
# 6 -0.000691 0.004383 -0.006280 -0.001045 -0.003806 0.030365
#
#
# Mechanical properties :
#
#
# Convention : Reuss Voigt Hill
#
# Bulk Modulus (GPa) = 54.62493 59.85340 57.23917
# Shear Modulus (GPa) = 32.34596 37.80801 35.07698
#
# Velocity S-wave (km/s) = 3.70609 4.00681 3.85938
# Velocity P-wave (km/s) = 6.44275 6.84264 6.64570
#
# Compressibility (1/GPa) = 0.01830666
#
# Stress axis : x y z
#
# Youngs Moduli (GPa) = 109.06333 63.36293 56.25370
#
# Poissons Ratio (x) = 0.27257 0.00413
# Poissons Ratio (y) = 0.46916 0.44077
# Poissons Ratio (z) = 0.00800 0.49647
#
# Static dielectric constant tensor:
#      x y z
#    x 4.332510 0.041010 -0.110590 
#    y 0.041010 4.036190 0.259610 
#    z -0.110590 0.259610 4.304320 
# 
# 
# High freq. dielectric constant tensor:
#      x y z
#    x 1.951210 -0.001940 -0.003970 
#    y -0.001940 1.925370 -0.015160 
#    z -0.003970 -0.015160 1.927960 
# 
# From -- ./inp_files/378003.got.cif
#   From: 2010.06.25/outbox.cif.g09.slc.cpg/sg2_190_cif.got.tgz:378003.got - 2010.06.27 13:26:56.
