data_PCOD8021043
_publ_section_title
;
Structure prediction by ZEFSAII (Michael W. Deem and Ramdas Pophale) SiO2 
 PCOD8021043
Probable space group: P -1
;
_chemical_formula_sum "Si O2"
_cell_formula_units_Z 16
_cell_length_a 10.587146
_cell_length_b 18.415974
_cell_length_c 14.477657
_cell_angle_alpha 148.258247
_cell_angle_beta 150.130056
_cell_angle_gamma 27.439761
_cell_volume 606.316607
_symmetry_space_group_name_H-M "P -1"
_symmetry_group_IT_number 2
_symmetry_cell_setting 'triclinic'
loop_
_space_group_symop_operation_xyz
x,y,z
-x,-y,-z
loop_
_atom_site_type_symbol
_atom_site_label
_atom_site_fract_x
_atom_site_fract_y
_atom_site_fract_z
Si Si1 0.012059 0.054123 0.668893
Si Si2 0.153928 0.648719 0.821137
Si Si3 0.815163 0.410045 0.913812
Si Si4 0.261423 0.790778 0.680619
Si Si5 0.665338 0.466990 0.676192
Si Si6 0.156602 0.957989 0.152536
Si Si7 0.997386 0.473227 0.679171
Si Si8 0.371906 0.162641 0.461843
O O1 0.041587 0.209387 0.856537
O O2 0.706008 0.106462 0.584621
O O3 0.000000 0.000000 0.500000
O O4 0.294846 0.898622 0.738992
O O5 0.460448 0.480756 0.792176
O O6 0.038228 0.602689 0.787177
O O7 0.878392 0.734924 0.666203
O O8 0.251033 0.775273 0.047381
O O9 0.834939 0.440279 0.850844
O O10 0.933014 0.506778 0.148670
O O11 0.590884 0.641056 0.771951
O O12 0.134289 0.689829 0.438470
O O13 0.061396 0.905640 0.762242
O O14 0.343120 0.482896 0.504766
O O15 0.425893 0.986621 0.337225
O O16 0.000000 0.000000 0.000000
O O17 0.257809 0.282996 0.608530
#
# Coordination Sequence:
#
# PCOD8021043 Si02
#       8
#     2   2   2   2   2   2   2   2
#     4  12  26  45  70 109 150 190 242 308 367 433
#     4  11  22  41  73 107 148 188 247 310 359 436
#     4  12  24  44  71 106 148 183 247 308 357 430
#     4  11  24  45  72  99 149 197 233 308 370 424
#     4  11  24  48  71 100 147 199 243 291 373 449
#     4  10  22  43  67 106 138 183 242 300 358 425
#     4  12  23  41  74 111 136 196 251 300 360 437
#     4  11  23  43  75 104 146 197 247 298 375 437
#
# _framework density 26.388852
#
# number of rings (size 3 to 8) (size 9 to 14) (size 15 to 20)
#    0.000    0.750    5.000    3.000    1.750    1.500 
#    4.500    3.750    0.000    0.000    0.000    0.000 
#    0.000    0.000    0.000    0.000    0.000    0.000 
#
# Total GULP energy -198280.494623 kJ/mol
# GULP energy per Si atom -12392.530914 kJ/mol
# Density = 2.632879 g / cm^3
# Si number density = 26.388852 Si / 1000 Ang^3
#
#
#
# Elastic Constant Matrix: (Units=GPa)
#
#
# Indices 1 2 3 4 5 6 
#
# 1 96.6070 39.8697 54.4019 12.0873 -28.9198 13.5350
# 2 39.8697 118.1486 40.8150 28.1561 -7.4845 38.5490
# 3 54.4019 40.8150 131.1608 22.8289 -26.2500 19.0183
# 4 12.0873 28.1561 22.8289 47.9655 2.7465 -3.9787
# 5 -28.9198 -7.4845 -26.2500 2.7465 63.5867 3.3104
# 6 13.5350 38.5490 19.0183 -3.9787 3.3104 57.9555
#
#
#
# Elastic Compliance Matrix: (Units=1/GPa)
#
#
# Indices 1 2 3 4 5 6 
#
# 1 0.015781 -0.003317 -0.004427 -0.000235 0.004987 -0.000327
# 2 -0.003317 0.014993 -0.000115 -0.008788 0.001100 -0.009826
# 3 -0.004427 -0.000115 0.011364 -0.004657 0.003027 -0.003111
# 4 -0.000235 -0.008788 -0.004657 0.029366 -0.004838 0.009721
# 5 0.004987 0.001100 0.003027 -0.004838 0.019809 -0.004353
# 6 -0.000327 -0.009826 -0.003111 0.009721 -0.004353 0.025804
#
#
# Mechanical properties :
#
#
# Convention : Reuss Voigt Hill
#
# Bulk Modulus (GPa) = 37.85082 68.45441 53.15261
# Shear Modulus (GPa) = 35.29988 47.95685 41.62837
#
# Velocity S-wave (km/s) = 3.66140 4.26762 3.97608
# Velocity P-wave (km/s) = 5.67883 7.09087 6.42377
#
# Compressibility (1/GPa) = 0.02641950
#
# Stress axis : x y z
#
# Youngs Moduli (GPa) = 63.36611 66.69629 87.99899
#
# Poissons Ratio (x) = 0.22126 0.38956
# Poissons Ratio (y) = 0.21021 0.01013
# Poissons Ratio (z) = 0.28052 0.00768
#
# Static dielectric constant tensor:
#      x y z
#    x 5.116150 0.142260 -0.047560 
#    y 0.142260 5.037510 0.485810 
#    z -0.047560 0.485810 4.934110 
# 
# 
# High freq. dielectric constant tensor:
#      x y z
#    x 2.077940 0.014780 -0.012920 
#    y 0.014780 2.060060 0.014410 
#    z -0.012920 0.014410 2.065860 
# 
# From -- ./inp_files/524112.got.cif
#   From: 2010.06.25/outbox.cif.g09.slc.cpg/sg2_263_cif.got.tgz:524112.got - 2010.06.27 13:26:56.
