data_PCOD8021725
_publ_section_title
;
Structure prediction by ZEFSAII (Michael W. Deem and Ramdas Pophale) SiO2 
 PCOD8021725
Probable space group: P -1
;
_chemical_formula_sum "Si O2"
_cell_formula_units_Z 16
_cell_length_a 8.817178
_cell_length_b 13.104475
_cell_length_c 9.397411
_cell_angle_alpha 113.574684
_cell_angle_beta 69.920673
_cell_angle_gamma 68.210388
_cell_volume 754.193599
_symmetry_space_group_name_H-M "P -1"
_symmetry_group_IT_number 2
_symmetry_cell_setting 'triclinic'
loop_
_space_group_symop_operation_xyz
x,y,z
-x,-y,-z
loop_
_atom_site_type_symbol
_atom_site_label
_atom_site_fract_x
_atom_site_fract_y
_atom_site_fract_z
Si Si1 0.582916 0.717213 0.135550
Si Si2 0.271672 0.128129 0.988979
Si Si3 0.197726 0.421119 0.490893
Si Si4 0.301487 0.140624 0.307629
Si Si5 0.024934 0.805928 0.092981
Si Si6 0.817079 0.998194 0.523291
Si Si7 0.465170 0.634812 0.859874
Si Si8 0.248906 0.508814 0.821738
O O1 0.697033 0.769272 0.047924
O O2 0.380808 0.847258 0.343333
O O3 0.717812 0.614440 0.163120
O O4 0.543219 0.632033 0.991134
O O5 0.081663 0.139615 0.994922
O O6 0.460636 0.969858 0.826383
O O7 0.219985 0.175628 0.193374
O O8 0.235603 0.285293 0.474313
O O9 0.390077 0.371603 0.306476
O O10 0.187350 0.507883 0.677464
O O11 0.000000 0.500000 0.500000
O O12 0.196167 0.084258 0.392066
O O13 0.862137 0.916018 0.317612
O O14 0.240136 0.782046 0.004127
O O15 0.068670 0.656697 0.027806
O O16 0.000000 0.000000 0.500000
O O17 0.447979 0.508225 0.766144
#
# Coordination Sequence:
#
# PCOD8021725 Si02
#       8
#     2   2   2   2   2   2   2   2
#     4  11  22  42  71  96 136 176 224 278 331 394
#     4  10  22  44  67  95 135 175 220 282 326 396
#     4  12  25  45  70  98 134 179 225 278 332 401
#     4  10  24  41  68  95 130 176 230 264 339 387
#     4  10  24  42  67  97 138 174 220 277 331 396
#     4  11  23  44  66  99 135 173 221 272 333 399
#     4  10  23  45  66  96 139 174 223 278 330 397
#     4  10  25  41  66 102 132 178 222 278 333 389
#
# _framework density 21.214711999999999
#
# number of rings (size 3 to 8) (size 9 to 14) (size 15 to 20)
#    0.750    0.750    2.500    1.500    3.500    3.500 
#    2.250    1.250    0.000    0.000    0.000    0.000 
#    0.000    0.000    0.000    0.000    0.000    0.000 
#
# Total GULP energy -198308.468213 kJ/mol
# GULP energy per Si atom -12394.279263 kJ/mol
# Density = 2.116643 g / cm^3
# Si number density = 21.214712 Si / 1000 Ang^3
#
#
#
# Elastic Constant Matrix: (Units=GPa)
#
#
# Indices 1 2 3 4 5 6 
#
# 1 83.3697 19.3456 30.7305 -9.3553 16.6951 -18.3305
# 2 19.3456 82.8684 21.3380 2.5598 20.3634 -4.6164
# 3 30.7305 21.3380 99.6885 2.7315 22.6802 -2.0874
# 4 -9.3553 2.5598 2.7315 28.9570 5.4514 9.5781
# 5 16.6951 20.3634 22.6802 5.4514 25.2767 -5.7826
# 6 -18.3305 -4.6164 -2.0874 9.5781 -5.7826 27.7010
#
#
#
# Elastic Compliance Matrix: (Units=1/GPa)
#
#
# Indices 1 2 3 4 5 6 
#
# 1 0.017101 -0.001235 -0.003536 0.004512 -0.006277 0.007974
# 2 -0.001235 0.015191 -0.000282 0.000792 -0.011568 -0.000995
# 3 -0.003536 -0.000282 0.013494 0.000902 -0.010633 -0.003901
# 4 0.004512 0.000792 0.000902 0.044396 -0.017627 -0.015845
# 5 -0.006277 -0.011568 -0.010633 -0.017627 0.069509 0.013722
# 6 0.007974 -0.000995 -0.003901 -0.015845 0.013722 0.049259
#
#
# Mechanical properties :
#
#
# Convention : Reuss Voigt Hill
#
# Bulk Modulus (GPa) = 28.02550 45.41718 36.72134
# Shear Modulus (GPa) = 21.64984 29.35446 25.50215
#
# Velocity S-wave (km/s) = 3.19801 3.72383 3.47089
# Velocity P-wave (km/s) = 5.18415 6.32013 5.78011
#
# Compressibility (1/GPa) = 0.03568179
#
# Stress axis : x y z
#
# Youngs Moduli (GPa) = 58.47607 65.82912 74.10597
#
# Poissons Ratio (x) = 0.08127 0.26204
# Poissons Ratio (y) = 0.07219 0.02087
# Poissons Ratio (z) = 0.20677 0.01854
#
# Static dielectric constant tensor:
#      x y z
#    x 3.812290 0.069390 0.321660 
#    y 0.069390 3.592730 0.134460 
#    z 0.321660 0.134460 4.615920 
# 
# 
# High freq. dielectric constant tensor:
#      x y z
#    x 1.838540 -0.005490 0.008250 
#    y -0.005490 1.821730 0.008840 
#    z 0.008250 0.008840 1.835460 
# 
# From -- ./inp_files/189141.got.cif
#   From: 2010.06.25/outbox.cif.g09.slc.cpg/sg2_95_cif.got.tgz:189141.got - 2010.06.27 13:26:56.
