data_PCOD8021979
_publ_section_title
;
Structure prediction by ZEFSAII (Michael W. Deem and Ramdas Pophale) SiO2 
 PCOD8021979
Probable space group: P -1
;
_chemical_formula_sum "Si O2"
_cell_formula_units_Z 12
_cell_length_a 14.941508
_cell_length_b 9.175387
_cell_length_c 5.085665
_cell_angle_alpha 105.312347
_cell_angle_beta 77.316097
_cell_angle_gamma 65.890627
_cell_volume 569.766693
_symmetry_space_group_name_H-M "P -1"
_symmetry_group_IT_number 2
_symmetry_cell_setting 'triclinic'
loop_
_space_group_symop_operation_xyz
x,y,z
-x,-y,-z
loop_
_atom_site_type_symbol
_atom_site_label
_atom_site_fract_x
_atom_site_fract_y
_atom_site_fract_z
Si Si1 0.865802 0.493980 0.552017
Si Si2 0.196968 0.171030 0.513537
Si Si3 0.344950 0.360634 0.022478
Si Si4 0.528609 0.649920 0.566819
Si Si5 0.920709 0.746726 0.864850
Si Si6 0.390269 0.013195 0.649096
O O1 0.816936 0.635226 0.411878
O O2 0.770029 0.479263 0.745964
O O3 0.919256 0.563487 0.765144
O O4 0.956775 0.305516 0.295061
O O5 0.160453 0.119684 0.240964
O O6 0.318167 0.036911 0.451245
O O7 0.119330 0.166748 0.786000
O O8 0.431738 0.342083 0.165471
O O9 0.381405 0.385966 0.724201
O O10 0.330873 0.186472 0.953977
O O11 0.500000 0.500000 0.500000
O O12 0.419515 0.832293 0.684044
O O13 0.500000 0.000000 0.500000
#
# Coordination Sequence:
#
# PCOD8021979 Si02
#       6
#     2   2   2   2   2   2
#     4   9  18  29  49  78 112 136 166 216 274 308
#     4  10  17  29  43  76 109 138 165 210 267 313
#     4  11  21  36  59  81 107 138 184 224 263 317
#     4  11  25  40  54  78 110 146 180 221 271 321
#     4   9  19  26  47  74 122 131 162 213 281 309
#     4  10  20  34  56  81 106 139 181 227 262 313
#
# _framework density 21.061252
#
# number of rings (size 3 to 8) (size 9 to 14) (size 15 to 20)
#    1.000    1.000    1.667    3.500    0.000    4.000 
#    0.000    0.000    0.000    0.000    0.000    7.000 
#    0.000    0.000    0.000    0.000    0.000    0.000 
#
# Total GULP energy -148663.592028 kJ/mol
# GULP energy per Si atom -12388.632669 kJ/mol
# Density = 2.101332 g / cm^3
# Si number density = 21.061252 Si / 1000 Ang^3
#
#
#
# Elastic Constant Matrix: (Units=GPa)
#
#
# Indices 1 2 3 4 5 6 
#
# 1 57.8450 34.3131 11.1636 6.9651 -17.2375 -13.2183
# 2 34.3131 57.5267 6.4517 5.0763 0.7061 3.6284
# 3 11.1636 6.4517 78.2970 -14.7889 -13.1704 2.0785
# 4 6.9651 5.0763 -14.7889 18.6683 -8.8867 -0.2962
# 5 -17.2375 0.7061 -13.1704 -8.8867 36.5867 7.6691
# 6 -13.2183 3.6284 2.0785 -0.2962 7.6691 31.0370
#
#
#
# Elastic Compliance Matrix: (Units=1/GPa)
#
#
# Indices 1 2 3 4 5 6 
#
# 1 0.041657 -0.025577 -0.002359 -0.003080 0.014923 0.017173
# 2 -0.025577 0.034605 -0.002784 -0.008636 -0.013403 -0.011523
# 3 -0.002359 -0.002784 0.020131 0.023691 0.012994 -0.005012
# 4 -0.003080 -0.008636 0.023691 0.090471 0.031042 -0.008695
# 5 0.014923 -0.013403 0.012994 0.031042 0.047773 -0.004456
# 6 0.017173 -0.011523 -0.005012 -0.008695 -0.004456 0.042234
#
#
# Mechanical properties :
#
#
# Convention : Reuss Voigt Hill
#
# Bulk Modulus (GPa) = 28.61114 33.05840 30.83477
# Shear Modulus (GPa) = 14.28717 26.70775 20.49746
#
# Velocity S-wave (km/s) = 2.60737 3.56490 3.12305
# Velocity P-wave (km/s) = 4.76222 5.71621 5.26088
#
# Compressibility (1/GPa) = 0.03495142
#
# Stress axis : x y z
#
# Youngs Moduli (GPa) = 24.00552 28.89756 49.67369
#
# Poissons Ratio (x) = 0.73912 0.11720
# Poissons Ratio (y) = 0.61400 0.13831
# Poissons Ratio (z) = 0.05664 0.08046
#
# Static dielectric constant tensor:
#      x y z
#    x 3.626570 -0.478200 -0.249810 
#    y -0.478200 3.782810 0.111850 
#    z -0.249810 0.111850 3.893640 
# 
# 
# High freq. dielectric constant tensor:
#      x y z
#    x 1.805980 -0.052530 -0.023280 
#    y -0.052530 1.770030 -0.019520 
#    z -0.023280 -0.019520 1.829100 
# 
# From -- ./inp_files/86583.got.cif
#   From: 2010.06.25/outbox.cif.g09.slc.cpg/sg2_44_cif.got.tgz:86583.got - 2010.06.27 13:26:56.
