data_PCOD8021004
_publ_section_title
;
Structure prediction by ZEFSAII (Michael W. Deem and Ramdas Pophale) SiO2 
 PCOD8021004
Probable space group: P -1
;
_chemical_formula_sum "Si O2"
_cell_formula_units_Z 14
_cell_length_a 15.457784
_cell_length_b 8.770360
_cell_length_c 14.763134
_cell_angle_alpha 38.263111
_cell_angle_beta 30.558804
_cell_angle_gamma 38.009367
_cell_volume 589.102047
_symmetry_space_group_name_H-M "P -1"
_symmetry_group_IT_number 2
_symmetry_cell_setting 'triclinic'
loop_
_space_group_symop_operation_xyz
x,y,z
-x,-y,-z
loop_
_atom_site_type_symbol
_atom_site_label
_atom_site_fract_x
_atom_site_fract_y
_atom_site_fract_z
Si Si1 0.265471 0.057909 0.327156
Si Si2 0.228843 0.604910 0.915934
Si Si3 0.867858 0.995399 0.348998
Si Si4 0.872586 0.760339 0.942934
Si Si5 0.030400 0.425256 0.688921
Si Si6 0.571726 0.249898 0.987613
Si Si7 0.642411 0.425382 0.661047
O O1 0.289116 0.012442 0.436723
O O2 0.069281 0.261944 0.379372
O O3 0.311725 0.783589 0.363310
O O4 0.404254 0.204648 0.108691
O O5 0.425533 0.586591 0.783462
O O6 0.198297 0.797002 0.768737
O O7 0.213692 0.325549 0.027765
O O8 0.070341 0.706570 0.087382
O O9 0.968905 0.712618 0.344123
O O10 0.995973 0.074691 0.268661
O O11 0.698589 0.976469 0.051297
O O12 0.000000 0.500000 0.000000
O O13 0.237703 0.387177 0.551039
O O14 0.694337 0.298158 0.773163
O O15 0.500000 0.500000 0.000000
#
# Coordination Sequence:
#
# PCOD8021004 Si02
#       7
#     2   2   2   2   2   2   2
#     4  12  23  43  71  97 138 179 234 286 336 418
#     4  11  24  47  68 100 141 183 227 282 347 418
#     4  11  25  44  67 103 138 180 231 283 350 413
#     4  10  22  43  66  95 137 183 227 277 346 415
#     4  12  24  44  70 100 137 181 229 290 346 406
#     4  12  23  42  71 105 138 178 236 296 344 410
#     4  12  25  44  72 100 138 181 234 281 344 419
#
# _framework density 23.764983000000001
#
# number of rings (size 3 to 8) (size 9 to 14) (size 15 to 20)
#    0.000    0.571    2.857    6.000    0.000    1.143 
#    5.143    0.000    0.000    0.000    0.000    0.000 
#    0.000    0.000    0.000    0.000    0.000    0.000 
#
# Total GULP energy -173446.936165 kJ/mol
# GULP energy per Si atom -12389.066869 kJ/mol
# Density = 2.371089 g / cm^3
# Si number density = 23.764983 Si / 1000 Ang^3
#
#
#
# Elastic Constant Matrix: (Units=GPa)
#
#
# Indices 1 2 3 4 5 6 
#
# 1 75.9971 39.1798 39.3906 10.1212 2.9650 -1.4676
# 2 39.1798 111.7105 35.4337 14.3976 2.7815 11.8903
# 3 39.3906 35.4337 118.3323 18.5675 2.5551 -13.1758
# 4 10.1212 14.3976 18.5675 28.4362 3.0038 0.0355
# 5 2.9650 2.7815 2.5551 3.0038 60.8222 8.8914
# 6 -1.4676 11.8903 -13.1758 0.0355 8.8914 36.8912
#
#
#
# Elastic Compliance Matrix: (Units=1/GPa)
#
#
# Indices 1 2 3 4 5 6 
#
# 1 0.018098 -0.004940 -0.004257 -0.001103 -0.000559 0.000927
# 2 -0.004940 0.012285 -0.002120 -0.003141 0.000664 -0.005070
# 3 -0.004257 -0.002120 0.011864 -0.005094 -0.000661 0.004915
# 4 -0.001103 -0.003141 -0.005094 0.040637 -0.001519 -0.000524
# 5 -0.000559 0.000664 -0.000661 -0.001519 0.017216 -0.004620
# 6 0.000927 -0.005070 0.004915 -0.000524 -0.004620 0.031647
#
#
# Mechanical properties :
#
#
# Convention : Reuss Voigt Hill
#
# Bulk Modulus (GPa) = 50.98793 59.33867 55.16330
# Shear Modulus (GPa) = 31.07160 38.03231 34.55195
#
# Velocity S-wave (km/s) = 3.61979 4.00478 3.81714
# Velocity P-wave (km/s) = 6.24277 6.81230 6.53375
#
# Compressibility (1/GPa) = 0.01961248
#
# Stress axis : x y z
#
# Youngs Moduli (GPa) = 55.25419 81.40174 84.29153
#
# Poissons Ratio (x) = 0.40212 0.35882
# Poissons Ratio (y) = 0.27295 0.17872
# Poissons Ratio (z) = 0.23521 0.17259
#
# Static dielectric constant tensor:
#      x y z
#    x 4.277660 0.176310 -0.288670 
#    y 0.176310 4.301790 0.031270 
#    z -0.288670 0.031270 4.621910 
# 
# 
# High freq. dielectric constant tensor:
#      x y z
#    x 1.937020 0.008930 -0.013410 
#    y 0.008930 1.941870 0.002120 
#    z -0.013410 0.002120 1.950110 
# 
# From -- ./inp_files/181680.got.cif
#   From: 2010.06.25/outbox.cif.g09.slc.cpg/sg2_91_cif.got.tgz:181680.got - 2010.06.27 13:26:56.
