data_PCOD8021659
_publ_section_title
;
Structure prediction by ZEFSAII (Michael W. Deem and Ramdas Pophale) SiO2 
 PCOD8021659
Probable space group: P -1
;
_chemical_formula_sum "Si O2"
_cell_formula_units_Z 12
_cell_length_a 11.374465
_cell_length_b 10.413765
_cell_length_c 7.737479
_cell_angle_alpha 74.936615
_cell_angle_beta 119.860763
_cell_angle_gamma 60.641575
_cell_volume 516.278136
_symmetry_space_group_name_H-M "P -1"
_symmetry_group_IT_number 2
_symmetry_cell_setting 'triclinic'
loop_
_space_group_symop_operation_xyz
x,y,z
-x,-y,-z
loop_
_atom_site_type_symbol
_atom_site_label
_atom_site_fract_x
_atom_site_fract_y
_atom_site_fract_z
Si Si1 0.007788 0.431255 0.265338
Si Si2 0.191441 0.525265 0.566147
Si Si3 0.261088 0.173927 0.236501
Si Si4 0.814774 0.044149 0.906553
Si Si5 0.624801 0.260587 0.034988
Si Si6 0.349209 0.682843 0.598365
O O1 0.960288 0.380895 0.417560
O O2 0.139423 0.465827 0.393245
O O3 0.142504 0.240347 0.307339
O O4 0.803534 0.635265 0.954800
O O5 0.419279 0.323480 0.861952
O O6 0.181301 0.687306 0.439230
O O7 0.500000 0.000000 0.500000
O O8 0.180131 0.117215 0.068431
O O9 0.778249 0.091257 0.066426
O O10 0.634301 0.232138 0.584397
O O11 0.000000 0.000000 0.000000
O O12 0.567826 0.455845 0.872962
O O13 0.718261 0.189061 0.321349
#
# Coordination Sequence:
#
# PCOD8021659 Si02
#       6
#     2   2   2   2   2   2
#     4  10  22  44  66  87 134 170 218 261 317 400
#     4   9  19  41  67  91 118 175 213 263 324 374
#     4  11  26  42  64  98 130 174 213 265 328 386
#     4  12  25  40  62 101 131 166 215 270 325 386
#     4   9  21  40  65  94 125 170 209 264 330 379
#     4   9  21  40  66  92 122 167 213 263 323 381
#
# _framework density 23.243286000000001
#
# number of rings (size 3 to 8) (size 9 to 14) (size 15 to 20)
#    1.000    1.000    0.000    2.500    4.667    0.667 
#    9.000    4.167    0.000    0.000    0.000    0.000 
#    0.000    0.000    0.000    0.000    0.000    0.000 
#
# Total GULP energy -148734.990017 kJ/mol
# GULP energy per Si atom -12394.582501 kJ/mol
# Density = 2.319038 g / cm^3
# Si number density = 23.243286 Si / 1000 Ang^3
#
#
#
# Elastic Constant Matrix: (Units=GPa)
#
#
# Indices 1 2 3 4 5 6 
#
# 1 60.1883 36.1579 -1.3930 -1.7625 6.8433 -4.8337
# 2 36.1579 150.1606 11.9361 18.8179 5.2853 -22.2007
# 3 -1.3930 11.9361 36.1613 3.0454 7.8235 2.8793
# 4 -1.7625 18.8179 3.0454 38.5797 -0.7926 -3.3975
# 5 6.8433 5.2853 7.8235 -0.7926 38.4777 -0.7538
# 6 -4.8337 -22.2007 2.8793 -3.3975 -0.7538 30.8870
#
#
#
# Elastic Compliance Matrix: (Units=1/GPa)
#
#
# Indices 1 2 3 4 5 6 
#
# 1 0.020471 -0.005593 0.003176 0.003268 -0.003467 -0.000838
# 2 -0.005593 0.009684 -0.003632 -0.004157 0.000434 0.005978
# 3 0.003176 -0.003632 0.030890 -0.001119 -0.006473 -0.005274
# 4 0.003268 -0.004157 -0.001119 0.028269 0.000815 0.000757
# 5 -0.003467 0.000434 -0.006473 0.000815 0.027901 0.001144
# 6 -0.000838 0.005978 -0.005274 0.000757 0.001144 0.037144
#
#
# Mechanical properties :
#
#
# Convention : Reuss Voigt Hill
#
# Bulk Modulus (GPa) = 20.42991 37.76801 29.09896
# Shear Modulus (GPa) = 27.35640 34.90950 31.13295
#
# Velocity S-wave (km/s) = 3.43441 3.87966 3.66380
# Velocity P-wave (km/s) = 4.95334 6.02937 5.51765
#
# Compressibility (1/GPa) = 0.04894784
#
# Stress axis : x y z
#
# Youngs Moduli (GPa) = 48.85037 103.25836 32.37323
#
# Poissons Ratio (x) = 0.57753 -0.10283
# Poissons Ratio (y) = 0.27322 0.11758
# Poissons Ratio (z) = -0.15517 0.37502
#
# Static dielectric constant tensor:
#      x y z
#    x 3.841430 0.084210 -0.076910 
#    y 0.084210 4.090120 0.154420 
#    z -0.076910 0.154420 4.279610 
# 
# 
# High freq. dielectric constant tensor:
#      x y z
#    x 1.898260 0.001140 0.000750 
#    y 0.001140 1.917030 0.016190 
#    z 0.000750 0.016190 1.921460 
# 
# From -- ./inp_files/247833.got.cif
#   From: 2010.06.25/outbox.cif.g09.slc.cpg/sg2_124_cif.got.tgz:247833.got - 2010.06.27 13:26:56.
