data_PCOD8021490
_publ_section_title
;
Structure prediction by ZEFSAII (Michael W. Deem and Ramdas Pophale) SiO2 
 PCOD8021490
Probable space group: P -1
;
_chemical_formula_sum "Si O2"
_cell_formula_units_Z 14
_cell_length_a 13.375181
_cell_length_b 9.683106
_cell_length_c 7.688657
_cell_angle_alpha 98.734188
_cell_angle_beta 114.221915
_cell_angle_gamma 42.585330
_cell_volume 596.027395
_symmetry_space_group_name_H-M "P -1"
_symmetry_group_IT_number 2
_symmetry_cell_setting 'triclinic'
loop_
_space_group_symop_operation_xyz
x,y,z
-x,-y,-z
loop_
_atom_site_type_symbol
_atom_site_label
_atom_site_fract_x
_atom_site_fract_y
_atom_site_fract_z
Si Si1 0.352751 0.243845 0.501333
Si Si2 0.782871 0.067015 0.339610
Si Si3 0.996410 0.511789 0.706795
Si Si4 0.224784 0.838080 0.018298
Si Si5 0.013171 0.163817 0.228544
Si Si6 0.335856 0.109207 0.811467
Si Si7 0.556172 0.523107 0.371366
O O1 0.317102 0.242036 0.674395
O O2 0.399703 0.359576 0.529832
O O3 0.171800 0.393093 0.310480
O O4 0.500000 0.000000 0.500000
O O5 0.709490 0.290396 0.362373
O O6 0.940816 0.896678 0.545285
O O7 0.654590 0.060438 0.284575
O O8 0.830616 0.015055 0.158864
O O9 0.169107 0.274080 0.845035
O O10 0.000000 0.500000 0.500000
O O11 0.003414 0.662357 0.806722
O O12 0.421003 0.648644 0.145602
O O13 0.155825 0.960166 0.174499
O O14 0.160818 0.742551 0.918769
O O15 0.500000 0.000000 0.000000
O O16 0.500000 0.500000 0.500000
#
# Coordination Sequence:
#
# PCOD8021490 Si02
#       7
#     2   2   2   2   2   2   2
#     4  11  23  45  73  99 144 191 238 296 366 438
#     4  12  24  44  73 101 146 193 242 296 373 431
#     4  10  22  43  74  98 142 192 243 291 372 437
#     4  11  26  42  69 107 145 188 242 302 361 439
#     4  11  23  47  68 102 149 185 243 307 358 436
#     4  11  25  45  70 107 144 186 248 301 362 444
#     4  12  25  44  71 106 146 190 243 301 371 431
#
# _framework density 23.488852999999999
#
# number of rings (size 3 to 8) (size 9 to 14) (size 15 to 20)
#    0.000    0.857    4.286    3.429    6.000    1.143 
#    0.000    1.429    0.000    0.000    0.000    0.000 
#    0.000    0.000    0.000    0.000    0.000    0.000 
#
# Total GULP energy -173493.312461 kJ/mol
# GULP energy per Si atom -12392.379461 kJ/mol
# Density = 2.343539 g / cm^3
# Si number density = 23.488853 Si / 1000 Ang^3
#
#
#
# Elastic Constant Matrix: (Units=GPa)
#
#
# Indices 1 2 3 4 5 6 
#
# 1 136.5715 60.4302 48.2195 4.3610 28.5577 19.6873
# 2 60.4302 121.7610 40.8511 -9.9494 43.9138 14.9787
# 3 48.2195 40.8511 108.7754 -1.5666 22.3839 0.7941
# 4 4.3610 -9.9494 -1.5666 28.5659 1.1439 18.4982
# 5 28.5577 43.9138 22.3839 1.1439 56.8771 0.7537
# 6 19.6873 14.9787 0.7941 18.4982 0.7537 50.3696
#
#
#
# Elastic Compliance Matrix: (Units=1/GPa)
#
#
# Indices 1 2 3 4 5 6 
#
# 1 0.010697 -0.003582 -0.003127 -0.001347 -0.001314 -0.002552
# 2 -0.003582 0.016116 -0.002213 0.011170 -0.009901 -0.007312
# 3 -0.003127 -0.002213 0.011653 -0.000935 -0.001316 0.002060
# 4 -0.001347 0.011170 -0.000935 0.053932 -0.008367 -0.022462
# 5 -0.001314 -0.009901 -0.001316 -0.008367 0.026491 0.006155
# 6 -0.002552 -0.007312 0.002060 -0.022462 0.006155 0.031150
#
#
# Mechanical properties :
#
#
# Convention : Reuss Voigt Hill
#
# Bulk Modulus (GPa) = 48.49210 74.01218 61.25214
# Shear Modulus (GPa) = 28.61135 41.66964 35.14049
#
# Velocity S-wave (km/s) = 3.49389 4.21648 3.87208
# Velocity P-wave (km/s) = 6.07996 7.43524 6.79149
#
# Compressibility (1/GPa) = 0.02062192
#
# Stress axis : x y z
#
# Youngs Moduli (GPa) = 93.48571 62.04943 85.81659
#
# Poissons Ratio (x) = 0.22227 0.26835
# Poissons Ratio (y) = 0.33487 0.18990
# Poissons Ratio (z) = 0.29233 0.13730
#
# Static dielectric constant tensor:
#      x y z
#    x 4.467410 0.110880 0.192060 
#    y 0.110880 3.885240 0.232420 
#    z 0.192060 0.232420 4.259620 
# 
# 
# High freq. dielectric constant tensor:
#      x y z
#    x 1.934500 0.005120 0.017570 
#    y 0.005120 1.930720 0.001620 
#    z 0.017570 0.001620 1.926750 
# 
# From -- ./inp_files/244691.got.cif
#   From: 2010.06.25/outbox.cif.g09.slc.cpg/sg2_123_cif.got.tgz:244691.got - 2010.06.27 13:26:56.
