data_PCOD8021088
_publ_section_title
;
Structure prediction by ZEFSAII (Michael W. Deem and Ramdas Pophale) SiO2 
 PCOD8021088
Probable space group: P -1
;
_chemical_formula_sum "Si O2"
_cell_formula_units_Z 16
_cell_length_a 10.656740
_cell_length_b 16.147210
_cell_length_c 11.708104
_cell_angle_alpha 43.464788
_cell_angle_beta 105.767592
_cell_angle_gamma 138.526088
_cell_volume 736.220546
_symmetry_space_group_name_H-M "P -1"
_symmetry_group_IT_number 2
_symmetry_cell_setting 'triclinic'
loop_
_space_group_symop_operation_xyz
x,y,z
-x,-y,-z
loop_
_atom_site_type_symbol
_atom_site_label
_atom_site_fract_x
_atom_site_fract_y
_atom_site_fract_z
Si Si1 0.074818 0.806510 0.673544
Si Si2 0.519231 0.700896 0.745173
Si Si3 0.517712 0.391755 0.683857
Si Si4 0.684639 0.985390 0.100827
Si Si5 0.997109 0.624029 0.607899
Si Si6 0.543247 0.471808 0.869139
Si Si7 0.998358 0.629640 0.056845
Si Si8 0.245032 0.757419 0.321942
O O1 0.116533 0.772684 0.598994
O O2 0.823748 0.678075 0.743990
O O3 0.267762 0.056735 0.491777
O O4 0.094615 0.720016 0.862215
O O5 0.477672 0.558807 0.790416
O O6 0.283244 0.598671 0.783792
O O7 0.575791 0.702566 0.887617
O O8 0.500000 0.500000 0.500000
O O9 0.324294 0.154541 0.815784
O O10 0.778471 0.533851 0.595957
O O11 0.453775 0.364504 0.828619
O O12 0.459207 0.829050 0.286020
O O13 0.695364 0.085120 0.899780
O O14 0.917998 0.189204 0.030421
O O15 0.893916 0.410457 0.823456
O O16 0.218440 0.789404 0.410738
O O17 0.000000 0.500000 0.500000
#
# Coordination Sequence:
#
# PCOD8021088 Si02
#       8
#     2   2   2   2   2   2   2   2
#     4  10  23  40  69  97 130 174 214 270 326 380
#     4  10  22  43  67  96 126 181 217 261 327 384
#     4  11  25  44  67  96 132 173 217 278 324 389
#     4  11  24  41  65  96 130 173 213 271 331 379
#     4  11  23  44  66  96 135 166 219 271 328 383
#     4   9  22  44  65  93 135 165 223 273 311 386
#     4  11  24  41  64 102 134 170 215 271 321 399
#     4  11  21  42  68  92 127 176 216 262 328 395
#
# _framework density 21.732619
#
# number of rings (size 3 to 8) (size 9 to 14) (size 15 to 20)
#    0.000    1.500    2.500    1.500    5.250    1.500 
#    6.750    1.250    0.000    0.000    0.000    0.000 
#    0.000    0.000    0.000    0.000    0.000    0.000 
#
# Total GULP energy -198389.711885 kJ/mol
# GULP energy per Si atom -12399.356993 kJ/mol
# Density = 2.168315 g / cm^3
# Si number density = 21.732619 Si / 1000 Ang^3
#
#
#
# Elastic Constant Matrix: (Units=GPa)
#
#
# Indices 1 2 3 4 5 6 
#
# 1 93.1275 30.1927 51.6740 15.6039 9.7849 -11.7760
# 2 30.1927 79.5826 19.8159 11.1231 8.3835 -7.0489
# 3 51.6740 19.8159 100.7816 4.2433 -2.5785 10.4019
# 4 15.6039 11.1231 4.2433 36.2349 -9.1676 -3.4738
# 5 9.7849 8.3835 -2.5785 -9.1676 38.1746 6.8800
# 6 -11.7760 -7.0489 10.4019 -3.4738 6.8800 28.4256
#
#
#
# Elastic Compliance Matrix: (Units=1/GPa)
#
#
# Indices 1 2 3 4 5 6 
#
# 1 0.023402 -0.001644 -0.013204 -0.009460 -0.011645 0.015781
# 2 -0.001644 0.015442 -0.002626 -0.004557 -0.005105 0.004788
# 3 -0.013204 -0.002626 0.018723 0.005207 0.009097 -0.014538
# 4 -0.009460 -0.004557 0.005207 0.035264 0.013303 -0.005865
# 5 -0.011645 -0.005105 0.009097 0.013303 0.037135 -0.016781
# 6 0.015781 0.004788 -0.014538 -0.005865 -0.016781 0.051570
#
#
# Mechanical properties :
#
#
# Convention : Reuss Voigt Hill
#
# Bulk Modulus (GPa) = 44.21204 52.98412 48.59808
# Shear Modulus (GPa) = 22.31915 32.02095 27.17005
#
# Velocity S-wave (km/s) = 3.20814 3.84266 3.53965
# Velocity P-wave (km/s) = 5.84044 6.64236 6.25427
#
# Compressibility (1/GPa) = 0.02261827
#
# Stress axis : x y z
#
# Youngs Moduli (GPa) = 42.73192 64.75887 53.41029
#
# Poissons Ratio (x) = 0.10645 0.70523
# Poissons Ratio (y) = 0.07024 0.14027
# Poissons Ratio (z) = 0.56424 0.17008
#
# Static dielectric constant tensor:
#      x y z
#    x 4.016330 -0.279320 -0.217520 
#    y -0.279320 4.039700 0.216310 
#    z -0.217520 0.216310 4.053110 
# 
# 
# High freq. dielectric constant tensor:
#      x y z
#    x 1.847190 -0.014870 -0.004210 
#    y -0.014870 1.854930 0.009390 
#    z -0.004210 0.009390 1.859770 
# 
# From -- ./inp_files/436541.got.cif
#   From: 2010.06.25/outbox.cif.g09.slc.cpg/sg2_219_cif.got.tgz:436541.got - 2010.06.27 13:26:56.
