data_PCOD8021612
_publ_section_title
;
Structure prediction by ZEFSAII (Michael W. Deem and Ramdas Pophale) SiO2 
 PCOD8021612
Probable space group: P -1
;
_chemical_formula_sum "Si O2"
_cell_formula_units_Z 16
_cell_length_a 12.061145
_cell_length_b 12.673193
_cell_length_c 6.586466
_cell_angle_alpha 118.630504
_cell_angle_beta 117.922724
_cell_angle_gamma 67.740974
_cell_volume 765.154889
_symmetry_space_group_name_H-M "P -1"
_symmetry_group_IT_number 2
_symmetry_cell_setting 'triclinic'
loop_
_space_group_symop_operation_xyz
x,y,z
-x,-y,-z
loop_
_atom_site_type_symbol
_atom_site_label
_atom_site_fract_x
_atom_site_fract_y
_atom_site_fract_z
Si Si1 0.724785 0.150149 0.339372
Si Si2 0.271102 0.364199 0.922983
Si Si3 0.496035 0.151697 0.866979
Si Si4 0.197576 0.603473 0.332703
Si Si5 0.861626 0.547132 0.509265
Si Si6 0.327718 0.967228 0.421727
Si Si7 0.079451 0.273885 0.950520
Si Si8 0.114172 0.023450 0.977921
O O1 0.715823 0.294971 0.489348
O O2 0.749783 0.092590 0.531580
O O3 0.592773 0.121768 0.111662
O O4 0.842024 0.094665 0.238457
O O5 0.414530 0.286607 0.962138
O O6 0.238912 0.408182 0.709428
O O7 0.171923 0.280350 0.841989
O O8 0.271619 0.483916 0.168991
O O9 0.574945 0.141082 0.712930
O O10 0.402846 0.055637 0.688220
O O11 0.176707 0.566743 0.511774
O O12 0.062628 0.654094 0.153963
O O13 0.000000 0.500000 0.500000
O O14 0.859662 0.661507 0.758424
O O15 0.229277 0.042892 0.243640
O O16 0.075623 0.137226 0.895586
O O17 0.000000 0.000000 0.000000
#
# Coordination Sequence:
#
# PCOD8021612 Si02
#       8
#     2   2   2   2   2   2   2   2
#     4  11  25  43  61  88 130 165 199 260 307 360
#     4  11  22  40  64  93 119 164 209 254 302 366
#     4  10  23  41  67  88 118 163 219 254 298 360
#     4  11  24  38  60  93 128 163 201 250 315 368
#     4  11  20  38  64  88 122 161 200 251 304 363
#     4  10  22  44  65  92 121 164 208 257 305 360
#     4  11  22  38  61  94 124 157 205 252 308 374
#     4  11  25  39  63  98 126 158 201 250 316 374
#
# _framework density 20.910798
#
# number of rings (size 3 to 8) (size 9 to 14) (size 15 to 20)
#    0.000    1.250    2.500    3.375    1.750    9.500 
#    0.000    1.250    0.000    0.000    0.000    0.000 
#    0.000    0.000    0.000    0.000    0.000    0.000 
#
# Total GULP energy -198415.353758 kJ/mol
# GULP energy per Si atom -12400.959610 kJ/mol
# Density = 2.086320 g / cm^3
# Si number density = 20.910798 Si / 1000 Ang^3
#
#
#
# Elastic Constant Matrix: (Units=GPa)
#
#
# Indices 1 2 3 4 5 6 
#
# 1 93.8085 51.2003 34.7078 2.6359 -14.7416 -4.2301
# 2 51.2003 131.0470 45.9581 -2.7759 -16.1826 3.4396
# 3 34.7078 45.9581 83.9922 -2.8462 -14.2127 9.5047
# 4 2.6359 -2.7759 -2.8462 35.3179 6.7430 -3.6083
# 5 -14.7416 -16.1826 -14.2127 6.7430 26.6096 2.5484
# 6 -4.2301 3.4396 9.5047 -3.6083 2.5484 45.1243
#
#
#
# Elastic Compliance Matrix: (Units=1/GPa)
#
#
# Indices 1 2 3 4 5 6 
#
# 1 0.015110 -0.004246 -0.003501 -0.002360 0.004321 0.002045
# 2 -0.004246 0.010906 -0.003764 0.000392 0.002221 -0.000531
# 3 -0.003501 -0.003764 0.016705 -0.000051 0.005076 -0.003851
# 4 -0.002360 0.000392 -0.000051 0.030530 -0.009092 0.002714
# 5 0.004321 0.002221 0.005076 -0.009092 0.046742 -0.004200
# 6 0.002045 -0.000531 -0.003851 0.002714 -0.004200 0.023658
#
#
# Mechanical properties :
#
#
# Convention : Reuss Voigt Hill
#
# Bulk Modulus (GPa) = 50.76104 63.62000 57.19052
# Shear Modulus (GPa) = 28.86161 33.20913 31.03537
#
# Velocity S-wave (km/s) = 3.71917 3.98946 3.85668
# Velocity P-wave (km/s) = 6.53993 7.19108 6.87322
#
# Compressibility (1/GPa) = 0.01970015
#
# Stress axis : x y z
#
# Youngs Moduli (GPa) = 66.18031 91.69047 59.86288
#
# Poissons Ratio (x) = 0.38931 0.20957
# Poissons Ratio (y) = 0.28099 0.22531
# Poissons Ratio (z) = 0.23169 0.34511
#
# Static dielectric constant tensor:
#      x y z
#    x 3.757090 -0.097030 -0.143640 
#    y -0.097030 3.623170 0.131370 
#    z -0.143640 0.131370 3.663480 
# 
# 
# High freq. dielectric constant tensor:
#      x y z
#    x 1.813240 -0.004570 -0.012950 
#    y -0.004570 1.818640 -0.005650 
#    z -0.012950 -0.005650 1.829080 
# 
# From -- ./inp_files/68517.got.cif
#   From: 2010.06.25/outbox.cif.g09.slc.cpg/sg2_35_cif.got.tgz:68517.got - 2010.06.27 13:26:56.
