data_PCOD8021272
_publ_section_title
;
Structure prediction by ZEFSAII (Michael W. Deem and Ramdas Pophale) SiO2 
 PCOD8021272
Probable space group: P -1
;
_chemical_formula_sum "Si O2"
_cell_formula_units_Z 16
_cell_length_a 8.329575
_cell_length_b 12.769550
_cell_length_c 8.948472
_cell_angle_alpha 67.140928
_cell_angle_beta 66.325224
_cell_angle_gamma 103.742178
_cell_volume 710.554666
_symmetry_space_group_name_H-M "P -1"
_symmetry_group_IT_number 2
_symmetry_cell_setting 'triclinic'
loop_
_space_group_symop_operation_xyz
x,y,z
-x,-y,-z
loop_
_atom_site_type_symbol
_atom_site_label
_atom_site_fract_x
_atom_site_fract_y
_atom_site_fract_z
Si Si1 0.300103 0.134667 0.846222
Si Si2 0.973794 0.122857 0.467626
Si Si3 0.087669 0.332889 0.085546
Si Si4 0.678754 0.480884 0.875535
Si Si5 0.242121 0.750065 0.989331
Si Si6 0.525290 0.025612 0.647709
Si Si7 0.530914 0.581466 0.294014
Si Si8 0.049060 0.862642 0.202388
O O1 0.447224 0.275093 0.778571
O O2 0.110917 0.145028 0.852708
O O3 0.418349 0.110805 0.681488
O O4 0.225381 0.012509 0.056550
O O5 0.051338 0.180067 0.572723
O O6 0.090398 0.211689 0.234356
O O7 0.751672 0.101523 0.566514
O O8 0.000000 0.000000 0.500000
O O9 0.115528 0.425987 0.167644
O O10 0.269874 0.404499 0.866109
O O11 0.884125 0.290269 0.095979
O O12 0.655084 0.339249 0.978506
O O13 0.663175 0.500410 0.692126
O O14 0.500000 0.500000 0.000000
O O15 0.115745 0.758556 0.173767
O O16 0.426207 0.889739 0.840090
O O17 0.500000 0.000000 0.500000
O O18 0.500000 0.500000 0.500000
#
# Coordination Sequence:
#
# PCOD8021272 Si02
#       8
#     2   2   2   2   2   2   2   2
#     4  10  22  43  69  96 143 172 231 274 351 403
#     4  12  26  41  70 103 143 179 226 282 349 417
#     4  11  24  48  68  99 136 185 231 282 348 403
#     4  10  26  44  69  98 133 182 236 287 338 402
#     4  11  23  45  72  98 142 180 231 286 344 416
#     4  11  24  40  66 108 135 176 222 278 349 410
#     4  11  25  46  72  98 133 183 233 287 342 408
#     4  10  23  41  72 102 133 185 219 283 346 417
#
# _framework density 22.517620999999998
#
# number of rings (size 3 to 8) (size 9 to 14) (size 15 to 20)
#    0.000    1.250    2.500    1.875   10.500    3.000 
#    2.250    1.250    0.000    0.000    0.000    0.000 
#    0.000    0.000    0.000    0.000    0.000    0.000 
#
# Total GULP energy -198243.268208 kJ/mol
# GULP energy per Si atom -12390.204263 kJ/mol
# Density = 2.246637 g / cm^3
# Si number density = 22.517621 Si / 1000 Ang^3
#
#
#
# Elastic Constant Matrix: (Units=GPa)
#
#
# Indices 1 2 3 4 5 6 
#
# 1 57.2119 39.5386 28.6993 3.7442 11.0120 -14.0078
# 2 39.5386 133.2412 26.8029 4.8118 11.5710 -8.3754
# 3 28.6993 26.8029 104.5697 8.9828 17.8309 1.6006
# 4 3.7442 4.8118 8.9828 34.0763 4.4875 1.9175
# 5 11.0120 11.5710 17.8309 4.4875 35.4723 4.6759
# 6 -14.0078 -8.3754 1.6006 1.9175 4.6759 53.1725
#
#
#
# Elastic Compliance Matrix: (Units=1/GPa)
#
#
# Indices 1 2 3 4 5 6 
#
# 1 0.026780 -0.006091 -0.005062 -0.000518 -0.004596 0.006671
# 2 -0.006091 0.009521 -0.000585 -0.000406 -0.000870 0.000004
# 3 -0.005062 -0.000585 0.011939 -0.001929 -0.003813 -0.001380
# 4 -0.000518 -0.000406 -0.001929 0.030348 -0.002442 -0.001022
# 5 -0.004596 -0.000870 -0.003813 -0.002442 0.032656 -0.004017
# 6 0.006671 0.000004 -0.001380 -0.001022 -0.004017 0.020996
#
#
# Mechanical properties :
#
#
# Convention : Reuss Voigt Hill
#
# Bulk Modulus (GPa) = 40.38488 53.90047 47.14267
# Shear Modulus (GPa) = 30.49293 37.87637 34.18465
#
# Velocity S-wave (km/s) = 3.68391 4.10576 3.90054
# Velocity P-wave (km/s) = 6.00572 6.81655 6.42394
#
# Compressibility (1/GPa) = 0.02476174
#
# Stress axis : x y z
#
# Youngs Moduli (GPa) = 37.34184 105.03182 83.75593
#
# Poissons Ratio (x) = 0.63977 0.42401
# Poissons Ratio (y) = 0.22746 0.04904
# Poissons Ratio (z) = 0.18904 0.06150
#
# Static dielectric constant tensor:
#      x y z
#    x 4.305180 0.417970 0.305870 
#    y 0.417970 4.568760 0.167730 
#    z 0.305870 0.167730 4.016210 
# 
# 
# High freq. dielectric constant tensor:
#      x y z
#    x 1.884250 0.006590 0.009990 
#    y 0.006590 1.905170 0.009410 
#    z 0.009990 0.009410 1.872300 
# 
# From -- ./inp_files/185792.got.cif
#   From: 2010.06.25/outbox.cif.g09.slc.cpg/sg2_93_cif.got.tgz:185792.got - 2010.06.27 13:26:56.
