data_PCOD8021973
_publ_section_title
;
Structure prediction by ZEFSAII (Michael W. Deem and Ramdas Pophale) SiO2 
 PCOD8021973
Probable space group: P -1
;
_chemical_formula_sum "Si O2"
_cell_formula_units_Z 16
_cell_length_a 5.253762
_cell_length_b 8.254193
_cell_length_c 20.301037
_cell_angle_alpha 118.033923
_cell_angle_beta 130.416063
_cell_angle_gamma 67.758771
_cell_volume 588.051295
_symmetry_space_group_name_H-M "P -1"
_symmetry_group_IT_number 2
_symmetry_cell_setting 'triclinic'
loop_
_space_group_symop_operation_xyz
x,y,z
-x,-y,-z
loop_
_atom_site_type_symbol
_atom_site_label
_atom_site_fract_x
_atom_site_fract_y
_atom_site_fract_z
Si Si1 0.591430 0.780747 0.481995
Si Si2 0.695049 0.594963 0.144151
Si Si3 0.066099 0.926555 0.891922
Si Si4 0.234331 0.859805 0.558191
Si Si5 0.645039 0.717989 0.014135
Si Si6 0.919519 0.243504 0.271872
Si Si7 0.360128 0.016645 0.741279
Si Si8 0.347988 0.464085 0.300909
O O1 0.506715 0.735996 0.535273
O O2 0.383837 0.667145 0.374632
O O3 0.990747 0.725070 0.527172
O O4 0.500000 0.000000 0.500000
O O5 0.372786 0.475680 0.065618
O O6 0.021375 0.466794 0.200144
O O7 0.631528 0.765335 0.215269
O O8 0.761809 0.674790 0.099226
O O9 0.259056 0.822618 0.966284
O O10 0.239524 0.839336 0.836758
O O11 0.667602 0.910239 0.816080
O O12 0.105529 0.145839 0.948013
O O13 0.413063 0.974466 0.664984
O O14 0.000000 0.000000 0.500000
O O15 0.967666 0.067188 0.298119
O O16 0.671158 0.399329 0.297784
O O17 0.269755 0.328358 0.324059
#
# Coordination Sequence:
#
# PCOD8021973 Si02
#       8
#     2   2   2   2   2   2   2   2
#     4  10  22  44  71 108 142 182 229 299 365 424
#     4  11  23  43  70 115 143 193 252 312 359 425
#     4  11  24  49  71 102 151 206 238 301 369 440
#     4  10  23  43  72 109 143 181 234 298 366 427
#     4  10  23  45  68 107 152 191 256 301 365 427
#     4  12  25  49  71 108 142 207 241 290 365 446
#     4  12  26  45  79 104 148 196 247 299 371 442
#     4  12  26  48  79 105 153 192 245 299 370 435
#
# _framework density 27.208508999999999
#
# number of rings (size 3 to 8) (size 9 to 14) (size 15 to 20)
#    0.000    1.000    3.750    2.250    1.750    5.000 
#    9.000    3.750    0.000    0.000    0.000    0.000 
#    0.000    0.000    0.000    0.000    0.000    0.000 
#
# Total GULP energy -198244.177463 kJ/mol
# GULP energy per Si atom -12390.261091 kJ/mol
# Density = 2.714658 g / cm^3
# Si number density = 27.208509 Si / 1000 Ang^3
#
#
#
# Elastic Constant Matrix: (Units=GPa)
#
#
# Indices 1 2 3 4 5 6 
#
# 1 167.6733 14.2689 36.7167 19.2246 -4.3340 0.2847
# 2 14.2689 91.3572 30.7562 24.5878 -18.6091 12.7814
# 3 36.7167 30.7562 130.6059 34.2692 -1.7984 6.4127
# 4 19.2246 24.5878 34.2692 52.8690 0.7715 1.8216
# 5 -4.3340 -18.6091 -1.7984 0.7715 34.6103 3.4263
# 6 0.2847 12.7814 6.4127 1.8216 3.4263 27.1853
#
#
#
# Elastic Compliance Matrix: (Units=1/GPa)
#
#
# Indices 1 2 3 4 5 6 
#
# 1 0.006463 -0.000038 -0.001440 -0.001420 0.000717 0.000295
# 2 -0.000038 0.016303 -0.001627 -0.006376 0.009617 -0.008066
# 3 -0.001440 -0.001627 0.009820 -0.005040 -0.000318 -0.001158
# 4 -0.001420 -0.006376 -0.005040 0.025626 -0.004744 0.003082
# 5 0.000717 0.009617 -0.000318 -0.004744 0.035090 -0.008559
# 6 0.000295 -0.008066 -0.001158 0.003082 -0.008559 0.041719
#
#
# Mechanical properties :
#
#
# Convention : Reuss Voigt Hill
#
# Bulk Modulus (GPa) = 37.91320 61.45777 49.68548
# Shear Modulus (GPa) = 33.32798 43.45923 38.39360
#
# Velocity S-wave (km/s) = 3.50367 4.00092 3.76052
# Velocity P-wave (km/s) = 5.50746 6.63173 6.09557
#
# Compressibility (1/GPa) = 0.02637604
#
# Stress axis : x y z
#
# Youngs Moduli (GPa) = 154.71799 61.33754 101.83722
#
# Poissons Ratio (x) = 0.00232 0.14667
# Poissons Ratio (y) = 0.00584 0.16570
# Poissons Ratio (z) = 0.22282 0.09980
#
# Static dielectric constant tensor:
#      x y z
#    x 9.166860 1.143120 -0.049780 
#    y 1.143120 5.325130 0.171120 
#    z -0.049780 0.171120 5.165640 
# 
# 
# High freq. dielectric constant tensor:
#      x y z
#    x 2.079520 0.006410 0.001780 
#    y 0.006410 2.095630 0.007780 
#    z 0.001780 0.007780 2.117640 
# 
# From -- ./inp_files/582545.got.cif
#   From: 2010.06.25/outbox.cif.g09.slc.cpg/sg2_292_cif.got.tgz:582545.got - 2010.06.27 13:26:56.
