data_PCOD8021085
_publ_section_title
;
Structure prediction by ZEFSAII (Michael W. Deem and Ramdas Pophale) SiO2 
 PCOD8021085
Probable space group: P -1
;
_chemical_formula_sum "Si O2"
_cell_formula_units_Z 16
_cell_length_a 19.419028
_cell_length_b 17.429322
_cell_length_c 12.205062
_cell_angle_alpha 34.159438
_cell_angle_beta 30.478129
_cell_angle_gamma 19.754187
_cell_volume 704.926052
_symmetry_space_group_name_H-M "P -1"
_symmetry_group_IT_number 2
_symmetry_cell_setting 'triclinic'
loop_
_space_group_symop_operation_xyz
x,y,z
-x,-y,-z
loop_
_atom_site_type_symbol
_atom_site_label
_atom_site_fract_x
_atom_site_fract_y
_atom_site_fract_z
Si Si1 0.460426 0.480065 0.456985
Si Si2 0.955893 0.400329 0.746324
Si Si3 0.437620 0.010478 0.231762
Si Si4 0.430300 0.757814 0.033031
Si Si5 0.788338 0.081975 0.082707
Si Si6 0.801122 0.788002 0.140215
Si Si7 0.758963 0.625166 0.078039
Si Si8 0.201672 0.929179 0.675416
O O1 0.500000 0.500000 0.500000
O O2 0.351695 0.683324 0.289179
O O3 0.297901 0.483553 0.686715
O O4 0.692066 0.251287 0.350250
O O5 0.000000 0.500000 0.500000
O O6 0.085794 0.338711 0.750927
O O7 0.688727 0.589396 0.905427
O O8 0.062540 0.177382 0.811669
O O9 0.552366 0.920419 0.302550
O O10 0.653943 0.808702 0.095524
O O11 0.239011 0.057916 0.439159
O O12 0.337150 0.240076 0.066394
O O13 0.403377 0.768060 0.925358
O O14 0.246967 0.011325 0.032992
O O15 0.682818 0.185198 0.227321
O O16 0.940058 0.095970 0.838820
O O17 0.968861 0.599061 0.037393
#
# Coordination Sequence:
#
# PCOD8021085 Si02
#       8
#     2   2   2   2   2   2   2   2
#     4  11  22  43  70  93 137 175 223 280 330 394
#     4  11  25  42  68  99 130 173 220 279 333 397
#     4  10  22  43  67  95 138 177 218 275 330 396
#     4  11  25  44  69  97 134 175 222 278 336 396
#     4  10  24  46  68  99 135 173 227 272 337 404
#     4  11  23  40  67  97 132 171 226 269 337 396
#     4  10  23  42  62  99 133 174 225 274 328 396
#     4  10  23  45  68  99 136 174 223 277 329 402
#
# _framework density 22.697417000000002
#
# number of rings (size 3 to 8) (size 9 to 14) (size 15 to 20)
#    0.000    1.500    1.250    2.625    7.000    2.000 
#   11.250    0.000    0.000    0.000    0.000    0.000 
#    0.000    0.000    0.000    0.000    0.000    0.000 
#
# Total GULP energy -198224.102989 kJ/mol
# GULP energy per Si atom -12389.006437 kJ/mol
# Density = 2.264576 g / cm^3
# Si number density = 22.697417 Si / 1000 Ang^3
#
#
#
# Elastic Constant Matrix: (Units=GPa)
#
#
# Indices 1 2 3 4 5 6 
#
# 1 101.6087 34.4859 30.1919 -6.9479 7.7323 -14.8880
# 2 34.4859 77.6870 49.8127 -10.3777 2.7084 -1.5115
# 3 30.1919 49.8127 142.6385 -22.5090 -3.6379 -10.7130
# 4 -6.9479 -10.3777 -22.5090 30.8387 0.3870 6.8565
# 5 7.7323 2.7084 -3.6379 0.3870 29.5837 2.0932
# 6 -14.8880 -1.5115 -10.7130 6.8565 2.0932 37.8750
#
#
#
# Elastic Compliance Matrix: (Units=1/GPa)
#
#
# Indices 1 2 3 4 5 6 
#
# 1 0.012689 -0.005017 -0.000715 -0.000386 -0.003282 0.004837
# 2 -0.005017 0.018831 -0.005466 0.001909 -0.000893 -0.003063
# 3 -0.000715 -0.005466 0.010002 0.004982 0.001758 0.001331
# 4 -0.000386 0.001909 0.004982 0.037845 0.000436 -0.005541
# 5 -0.003282 -0.000893 0.001758 0.000436 0.035154 -0.002850
# 6 0.004837 -0.003063 0.001331 -0.005541 -0.002850 0.029719
#
#
# Mechanical properties :
#
#
# Convention : Reuss Voigt Hill
#
# Bulk Modulus (GPa) = 52.28615 61.21280 56.74947
# Shear Modulus (GPa) = 28.89996 33.48903 31.19449
#
# Velocity S-wave (km/s) = 3.57216 3.84533 3.71126
# Velocity P-wave (km/s) = 6.33245 6.83689 6.58950
#
# Compressibility (1/GPa) = 0.01912553
#
# Stress axis : x y z
#
# Youngs Moduli (GPa) = 78.80777 53.10532 99.98253
#
# Poissons Ratio (x) = 0.26645 0.07149
# Poissons Ratio (y) = 0.39540 0.54646
# Poissons Ratio (z) = 0.05635 0.29025
#
# Static dielectric constant tensor:
#      x y z
#    x 4.180510 0.091020 0.127720 
#    y 0.091020 4.038460 -0.009260 
#    z 0.127720 -0.009260 4.119950 
# 
# 
# High freq. dielectric constant tensor:
#      x y z
#    x 1.906640 0.013330 0.001210 
#    y 0.013330 1.888330 -0.006420 
#    z 0.001210 -0.006420 1.893680 
# 
# From -- ./inp_files/454341.got.cif
#   From: 2010.06.25/outbox.cif.g09.slc.cpg/sg2_228_cif.got.tgz:454341.got - 2010.06.27 13:26:56.
