data_PCOD8021379
_publ_section_title
;
Structure prediction by ZEFSAII (Michael W. Deem and Ramdas Pophale) SiO2 
 PCOD8021379
Probable space group: P -1
;
_chemical_formula_sum "Si O2"
_cell_formula_units_Z 16
_cell_length_a 8.956823
_cell_length_b 8.415830
_cell_length_c 14.180748
_cell_angle_alpha 44.140399
_cell_angle_beta 75.632431
_cell_angle_gamma 69.290292
_cell_volume 696.296811
_symmetry_space_group_name_H-M "P -1"
_symmetry_group_IT_number 2
_symmetry_cell_setting 'triclinic'
loop_
_space_group_symop_operation_xyz
x,y,z
-x,-y,-z
loop_
_atom_site_type_symbol
_atom_site_label
_atom_site_fract_x
_atom_site_fract_y
_atom_site_fract_z
Si Si1 0.645415 0.828897 0.849677
Si Si2 0.410774 0.087268 0.625722
Si Si3 0.569882 0.311631 0.350997
Si Si4 0.951910 0.494356 0.903238
Si Si5 0.867707 0.007232 0.888489
Si Si6 0.559815 0.214822 0.937008
Si Si7 0.071194 0.350885 0.641723
Si Si8 0.911088 0.265586 0.375338
O O1 0.759912 0.598449 0.877461
O O2 0.559740 0.018299 0.703952
O O3 0.756229 0.942286 0.851280
O O4 0.509931 0.737219 0.966628
O O5 0.438594 0.258207 0.464872
O O6 0.255077 0.214540 0.654813
O O7 0.390285 0.853430 0.676932
O O8 0.509023 0.574582 0.212948
O O9 0.725268 0.284735 0.401407
O O10 0.038754 0.670898 0.762961
O O11 0.000000 0.500000 0.000000
O O12 0.018023 0.220379 0.978996
O O13 0.752795 0.150035 0.928665
O O14 0.973492 0.161836 0.760181
O O15 0.500000 0.000000 0.000000
O O16 0.046097 0.541091 0.647112
O O17 0.000000 0.500000 0.500000
O O18 0.000000 0.000000 0.500000
#
# Coordination Sequence:
#
# PCOD8021379 Si02
#       8
#     2   2   2   2   2   2   2   2
#     4  10  23  43  75 107 138 189 239 288 362 421
#     4  11  27  46  74 107 140 185 252 291 363 422
#     4  11  25  47  71 100 147 190 234 305 353 432
#     4  10  23  44  75 108 142 193 237 294 362 429
#     4  10  24  45  73 101 155 180 238 297 357 424
#     4  10  22  43  71 103 144 186 234 287 363 420
#     4  12  29  46  72 111 144 192 241 302 365 432
#     4  12  27  46  76 102 147 192 243 292 370 432
#
# _framework density 22.978708999999998
#
# number of rings (size 3 to 8) (size 9 to 14) (size 15 to 20)
#    0.000    1.250    0.000    4.500   15.750    4.500 
#    0.000    0.000    0.000    0.000    0.000    0.000 
#    0.000    0.000    0.000    0.000    0.000    0.000 
#
# Total GULP energy -198399.729109 kJ/mol
# GULP energy per Si atom -12399.983069 kJ/mol
# Density = 2.292641 g / cm^3
# Si number density = 22.978709 Si / 1000 Ang^3
#
#
#
# Elastic Constant Matrix: (Units=GPa)
#
#
# Indices 1 2 3 4 5 6 
#
# 1 98.1925 50.7231 51.0548 -10.2625 1.6681 -23.4287
# 2 50.7231 100.9374 60.6236 -12.1520 -1.8098 -30.9427
# 3 51.0548 60.6236 175.0286 -21.4567 -5.1629 -17.5581
# 4 -10.2625 -12.1520 -21.4567 42.7775 -7.3458 4.2892
# 5 1.6681 -1.8098 -5.1629 -7.3458 37.5380 3.2843
# 6 -23.4287 -30.9427 -17.5581 4.2892 3.2843 45.1461
#
#
#
# Elastic Compliance Matrix: (Units=1/GPa)
#
#
# Indices 1 2 3 4 5 6 
#
# 1 0.014833 -0.005035 -0.002228 0.000420 -0.001427 0.003444
# 2 -0.005035 0.017007 -0.003523 0.001118 0.000117 0.007559
# 3 -0.002228 -0.003523 0.007885 0.002790 0.001637 -0.000889
# 4 0.000420 0.001118 0.002790 0.026245 0.005628 -0.000833
# 5 -0.001427 0.000117 0.001637 0.005628 0.028264 -0.002615
# 6 0.003444 0.007559 -0.000889 -0.000833 -0.002615 0.029042
#
#
# Mechanical properties :
#
#
# Convention : Reuss Voigt Hill
#
# Bulk Modulus (GPa) = 55.08759 77.66239 66.37499
# Shear Modulus (GPa) = 33.13463 39.20946 36.17205
#
# Velocity S-wave (km/s) = 3.80145 4.13527 3.97187
# Velocity P-wave (km/s) = 6.57977 7.52805 7.06983
#
# Compressibility (1/GPa) = 0.01815291
#
# Stress axis : x y z
#
# Youngs Moduli (GPa) = 67.41522 58.79822 126.82824
#
# Poissons Ratio (x) = 0.29606 0.28256
# Poissons Ratio (y) = 0.33945 0.44684
# Poissons Ratio (z) = 0.15019 0.20716
#
# Static dielectric constant tensor:
#      x y z
#    x 5.760910 -2.935400 -0.243830 
#    y -2.935400 8.553350 0.348040 
#    z -0.243830 0.348040 4.335890 
# 
# 
# High freq. dielectric constant tensor:
#      x y z
#    x 1.907700 -0.018780 0.000750 
#    y -0.018780 1.916430 0.000150 
#    z 0.000750 0.000150 1.924790 
# 
# From -- ./inp_files/494205.got.cif
#   From: 2010.06.25/outbox.cif.g09.slc.cpg/sg2_248_cif.got.tgz:494205.got - 2010.06.27 13:26:56.
