data_PCOD8021150
_publ_section_title
;
Structure prediction by ZEFSAII (Michael W. Deem and Ramdas Pophale) SiO2 
 PCOD8021150
Probable space group: P -1
;
_chemical_formula_sum "Si O2"
_cell_formula_units_Z 14
_cell_length_a 20.571934
_cell_length_b 11.889840
_cell_length_c 20.648865
_cell_angle_alpha 159.367564
_cell_angle_beta 158.284691
_cell_angle_gamma 33.646579
_cell_volume 631.446445
_symmetry_space_group_name_H-M "P -1"
_symmetry_group_IT_number 2
_symmetry_cell_setting 'triclinic'
loop_
_space_group_symop_operation_xyz
x,y,z
-x,-y,-z
loop_
_atom_site_type_symbol
_atom_site_label
_atom_site_fract_x
_atom_site_fract_y
_atom_site_fract_z
Si Si1 0.296303 0.176502 0.728283
Si Si2 0.088426 0.737054 0.409407
Si Si3 0.417569 0.941794 0.268823
Si Si4 0.597330 0.883949 0.791729
Si Si5 0.009350 0.863150 0.681539
Si Si6 0.824643 0.104724 0.756893
Si Si7 0.197298 0.239211 0.323360
O O1 0.118886 0.137942 0.498771
O O2 0.239361 0.911408 0.590240
O O3 0.464632 0.106684 0.807912
O O4 0.364884 0.547191 0.020021
O O5 0.198397 0.604784 0.496533
O O6 0.000000 0.000000 0.500000
O O7 0.926064 0.441230 0.069644
O O8 0.330431 0.015085 0.160063
O O9 0.633563 0.120854 0.558737
O O10 0.346119 0.110584 0.353356
O O11 0.500000 0.500000 0.500000
O O12 0.778580 0.959832 0.045458
O O13 0.000000 0.500000 0.500000
O O14 0.954679 0.065247 0.798338
O O15 0.770536 0.781918 0.581230
O O16 0.000000 0.000000 0.000000
#
# Coordination Sequence:
#
# PCOD8021150 Si02
#       7
#     2   2   2   2   2   2   2
#     4  12  25  45  68 103 143 174 232 280 335 412
#     4  11  26  46  69  97 136 180 227 285 337 400
#     4  12  23  44  68 101 135 178 228 284 336 404
#     4  12  25  42  66 101 143 180 227 277 338 406
#     4  12  25  42  73 104 137 184 222 278 347 401
#     4  11  24  44  70 100 133 180 229 278 343 402
#     4  10  22  43  68  93 131 178 228 274 339 400
#
# _framework density 22.171319
#
# number of rings (size 3 to 8) (size 9 to 14) (size 15 to 20)
#    0.000    0.571    2.857    6.857    4.000    1.143 
#    0.000    1.429    0.000    0.000    0.000    0.000 
#    0.000    0.000    0.000    0.000    0.000    0.000 
#
# Total GULP energy -173640.592790 kJ/mol
# GULP energy per Si atom -12402.899485 kJ/mol
# Density = 2.212086 g / cm^3
# Si number density = 22.171319 Si / 1000 Ang^3
#
#
#
# Elastic Constant Matrix: (Units=GPa)
#
#
# Indices 1 2 3 4 5 6 
#
# 1 47.6291 5.4191 1.1709 8.1208 14.3997 7.9700
# 2 5.4191 100.8905 35.1265 9.1920 8.4829 -10.6475
# 3 1.1709 35.1265 110.4659 -0.0645 12.7103 -10.3190
# 4 8.1208 9.1920 -0.0645 48.8074 -4.0864 9.4183
# 5 14.3997 8.4829 12.7103 -4.0864 32.8788 4.4285
# 6 7.9700 -10.6475 -10.3190 9.4183 4.4285 36.6689
#
#
#
# Elastic Compliance Matrix: (Units=1/GPa)
#
#
# Indices 1 2 3 4 5 6 
#
# 1 0.025863 -0.000643 0.001003 -0.004597 -0.011726 -0.002929
# 2 -0.000643 0.011934 -0.003149 -0.003088 -0.002477 0.003811
# 3 0.001003 -0.003149 0.010756 -0.000391 -0.004170 0.002499
# 4 -0.004597 -0.003088 -0.000391 0.023746 0.006846 -0.006933
# 5 -0.011726 -0.002477 -0.004170 0.006846 0.039443 -0.005866
# 6 -0.002929 0.003811 0.002499 -0.006933 -0.005866 0.032207
#
#
# Mechanical properties :
#
#
# Convention : Reuss Voigt Hill
#
# Bulk Modulus (GPa) = 23.26831 38.04649 30.65740
# Shear Modulus (GPa) = 30.51547 38.15562 34.33555
#
# Velocity S-wave (km/s) = 3.71394 4.15293 3.93955
# Velocity P-wave (km/s) = 5.37668 6.33981 5.87801
#
# Compressibility (1/GPa) = 0.04297691
#
# Stress axis : x y z
#
# Youngs Moduli (GPa) = 38.66509 83.79122 92.96940
#
# Poissons Ratio (x) = 0.05386 -0.09326
# Poissons Ratio (y) = 0.02485 0.29275
# Poissons Ratio (z) = -0.03879 0.26385
#
# Static dielectric constant tensor:
#      x y z
#    x 4.163420 0.382040 -0.037320 
#    y 0.382040 4.170470 0.185150 
#    z -0.037320 0.185150 3.720370 
# 
# 
# High freq. dielectric constant tensor:
#      x y z
#    x 1.877290 -0.001380 0.008320 
#    y -0.001380 1.887170 -0.004420 
#    z 0.008320 -0.004420 1.871870 
# 
# From -- ./inp_files/175992.got.cif
#   From: 2010.06.25/outbox.cif.g09.slc.cpg/sg2_88_cif.got.tgz:175992.got - 2010.06.27 13:26:56.
