data_PCOD8021164
_publ_section_title
;
Structure prediction by ZEFSAII (Michael W. Deem and Ramdas Pophale) SiO2 
 PCOD8021164
Probable space group: P -1
;
_chemical_formula_sum "Si O2"
_cell_formula_units_Z 16
_cell_length_a 14.270341
_cell_length_b 14.392226
_cell_length_c 9.425553
_cell_angle_alpha 88.228341
_cell_angle_beta 111.603790
_cell_angle_gamma 150.323528
_cell_volume 693.638238
_symmetry_space_group_name_H-M "P -1"
_symmetry_group_IT_number 2
_symmetry_cell_setting 'triclinic'
loop_
_space_group_symop_operation_xyz
x,y,z
-x,-y,-z
loop_
_atom_site_type_symbol
_atom_site_label
_atom_site_fract_x
_atom_site_fract_y
_atom_site_fract_z
Si Si1 0.496321 0.719750 0.124026
Si Si2 0.156809 0.248835 0.967998
Si Si3 0.786786 0.016283 0.549093
Si Si4 0.718739 0.849229 0.956553
Si Si5 0.092647 0.540867 0.853983
Si Si6 0.358054 0.898056 0.177751
Si Si7 0.936064 0.328604 0.501851
Si Si8 0.438330 0.741575 0.618406
O O1 0.700347 0.900663 0.357544
O O2 0.672766 0.867172 0.074397
O O3 0.346076 0.496322 0.071937
O O4 0.296246 0.635546 0.014199
O O5 0.321107 0.294618 0.032333
O O6 0.955613 0.087767 0.732002
O O7 0.006421 0.114627 0.041410
O O8 0.524968 0.821147 0.500042
O O9 0.967637 0.260708 0.613482
O O10 0.505345 0.699944 0.728796
O O11 0.804357 0.276607 0.768856
O O12 0.055026 0.510857 0.663205
O O13 0.198896 0.732193 0.955211
O O14 0.634568 0.081612 0.309415
O O15 0.401423 0.044982 0.209220
O O16 0.124956 0.488327 0.462023
#
# Coordination Sequence:
#
# PCOD8021164 Si02
#       8
#     2   2   2   2   2   2   2   2
#     4  12  22  42  68  95 129 170 213 267 327 383
#     4  10  22  44  69  95 130 169 209 269 327 385
#     4  11  24  41  66  98 129 168 221 263 328 382
#     4  10  22  43  68  95 131 169 214 265 325 387
#     4  11  22  40  66  92 128 171 214 271 314 382
#     4  11  24  40  64  96 129 174 221 263 325 379
#     4  12  22  42  64  91 132 170 217 271 318 380
#     4  11  23  42  66  94 133 176 216 269 321 385
#
# _framework density 23.066780000000001
#
# number of rings (size 3 to 8) (size 9 to 14) (size 15 to 20)
#    0.000    1.000    5.000    1.875    0.000    2.000 
#    0.000    5.625    0.000    0.000    0.000    0.000 
#    0.000    0.000    0.000    0.000    0.000    0.000 
#
# Total GULP energy -198410.573455 kJ/mol
# GULP energy per Si atom -12400.660841 kJ/mol
# Density = 2.301428 g / cm^3
# Si number density = 23.066780 Si / 1000 Ang^3
#
#
#
# Elastic Constant Matrix: (Units=GPa)
#
#
# Indices 1 2 3 4 5 6 
#
# 1 78.1397 15.7450 6.7134 5.7972 7.2727 5.7700
# 2 15.7450 71.1173 -2.9583 3.3722 -1.2296 19.1035
# 3 6.7134 -2.9583 54.2580 13.4485 -10.9667 5.2921
# 4 5.7972 3.3722 13.4485 22.4469 5.9879 1.0289
# 5 7.2727 -1.2296 -10.9667 5.9879 33.8800 -12.0362
# 6 5.7700 19.1035 5.2921 1.0289 -12.0362 34.0738
#
#
#
# Elastic Compliance Matrix: (Units=1/GPa)
#
#
# Indices 1 2 3 4 5 6 
#
# 1 0.014185 -0.002745 -0.002541 -0.000395 -0.004642 -0.002097
# 2 -0.002745 0.017619 0.002820 -0.002918 -0.000928 -0.010091
# 3 -0.002541 0.002820 0.026017 -0.018609 0.012251 -0.000302
# 4 -0.000395 -0.002918 -0.018609 0.061256 -0.018178 -0.003678
# 5 -0.004642 -0.000928 0.012251 -0.018178 0.043041 0.015156
# 6 -0.002097 -0.010091 -0.000302 -0.003678 0.015156 0.040873
#
#
# Mechanical properties :
#
#
# Convention : Reuss Voigt Hill
#
# Bulk Modulus (GPa) = 18.90703 26.94615 22.92659
# Shear Modulus (GPa) = 22.16786 30.34779 26.25783
#
# Velocity S-wave (km/s) = 3.10341 3.63112 3.37759
# Velocity P-wave (km/s) = 4.58868 5.41177 5.01713
#
# Compressibility (1/GPa) = 0.05289038
#
# Stress axis : x y z
#
# Youngs Moduli (GPa) = 70.49675 56.75627 38.43704
#
# Poissons Ratio (x) = 0.15577 0.09766
# Poissons Ratio (y) = 0.19348 -0.10840
# Poissons Ratio (z) = 0.17912 -0.16006
#
# Static dielectric constant tensor:
#      x y z
#    x 4.353160 0.078780 0.011070 
#    y 0.078780 4.388280 -0.061180 
#    z 0.011070 -0.061180 3.832560 
# 
# 
# High freq. dielectric constant tensor:
#      x y z
#    x 1.914460 0.006460 0.006310 
#    y 0.006460 1.931530 -0.007160 
#    z 0.006310 -0.007160 1.891320 
# 
# From -- ./inp_files/315333.got.cif
#   From: 2010.06.25/outbox.cif.g09.slc.cpg/sg2_158_cif.got.tgz:315333.got - 2010.06.27 13:26:56.
