data_PCOD8021915
_publ_section_title
;
Structure prediction by ZEFSAII (Michael W. Deem and Ramdas Pophale) SiO2 
 PCOD8021915
Probable space group: P -1
;
_chemical_formula_sum "Si O2"
_cell_formula_units_Z 16
_cell_length_a 14.738773
_cell_length_b 15.071806
_cell_length_c 14.777353
_cell_angle_alpha 27.428643
_cell_angle_beta 31.148070
_cell_angle_gamma 31.766408
_cell_volume 723.431887
_symmetry_space_group_name_H-M "P -1"
_symmetry_group_IT_number 2
_symmetry_cell_setting 'triclinic'
loop_
_space_group_symop_operation_xyz
x,y,z
-x,-y,-z
loop_
_atom_site_type_symbol
_atom_site_label
_atom_site_fract_x
_atom_site_fract_y
_atom_site_fract_z
Si Si1 0.754913 0.878077 0.642794
Si Si2 0.692756 0.882235 0.894356
Si Si3 0.584072 0.081429 0.436838
Si Si4 0.226691 0.429549 0.465796
Si Si5 0.283871 0.541790 0.671166
Si Si6 0.047763 0.155213 0.754819
Si Si7 0.971859 0.147731 0.255756
Si Si8 0.068073 0.465635 0.763039
O O1 0.657938 0.930470 0.775374
O O2 0.584696 0.963844 0.637584
O O3 0.863132 0.631758 0.757666
O O4 0.911474 0.982243 0.403931
O O5 0.850302 0.961052 0.729828
O O6 0.754262 0.639349 0.078928
O O7 0.500000 0.000000 0.000000
O O8 0.808074 0.009160 0.289760
O O9 0.500000 0.000000 0.500000
O O10 0.455207 0.328142 0.339821
O O11 0.138757 0.290263 0.611163
O O12 0.199254 0.395631 0.625839
O O13 0.135516 0.674490 0.294127
O O14 0.500000 0.500000 0.500000
O O15 0.206797 0.727198 0.640709
O O16 0.162506 0.580093 0.647856
O O17 0.000000 0.000000 0.000000
O O18 0.035203 0.274150 0.011110
#
# Coordination Sequence:
#
# PCOD8021915 Si02
#       8
#     2   2   2   2   2   2   2   2
#     4  12  23  42  69  91 132 182 223 274 339 399
#     4  11  23  40  63  97 134 172 220 277 330 396
#     4  10  24  45  65  98 134 171 227 283 331 401
#     4  10  23  42  66  94 132 168 212 276 340 391
#     4  11  23  41  60  92 137 173 220 271 325 397
#     4  10  22  44  70  94 126 170 218 276 340 396
#     4  11  24  41  62  94 131 174 220 270 332 396
#     4  11  23  42  63  94 130 173 218 272 335 403
#
# _framework density 22.116800999999999
#
# number of rings (size 3 to 8) (size 9 to 14) (size 15 to 20)
#    0.000    1.250    3.750    1.875    8.750    0.500 
#    0.000    5.000    0.000    0.000    0.000    0.000 
#    0.000    0.000    0.000    0.000    0.000    0.000 
#
# Total GULP energy -198280.817453 kJ/mol
# GULP energy per Si atom -12392.551091 kJ/mol
# Density = 2.206646 g / cm^3
# Si number density = 22.116801 Si / 1000 Ang^3
#
#
#
# Elastic Constant Matrix: (Units=GPa)
#
#
# Indices 1 2 3 4 5 6 
#
# 1 122.0893 33.0867 28.6635 5.4766 33.4959 -7.5848
# 2 33.0867 155.2420 36.7707 24.3742 27.2765 -14.5421
# 3 28.6635 36.7707 82.0539 6.9480 24.4294 -0.1652
# 4 5.4766 24.3742 6.9480 29.0061 1.3117 4.2122
# 5 33.4959 27.2765 24.4294 1.3117 35.7731 0.8871
# 6 -7.5848 -14.5421 -0.1652 4.2122 0.8871 35.8631
#
#
#
# Elastic Compliance Matrix: (Units=1/GPa)
#
#
# Indices 1 2 3 4 5 6 
#
# 1 0.011435 0.000167 -0.000832 -0.002069 -0.010264 0.002979
# 2 0.000167 0.009676 -0.001884 -0.008172 -0.006074 0.005060
# 3 -0.000832 -0.001884 0.016041 -0.001643 -0.008666 -0.000459
# 4 -0.002069 -0.008172 -0.001643 0.043077 0.007934 -0.009014
# 5 -0.010264 -0.006074 -0.008666 0.007934 0.047992 -0.006793
# 6 0.002979 0.005060 -0.000459 -0.009014 -0.006793 0.031791
#
#
# Mechanical properties :
#
#
# Convention : Reuss Voigt Hill
#
# Bulk Modulus (GPa) = 31.19808 61.82522 46.51165
# Shear Modulus (GPa) = 28.44241 37.51941 32.98091
#
# Velocity S-wave (km/s) = 3.58999 4.12323 3.86581
# Velocity P-wave (km/s) = 5.59649 7.11918 6.40326
#
# Compressibility (1/GPa) = 0.03205325
#
# Stress axis : x y z
#
# Youngs Moduli (GPa) = 87.45351 103.34345 62.34137
#
# Poissons Ratio (x) = -0.01730 0.05189
# Poissons Ratio (y) = -0.01464 0.11747
# Poissons Ratio (z) = 0.07280 0.19473
#
# Static dielectric constant tensor:
#      x y z
#    x 4.331880 -0.445900 -0.012940 
#    y -0.445900 5.055300 0.582280 
#    z -0.012940 0.582280 3.841050 
# 
# 
# High freq. dielectric constant tensor:
#      x y z
#    x 1.874310 -0.001110 0.024920 
#    y -0.001110 1.886520 0.003850 
#    z 0.024920 0.003850 1.852440 
# 
# From -- ./inp_files/492486.got.cif
#   From: 2010.06.25/outbox.cif.g09.slc.cpg/sg2_247_cif.got.tgz:492486.got - 2010.06.27 13:26:56.
