data_PCOD8021962
_publ_section_title
;
Structure prediction by ZEFSAII (Michael W. Deem and Ramdas Pophale) SiO2 
 PCOD8021962
Probable space group: P -1
;
_chemical_formula_sum "Si O2"
_cell_formula_units_Z 16
_cell_length_a 5.641277
_cell_length_b 14.333713
_cell_length_c 22.950652
_cell_angle_alpha 21.384895
_cell_angle_beta 84.491086
_cell_angle_gamma 84.050756
_cell_volume 673.037563
_symmetry_space_group_name_H-M "P -1"
_symmetry_group_IT_number 2
_symmetry_cell_setting 'triclinic'
loop_
_space_group_symop_operation_xyz
x,y,z
-x,-y,-z
loop_
_atom_site_type_symbol
_atom_site_label
_atom_site_fract_x
_atom_site_fract_y
_atom_site_fract_z
Si Si1 0.794449 0.715459 0.987175
Si Si2 0.725824 0.828269 0.576425
Si Si3 0.792933 0.840717 0.121346
Si Si4 0.240091 0.299417 0.563249
Si Si5 0.034480 0.181411 0.300391
Si Si6 0.509328 0.672575 0.128534
Si Si7 0.980147 0.793124 0.263662
Si Si8 0.748819 0.042256 0.684841
O O1 0.706911 0.841870 0.854960
O O2 0.581985 0.628961 0.084766
O O3 0.944248 0.912217 0.908183
O O4 0.939759 0.455431 0.119152
O O5 0.885372 0.788278 0.652901
O O6 0.671304 0.542049 0.723772
O O7 0.500000 0.000000 0.500000
O O8 0.840894 0.961466 0.439726
O O9 0.721325 0.637417 0.191964
O O10 0.882197 0.695253 0.261494
O O11 0.579628 0.035359 0.032658
O O12 0.000000 0.000000 0.000000
O O13 0.233770 0.234898 0.669270
O O14 0.502587 0.213725 0.583866
O O15 0.211484 0.607538 0.379668
O O16 0.000114 0.178913 0.610778
O O17 0.232450 0.095116 0.298506
#
# Coordination Sequence:
#
# PCOD8021962 Si02
#       8
#     2   2   2   2   2   2   2   2
#     4  11  22  46  73 103 141 189 238 301 359 434
#     4  11  25  46  70  97 142 193 235 302 355 433
#     4  11  23  41  65 108 140 184 235 298 357 437
#     4  10  25  46  72 107 148 191 241 298 370 435
#     4  11  26  47  70 105 140 191 247 298 366 427
#     4  11  24  41  70 104 142 188 241 289 369 429
#     4  10  22  44  71 102 148 191 235 293 368 434
#     4  11  26  47  75 110 144 190 244 308 361 433
#
# _framework density 23.772818000000001
#
# number of rings (size 3 to 8) (size 9 to 14) (size 15 to 20)
#    0.000    1.250    2.500    1.875    1.750    8.500 
#    0.000    3.750    0.000    0.000    0.000    0.000 
#    0.000    0.000    0.000    0.000    0.000    0.000 
#
# Total GULP energy -198280.641411 kJ/mol
# GULP energy per Si atom -12392.540088 kJ/mol
# Density = 2.371871 g / cm^3
# Si number density = 23.772818 Si / 1000 Ang^3
#
#
#
# Elastic Constant Matrix: (Units=GPa)
#
#
# Indices 1 2 3 4 5 6 
#
# 1 104.0406 37.7583 30.8816 0.0154 -6.0807 -12.6081
# 2 37.7583 121.8261 38.6796 7.4231 -4.4533 -15.0860
# 3 30.8816 38.6796 121.2553 -3.1585 -12.2168 -1.8771
# 4 0.0154 7.4231 -3.1585 25.0159 -0.7563 6.8776
# 5 -6.0807 -4.4533 -12.2168 -0.7563 25.8724 -10.4064
# 6 -12.6081 -15.0860 -1.8771 6.8776 -10.4064 41.4545
#
#
#
# Elastic Compliance Matrix: (Units=1/GPa)
#
#
# Indices 1 2 3 4 5 6 
#
# 1 0.011622 -0.002488 -0.001847 -0.000323 0.002744 0.003288
# 2 -0.002488 0.010680 -0.002675 -0.004601 0.001527 0.004155
# 3 -0.001847 -0.002675 0.009993 0.002317 0.003672 -0.000545
# 4 -0.000323 -0.004601 0.002317 0.044198 -0.002338 -0.009587
# 5 0.002744 0.001527 0.003672 -0.002338 0.046725 0.013674
# 6 0.003288 0.004155 -0.000545 -0.009587 0.013674 0.031634
#
#
# Mechanical properties :
#
#
# Convention : Reuss Voigt Hill
#
# Bulk Modulus (GPa) = 54.72345 62.41789 58.57067
# Shear Modulus (GPa) = 28.57764 34.45540 31.51652
#
# Velocity S-wave (km/s) = 3.47091 3.81118 3.64502
# Velocity P-wave (km/s) = 6.25558 6.75868 6.51199
#
# Compressibility (1/GPa) = 0.01827370
#
# Stress axis : x y z
#
# Youngs Moduli (GPa) = 86.04467 93.63607 100.07402
#
# Poissons Ratio (x) = 0.23301 0.18485
# Poissons Ratio (y) = 0.21412 0.26766
# Poissons Ratio (z) = 0.15894 0.25044
#
# Static dielectric constant tensor:
#      x y z
#    x 4.105900 0.259480 -0.182910 
#    y 0.259480 4.522240 0.045790 
#    z -0.182910 0.045790 4.344720 
# 
# 
# High freq. dielectric constant tensor:
#      x y z
#    x 1.931400 -0.003490 0.001530 
#    y -0.003490 1.949320 0.007870 
#    z 0.001530 0.007870 1.949860 
# 
# From -- ./inp_files/101060.got.cif
#   From: 2010.06.25/outbox.cif.g09.slc.cpg/sg2_51_cif.got.tgz:101060.got - 2010.06.27 13:26:56.
