data_PCOD8021378
_publ_section_title
;
Structure prediction by ZEFSAII (Michael W. Deem and Ramdas Pophale) SiO2 
 PCOD8021378
Probable space group: P -1
;
_chemical_formula_sum "Si O2"
_cell_formula_units_Z 14
_cell_length_a 10.647587
_cell_length_b 17.333369
_cell_length_c 8.313545
_cell_angle_alpha 34.529559
_cell_angle_beta 55.503306
_cell_angle_gamma 43.168991
_cell_volume 592.655315
_symmetry_space_group_name_H-M "P -1"
_symmetry_group_IT_number 2
_symmetry_cell_setting 'triclinic'
loop_
_space_group_symop_operation_xyz
x,y,z
-x,-y,-z
loop_
_atom_site_type_symbol
_atom_site_label
_atom_site_fract_x
_atom_site_fract_y
_atom_site_fract_z
Si Si1 0.252710 0.123076 0.747963
Si Si2 0.781548 0.617132 0.463724
Si Si3 0.325375 0.600026 0.225204
Si Si4 0.353081 0.177434 0.109340
Si Si5 0.692039 0.526197 0.197132
Si Si6 0.035307 0.203048 0.457148
Si Si7 0.988289 0.952258 0.771422
O O1 0.277364 0.268944 0.530555
O O2 0.086696 0.192497 0.624211
O O3 0.438844 0.979699 0.775859
O O4 0.184430 0.065526 0.048752
O O5 0.694764 0.510101 0.703793
O O6 0.000000 0.500000 0.500000
O O7 0.699462 0.742188 0.162560
O O8 0.530419 0.557696 0.141943
O O9 0.296446 0.560979 0.493789
O O10 0.181258 0.788534 0.961801
O O11 0.213389 0.127812 0.342858
O O12 0.333068 0.301179 0.050417
O O13 0.884549 0.395615 0.191874
O O14 0.948728 0.098575 0.667638
O O15 0.000000 0.000000 0.500000
#
# Coordination Sequence:
#
# PCOD8021378 Si02
#       7
#     2   2   2   2   2   2   2
#     4  12  24  45  73 101 141 189 227 288 350 414
#     4  11  22  43  71  98 139 184 233 279 349 412
#     4  10  22  43  71 103 136 184 227 292 343 417
#     4  11  25  44  70 104 141 181 234 288 345 416
#     4  10  22  43  74 103 138 177 239 284 350 406
#     4  12  25  44  73 103 137 185 235 290 341 416
#     4  12  26  45  69 103 142 179 234 287 350 417
#
# _framework density 23.622499999999999
#
# number of rings (size 3 to 8) (size 9 to 14) (size 15 to 20)
#    0.000    0.857    2.857    4.286    6.000    0.000 
#    0.000    2.143    0.000    0.000    0.000    0.000 
#    0.000    0.000    0.000    0.000    0.000    0.000 
#
# Total GULP energy -173641.520739 kJ/mol
# GULP energy per Si atom -12402.965767 kJ/mol
# Density = 2.356873 g / cm^3
# Si number density = 23.622500 Si / 1000 Ang^3
#
#
#
# Elastic Constant Matrix: (Units=GPa)
#
#
# Indices 1 2 3 4 5 6 
#
# 1 118.7668 56.4596 1.3117 -36.9079 -17.6737 2.2662
# 2 56.4596 136.8696 36.1893 -32.3843 -9.7880 -12.3591
# 3 1.3117 36.1893 25.7723 -35.5552 -10.2456 -5.6950
# 4 -36.9079 -32.3843 -35.5552 44.2933 2.3494 -7.5222
# 5 -17.6737 -9.7880 -10.2456 2.3494 31.3489 -8.6964
# 6 2.2662 -12.3591 -5.6950 -7.5222 -8.6964 54.7502
#
#
#
# Elastic Compliance Matrix: (Units=1/GPa)
#
#
# Indices 1 2 3 4 5 6 
#
# 1 0.004661 -0.000538 -0.018552 -0.011959 -0.003960 -0.004516
# 2 -0.000538 0.009672 0.004965 0.011205 0.004898 0.005039
# 3 -0.018552 0.004965 -0.038895 -0.043878 -0.021553 -0.011609
# 4 -0.011959 0.011205 -0.043878 -0.014542 -0.018281 -0.006441
# 5 -0.003960 0.004898 -0.021553 -0.018281 0.025687 0.000596
# 6 -0.004516 0.005039 -0.011609 -0.006441 0.000596 0.017591
#
#
# Mechanical properties :
#
#
# Convention : Reuss Voigt Hill
#
# Bulk Modulus (GPa) = -18.93536 52.14778 16.60621
# Shear Modulus (GPa) = 337.37805 38.57502 187.97653
#
# Velocity S-wave (km/s) = 11.96372 4.04540 8.93017
# Velocity P-wave (km/s) = 13.52064 6.62900 10.64780
#
# Compressibility (1/GPa) = -0.05281126
#
# Stress axis : x y z
#
# Youngs Moduli (GPa) = 214.54500 103.39470 -25.71053
#
# Poissons Ratio (x) = 0.05561 -0.47699
# Poissons Ratio (y) = 0.11539 0.12767
# Poissons Ratio (z) = 3.98031 -0.51340
#
# Static dielectric constant tensor:
#      x y z
#    x 4.420900 0.120880 -0.174880 
#    y 0.120880 4.056730 -0.181770 
#    z -0.174880 -0.181770 4.199920 
# 
# 
# High freq. dielectric constant tensor:
#      x y z
#    x 1.950500 -0.000700 -0.001070 
#    y -0.000700 1.931110 -0.016400 
#    z -0.001070 -0.016400 1.933010 
# 
# From -- ./inp_files/157655.got.cif
#   From: 2010.06.25/outbox.cif.g09.slc.cpg/sg2_79_cif.got.tgz:157655.got - 2010.06.27 13:26:56.
