data_PCOD8021587
_publ_section_title
;
Structure prediction by ZEFSAII (Michael W. Deem and Ramdas Pophale) SiO2 
 PCOD8021587
Probable space group: P -1
;
_chemical_formula_sum "Si O2"
_cell_formula_units_Z 16
_cell_length_a 6.649676
_cell_length_b 13.449832
_cell_length_c 17.085974
_cell_angle_alpha 151.623568
_cell_angle_beta 106.653177
_cell_angle_gamma 71.537802
_cell_volume 688.771706
_symmetry_space_group_name_H-M "P -1"
_symmetry_group_IT_number 2
_symmetry_cell_setting 'triclinic'
loop_
_space_group_symop_operation_xyz
x,y,z
-x,-y,-z
loop_
_atom_site_type_symbol
_atom_site_label
_atom_site_fract_x
_atom_site_fract_y
_atom_site_fract_z
Si Si1 0.125520 0.692843 0.652938
Si Si2 0.309812 0.803841 0.952997
Si Si3 0.441840 0.243504 0.901177
Si Si4 0.842018 0.916796 0.483812
Si Si5 0.881251 0.782984 0.839811
Si Si6 0.483206 0.718023 0.239786
Si Si7 0.822199 0.112634 0.370626
Si Si8 0.457068 0.486154 0.346948
O O1 0.119159 0.839611 0.678471
O O2 0.367573 0.593108 0.624886
O O3 0.000000 0.500000 0.500000
O O4 0.014280 0.822429 0.803095
O O5 0.467070 0.608192 0.795106
O O6 0.069903 0.750280 0.902941
O O7 0.400840 0.863924 0.088315
O O8 0.295675 0.007190 0.033005
O O9 0.545363 0.214326 0.807128
O O10 0.229534 0.129235 0.799523
O O11 0.402268 0.493083 0.088460
O O12 0.726266 0.724244 0.302219
O O13 0.970284 0.851013 0.531819
O O14 0.665573 0.116599 0.611872
O O15 0.000000 0.000000 0.500000
O O16 0.763677 0.581335 0.693683
O O17 0.610008 0.259637 0.483397
#
# Coordination Sequence:
#
# PCOD8021587 Si02
#       8
#     2   2   2   2   2   2   2   2
#     4  11  24  41  67 103 142 185 232 292 337 408
#     4  10  24  40  68  94 141 181 232 279 349 415
#     4  11  25  46  69 106 137 181 231 292 353 406
#     4  11  25  50  75 104 139 181 236 286 357 422
#     4  10  22  44  64  97 138 186 230 284 342 407
#     4  10  26  50  73  98 145 179 224 306 348 410
#     4  12  26  42  76 106 136 189 234 284 354 421
#     4  11  24  43  67 100 144 183 232 284 339 418
#
# _framework density 23.229761
#
# number of rings (size 3 to 8) (size 9 to 14) (size 15 to 20)
#    0.000    1.250    2.500    1.500    7.000    2.500 
#    0.000    0.000    0.000    0.000    0.000    0.000 
#    0.000    0.000    0.000    0.000    0.000    0.000 
#
# Total GULP energy -198266.512280 kJ/mol
# GULP energy per Si atom -12391.657018 kJ/mol
# Density = 2.317689 g / cm^3
# Si number density = 23.229761 Si / 1000 Ang^3
#
#
#
# Elastic Constant Matrix: (Units=GPa)
#
#
# Indices 1 2 3 4 5 6 
#
# 1 105.2736 38.8347 43.7764 -0.7625 14.8897 -5.3997
# 2 38.8347 100.7601 34.3665 -20.4808 17.0748 -7.4949
# 3 43.7764 34.3665 112.3795 0.3880 21.4060 0.1540
# 4 -0.7625 -20.4808 0.3880 43.1933 -2.1472 10.9101
# 5 14.8897 17.0748 21.4060 -2.1472 39.1308 2.7382
# 6 -5.3997 -7.4949 0.1540 10.9101 2.7382 32.4387
#
#
#
# Elastic Compliance Matrix: (Units=1/GPa)
#
#
# Indices 1 2 3 4 5 6 
#
# 1 0.012621 -0.003681 -0.003491 -0.002100 -0.001549 0.002104
# 2 -0.003681 0.013976 -0.002257 0.006222 -0.003178 0.000803
# 3 -0.003491 -0.002257 0.011747 -0.001356 -0.004162 -0.000351
# 4 -0.002100 0.006222 -0.001356 0.028271 0.000972 -0.008496
# 5 -0.001549 -0.003178 -0.004162 0.000972 0.030130 -0.003842
# 6 0.002104 0.000803 -0.000351 -0.008496 -0.003842 0.034547
#
#
# Mechanical properties :
#
#
# Convention : Reuss Voigt Hill
#
# Bulk Modulus (GPa) = 51.32449 61.37426 56.34937
# Shear Modulus (GPa) = 31.91923 36.38158 34.15041
#
# Velocity S-wave (km/s) = 3.71086 3.96177 3.83837
# Velocity P-wave (km/s) = 6.36419 6.88516 6.62979
#
# Compressibility (1/GPa) = 0.01948388
#
# Stress axis : x y z
#
# Youngs Moduli (GPa) = 79.23606 71.55062 85.13085
#
# Poissons Ratio (x) = 0.26340 0.29720
# Poissons Ratio (y) = 0.29170 0.19216
# Poissons Ratio (z) = 0.27662 0.16151
#
# Static dielectric constant tensor:
#      x y z
#    x 5.104630 0.240980 -0.826430 
#    y 0.240980 4.425600 -0.811390 
#    z -0.826430 -0.811390 5.759450 
# 
# 
# High freq. dielectric constant tensor:
#      x y z
#    x 1.912390 -0.004190 0.013150 
#    y -0.004190 1.910920 -0.010060 
#    z 0.013150 -0.010060 1.934660 
# 
# From -- ./inp_files/550208.got.cif
#   From: 2010.06.25/outbox.cif.g09.slc.cpg/sg2_276_cif.got.tgz:550208.got - 2010.06.27 13:26:56.
