data_PCOD8021682
_publ_section_title
;
Structure prediction by ZEFSAII (Michael W. Deem and Ramdas Pophale) SiO2 
 PCOD8021682
Probable space group: P -1
;
_chemical_formula_sum "Si O2"
_cell_formula_units_Z 16
_cell_length_a 20.724697
_cell_length_b 9.150305
_cell_length_c 12.279025
_cell_angle_alpha 46.438013
_cell_angle_beta 37.410791
_cell_angle_gamma 28.885492
_cell_volume 683.207224
_symmetry_space_group_name_H-M "P -1"
_symmetry_group_IT_number 2
_symmetry_cell_setting 'triclinic'
loop_
_space_group_symop_operation_xyz
x,y,z
-x,-y,-z
loop_
_atom_site_type_symbol
_atom_site_label
_atom_site_fract_x
_atom_site_fract_y
_atom_site_fract_z
Si Si1 0.007328 0.698438 0.119232
Si Si2 0.303424 0.420673 0.195912
Si Si3 0.354666 0.163709 0.902010
Si Si4 0.685620 0.207860 0.892663
Si Si5 0.764832 0.290833 0.521579
Si Si6 0.779139 0.685444 0.422488
Si Si7 0.512701 0.652148 0.497401
Si Si8 0.023168 0.898661 0.197630
O O1 0.927892 0.904742 0.229695
O O2 0.953208 0.543092 0.251942
O O3 0.194240 0.458914 0.025257
O O4 0.962404 0.892877 0.973167
O O5 0.246604 0.729354 0.144228
O O6 0.248332 0.348543 0.400835
O O7 0.196970 0.544947 0.166932
O O8 0.495169 0.114210 0.078329
O O9 0.404255 0.264528 0.700714
O O10 0.289785 0.061451 0.972523
O O11 0.760353 0.150694 0.703188
O O12 0.500000 0.500000 0.000000
O O13 0.754381 0.540019 0.444956
O O14 0.617372 0.430475 0.572364
O O15 0.927420 0.027211 0.373325
O O16 0.657973 0.043508 0.380827
O O17 0.500000 0.500000 0.500000
#
# Coordination Sequence:
#
# PCOD8021682 Si02
#       8
#     2   2   2   2   2   2   2   2
#     4  11  25  44  65  98 141 177 227 284 332 406
#     4   9  22  43  66  97 134 178 225 282 337 401
#     4  10  22  44  66  96 135 176 225 276 333 397
#     4   9  21  42  66  97 134 169 222 284 330 394
#     4  11  23  43  69 101 134 180 225 279 343 402
#     4  10  24  40  70  99 131 177 229 282 334 405
#     4  11  23  45  69  98 141 179 223 275 346 404
#     4  11  25  42  65  95 141 177 228 276 347 390
#
# _framework density 23.418952999999998
#
# number of rings (size 3 to 8) (size 9 to 14) (size 15 to 20)
#    0.000    1.750    1.250    1.875    5.250    5.500 
#    4.500    0.000    0.000    0.000    0.000    0.000 
#    0.000    0.000    0.000    0.000    0.000    0.000 
#
# Total GULP energy -198219.474548 kJ/mol
# GULP energy per Si atom -12388.717159 kJ/mol
# Density = 2.336565 g / cm^3
# Si number density = 23.418953 Si / 1000 Ang^3
#
#
#
# Elastic Constant Matrix: (Units=GPa)
#
#
# Indices 1 2 3 4 5 6 
#
# 1 80.8971 17.3993 24.9723 -2.1887 -0.8929 -11.6794
# 2 17.3993 76.5056 13.3317 5.0721 -3.2507 -19.4289
# 3 24.9723 13.3317 93.8433 6.5944 -13.9355 1.6616
# 4 -2.1887 5.0721 6.5944 35.1932 6.7656 -11.7043
# 5 -0.8929 -3.2507 -13.9355 6.7656 26.1843 3.2813
# 6 -11.6794 -19.4289 1.6616 -11.7043 3.2813 37.2182
#
#
#
# Elastic Compliance Matrix: (Units=1/GPa)
#
#
# Indices 1 2 3 4 5 6 
#
# 1 0.015184 -0.001556 -0.004921 0.004959 -0.004342 0.006115
# 2 -0.001556 0.015784 -0.002094 0.000812 -0.000438 0.008139
# 3 -0.004921 -0.002094 0.014269 -0.006594 0.009647 -0.006199
# 4 0.004959 0.000812 -0.006594 0.037876 -0.014969 0.015505
# 5 -0.004342 -0.000438 0.009647 -0.014969 0.048368 -0.010993
# 6 0.006115 0.008139 -0.006199 0.015505 -0.010993 0.039158
#
#
# Mechanical properties :
#
#
# Convention : Reuss Voigt Hill
#
# Bulk Modulus (GPa) = 35.59488 40.29475 37.94482
# Shear Modulus (GPa) = 25.36185 32.75532 29.05858
#
# Velocity S-wave (km/s) = 3.29441 3.74393 3.52634
# Velocity P-wave (km/s) = 5.45005 5.99440 5.72869
#
# Compressibility (1/GPa) = 0.02809393
#
# Stress axis : x y z
#
# Youngs Moduli (GPa) = 65.85807 63.35412 70.08346
#
# Poissons Ratio (x) = 0.09859 0.34488
# Poissons Ratio (y) = 0.10249 0.14678
# Poissons Ratio (z) = 0.32409 0.13269
#
# Static dielectric constant tensor:
#      x y z
#    x 2.987780 -0.893280 0.131540 
#    y -0.893280 3.607360 0.464570 
#    z 0.131540 0.464570 4.025950 
# 
# 
# High freq. dielectric constant tensor:
#      x y z
#    x 1.918330 0.002320 -0.015040 
#    y 0.002320 1.932320 0.005950 
#    z -0.015040 0.005950 1.922260 
# 
# From -- ./inp_files/469829.got.cif
#   From: 2010.06.25/outbox.cif.g09.slc.cpg/sg2_235_cif.got.tgz:469829.got - 2010.06.27 13:26:56.
