data_PCOD8021440
_publ_section_title
;
Structure prediction by ZEFSAII (Michael W. Deem and Ramdas Pophale) SiO2 
 PCOD8021440
Probable space group: P -1
;
_chemical_formula_sum "Si O2"
_cell_formula_units_Z 14
_cell_length_a 10.934761
_cell_length_b 16.637840
_cell_length_c 10.675323
_cell_angle_alpha 132.281398
_cell_angle_beta 35.902809
_cell_angle_gamma 149.173188
_cell_volume 581.946878
_symmetry_space_group_name_H-M "P -1"
_symmetry_group_IT_number 2
_symmetry_cell_setting 'triclinic'
loop_
_space_group_symop_operation_xyz
x,y,z
-x,-y,-z
loop_
_atom_site_type_symbol
_atom_site_label
_atom_site_fract_x
_atom_site_fract_y
_atom_site_fract_z
Si Si1 0.776020 0.442088 0.305822
Si Si2 0.159467 0.723523 0.107677
Si Si3 0.198725 0.262474 0.931706
Si Si4 0.254538 0.528715 0.134841
Si Si5 0.223396 0.966872 0.735579
Si Si6 0.350780 0.188189 0.048298
Si Si7 0.902533 0.846459 0.365873
O O1 0.419478 0.314946 0.483189
O O2 0.905949 0.597631 0.290520
O O3 0.954379 0.493424 0.344917
O O4 0.875860 0.369186 0.076705
O O5 0.504414 0.833978 0.988742
O O6 0.136219 0.841291 0.211938
O O7 0.545261 0.375658 0.807036
O O8 0.117539 0.152801 0.767809
O O9 0.159778 0.369433 0.028374
O O10 0.961685 0.159193 0.131728
O O11 0.441876 0.628456 0.955764
O O12 0.500000 0.000000 0.500000
O O13 0.352778 0.129165 0.848429
O O14 0.999591 0.906928 0.738912
O O15 0.000000 0.000000 0.500000
#
# Coordination Sequence:
#
# PCOD8021440 Si02
#       7
#     2   2   2   2   2   2   2
#     4  10  22  43  72  97 131 185 234 282 341 401
#     4  10  22  45  67  97 138 181 237 284 329 413
#     4  10  22  44  69  98 139 174 225 291 342 406
#     4   9  19  45  68  95 130 174 226 296 333 390
#     4  10  22  44  67  99 135 180 229 277 350 412
#     4   9  21  42  67  96 136 176 226 286 332 413
#     4  12  27  43  66 104 143 187 225 278 356 417
#
# _framework density 24.057181
#
# number of rings (size 3 to 8) (size 9 to 14) (size 15 to 20)
#    0.000    2.000    1.429    0.429    2.000    3.429 
#   28.286    0.000    0.000    0.000    0.000    0.000 
#    0.000    0.000    0.000    0.000    0.000    0.000 
#
# Total GULP energy -173475.421316 kJ/mol
# GULP energy per Si atom -12391.101523 kJ/mol
# Density = 2.400243 g / cm^3
# Si number density = 24.057181 Si / 1000 Ang^3
#
#
#
# Elastic Constant Matrix: (Units=GPa)
#
#
# Indices 1 2 3 4 5 6 
#
# 1 141.7734 40.1456 47.2826 -1.3497 -30.3926 17.3164
# 2 40.1456 94.9532 38.9579 4.9064 -9.4513 9.3722
# 3 47.2826 38.9579 97.1927 -9.8591 -21.2036 8.3146
# 4 -1.3497 4.9064 -9.8591 38.6149 4.5973 -12.5380
# 5 -30.3926 -9.4513 -21.2036 4.5973 37.9516 0.5477
# 6 17.3164 9.3722 8.3146 -12.5380 0.5477 39.7985
#
#
#
# Elastic Compliance Matrix: (Units=1/GPa)
#
#
# Indices 1 2 3 4 5 6 
#
# 1 0.010484 -0.002143 -0.002633 -0.002231 0.006724 -0.004302
# 2 -0.002143 0.013788 -0.004751 -0.003804 -0.000440 -0.002514
# 3 -0.002633 -0.004751 0.014824 0.003863 0.004518 0.000322
# 4 -0.002231 -0.003804 0.003863 0.031405 -0.004539 0.011016
# 5 0.006724 -0.000440 0.004518 -0.004539 0.034780 -0.005674
# 6 -0.004302 -0.002514 0.000322 0.011016 -0.005674 0.031072
#
#
# Mechanical properties :
#
#
# Convention : Reuss Voigt Hill
#
# Bulk Modulus (GPa) = 49.89424 65.18794 57.54109
# Shear Modulus (GPa) = 30.84775 37.10854 33.97815
#
# Velocity S-wave (km/s) = 3.58476 3.93175 3.76226
# Velocity P-wave (km/s) = 6.15783 6.91140 6.54547
#
# Compressibility (1/GPa) = 0.02004239
#
# Stress axis : x y z
#
# Youngs Moduli (GPa) = 95.38319 72.52856 67.45950
#
# Poissons Ratio (x) = 0.15545 0.17760
# Poissons Ratio (y) = 0.20444 0.32047
# Poissons Ratio (z) = 0.25111 0.34455
#
# Static dielectric constant tensor:
#      x y z
#    x 4.664210 0.170170 -0.213100 
#    y 0.170170 4.561450 -0.064920 
#    z -0.213100 -0.064920 3.896840 
# 
# 
# High freq. dielectric constant tensor:
#      x y z
#    x 1.976510 0.007780 -0.023330 
#    y 0.007780 1.969910 -0.003810 
#    z -0.023330 -0.003810 1.908470 
# 
# From -- ./inp_files/437374.got.cif
#   From: 2010.06.25/outbox.cif.g09.slc.cpg/sg2_219_cif.got.tgz:437374.got - 2010.06.27 13:26:56.
