data_PCOD8021814
_publ_section_title
;
Structure prediction by ZEFSAII (Michael W. Deem and Ramdas Pophale) SiO2 
 PCOD8021814
Probable space group: P -1
;
_chemical_formula_sum "Si O2"
_cell_formula_units_Z 16
_cell_length_a 11.182778
_cell_length_b 15.263407
_cell_length_c 9.716551
_cell_angle_alpha 151.515527
_cell_angle_beta 78.237843
_cell_angle_gamma 93.984140
_cell_volume 752.686875
_symmetry_space_group_name_H-M "P -1"
_symmetry_group_IT_number 2
_symmetry_cell_setting 'triclinic'
loop_
_space_group_symop_operation_xyz
x,y,z
-x,-y,-z
loop_
_atom_site_type_symbol
_atom_site_label
_atom_site_fract_x
_atom_site_fract_y
_atom_site_fract_z
Si Si1 0.751372 0.784006 0.413912
Si Si2 0.265650 0.510306 0.761108
Si Si3 0.980291 0.303487 0.291207
Si Si4 0.754644 0.767665 0.841376
Si Si5 0.101640 0.896451 0.224868
Si Si6 0.474348 0.919727 0.750637
Si Si7 0.770381 0.576567 0.846972
Si Si8 0.481969 0.516589 0.189172
O O1 0.783890 0.639372 0.336159
O O2 0.600808 0.870788 0.561407
O O3 0.813695 0.962457 0.651264
O O4 0.802868 0.654694 0.092863
O O5 0.289485 0.403689 0.461365
O O6 0.389241 0.562044 0.866871
O O7 0.172668 0.711753 0.037729
O O8 0.860851 0.366152 0.510116
O O9 0.000000 0.500000 0.500000
O O10 0.109426 0.203447 0.206493
O O11 0.955890 0.165704 0.986544
O O12 0.790412 0.723029 0.929743
O O13 0.641183 0.949131 0.119426
O O14 0.000000 0.000000 0.500000
O O15 0.428125 0.733674 0.539322
O O16 0.500000 0.000000 0.000000
O O17 0.622994 0.586685 0.881037
O O18 0.500000 0.500000 0.000000
#
# Coordination Sequence:
#
# PCOD8021814 Si02
#       8
#     2   2   2   2   2   2   2   2
#     4  11  26  46  70 108 139 181 236 292 353 406
#     4  11  24  46  70 101 143 183 230 291 353 409
#     4  10  22  44  68  98 139 181 233 285 345 420
#     4  11  23  43  72  96 140 189 228 289 354 410
#     4  12  26  46  74 103 141 187 239 288 344 427
#     4  11  23  43  69 100 142 174 235 298 333 422
#     4  11  23  44  70  97 141 183 231 290 347 423
#     4  11  23  43  67 101 140 180 230 290 356 404
#
# _framework density 21.257179000000001
#
# number of rings (size 3 to 8) (size 9 to 14) (size 15 to 20)
#    0.000    1.000    7.500    1.500    3.500    3.500 
#    0.000    1.250    0.000    0.000    0.000    0.000 
#    0.000    0.000    0.000    0.000    0.000    0.000 
#
# Total GULP energy -198250.228324 kJ/mol
# GULP energy per Si atom -12390.639270 kJ/mol
# Density = 2.120880 g / cm^3
# Si number density = 21.257179 Si / 1000 Ang^3
#
#
#
# Elastic Constant Matrix: (Units=GPa)
#
#
# Indices 1 2 3 4 5 6 
#
# 1 126.9646 28.1200 43.2864 6.6513 -5.1825 -10.6507
# 2 28.1200 70.0698 30.6148 11.6014 -7.5455 1.0176
# 3 43.2864 30.6148 135.6344 -4.8871 -3.4927 -11.2352
# 4 6.6513 11.6014 -4.8871 45.5570 -4.0067 1.2950
# 5 -5.1825 -7.5455 -3.4927 -4.0067 46.4939 3.3416
# 6 -10.6507 1.0176 -11.2352 1.2950 3.3416 22.5465
#
#
#
# Elastic Compliance Matrix: (Units=1/GPa)
#
#
# Indices 1 2 3 4 5 6 
#
# 1 0.009591 -0.002773 -0.002169 -0.001020 0.000108 0.003618
# 2 -0.002773 0.017959 -0.003595 -0.004242 0.002258 -0.004003
# 3 -0.002169 -0.003595 0.009250 0.002102 -0.000212 0.003657
# 4 -0.001020 -0.004242 0.002102 0.023555 0.001444 -0.000810
# 5 0.000108 0.002258 -0.000212 0.001444 0.022249 -0.003537
# 6 0.003618 -0.004003 0.003657 -0.000810 -0.003537 0.048636
#
#
# Mechanical properties :
#
#
# Convention : Reuss Voigt Hill
#
# Bulk Modulus (GPa) = 50.69738 59.63460 55.16599
# Shear Modulus (GPa) = 32.28108 38.29598 35.28853
#
# Velocity S-wave (km/s) = 3.90115 4.24908 4.07882
# Velocity P-wave (km/s) = 6.64780 7.22410 6.94193
#
# Compressibility (1/GPa) = 0.01972488
#
# Stress axis : x y z
#
# Youngs Moduli (GPa) = 104.26048 55.68366 108.11172
#
# Poissons Ratio (x) = 0.15443 0.23453
# Poissons Ratio (y) = 0.28915 0.38863
# Poissons Ratio (z) = 0.22617 0.20017
#
# Static dielectric constant tensor:
#      x y z
#    x 4.791420 0.107100 -0.535740 
#    y 0.107100 3.764850 -0.047620 
#    z -0.535740 -0.047620 4.446580 
# 
# 
# High freq. dielectric constant tensor:
#      x y z
#    x 1.848660 -0.004650 -0.000790 
#    y -0.004650 1.811370 -0.009270 
#    z -0.000790 -0.009270 1.849590 
# 
# From -- ./inp_files/272156.got.cif
#   From: 2010.06.25/outbox.cif.g09.slc.cpg/sg2_137_cif.got.tgz:272156.got - 2010.06.27 13:26:56.
