data_PCOD8021486
_publ_section_title
;
Structure prediction by ZEFSAII (Michael W. Deem and Ramdas Pophale) SiO2 
 PCOD8021486
Probable space group: P -1
;
_chemical_formula_sum "Si O2"
_cell_formula_units_Z 14
_cell_length_a 13.019947
_cell_length_b 13.848495
_cell_length_c 8.118991
_cell_angle_alpha 78.080937
_cell_angle_beta 76.873169
_cell_angle_gamma 26.303397
_cell_volume 631.728205
_symmetry_space_group_name_H-M "P -1"
_symmetry_group_IT_number 2
_symmetry_cell_setting 'triclinic'
loop_
_space_group_symop_operation_xyz
x,y,z
-x,-y,-z
loop_
_atom_site_type_symbol
_atom_site_label
_atom_site_fract_x
_atom_site_fract_y
_atom_site_fract_z
Si Si1 0.967924 0.616146 0.593984
Si Si2 0.234814 0.322521 0.884236
Si Si3 0.740459 0.175512 0.507981
Si Si4 0.464417 0.491842 0.765937
Si Si5 0.125466 0.790935 0.053080
Si Si6 0.193464 0.065156 0.650140
Si Si7 0.485303 0.089290 0.187634
O O1 0.961347 0.722367 0.456287
O O2 0.727278 0.800617 0.712979
O O3 0.000000 0.500000 0.500000
O O4 0.182612 0.442087 0.710020
O O5 0.304501 0.160117 0.836324
O O6 0.421137 0.201119 0.000023
O O7 0.000000 0.500000 0.000000
O O8 0.589930 0.297382 0.690041
O O9 0.600375 0.364527 0.377001
O O10 0.744829 0.063807 0.468511
O O11 0.000000 0.000000 0.500000
O O12 0.654228 0.380295 0.853261
O O13 0.228522 0.658027 0.891985
O O14 0.948634 0.861683 0.172157
O O15 0.000000 0.000000 0.000000
O O16 0.433484 0.904413 0.699829
#
# Coordination Sequence:
#
# PCOD8021486 Si02
#       7
#     2   2   2   2   2   2   2
#     4  11  23  43  72 101 139 180 234 294 342 421
#     4   9  20  44  69  93 140 175 225 298 345 405
#     4  11  22  45  68 102 141 177 237 298 341 421
#     4  10  22  43  74  91 136 190 218 301 352 397
#     4  11  22  45  68 101 140 180 240 288 343 431
#     4  12  24  41  75 102 144 190 231 288 364 409
#     4  10  22  44  69  99 137 182 232 294 343 420
#
# _framework density 22.161428000000001
#
# number of rings (size 3 to 8) (size 9 to 14) (size 15 to 20)
#    0.000    1.429    4.286    0.429    0.000    1.143 
#    0.000   11.429    0.000    0.000    0.000    0.000 
#    0.000    0.000    0.000    0.000    0.000    0.000 
#
# Total GULP energy -173500.306515 kJ/mol
# GULP energy per Si atom -12392.879037 kJ/mol
# Density = 2.211099 g / cm^3
# Si number density = 22.161428 Si / 1000 Ang^3
#
#
#
# Elastic Constant Matrix: (Units=GPa)
#
#
# Indices 1 2 3 4 5 6 
#
# 1 84.4794 44.6047 43.4187 -7.2098 11.3932 13.8965
# 2 44.6047 141.4147 68.4043 6.5231 6.3474 12.4600
# 3 43.4187 68.4043 138.1747 -2.5596 2.7473 11.9229
# 4 -7.2098 6.5231 -2.5596 67.5534 -1.3041 9.3418
# 5 11.3932 6.3474 2.7473 -1.3041 41.2550 2.6876
# 6 13.8965 12.4600 11.9229 9.3418 2.6876 33.1957
#
#
#
# Elastic Compliance Matrix: (Units=1/GPa)
#
#
# Indices 1 2 3 4 5 6 
#
# 1 0.016680 -0.003301 -0.003049 0.002622 -0.003480 -0.005105
# 2 -0.003301 0.010163 -0.003962 -0.001411 -0.000395 -0.000581
# 3 -0.003049 -0.003962 0.010252 0.000623 0.000864 -0.001164
# 4 0.002622 -0.001411 0.000623 0.015984 0.000303 -0.005314
# 5 -0.003480 -0.000395 0.000864 0.000303 0.025268 -0.000836
# 6 -0.005105 -0.000581 -0.001164 -0.005314 -0.000836 0.034461
#
#
# Mechanical properties :
#
#
# Convention : Reuss Voigt Hill
#
# Bulk Modulus (GPa) = 60.71600 75.21382 67.96491
# Shear Modulus (GPa) = 35.99149 42.24356 39.11753
#
# Velocity S-wave (km/s) = 4.03434 4.37071 4.20589
# Velocity P-wave (km/s) = 7.01126 7.71256 7.37026
#
# Compressibility (1/GPa) = 0.01647012
#
# Stress axis : x y z
#
# Youngs Moduli (GPa) = 59.95169 98.39347 97.54661
#
# Poissons Ratio (x) = 0.32484 0.29739
# Poissons Ratio (y) = 0.19793 0.38650
# Poissons Ratio (z) = 0.18278 0.38985
#
# Static dielectric constant tensor:
#      x y z
#    x 3.497130 -0.204380 0.488190 
#    y -0.204380 4.558880 0.231900 
#    z 0.488190 0.231900 4.739810 
# 
# 
# High freq. dielectric constant tensor:
#      x y z
#    x 1.827810 -0.007380 0.019070 
#    y -0.007380 1.897520 0.001450 
#    z 0.019070 0.001450 1.898520 
# 
# From -- ./inp_files/134956.got.cif
#   From: 2010.06.25/outbox.cif.g09.slc.cpg/sg2_68_cif.got.tgz:134956.got - 2010.06.27 13:26:56.
