data_PCOD8021476
_publ_section_title
;
Structure prediction by ZEFSAII (Michael W. Deem and Ramdas Pophale) SiO2 
 PCOD8021476
Probable space group: P -1
;
_chemical_formula_sum "Si O2"
_cell_formula_units_Z 12
_cell_length_a 11.578235
_cell_length_b 19.364652
_cell_length_c 9.386904
_cell_angle_alpha 143.756790
_cell_angle_beta 49.346764
_cell_angle_gamma 154.336931
_cell_volume 514.926082
_symmetry_space_group_name_H-M "P -1"
_symmetry_group_IT_number 2
_symmetry_cell_setting 'triclinic'
loop_
_space_group_symop_operation_xyz
x,y,z
-x,-y,-z
loop_
_atom_site_type_symbol
_atom_site_label
_atom_site_fract_x
_atom_site_fract_y
_atom_site_fract_z
Si Si1 0.108278 0.664129 0.318373
Si Si2 0.273495 0.303744 0.964298
Si Si3 0.499860 0.205026 0.585567
Si Si4 0.647889 0.884737 0.754036
Si Si5 0.573903 0.092415 0.792544
Si Si6 0.406625 0.528939 0.503932
O O1 0.202480 0.621618 0.282325
O O2 0.182297 0.682564 0.120755
O O3 0.792144 0.499031 0.317757
O O4 0.297897 0.902062 0.597794
O O5 0.342490 0.213678 0.794712
O O6 0.500000 0.500000 0.000000
O O7 0.259201 0.362787 0.221530
O O8 0.963224 0.116309 0.836428
O O9 0.544526 0.255525 0.464993
O O10 0.317814 0.968756 0.356554
O O11 0.660732 0.769269 0.636253
O O12 0.503918 0.892661 0.975446
O O13 0.500000 0.500000 0.500000
#
# Coordination Sequence:
#
# PCOD8021476 Si02
#       6
#     2   2   2   2   2   2
#     4   9  22  46  65 103 137 177 233 277 343 402
#     4  12  26  48  67 104 145 178 229 290 341 413
#     4  10  22  43  73  99 137 183 225 288 338 406
#     4  12  25  45  72 104 137 184 232 281 347 410
#     4   9  21  42  71  98 134 181 226 279 339 401
#     4  12  29  44  70 106 138 185 233 279 349 416
#
# _framework density 23.304316
#
# number of rings (size 3 to 8) (size 9 to 14) (size 15 to 20)
#    1.000    0.333    3.333    1.000    4.667    2.000 
#    6.000    0.000    0.000    0.000    0.000    0.000 
#    0.000    0.000    0.000    0.000    0.000    0.000 
#
# Total GULP energy -148747.654004 kJ/mol
# GULP energy per Si atom -12395.637834 kJ/mol
# Density = 2.325127 g / cm^3
# Si number density = 23.304316 Si / 1000 Ang^3
#
#
#
# Elastic Constant Matrix: (Units=GPa)
#
#
# Indices 1 2 3 4 5 6 
#
# 1 149.5346 59.2564 41.3480 -12.6092 -6.8971 -9.2176
# 2 59.2564 132.4786 29.5072 -11.8691 -6.1778 -3.6113
# 3 41.3480 29.5072 105.0203 -29.9316 -16.0001 2.3237
# 4 -12.6092 -11.8691 -29.9316 37.4251 -7.4814 -6.8837
# 5 -6.8971 -6.1778 -16.0001 -7.4814 42.4649 -1.1056
# 6 -9.2176 -3.6113 2.3237 -6.8837 -1.1056 36.9519
#
#
#
# Elastic Compliance Matrix: (Units=1/GPa)
#
#
# Indices 1 2 3 4 5 6 
#
# 1 0.008852 -0.003311 -0.002474 0.000372 0.000144 0.002114
# 2 -0.003311 0.009388 -0.000810 0.001453 0.000790 0.000437
# 3 -0.002474 -0.000810 0.015614 0.013120 0.007701 0.000996
# 4 0.000372 0.001453 0.013120 0.041743 0.012766 0.007568
# 5 0.000144 0.000790 0.007701 0.012766 0.028913 0.002872
# 6 0.002114 0.000437 0.000996 0.007568 0.002872 0.029065
#
#
# Mechanical properties :
#
#
# Convention : Reuss Voigt Hill
#
# Bulk Modulus (GPa) = 48.38799 71.91740 60.15270
# Shear Modulus (GPa) = 32.54116 40.49651 36.51883
#
# Velocity S-wave (km/s) = 3.74084 4.17313 3.96288
# Velocity P-wave (km/s) = 6.28229 7.35847 6.84157
#
# Compressibility (1/GPa) = 0.02066628
#
# Stress axis : x y z
#
# Youngs Moduli (GPa) = 112.97378 106.51375 64.04569
#
# Poissons Ratio (x) = 0.35263 0.15843
# Poissons Ratio (y) = 0.37401 0.05185
# Poissons Ratio (z) = 0.27946 0.08622
#
# Static dielectric constant tensor:
#      x y z
#    x 4.001580 -0.183570 0.022790 
#    y -0.183570 4.013990 0.015090 
#    z 0.022790 0.015090 4.453150 
# 
# 
# High freq. dielectric constant tensor:
#      x y z
#    x 1.905260 -0.013310 -0.002520 
#    y -0.013310 1.913910 -0.003550 
#    z -0.002520 -0.003550 1.949650 
# 
# From -- ./inp_files/280061.got.cif
#   From: 2010.06.25/outbox.cif.g09.slc.cpg/sg2_141_cif.got.tgz:280061.got - 2010.06.27 13:26:56.
