data_PCOD8021030
_publ_section_title
;
Structure prediction by ZEFSAII (Michael W. Deem and Ramdas Pophale) SiO2 
 PCOD8021030
Probable space group: P -1
;
_chemical_formula_sum "Si O2"
_cell_formula_units_Z 16
_cell_length_a 17.557858
_cell_length_b 8.618334
_cell_length_c 11.868525
_cell_angle_alpha 78.910321
_cell_angle_beta 138.983223
_cell_angle_gamma 131.139898
_cell_volume 699.802782
_symmetry_space_group_name_H-M "P -1"
_symmetry_group_IT_number 2
_symmetry_cell_setting 'triclinic'
loop_
_space_group_symop_operation_xyz
x,y,z
-x,-y,-z
loop_
_atom_site_type_symbol
_atom_site_label
_atom_site_fract_x
_atom_site_fract_y
_atom_site_fract_z
Si Si1 0.239529 0.096559 0.756274
Si Si2 0.162614 0.911554 0.456918
Si Si3 0.664027 0.462221 0.140965
Si Si4 0.693866 0.224377 0.756631
Si Si5 0.922694 0.530618 0.568687
Si Si6 0.993301 0.686413 0.867918
Si Si7 0.592466 0.330452 0.824205
Si Si8 0.920627 0.881635 0.050441
O O1 0.210234 0.239522 0.756927
O O2 0.178563 0.040867 0.565384
O O3 0.457124 0.276482 0.985247
O O4 0.120880 0.835169 0.725418
O O5 0.071757 0.647409 0.435192
O O6 0.365877 0.108824 0.595916
O O7 0.025012 0.841862 0.223053
O O8 0.749703 0.423382 0.323605
O O9 0.662413 0.390439 0.023265
O O10 0.840933 0.508824 0.824539
O O11 0.645605 0.230421 0.828178
O O12 0.500000 0.000000 0.500000
O O13 0.804857 0.178220 0.894529
O O14 0.888176 0.496851 0.669028
O O15 0.041531 0.920627 0.862129
O O16 0.694314 0.593134 0.842553
O O17 0.000000 0.000000 0.000000
#
# Coordination Sequence:
#
# PCOD8021030 Si02
#       8
#     2   2   2   2   2   2   2   2
#     4  10  22  43  67 100 141 175 223 270 334 412
#     4  11  26  41  66 104 137 180 225 275 342 403
#     4  10  23  42  70 104 135 178 222 274 338 403
#     4  11  25  45  69  93 134 174 224 282 336 393
#     4  12  23  40  70 100 141 175 222 274 337 401
#     4  11  26  44  66 100 128 177 229 272 333 406
#     4  11  24  45  69 100 138 175 227 281 336 406
#     4  12  25  44  69  93 135 178 230 284 332 395
#
# _framework density 22.863583999999999
#
# number of rings (size 3 to 8) (size 9 to 14) (size 15 to 20)
#    0.000    1.000    1.250    4.500    3.500    7.500 
#    0.000    0.000    0.000    0.000    0.000    0.000 
#    0.000    0.000    0.000    0.000    0.000    0.000 
#
# Total GULP energy -198471.909365 kJ/mol
# GULP energy per Si atom -12404.494335 kJ/mol
# Density = 2.281155 g / cm^3
# Si number density = 22.863584 Si / 1000 Ang^3
#
#
#
# Elastic Constant Matrix: (Units=GPa)
#
#
# Indices 1 2 3 4 5 6 
#
# 1 107.0369 23.8330 45.1590 -1.9996 0.2853 -4.1129
# 2 23.8330 128.3374 55.2014 -4.6305 16.0478 -11.7504
# 3 45.1590 55.2014 115.3696 -10.5963 -4.7916 -8.6854
# 4 -1.9996 -4.6305 -10.5963 39.4725 0.4389 0.0565
# 5 0.2853 16.0478 -4.7916 0.4389 25.0251 4.6577
# 6 -4.1129 -11.7504 -8.6854 0.0565 4.6577 39.1164
#
#
#
# Elastic Compliance Matrix: (Units=1/GPa)
#
#
# Indices 1 2 3 4 5 6 
#
# 1 0.011233 -0.000040 -0.004454 -0.000621 -0.001000 0.000300
# 2 -0.000040 0.011724 -0.005732 -0.000067 -0.009236 0.003345
# 3 -0.004454 -0.005732 0.013669 0.002702 0.006279 0.000094
# 4 -0.000621 -0.000067 0.002702 0.026019 0.000023 0.000474
# 5 -0.001000 -0.009236 0.006279 0.000023 0.048446 -0.007254
# 6 0.000300 0.003345 0.000094 0.000474 -0.007254 0.027485
#
#
# Mechanical properties :
#
#
# Convention : Reuss Voigt Hill
#
# Bulk Modulus (GPa) = 61.82381 66.57007 64.19694
# Shear Modulus (GPa) = 30.41012 35.82618 33.11815
#
# Velocity S-wave (km/s) = 3.65097 3.96277 3.81006
# Velocity P-wave (km/s) = 6.69864 7.07937 6.89163
#
# Compressibility (1/GPa) = 0.01617500
#
# Stress axis : x y z
#
# Youngs Moduli (GPa) = 89.02228 85.29863 73.15581
#
# Poissons Ratio (x) = 0.00344 0.32581
# Poissons Ratio (y) = 0.00359 0.41930
# Poissons Ratio (z) = 0.39647 0.48890
#
# Static dielectric constant tensor:
#      x y z
#    x 4.302020 0.023020 -0.009560 
#    y 0.023020 4.264440 0.232290 
#    z -0.009560 0.232290 4.102700 
# 
# 
# High freq. dielectric constant tensor:
#      x y z
#    x 1.918230 0.002360 -0.004140 
#    y 0.002360 1.903070 0.012680 
#    z -0.004140 0.012680 1.906320 
# 
# From -- ./inp_files/462160.got.cif
#   From: 2010.06.25/outbox.cif.g09.slc.cpg/sg2_232_cif.got.tgz:462160.got - 2010.06.27 13:26:56.
