data_PCOD8021250
_publ_section_title
;
Structure prediction by ZEFSAII (Michael W. Deem and Ramdas Pophale) SiO2 
 PCOD8021250
Probable space group: P -1
;
_chemical_formula_sum "Si O2"
_cell_formula_units_Z 16
_cell_length_a 22.290842
_cell_length_b 16.401541
_cell_length_c 13.330927
_cell_angle_alpha 22.307125
_cell_angle_beta 36.420223
_cell_angle_gamma 23.614909
_cell_volume 710.818231
_symmetry_space_group_name_H-M "P -1"
_symmetry_group_IT_number 2
_symmetry_cell_setting 'triclinic'
loop_
_space_group_symop_operation_xyz
x,y,z
-x,-y,-z
loop_
_atom_site_type_symbol
_atom_site_label
_atom_site_fract_x
_atom_site_fract_y
_atom_site_fract_z
Si Si1 0.147381 0.724021 0.767687
Si Si2 0.717465 0.749231 0.706879
Si Si3 0.203898 0.822827 0.276639
Si Si4 0.784171 0.437851 0.756576
Si Si5 0.832925 0.869070 0.827703
Si Si6 0.333896 0.249577 0.885206
Si Si7 0.574577 0.558594 0.760204
Si Si8 0.061651 0.252313 0.610851
O O1 0.190344 0.501999 0.869342
O O2 0.190449 0.893384 0.484961
O O3 0.261313 0.482715 0.981991
O O4 0.965703 0.996377 0.730763
O O5 0.743114 0.615850 0.713411
O O6 0.835057 0.746727 0.592167
O O7 0.549988 0.132888 0.498040
O O8 0.314918 0.460049 0.586272
O O9 0.289210 0.765288 0.124913
O O10 0.181119 0.050518 0.127343
O O11 0.639809 0.655167 0.627517
O O12 0.922342 0.364112 0.607489
O O13 0.834642 0.108192 0.074303
O O14 0.688191 0.945720 0.913503
O O15 0.000000 0.500000 0.000000
O O16 0.500000 0.000000 0.000000
O O17 0.500000 0.500000 0.000000
O O18 0.000000 0.500000 0.500000
#
# Coordination Sequence:
#
# PCOD8021250 Si02
#       8
#     2   2   2   2   2   2   2   2
#     4  11  24  42  74 109 142 180 241 290 350 444
#     4  11  24  44  66 102 140 184 239 298 355 417
#     4  11  25  44  72 106 141 188 243 286 357 432
#     4  10  22  43  69  94 135 191 246 291 357 417
#     4  11  21  49  77 106 140 185 229 289 363 438
#     4  11  23  47  74 109 146 174 225 302 359 430
#     4  12  26  49  67 100 148 193 239 306 354 414
#     4   9  20  39  66  94 129 175 242 294 345 412
#
# _framework density 22.509270000000001
#
# number of rings (size 3 to 8) (size 9 to 14) (size 15 to 20)
#    0.000    1.250    3.750    1.875    5.250    3.000 
#   11.250    0.000    0.000    0.000    0.000    0.000 
#    0.000    0.000    0.000    0.000    0.000    0.000 
#
# Total GULP energy -198313.723618 kJ/mol
# GULP energy per Si atom -12394.607726 kJ/mol
# Density = 2.245804 g / cm^3
# Si number density = 22.509270 Si / 1000 Ang^3
#
#
#
# Elastic Constant Matrix: (Units=GPa)
#
#
# Indices 1 2 3 4 5 6 
#
# 1 115.1725 49.9004 45.6097 17.9516 -10.2977 -9.7358
# 2 49.9004 118.8368 35.3407 11.5235 -3.3925 7.1423
# 3 45.6097 35.3407 84.8069 -6.3444 -0.7774 -0.8760
# 4 17.9516 11.5235 -6.3444 26.9074 -2.4787 -0.4115
# 5 -10.2977 -3.3925 -0.7774 -2.4787 43.7215 -0.0280
# 6 -9.7358 7.1423 -0.8760 -0.4115 -0.0280 40.8349
#
#
#
# Elastic Compliance Matrix: (Units=1/GPa)
#
#
# Indices 1 2 3 4 5 6 
#
# 1 0.015276 -0.003350 -0.007520 -0.010227 0.002627 0.003965
# 2 -0.003350 0.011264 -0.003178 -0.003397 -0.000166 -0.002871
# 3 -0.007520 -0.003178 0.017927 0.010492 -0.001105 -0.000748
# 4 -0.010227 -0.003397 0.010492 0.047921 0.000230 -0.001136
# 5 0.002627 -0.000166 -0.001105 0.000230 0.023472 0.000650
# 6 0.003965 -0.002871 -0.000748 -0.001136 0.000650 0.025909
#
#
# Mechanical properties :
#
#
# Convention : Reuss Voigt Hill
#
# Bulk Modulus (GPa) = 61.07848 64.50198 62.79023
# Shear Modulus (GPa) = 28.51923 34.82379 31.67151
#
# Velocity S-wave (km/s) = 3.56336 3.93757 3.75513
# Velocity P-wave (km/s) = 6.64257 7.02784 6.83792
#
# Compressibility (1/GPa) = 0.01637238
#
# Stress axis : x y z
#
# Youngs Moduli (GPa) = 65.46169 88.78006 55.78222
#
# Poissons Ratio (x) = 0.29740 0.41947
# Poissons Ratio (y) = 0.21929 0.17726
# Poissons Ratio (z) = 0.49225 0.28211
#
# Static dielectric constant tensor:
#      x y z
#    x 4.124590 -0.181760 -0.243810 
#    y -0.181760 4.281710 0.008240 
#    z -0.243810 0.008240 4.310890 
# 
# 
# High freq. dielectric constant tensor:
#      x y z
#    x 1.884120 -0.009100 -0.007100 
#    y -0.009100 1.892070 -0.007630 
#    z -0.007100 -0.007630 1.884950 
# 
# From -- ./inp_files/543120.got.cif
#   From: 2010.06.25/outbox.cif.g09.slc.cpg/sg2_272_cif.got.tgz:543120.got - 2010.06.27 13:26:56.
