data_PCOD8021705
_publ_section_title
;
Structure prediction by ZEFSAII (Michael W. Deem and Ramdas Pophale) SiO2 
 PCOD8021705
Probable space group: P -1
;
_chemical_formula_sum "Si O2"
_cell_formula_units_Z 16
_cell_length_a 16.120675
_cell_length_b 10.909328
_cell_length_c 7.026549
_cell_angle_alpha 86.613001
_cell_angle_beta 140.034113
_cell_angle_gamma 107.952889
_cell_volume 722.668596
_symmetry_space_group_name_H-M "P -1"
_symmetry_group_IT_number 2
_symmetry_cell_setting 'triclinic'
loop_
_space_group_symop_operation_xyz
x,y,z
-x,-y,-z
loop_
_atom_site_type_symbol
_atom_site_label
_atom_site_fract_x
_atom_site_fract_y
_atom_site_fract_z
Si Si1 0.999260 0.126318 0.605963
Si Si2 0.771632 0.579792 0.491319
Si Si3 0.020804 0.623398 0.664186
Si Si4 0.750435 0.783209 0.675315
Si Si5 0.435333 0.821083 0.792697
Si Si6 0.294181 0.615248 0.268159
Si Si7 0.567383 0.380130 0.883005
Si Si8 0.272418 0.982027 0.594937
O O1 0.988738 0.244581 0.452061
O O2 0.869552 0.077553 0.528145
O O3 0.000000 0.000000 0.500000
O O4 0.147441 0.196115 0.969640
O O5 0.900421 0.563421 0.616287
O O6 0.803107 0.735531 0.577455
O O7 0.760336 0.517774 0.687726
O O8 0.629813 0.511174 0.118722
O O9 0.000000 0.500000 0.500000
O O10 0.172563 0.669482 0.024153
O O11 0.596132 0.662397 0.456653
O O12 0.743558 0.924269 0.607428
O O13 0.422934 0.730873 0.594171
O O14 0.306696 0.868285 0.559340
O O15 0.417073 0.741729 0.966325
O O16 0.591584 0.939389 0.038498
O O17 0.342238 0.583407 0.152967
#
# Coordination Sequence:
#
# PCOD8021705 Si02
#       8
#     2   2   2   2   2   2   2   2
#     4  12  28  43  66 101 137 184 226 273 334 408
#     4  11  24  44  67 103 133 172 225 278 341 401
#     4  12  25  45  69 100 137 173 229 283 330 400
#     4  11  25  43  67  94 139 184 215 276 338 402
#     4   9  22  41  70 100 126 171 221 283 329 395
#     4  11  23  40  73  98 130 176 216 284 339 391
#     4  10  22  44  67 103 133 167 228 274 338 399
#     4  10  22  45  65  92 136 172 225 273 334 398
#
# _framework density 22.140160999999999
#
# number of rings (size 3 to 8) (size 9 to 14) (size 15 to 20)
#    0.000    1.250    1.250    3.375    7.000    0.500 
#    2.250    2.500    0.000    0.000    0.000    0.000 
#    0.000    0.000    0.000    0.000    0.000    0.000 
#
# Total GULP energy -198377.305589 kJ/mol
# GULP energy per Si atom -12398.581599 kJ/mol
# Density = 2.208977 g / cm^3
# Si number density = 22.140161 Si / 1000 Ang^3
#
#
#
# Elastic Constant Matrix: (Units=GPa)
#
#
# Indices 1 2 3 4 5 6 
#
# 1 105.2583 26.6967 52.4348 -4.7540 1.9992 0.2384
# 2 26.6967 88.9752 34.4380 -5.2787 -8.7674 -8.9597
# 3 52.4348 34.4380 131.1849 0.1650 4.8733 4.9130
# 4 -4.7540 -5.2787 0.1650 33.3454 -4.3026 -2.0943
# 5 1.9992 -8.7674 4.8733 -4.3026 38.2893 0.4748
# 6 0.2384 -8.9597 4.9130 -2.0943 0.4748 34.6075
#
#
#
# Elastic Compliance Matrix: (Units=1/GPa)
#
#
# Indices 1 2 3 4 5 6 
#
# 1 0.012240 -0.001914 -0.004384 0.001426 -0.000361 0.000134
# 2 -0.001914 0.014044 -0.003231 0.002745 0.003983 0.004219
# 3 -0.004384 -0.003231 0.010387 -0.001591 -0.001983 -0.002350
# 4 0.001426 0.002745 -0.001591 0.031356 0.004246 0.002766
# 5 -0.000361 0.003983 -0.001983 0.004246 0.027763 0.001191
# 6 0.000134 0.004219 -0.002350 0.002766 0.001191 0.030472
#
#
# Mechanical properties :
#
#
# Convention : Reuss Voigt Hill
#
# Bulk Modulus (GPa) = 56.77141 61.39526 59.08333
# Shear Modulus (GPa) = 33.07082 35.37169 34.22125
#
# Velocity S-wave (km/s) = 3.86904 4.00137 3.93576
# Velocity P-wave (km/s) = 6.75698 7.00988 6.88459
#
# Compressibility (1/GPa) = 0.01761450
#
# Stress axis : x y z
#
# Youngs Moduli (GPa) = 81.69671 71.20373 96.27500
#
# Poissons Ratio (x) = 0.13625 0.42203
# Poissons Ratio (y) = 0.15633 0.31111
# Poissons Ratio (z) = 0.35812 0.23009
#
# Static dielectric constant tensor:
#      x y z
#    x 4.035630 -0.127900 0.223560 
#    y -0.127900 4.069710 0.039010 
#    z 0.223560 0.039010 4.166640 
# 
# 
# High freq. dielectric constant tensor:
#      x y z
#    x 1.872890 -0.010100 0.009150 
#    y -0.010100 1.877080 0.003530 
#    z 0.009150 0.003530 1.881670 
# 
# From -- ./inp_files/95096.got.cif
#   From: 2010.06.25/outbox.cif.g09.slc.cpg/sg2_48_cif.got.tgz:95096.got - 2010.06.27 13:26:56.
