data_PCOD8021261
_publ_section_title
;
Structure prediction by ZEFSAII (Michael W. Deem and Ramdas Pophale) SiO2 
 PCOD8021261
Probable space group: P -1
;
_chemical_formula_sum "Si O2"
_cell_formula_units_Z 16
_cell_length_a 8.160840
_cell_length_b 14.392592
_cell_length_c 6.574697
_cell_angle_alpha 89.207602
_cell_angle_beta 112.248568
_cell_angle_gamma 84.911581
_cell_volume 710.983457
_symmetry_space_group_name_H-M "P -1"
_symmetry_group_IT_number 2
_symmetry_cell_setting 'triclinic'
loop_
_space_group_symop_operation_xyz
x,y,z
-x,-y,-z
loop_
_atom_site_type_symbol
_atom_site_label
_atom_site_fract_x
_atom_site_fract_y
_atom_site_fract_z
Si Si1 0.432927 0.098737 0.377625
Si Si2 0.073030 0.786959 0.400223
Si Si3 0.142501 0.055219 0.957604
Si Si4 0.590705 0.445105 0.231859
Si Si5 0.583412 0.233061 0.717629
Si Si6 0.649204 0.603821 0.549528
Si Si7 0.712182 0.128485 0.176904
Si Si8 0.019531 0.604638 0.581298
O O1 0.436025 0.168626 0.566094
O O2 0.553733 0.134127 0.258658
O O3 0.500000 0.000000 0.500000
O O4 0.239764 0.098106 0.191229
O O5 0.249770 0.767205 0.352333
O O6 0.115117 0.836395 0.633060
O O7 0.992319 0.687640 0.397668
O O8 0.931287 0.858968 0.218558
O O9 0.261383 0.978773 0.882795
O O10 0.000000 0.000000 0.000000
O O11 0.652556 0.502429 0.452935
O O12 0.442574 0.385044 0.268512
O O13 0.777074 0.389445 0.238747
O O14 0.500000 0.500000 0.000000
O O15 0.472342 0.333878 0.672234
O O16 0.654230 0.201113 0.970555
O O17 0.855979 0.627749 0.664788
O O18 0.000000 0.500000 0.500000
#
# Coordination Sequence:
#
# PCOD8021261 Si02
#       8
#     2   2   2   2   2   2   2   2
#     4  11  24  42  64  92 136 177 222 280 328 406
#     4  11  24  43  66  97 139 173 228 288 334 409
#     4  12  23  43  65  98 133 180 224 279 339 397
#     4  10  22  43  69  95 131 172 221 283 341 403
#     4  11  23  43  65  95 135 177 227 271 340 409
#     4  10  23  41  67  95 131 176 218 278 342 401
#     4  11  24  42  67  94 134 184 221 275 346 398
#     4  10  23  45  66  99 138 173 224 285 337 409
#
# _framework density 22.50404
#
# number of rings (size 3 to 8) (size 9 to 14) (size 15 to 20)
#    0.000    1.250    3.750    1.500    3.500    1.500 
#    2.250    0.000    0.000    0.000    0.000    0.000 
#    0.000    0.000    0.000    0.000    0.000    0.000 
#
# Total GULP energy -198249.164007 kJ/mol
# GULP energy per Si atom -12390.572750 kJ/mol
# Density = 2.245282 g / cm^3
# Si number density = 22.504040 Si / 1000 Ang^3
#
#
#
# Elastic Constant Matrix: (Units=GPa)
#
#
# Indices 1 2 3 4 5 6 
#
# 1 142.0026 17.5332 59.0645 -28.7389 8.2820 8.2580
# 2 17.5332 93.9964 38.4418 -33.7730 4.1387 11.5967
# 3 59.0645 38.4418 139.4253 -27.6160 15.9833 11.9400
# 4 -28.7389 -33.7730 -27.6160 44.9277 -2.1572 4.9162
# 5 8.2820 4.1387 15.9833 -2.1572 32.5552 -6.8446
# 6 8.2580 11.5967 11.9400 4.9162 -6.8446 36.6847
#
#
#
# Elastic Compliance Matrix: (Units=1/GPa)
#
#
# Indices 1 2 3 4 5 6 
#
# 1 0.009500 0.002026 -0.002983 0.006013 -0.001416 -0.002878
# 2 0.002026 0.016941 -0.001937 0.013540 -0.002385 -0.007441
# 3 -0.002983 -0.001937 0.010422 0.003193 -0.004615 -0.003397
# 4 0.006013 0.013540 0.003193 0.039417 -0.004913 -0.012872
# 5 -0.001416 -0.002385 -0.004615 -0.004913 0.035389 0.009836
# 6 -0.002878 -0.007441 -0.003397 -0.012872 0.009836 0.034925
#
#
# Mechanical properties :
#
#
# Convention : Reuss Voigt Hill
#
# Bulk Modulus (GPa) = 32.18029 67.27815 49.72922
# Shear Modulus (GPa) = 30.72396 40.19250 35.45823
#
# Velocity S-wave (km/s) = 3.69896 4.23071 3.97374
# Velocity P-wave (km/s) = 5.70735 7.33663 6.57267
#
# Compressibility (1/GPa) = 0.03107492
#
# Stress axis : x y z
#
# Youngs Moduli (GPa) = 105.26728 59.02956 95.94861
#
# Poissons Ratio (x) = -0.11958 0.28622
# Poissons Ratio (y) = -0.21326 0.18581
# Poissons Ratio (z) = 0.31402 0.11431
#
# Static dielectric constant tensor:
#      x y z
#    x 4.458190 0.093510 0.063330 
#    y 0.093510 4.611680 0.230120 
#    z 0.063330 0.230120 4.121070 
# 
# 
# High freq. dielectric constant tensor:
#      x y z
#    x 1.899110 0.004250 0.002140 
#    y 0.004250 1.892300 -0.018280 
#    z 0.002140 -0.018280 1.873040 
# 
# From -- ./inp_files/38212.got.cif
#   From: 2010.06.25/outbox.cif.g09.slc.cpg/sg2_20_cif.got.tgz:38212.got - 2010.06.27 13:26:56.
