data_PCOD8021529
_publ_section_title
;
Structure prediction by ZEFSAII (Michael W. Deem and Ramdas Pophale) SiO2 
 PCOD8021529
Probable space group: P -1
;
_chemical_formula_sum "Si O2"
_cell_formula_units_Z 16
_cell_length_a 6.620780
_cell_length_b 21.300930
_cell_length_c 9.136870
_cell_angle_alpha 123.798992
_cell_angle_beta 132.490441
_cell_angle_gamma 50.660100
_cell_volume 716.087269
_symmetry_space_group_name_H-M "P -1"
_symmetry_group_IT_number 2
_symmetry_cell_setting 'triclinic'
loop_
_space_group_symop_operation_xyz
x,y,z
-x,-y,-z
loop_
_atom_site_type_symbol
_atom_site_label
_atom_site_fract_x
_atom_site_fract_y
_atom_site_fract_z
Si Si1 0.352113 0.084037 0.943164
Si Si2 0.690063 0.698705 0.150996
Si Si3 0.299715 0.345893 0.570199
Si Si4 0.666703 0.879713 0.344825
Si Si5 0.370737 0.576098 0.329293
Si Si6 0.397628 0.605114 0.709983
Si Si7 0.634431 0.179273 0.378094
Si Si8 0.781135 0.079335 0.587426
O O1 0.427938 0.070678 0.790002
O O2 0.989971 0.116401 0.823758
O O3 0.459040 0.153973 0.134826
O O4 0.500000 0.000000 0.000000
O O5 0.611170 0.687022 0.264455
O O6 0.630917 0.793432 0.214019
O O7 0.032021 0.637628 0.199902
O O8 0.469834 0.677862 0.909003
O O9 0.400301 0.419933 0.679067
O O10 0.494365 0.277934 0.455079
O O11 0.949748 0.374899 0.406485
O O12 0.430035 0.940648 0.427304
O O13 0.008507 0.860761 0.532829
O O14 0.465160 0.599619 0.563316
O O15 0.396390 0.482350 0.224804
O O16 0.562613 0.146283 0.453755
O O17 0.000000 0.000000 0.500000
#
# Coordination Sequence:
#
# PCOD8021529 Si02
#       8
#     2   2   2   2   2   2   2   2
#     4  11  26  45  67 100 127 170 220 265 330 396
#     4  11  23  41  64  99 129 175 221 266 326 385
#     4  11  23  39  66  93 134 169 220 270 322 379
#     4  11  26  42  69  96 132 173 218 270 328 388
#     4  10  22  44  62  94 136 174 217 270 326 381
#     4  10  24  39  66  97 131 173 222 268 322 388
#     4  11  24  44  65  95 132 169 214 274 325 387
#     4  11  24  48  67  96 133 164 215 271 325 397
#
# _framework density 22.343644999999999
#
# number of rings (size 3 to 8) (size 9 to 14) (size 15 to 20)
#    0.000    1.250    3.750    0.750    3.500    5.000 
#    0.000    0.000    0.000    0.000    0.000    0.000 
#    0.000    0.000    0.000    0.000    0.000    0.000 
#
# Total GULP energy -198393.906762 kJ/mol
# GULP energy per Si atom -12399.619173 kJ/mol
# Density = 2.229279 g / cm^3
# Si number density = 22.343645 Si / 1000 Ang^3
#
#
#
# Elastic Constant Matrix: (Units=GPa)
#
#
# Indices 1 2 3 4 5 6 
#
# 1 151.9345 27.6919 35.3125 -6.5215 3.4003 10.0162
# 2 27.6919 62.3689 -1.0219 -6.9320 -8.2737 7.0865
# 3 35.3125 -1.0219 101.5662 7.5944 8.5442 -3.2264
# 4 -6.5215 -6.9320 7.5944 29.8164 2.8068 1.3288
# 5 3.4003 -8.2737 8.5442 2.8068 21.9398 3.5984
# 6 10.0162 7.0865 -3.2264 1.3288 3.5984 37.7671
#
#
#
# Elastic Compliance Matrix: (Units=1/GPa)
#
#
# Indices 1 2 3 4 5 6 
#
# 1 0.008115 -0.003426 -0.002939 0.001932 -0.001374 -0.001697
# 2 -0.003426 0.019349 0.000382 0.003069 0.007868 -0.003547
# 3 -0.002939 0.000382 0.011503 -0.003220 -0.003824 0.002168
# 4 0.001932 0.003069 -0.003220 0.035798 -0.002070 -0.002426
# 5 -0.001374 0.007868 -0.003824 -0.002070 0.051543 -0.006277
# 6 -0.001697 -0.003547 0.002168 -0.002426 -0.006277 0.028462
#
#
# Mechanical properties :
#
#
# Convention : Reuss Voigt Hill
#
# Bulk Modulus (GPa) = 37.03586 48.87052 42.95319
# Shear Modulus (GPa) = 28.45194 34.83047 31.64120
#
# Velocity S-wave (km/s) = 3.57232 3.95252 3.76721
# Velocity P-wave (km/s) = 5.79886 6.53831 6.17966
#
# Compressibility (1/GPa) = 0.02700086
#
# Stress axis : x y z
#
# Youngs Moduli (GPa) = 123.23276 51.68266 86.93637
#
# Poissons Ratio (x) = 0.17705 0.25547
# Poissons Ratio (y) = 0.42217 -0.03318
# Poissons Ratio (z) = 0.36213 -0.01973
#
# Static dielectric constant tensor:
#      x y z
#    x 4.209980 0.133930 0.097040 
#    y 0.133930 4.159430 0.044850 
#    z 0.097040 0.044850 4.094790 
# 
# 
# High freq. dielectric constant tensor:
#      x y z
#    x 1.887120 0.011700 0.008550 
#    y 0.011700 1.885290 0.002480 
#    z 0.008550 0.002480 1.874900 
# 
# From -- ./inp_files/141547.got.cif
#   From: 2010.06.25/outbox.cif.g09.slc.cpg/sg2_71_cif.got.tgz:141547.got - 2010.06.27 13:26:56.
