data_PCOD8021431
_publ_section_title
;
Structure prediction by ZEFSAII (Michael W. Deem and Ramdas Pophale) SiO2 
 PCOD8021431
Probable space group: P -1
;
_chemical_formula_sum "Si O2"
_cell_formula_units_Z 16
_cell_length_a 6.848604
_cell_length_b 5.302033
_cell_length_c 25.279931
_cell_angle_alpha 101.528300
_cell_angle_beta 125.495151
_cell_angle_gamma 70.270612
_cell_volume 703.483748
_symmetry_space_group_name_H-M "P -1"
_symmetry_group_IT_number 2
_symmetry_cell_setting 'triclinic'
loop_
_space_group_symop_operation_xyz
x,y,z
-x,-y,-z
loop_
_atom_site_type_symbol
_atom_site_label
_atom_site_fract_x
_atom_site_fract_y
_atom_site_fract_z
Si Si1 0.468722 0.664498 0.347028
Si Si2 0.121858 0.763949 0.653711
Si Si3 0.801214 0.995746 0.426102
Si Si4 0.983492 0.977643 0.241729
Si Si5 0.865280 0.453192 0.160416
Si Si6 0.640488 0.554920 0.577743
Si Si7 0.093721 0.296170 0.081180
Si Si8 0.306129 0.694614 0.064527
O O1 0.587771 0.400989 0.319660
O O2 0.316274 0.671202 0.378781
O O3 0.284922 0.889421 0.290897
O O4 0.732234 0.718831 0.405412
O O5 0.064442 0.985825 0.607785
O O6 0.903428 0.612301 0.609527
O O7 0.143305 0.888719 0.718996
O O8 0.543228 0.212300 0.407549
O O9 0.000000 0.000000 0.500000
O O10 0.907458 0.703556 0.209459
O O11 0.895494 0.194717 0.191205
O O12 0.593316 0.540505 0.095154
O O13 0.061510 0.363859 0.140534
O O14 0.500000 0.500000 0.500000
O O15 0.195465 0.530276 0.082884
O O16 0.281630 0.998559 0.092431
O O17 0.831664 0.297881 0.012847
#
# Coordination Sequence:
#
# PCOD8021431 Si02
#       8
#     2   2   2   2   2   2   2   2
#     4  11  26  45  65  95 133 176 230 283 356 421
#     4  11  26  45  66  93 134 180 221 292 350 421
#     4  11  24  41  69 101 122 168 228 285 363 424
#     4  12  28  46  68  97 142 191 235 283 342 424
#     4  12  26  45  69 104 138 189 242 280 338 412
#     4  11  23  42  69  99 132 166 223 291 361 436
#     4  10  22  43  72 106 146 180 230 297 342 401
#     4  10  22  43  72 107 142 185 230 287 357 394
#
# _framework density 22.743952
#
# number of rings (size 3 to 8) (size 9 to 14) (size 15 to 20)
#    0.000    1.000    1.250    4.125    7.000    6.000 
#    0.000    5.000    0.000    0.000    0.000    0.000 
#    0.000    0.000    0.000    0.000    0.000    0.000 
#
# Total GULP energy -198273.345262 kJ/mol
# GULP energy per Si atom -12392.084079 kJ/mol
# Density = 2.269219 g / cm^3
# Si number density = 22.743952 Si / 1000 Ang^3
#
#
#
# Elastic Constant Matrix: (Units=GPa)
#
#
# Indices 1 2 3 4 5 6 
#
# 1 104.8029 18.1203 23.7838 1.9839 -21.5959 0.4007
# 2 18.1203 82.5318 22.0803 -2.5766 -9.6710 11.3502
# 3 23.7838 22.0803 66.9374 0.1227 -14.7052 -7.4880
# 4 1.9839 -2.5766 0.1227 36.4824 -2.0923 -1.3734
# 5 -21.5959 -9.6710 -14.7052 -2.0923 44.5147 1.0019
# 6 0.4007 11.3502 -7.4880 -1.3734 1.0019 38.3395
#
#
#
# Elastic Compliance Matrix: (Units=1/GPa)
#
#
# Indices 1 2 3 4 5 6 
#
# 1 0.011259 -0.001201 -0.002707 -0.000457 0.004295 -0.000419
# 2 -0.001201 0.014518 -0.004684 0.000979 0.001187 -0.005196
# 3 -0.002707 -0.004684 0.018837 0.000158 0.003787 0.005001
# 4 -0.000457 0.000979 0.000158 0.027606 0.001325 0.000700
# 5 0.004295 0.001187 0.003787 0.001325 0.026126 -0.000292
# 6 -0.000419 -0.005196 0.005001 0.000700 -0.000292 0.028635
#
#
# Mechanical properties :
#
#
# Convention : Reuss Voigt Hill
#
# Bulk Modulus (GPa) = 36.45729 42.47122 39.46426
# Shear Modulus (GPa) = 32.61387 36.55317 34.58352
#
# Velocity S-wave (km/s) = 3.79087 4.01329 3.90366
# Velocity P-wave (km/s) = 5.93508 6.33952 6.14063
#
# Compressibility (1/GPa) = 0.02742935
#
# Stress axis : x y z
#
# Youngs Moduli (GPa) = 88.81805 68.88109 53.08588
#
# Poissons Ratio (x) = 0.08273 0.14369
# Poissons Ratio (y) = 0.10668 0.24868
# Poissons Ratio (z) = 0.24041 0.32267
#
# Static dielectric constant tensor:
#      x y z
#    x 3.514740 0.712250 -0.227280 
#    y 0.712250 3.352180 0.303500 
#    z -0.227280 0.303500 3.953670 
# 
# 
# High freq. dielectric constant tensor:
#      x y z
#    x 1.906720 -0.007780 -0.002370 
#    y -0.007780 1.911850 -0.001260 
#    z -0.002370 -0.001260 1.897690 
# 
# From -- ./inp_files/603345.got.cif
#   From: 2010.06.25/outbox.cif.g09.slc.cpg/sg2_302_cif.got.tgz:603345.got - 2010.06.27 13:26:56.
