data_PCOD8021215
_publ_section_title
;
Structure prediction by ZEFSAII (Michael W. Deem and Ramdas Pophale) SiO2 
 PCOD8021215
Probable space group: P -1
;
_chemical_formula_sum "Si O2"
_cell_formula_units_Z 10
_cell_length_a 14.639478
_cell_length_b 10.100241
_cell_length_c 8.112448
_cell_angle_alpha 46.043411
_cell_angle_beta 32.035893
_cell_angle_gamma 46.123539
_cell_volume 440.489990
_symmetry_space_group_name_H-M "P -1"
_symmetry_group_IT_number 2
_symmetry_cell_setting 'triclinic'
loop_
_space_group_symop_operation_xyz
x,y,z
-x,-y,-z
loop_
_atom_site_type_symbol
_atom_site_label
_atom_site_fract_x
_atom_site_fract_y
_atom_site_fract_z
Si Si1 0.624581 0.390858 0.757702
Si Si2 0.145778 0.303691 0.408562
Si Si3 0.014902 0.192081 0.395425
Si Si4 0.649197 0.691536 0.211786
Si Si5 0.453163 0.066085 0.328348
O O1 0.593319 0.516182 0.531161
O O2 0.830868 0.356947 0.518987
O O3 0.500000 0.500000 0.000000
O O4 0.585112 0.189029 0.960531
O O5 0.056512 0.167613 0.551071
O O6 0.244468 0.190986 0.516757
O O7 0.000000 0.500000 0.500000
O O8 0.304746 0.353376 0.012857
O O9 0.175560 0.265402 0.004330
O O10 0.000000 0.000000 0.500000
O O11 0.484802 0.881997 0.321061
O O12 0.500000 0.000000 0.500000
#
# Coordination Sequence:
#
# PCOD8021215 Si02
#       5
#     2   2   2   2   2
#     4  12  22  40  71 102 137 190 234 286 359 418
#     4  10  24  45  70 106 146 183 240 294 351 423
#     4  10  22  43  69 100 141 187 232 288 354 417
#     4  10  24  42  72  98 145 182 239 286 354 420
#     4  12  24  43  71 104 145 186 236 294 358 422
#
# _framework density 22.701989999999999
#
# number of rings (size 3 to 8) (size 9 to 14) (size 15 to 20)
#    1.200    0.000    4.000    2.400    0.000    0.800 
#    0.000    1.000    0.000    0.000    0.000    0.000 
#    0.000    0.000    0.000    0.000    0.000    0.000 
#
# Total GULP energy -123901.720722 kJ/mol
# GULP energy per Si atom -12390.172072 kJ/mol
# Density = 2.265032 g / cm^3
# Si number density = 22.701990 Si / 1000 Ang^3
#
#
#
# Elastic Constant Matrix: (Units=GPa)
#
#
# Indices 1 2 3 4 5 6 
#
# 1 111.6767 61.3635 14.7967 -4.4959 10.6221 -13.8009
# 2 61.3635 161.9345 51.0034 11.8107 13.1028 -20.9891
# 3 14.7967 51.0034 69.3416 -16.8899 9.3362 -1.5841
# 4 -4.4959 11.8107 -16.8899 50.5849 2.0369 -2.6085
# 5 10.6221 13.1028 9.3362 2.0369 40.1955 4.9928
# 6 -13.8009 -20.9891 -1.5841 -2.6085 4.9928 40.8307
#
#
#
# Elastic Compliance Matrix: (Units=1/GPa)
#
#
# Indices 1 2 3 4 5 6 
#
# 1 0.012054 -0.005066 0.002326 0.003238 -0.002496 0.002072
# 2 -0.005066 0.011888 -0.008956 -0.005998 -0.000618 0.003744
# 3 0.002326 -0.008956 0.023404 0.010155 -0.003417 -0.001843
# 4 0.003238 -0.005998 0.010155 0.024967 -0.002563 0.000313
# 5 -0.002496 -0.000618 -0.003417 -0.002563 0.027258 -0.004790
# 6 0.002072 0.003744 -0.001843 0.000313 -0.004790 0.027651
#
#
# Mechanical properties :
#
#
# Convention : Reuss Voigt Hill
#
# Bulk Modulus (GPa) = 41.74548 66.36445 54.05496
# Shear Modulus (GPa) = 31.52645 40.70820 36.11732
#
# Velocity S-wave (km/s) = 3.73058 4.23916 3.99298
# Velocity P-wave (km/s) = 6.08150 7.29774 6.71720
#
# Compressibility (1/GPa) = 0.02395469
#
# Stress axis : x y z
#
# Youngs Moduli (GPa) = 82.96265 84.11521 42.72837
#
# Poissons Ratio (x) = 0.42612 -0.09939
# Poissons Ratio (y) = 0.42028 0.38267
# Poissons Ratio (z) = -0.19298 0.75332
#
# Static dielectric constant tensor:
#      x y z
#    x 3.999760 -0.147860 -0.111230 
#    y -0.147860 4.184660 0.150750 
#    z -0.111230 0.150750 4.062930 
# 
# 
# High freq. dielectric constant tensor:
#      x y z
#    x 1.888360 -0.002940 -0.007870 
#    y -0.002940 1.907640 0.013250 
#    z -0.007870 0.013250 1.875830 
# 
# From -- ./inp_files/152961.got.cif
#   From: 2010.06.25/outbox.cif.g09.slc.cpg/sg2_77_cif.got.tgz:152961.got - 2010.06.27 13:26:56.
