data_PCOD8021608
_publ_section_title
;
Structure prediction by ZEFSAII (Michael W. Deem and Ramdas Pophale) SiO2 
 PCOD8021608
Probable space group: P -1
;
_chemical_formula_sum "Si O2"
_cell_formula_units_Z 16
_cell_length_a 18.364612
_cell_length_b 15.651134
_cell_length_c 9.172855
_cell_angle_alpha 62.232386
_cell_angle_beta 130.587384
_cell_angle_gamma 155.468037
_cell_volume 762.072964
_symmetry_space_group_name_H-M "P -1"
_symmetry_group_IT_number 2
_symmetry_cell_setting 'triclinic'
loop_
_space_group_symop_operation_xyz
x,y,z
-x,-y,-z
loop_
_atom_site_type_symbol
_atom_site_label
_atom_site_fract_x
_atom_site_fract_y
_atom_site_fract_z
Si Si1 0.322174 0.076233 0.158250
Si Si2 0.372232 0.578673 0.971514
Si Si3 0.635514 0.851657 0.373893
Si Si4 0.656926 0.319087 0.641105
Si Si5 0.646585 0.088758 0.811278
Si Si6 0.173595 0.586350 0.593836
Si Si7 0.079412 0.741680 0.734522
Si Si8 0.043709 0.929415 0.144198
O O1 0.529129 0.250194 0.395404
O O2 0.233967 0.889750 0.141588
O O3 0.122261 0.949725 0.079953
O O4 0.425110 0.232346 0.033071
O O5 0.479247 0.654355 0.210482
O O6 0.243441 0.564285 0.812985
O O7 0.188172 0.329122 0.896979
O O8 0.485648 0.795756 0.306319
O O9 0.835067 0.082055 0.361912
O O10 0.759278 0.895585 0.616898
O O11 0.716158 0.260829 0.730728
O O12 0.896339 0.592100 0.744809
O O13 0.385954 0.845427 0.630732
O O14 0.709385 0.125548 0.033330
O O15 0.000000 0.500000 0.500000
O O16 0.062775 0.446255 0.416657
O O17 0.000000 0.000000 0.000000
#
# Coordination Sequence:
#
# PCOD8021608 Si02
#       8
#     2   2   2   2   2   2   2   2
#     4  10  22  44  65  90 133 168 209 268 318 385
#     4  11  23  44  67  93 131 171 210 266 324 374
#     4  11  24  42  66  93 130 165 216 264 316 391
#     4  11  23  38  61  94 133 177 213 262 306 369
#     4  11  23  38  60  94 132 173 225 257 307 378
#     4  11  23  36  62  92 133 180 216 252 309 374
#     4  12  22  40  59  91 131 174 217 258 313 371
#     4  11  26  46  71  97 122 162 215 273 340 388
#
# _framework density 20.995363999999999
#
# number of rings (size 3 to 8) (size 9 to 14) (size 15 to 20)
#    0.000    1.000    6.250    1.500    5.250    2.000 
#    0.000    0.625    0.000    0.000    0.000    0.000 
#    0.000    0.000    0.000    0.000    0.000    0.000 
#
# Total GULP energy -198244.146183 kJ/mol
# GULP energy per Si atom -12390.259136 kJ/mol
# Density = 2.094758 g / cm^3
# Si number density = 20.995364 Si / 1000 Ang^3
#
#
#
# Elastic Constant Matrix: (Units=GPa)
#
#
# Indices 1 2 3 4 5 6 
#
# 1 80.8474 35.3968 34.3926 -9.3282 12.4187 5.8849
# 2 35.3968 76.8926 10.0638 -9.5451 3.8362 5.8536
# 3 34.3926 10.0638 116.2260 5.7242 -16.4734 3.0069
# 4 -9.3282 -9.5451 5.7242 29.1651 -8.8215 2.9395
# 5 12.4187 3.8362 -16.4734 -8.8215 28.1109 -1.8110
# 6 5.8849 5.8536 3.0069 2.9395 -1.8110 14.8299
#
#
#
# Elastic Compliance Matrix: (Units=1/GPa)
#
#
# Indices 1 2 3 4 5 6 
#
# 1 0.021467 -0.007486 -0.007432 0.002756 -0.012346 -0.006111
# 2 -0.007486 0.017055 0.001017 0.004231 0.002614 -0.004486
# 3 -0.007432 0.001017 0.012151 -0.001608 0.009864 0.001607
# 4 0.002756 0.004231 -0.001608 0.040661 0.009420 -0.009347
# 5 -0.012346 0.002614 0.009864 0.009420 0.049799 0.006081
# 6 -0.006111 -0.004486 0.001607 -0.009347 0.006081 0.073897
#
#
# Mechanical properties :
#
#
# Convention : Reuss Voigt Hill
#
# Bulk Modulus (GPa) = 43.72508 48.18585 45.95546
# Shear Modulus (GPa) = 19.96364 27.36202 23.66283
#
# Velocity S-wave (km/s) = 3.08695 3.61396 3.36080
# Velocity P-wave (km/s) = 5.79456 6.35726 6.08242
#
# Compressibility (1/GPa) = 0.02287017
#
# Stress axis : x y z
#
# Youngs Moduli (GPa) = 46.58216 58.63524 82.29982
#
# Poissons Ratio (x) = 0.43896 0.61163
# Poissons Ratio (y) = 0.34873 -0.08368
# Poissons Ratio (z) = 0.34619 -0.05962
#
# Static dielectric constant tensor:
#      x y z
#    x 6.272650 1.053610 -1.825470 
#    y 1.053610 4.197190 -0.317640 
#    z -1.825470 -0.317640 5.079010 
# 
# 
# High freq. dielectric constant tensor:
#      x y z
#    x 1.784540 0.017240 -0.016490 
#    y 0.017240 1.825050 0.013000 
#    z -0.016490 0.013000 1.840410 
# 
# From -- ./inp_files/348459.got.cif
#   From: 2010.06.25/outbox.cif.g09.slc.cpg/sg2_175_cif.got.tgz:348459.got - 2010.06.27 13:26:56.
