data_PCOD8021388
_publ_section_title
;
Structure prediction by ZEFSAII (Michael W. Deem and Ramdas Pophale) SiO2 
 PCOD8021388
Probable space group: P -1
;
_chemical_formula_sum "Si O2"
_cell_formula_units_Z 16
_cell_length_a 16.027038
_cell_length_b 5.792370
_cell_length_c 15.675220
_cell_angle_alpha 56.317267
_cell_angle_beta 34.762630
_cell_angle_gamma 66.231685
_cell_volume 686.179468
_symmetry_space_group_name_H-M "P -1"
_symmetry_group_IT_number 2
_symmetry_cell_setting 'triclinic'
loop_
_space_group_symop_operation_xyz
x,y,z
-x,-y,-z
loop_
_atom_site_type_symbol
_atom_site_label
_atom_site_fract_x
_atom_site_fract_y
_atom_site_fract_z
Si Si1 0.833298 0.821859 0.771301
Si Si2 0.682839 0.752834 0.573710
Si Si3 0.081165 0.241917 0.943574
Si Si4 0.236224 0.088866 0.009175
Si Si5 0.069821 0.611864 0.506612
Si Si6 0.322075 0.677988 0.595011
Si Si7 0.432791 0.590581 0.951096
Si Si8 0.537409 0.455727 0.338665
O O1 0.943627 0.613838 0.683880
O O2 0.843690 0.084756 0.644871
O O3 0.873845 0.903186 0.818707
O O4 0.664698 0.684942 0.944838
O O5 0.816047 0.574344 0.510536
O O6 0.570573 0.701850 0.755536
O O7 0.595123 0.700254 0.570462
O O8 0.754383 0.072708 0.436687
O O9 0.142098 0.067015 0.005840
O O10 0.211653 0.392771 0.744546
O O11 0.000000 0.500000 0.000000
O O12 0.000000 0.000000 0.000000
O O13 0.349428 0.370185 0.855571
O O14 0.325774 0.827585 0.002245
O O15 0.000000 0.500000 0.500000
O O16 0.470505 0.661451 0.419548
O O17 0.371503 0.746474 0.638395
O O18 0.500000 0.500000 0.000000
#
# Coordination Sequence:
#
# PCOD8021388 Si02
#       8
#     2   2   2   2   2   2   2   2
#     4  11  25  47  72  98 152 197 246 317 384 456
#     4  12  24  42  77 106 141 192 250 312 384 453
#     4  11  29  50  76 113 159 209 262 310 387 479
#     4  11  24  46  74 108 146 195 254 322 389 451
#     4  11  27  48  68 103 147 199 251 309 384 460
#     4  10  24  45  72 104 148 188 240 315 371 458
#     4  12  26  43  75 109 144 189 255 320 390 461
#     4  10  22  43  71 107 139 184 240 306 386 450
#
# _framework density 23.317515
#
# number of rings (size 3 to 8) (size 9 to 14) (size 15 to 20)
#    0.000    1.000    2.500    2.625    5.250    6.000 
#    0.000    0.000    0.000    0.000    0.000    0.000 
#    0.000    0.000    0.000    0.000    0.000    0.000 
#
# Total GULP energy -198310.203245 kJ/mol
# GULP energy per Si atom -12394.387703 kJ/mol
# Density = 2.326444 g / cm^3
# Si number density = 23.317515 Si / 1000 Ang^3
#
#
#
# Elastic Constant Matrix: (Units=GPa)
#
#
# Indices 1 2 3 4 5 6 
#
# 1 147.2725 69.2731 60.8424 -7.4181 7.8526 -16.7092
# 2 69.2731 116.9060 38.6633 5.9278 8.9058 -26.7101
# 3 60.8424 38.6633 96.2995 -2.5670 16.5680 -20.6437
# 4 -7.4181 5.9278 -2.5670 37.9189 2.1454 1.8306
# 5 7.8526 8.9058 16.5680 2.1454 35.1295 -4.3153
# 6 -16.7092 -26.7101 -20.6437 1.8306 -4.3153 36.8525
#
#
#
# Elastic Compliance Matrix: (Units=1/GPa)
#
#
# Indices 1 2 3 4 5 6 
#
# 1 0.011666 -0.005748 -0.005607 0.002839 0.001071 -0.002033
# 2 -0.005748 0.014030 -0.000335 -0.003644 -0.000977 0.007442
# 3 -0.005607 -0.000335 0.016245 0.000101 -0.005635 0.005650
# 4 0.002839 -0.003644 0.000101 0.027746 -0.001808 -0.002888
# 5 0.001071 -0.000977 -0.005635 -0.001808 0.031289 0.000374
# 6 -0.002033 0.007442 0.005650 -0.002888 0.000374 0.034959
#
#
# Mechanical properties :
#
#
# Convention : Reuss Voigt Hill
#
# Bulk Modulus (GPa) = 53.87925 77.55953 65.71939
# Shear Modulus (GPa) = 30.21139 34.76013 32.48576
#
# Velocity S-wave (km/s) = 3.60342 3.86519 3.73660
# Velocity P-wave (km/s) = 6.36159 7.29754 6.84558
#
# Compressibility (1/GPa) = 0.01856002
#
# Stress axis : x y z
#
# Youngs Moduli (GPa) = 85.72284 71.27449 61.55878
#
# Poissons Ratio (x) = 0.40970 0.34516
# Poissons Ratio (y) = 0.49275 0.02063
# Poissons Ratio (z) = 0.48064 0.02388
#
# Static dielectric constant tensor:
#      x y z
#    x 4.225830 -0.122450 0.096460 
#    y -0.122450 4.222060 -0.148780 
#    z 0.096460 -0.148780 4.478750 
# 
# 
# High freq. dielectric constant tensor:
#      x y z
#    x 1.926440 -0.007110 0.012770 
#    y -0.007110 1.916620 -0.007380 
#    z 0.012770 -0.007380 1.942830 
# 
# From -- ./inp_files/525548.got.cif
#   From: 2010.06.25/outbox.cif.g09.slc.cpg/sg2_263_cif.got.tgz:525548.got - 2010.06.27 13:26:56.
