data_PCOD8021204
_publ_section_title
;
Structure prediction by ZEFSAII (Michael W. Deem and Ramdas Pophale) SiO2 
 PCOD8021204
Probable space group: P -1
;
_chemical_formula_sum "Si O2"
_cell_formula_units_Z 14
_cell_length_a 9.314052
_cell_length_b 12.572134
_cell_length_c 9.188851
_cell_angle_alpha 74.269606
_cell_angle_beta 80.842989
_cell_angle_gamma 35.410013
_cell_volume 596.407135
_symmetry_space_group_name_H-M "P -1"
_symmetry_group_IT_number 2
_symmetry_cell_setting 'triclinic'
loop_
_space_group_symop_operation_xyz
x,y,z
-x,-y,-z
loop_
_atom_site_type_symbol
_atom_site_label
_atom_site_fract_x
_atom_site_fract_y
_atom_site_fract_z
Si Si1 0.455826 0.929639 0.691455
Si Si2 0.876599 0.072733 0.761197
Si Si3 0.930205 0.428887 0.958685
Si Si4 0.829941 0.537056 0.622616
Si Si5 0.372120 0.792865 0.944107
Si Si6 0.142632 0.147981 0.262423
Si Si7 0.912814 0.281380 0.537764
O O1 0.591849 0.753885 0.632854
O O2 0.405606 0.903967 0.866854
O O3 0.617244 0.939435 0.679054
O O4 0.200295 0.125048 0.589713
O O5 0.824406 0.213835 0.621597
O O6 0.786304 0.024180 0.700454
O O7 0.711768 0.182945 0.890233
O O8 0.167449 0.876463 0.829227
O O9 0.997807 0.399474 0.788197
O O10 0.640221 0.571785 0.960216
O O11 0.000000 0.500000 0.000000
O O12 0.076672 0.238887 0.081864
O O13 0.000000 0.500000 0.500000
O O14 0.745244 0.476789 0.574725
O O15 0.908494 0.302207 0.355709
#
# Coordination Sequence:
#
# PCOD8021204 Si02
#       7
#     2   2   2   2   2   2   2
#     4  10  22  43  68  99 128 179 222 281 334 383
#     4  10  24  42  66  94 134 184 219 262 339 408
#     4  11  22  41  67 102 133 162 225 289 327 383
#     4  11  22  41  69  96 130 172 220 271 335 397
#     4   9  21  44  62  94 134 173 225 265 336 400
#     4  12  23  41  66 100 135 167 227 280 325 394
#     4  11  24  46  67  93 142 178 222 272 336 402
#
# _framework density 23.473897000000001
#
# number of rings (size 3 to 8) (size 9 to 14) (size 15 to 20)
#    0.000    1.429    4.286    0.857    6.000    2.286 
#    7.714    0.714    0.000    0.000    0.000    0.000 
#    0.000    0.000    0.000    0.000    0.000    0.000 
#
# Total GULP energy -173553.778053 kJ/mol
# GULP energy per Si atom -12396.698432 kJ/mol
# Density = 2.342047 g / cm^3
# Si number density = 23.473897 Si / 1000 Ang^3
#
#
#
# Elastic Constant Matrix: (Units=GPa)
#
#
# Indices 1 2 3 4 5 6 
#
# 1 128.0237 39.3797 27.6102 7.5143 -20.8049 27.0008
# 2 39.3797 62.9328 3.7646 2.1199 1.9803 6.8844
# 3 27.6102 3.7646 122.8798 8.5859 -32.4057 7.1537
# 4 7.5143 2.1199 8.5859 17.2933 5.6306 -2.6538
# 5 -20.8049 1.9803 -32.4057 5.6306 36.6013 7.3534
# 6 27.0008 6.8844 7.1537 -2.6538 7.3534 43.0554
#
#
#
# Elastic Compliance Matrix: (Units=1/GPa)
#
#
# Indices 1 2 3 4 5 6 
#
# 1 0.016567 -0.009120 0.003090 -0.015444 0.017719 -0.013423
# 2 -0.009120 0.021298 -0.001952 0.006298 -0.009984 0.004732
# 3 0.003090 -0.001952 0.013729 -0.014960 0.017904 -0.007887
# 4 -0.015444 0.006298 -0.014960 0.088033 -0.040634 0.023530
# 5 0.017719 -0.009984 0.017904 -0.040634 0.065289 -0.026145
# 6 -0.013423 0.004732 -0.007887 0.023530 -0.026145 0.038113
#
#
# Mechanical properties :
#
#
# Convention : Reuss Voigt Hill
#
# Bulk Modulus (GPa) = 28.06561 50.59394 39.32978
# Shear Modulus (GPa) = 18.45908 35.59544 27.02726
#
# Velocity S-wave (km/s) = 2.80726 3.89830 3.39687
# Velocity P-wave (km/s) = 4.74233 6.47012 5.67239
#
# Compressibility (1/GPa) = 0.03563079
#
# Stress axis : x y z
#
# Youngs Moduli (GPa) = 60.36141 46.95246 72.83638
#
# Poissons Ratio (x) = 0.42823 -0.22509
# Poissons Ratio (y) = 0.55052 0.14216
# Poissons Ratio (z) = -0.18654 0.09164
#
# Static dielectric constant tensor:
#      x y z
#    x 4.310090 0.009660 -0.213510 
#    y 0.009660 4.007450 0.030320 
#    z -0.213510 0.030320 4.587100 
# 
# 
# High freq. dielectric constant tensor:
#      x y z
#    x 1.930080 0.004670 -0.023370 
#    y 0.004670 1.903380 -0.001510 
#    z -0.023370 -0.001510 1.945730 
# 
# From -- ./inp_files/174201.got.cif
#   From: 2010.06.25/outbox.cif.g09.slc.cpg/sg2_88_cif.got.tgz:174201.got - 2010.06.27 13:26:56.
