data_PCOD8021343
_publ_section_title
;
Structure prediction by ZEFSAII (Michael W. Deem and Ramdas Pophale) SiO2 
 PCOD8021343
Probable space group: P -1
;
_chemical_formula_sum "Si O2"
_cell_formula_units_Z 14
_cell_length_a 12.267969
_cell_length_b 8.610869
_cell_length_c 12.292127
_cell_angle_alpha 123.828254
_cell_angle_beta 47.582722
_cell_angle_gamma 141.726350
_cell_volume 592.744715
_symmetry_space_group_name_H-M "P -1"
_symmetry_group_IT_number 2
_symmetry_cell_setting 'triclinic'
loop_
_space_group_symop_operation_xyz
x,y,z
-x,-y,-z
loop_
_atom_site_type_symbol
_atom_site_label
_atom_site_fract_x
_atom_site_fract_y
_atom_site_fract_z
Si Si1 0.487017 0.917935 0.689138
Si Si2 0.473773 0.248511 0.188485
Si Si3 0.796826 0.024979 0.156960
Si Si4 0.231704 0.396578 0.040949
Si Si5 0.819248 0.477053 0.642180
Si Si6 0.316659 0.223656 0.637938
Si Si7 0.069043 0.063102 0.356312
O O1 0.514792 0.915023 0.799010
O O2 0.535083 0.764560 0.536564
O O3 0.272177 0.826961 0.777411
O O4 0.622146 0.191931 0.651270
O O5 0.553332 0.496623 0.296548
O O6 0.247517 0.064933 0.224915
O O7 0.612643 0.339679 0.024717
O O8 0.762609 0.976133 0.290564
O O9 0.690500 0.755334 0.062910
O O10 0.027025 0.213719 0.039450
O O11 0.173430 0.434769 0.208338
O O12 0.823196 0.647698 0.620888
O O13 0.000000 0.500000 0.500000
O O14 0.119338 0.130323 0.670844
O O15 0.000000 0.000000 0.500000
#
# Coordination Sequence:
#
# PCOD8021343 Si02
#       7
#     2   2   2   2   2   2   2
#     4  12  24  42  68 104 141 182 236 288 344 410
#     4  11  26  45  68 106 143 189 230 285 356 407
#     4  10  22  43  70  97 132 186 237 284 348 411
#     4  10  23  45  67  97 139 184 231 283 354 422
#     4  12  23  44  70 102 137 174 235 293 345 414
#     4  11  22  47  70 101 143 183 236 289 345 411
#     4  12  24  44  72 103 139 185 230 286 352 413
#
# _framework density 23.618938
#
# number of rings (size 3 to 8) (size 9 to 14) (size 15 to 20)
#    0.000    0.857    4.286    2.571    0.000    4.571 
#    2.571    1.429    0.000    0.000    0.000    0.000 
#    0.000    0.000    0.000    0.000    0.000    0.000 
#
# Total GULP energy -173532.836431 kJ/mol
# GULP energy per Si atom -12395.202602 kJ/mol
# Density = 2.356518 g / cm^3
# Si number density = 23.618938 Si / 1000 Ang^3
#
#
#
# Elastic Constant Matrix: (Units=GPa)
#
#
# Indices 1 2 3 4 5 6 
#
# 1 145.1015 9.6471 53.4638 -8.4703 -10.5515 -2.1262
# 2 9.6471 51.8913 23.7864 -9.9197 1.8755 2.1117
# 3 53.4638 23.7864 141.8811 -13.3790 2.2268 -7.4234
# 4 -8.4703 -9.9197 -13.3790 40.7853 1.6989 8.9366
# 5 -10.5515 1.8755 2.2268 1.6989 32.2725 -13.2819
# 6 -2.1262 2.1117 -7.4234 8.9366 -13.2819 33.6327
#
#
#
# Elastic Compliance Matrix: (Units=1/GPa)
#
#
# Indices 1 2 3 4 5 6 
#
# 1 0.008315 -0.000262 -0.003058 0.000269 0.003399 0.001138
# 2 -0.000262 0.022219 -0.003314 0.005499 -0.003488 -0.004982
# 3 -0.003058 -0.003314 0.008957 0.001258 -0.000966 0.001276
# 4 0.000269 0.005499 0.001258 0.028777 -0.005972 -0.010055
# 5 0.003399 -0.003488 -0.000966 -0.005972 0.039912 0.017569
# 6 0.001138 -0.004982 0.001276 -0.010055 0.017569 0.040009
#
#
# Mechanical properties :
#
#
# Convention : Reuss Voigt Hill
#
# Bulk Modulus (GPa) = 38.13333 56.96318 47.54825
# Shear Modulus (GPa) = 29.37776 38.13654 33.75715
#
# Velocity S-wave (km/s) = 3.53061 4.02264 3.78463
# Velocity P-wave (km/s) = 5.72718 6.76354 6.26682
#
# Compressibility (1/GPa) = 0.02622378
#
# Stress axis : x y z
#
# Youngs Moduli (GPa) = 120.25827 45.00703 111.65075
#
# Poissons Ratio (x) = 0.01179 0.34142
# Poissons Ratio (y) = 0.03150 0.36997
# Poissons Ratio (z) = 0.36774 0.14914
#
# Static dielectric constant tensor:
#      x y z
#    x 4.149770 -0.122570 0.090980 
#    y -0.122570 4.475980 -0.215380 
#    z 0.090980 -0.215380 4.212420 
# 
# 
# High freq. dielectric constant tensor:
#      x y z
#    x 1.931330 -0.002270 -0.002680 
#    y -0.002270 1.931260 -0.018730 
#    z -0.002680 -0.018730 1.945280 
# 
# From -- ./inp_files/298531.got.cif
#   From: 2010.06.25/outbox.cif.g09.slc.cpg/sg2_150_cif.got.tgz:298531.got - 2010.06.27 13:26:56.
