data_PCOD8021445
_publ_section_title
;
Structure prediction by ZEFSAII (Michael W. Deem and Ramdas Pophale) SiO2 
 PCOD8021445
Probable space group: P -1
;
_chemical_formula_sum "Si O2"
_cell_formula_units_Z 16
_cell_length_a 9.359858
_cell_length_b 16.138151
_cell_length_c 6.543894
_cell_angle_alpha 69.203824
_cell_angle_beta 125.874748
_cell_angle_gamma 121.730509
_cell_volume 679.657020
_symmetry_space_group_name_H-M "P -1"
_symmetry_group_IT_number 2
_symmetry_cell_setting 'triclinic'
loop_
_space_group_symop_operation_xyz
x,y,z
-x,-y,-z
loop_
_atom_site_type_symbol
_atom_site_label
_atom_site_fract_x
_atom_site_fract_y
_atom_site_fract_z
Si Si1 0.401152 0.527534 0.586353
Si Si2 0.700535 0.083439 0.881122
Si Si3 0.034581 0.715682 0.883030
Si Si4 0.705203 0.942542 0.334840
Si Si5 0.951414 0.073743 0.762155
Si Si6 0.691972 0.378505 0.919904
Si Si7 0.765114 0.566525 0.078431
Si Si8 0.742155 0.764339 0.347963
O O1 0.500000 0.500000 0.500000
O O2 0.296654 0.589233 0.339342
O O3 0.241349 0.442296 0.669928
O O4 0.578118 0.586621 0.837130
O O5 0.833170 0.172077 0.059397
O O6 0.688762 0.983385 0.061306
O O7 0.489098 0.080454 0.678903
O O8 0.784340 0.094929 0.713732
O O9 0.848589 0.704361 0.600530
O O10 0.162650 0.673628 0.895027
O O11 0.958642 0.656500 0.083573
O O12 0.726510 0.841796 0.427265
O O13 0.887070 0.024841 0.530038
O O14 0.135033 0.177285 0.796656
O O15 0.000000 0.000000 0.000000
O O16 0.469007 0.307627 0.847473
O O17 0.759404 0.467851 0.056356
#
# Coordination Sequence:
#
# PCOD8021445 Si02
#       8
#     2   2   2   2   2   2   2   2
#     4   9  20  42  70  98 131 177 226 280 344 401
#     4  11  24  43  70 102 136 182 232 286 348 416
#     4  12  24  44  70 103 136 183 237 280 346 415
#     4  11  23  47  69  94 146 178 225 294 350 409
#     4  12  24  42  69 102 135 186 230 281 355 417
#     4  11  24  46  67 101 141 181 228 287 345 403
#     4  10  22  43  72  98 139 184 225 282 348 411
#     4  12  24  45  71  98 142 182 227 291 340 413
#
# _framework density 23.541288000000002
#
# number of rings (size 3 to 8) (size 9 to 14) (size 15 to 20)
#    0.000    1.000    5.000    1.875    0.000    3.500 
#    6.750    0.000    0.000    0.000    0.000    0.000 
#    0.000    0.000    0.000    0.000    0.000    0.000 
#
# Total GULP energy -198364.087185 kJ/mol
# GULP energy per Si atom -12397.755449 kJ/mol
# Density = 2.348771 g / cm^3
# Si number density = 23.541288 Si / 1000 Ang^3
#
#
#
# Elastic Constant Matrix: (Units=GPa)
#
#
# Indices 1 2 3 4 5 6 
#
# 1 123.0269 34.9745 50.9303 -28.2752 -4.4103 7.1042
# 2 34.9745 88.9563 27.5418 -16.7031 -1.5388 13.4406
# 3 50.9303 27.5418 77.1882 -17.4617 -2.8522 -1.9913
# 4 -28.2752 -16.7031 -17.4617 31.3994 3.0321 -5.8596
# 5 -4.4103 -1.5388 -2.8522 3.0321 44.1697 -8.5630
# 6 7.1042 13.4406 -1.9913 -5.8596 -8.5630 50.7221
#
#
#
# Elastic Compliance Matrix: (Units=1/GPa)
#
#
# Indices 1 2 3 4 5 6 
#
# 1 0.012893 -0.001667 -0.006332 0.007040 0.000188 -0.000767
# 2 -0.001667 0.014065 -0.003207 0.003651 -0.000780 -0.003329
# 3 -0.006332 -0.003207 0.019244 0.003786 0.000834 0.003070
# 4 0.007040 0.003651 0.003786 0.042908 -0.001302 0.002932
# 5 0.000188 -0.000780 0.000834 -0.001302 0.023558 0.004040
# 6 -0.000767 -0.003329 0.003070 0.002932 0.004040 0.021846
#
#
# Mechanical properties :
#
#
# Convention : Reuss Voigt Hill
#
# Bulk Modulus (GPa) = 42.03668 57.34052 49.68860
# Shear Modulus (GPa) = 30.32918 36.97323 33.65121
#
# Velocity S-wave (km/s) = 3.59324 3.96734 3.78491
# Velocity P-wave (km/s) = 5.92541 6.73771 6.34457
#
# Compressibility (1/GPa) = 0.02378875
#
# Stress axis : x y z
#
# Youngs Moduli (GPa) = 77.56277 71.09810 51.96313
#
# Poissons Ratio (x) = 0.11855 0.32904
# Poissons Ratio (y) = 0.12932 0.16666
# Poissons Ratio (z) = 0.49114 0.22803
#
# Static dielectric constant tensor:
#      x y z
#    x 4.505220 0.108340 -0.230130 
#    y 0.108340 4.218460 -0.347730 
#    z -0.230130 -0.347730 3.189850 
# 
# 
# High freq. dielectric constant tensor:
#      x y z
#    x 1.950680 0.010750 0.003520 
#    y 0.010750 1.928470 -0.010690 
#    z 0.003520 -0.010690 1.910450 
# 
# From -- ./inp_files/47184.got.cif
#   From: 2010.06.25/outbox.cif.g09.slc.cpg/sg2_24_cif.got.tgz:47184.got - 2010.06.27 13:26:56.
