data_PCOD8021595
_publ_section_title
;
Structure prediction by ZEFSAII (Michael W. Deem and Ramdas Pophale) SiO2 
 PCOD8021595
Probable space group: P -1
;
_chemical_formula_sum "Si O2"
_cell_formula_units_Z 12
_cell_length_a 9.428482
_cell_length_b 11.476171
_cell_length_c 9.493342
_cell_angle_alpha 109.244763
_cell_angle_beta 45.147641
_cell_angle_gamma 134.695780
_cell_volume 488.599730
_symmetry_space_group_name_H-M "P -1"
_symmetry_group_IT_number 2
_symmetry_cell_setting 'triclinic'
loop_
_space_group_symop_operation_xyz
x,y,z
-x,-y,-z
loop_
_atom_site_type_symbol
_atom_site_label
_atom_site_fract_x
_atom_site_fract_y
_atom_site_fract_z
Si Si1 0.714531 0.982415 0.315002
Si Si2 0.542870 0.705597 0.526866
Si Si3 0.818973 0.527796 0.566929
Si Si4 0.495170 0.802449 0.882491
Si Si5 0.345887 0.248580 0.964097
Si Si6 0.060708 0.801175 0.304870
O O1 0.500000 0.000000 0.500000
O O2 0.713551 0.893307 0.414457
O O3 0.631492 0.869840 0.187705
O O4 0.033354 0.171288 0.147623
O O5 0.284116 0.559184 0.549820
O O6 0.411437 0.683963 0.760552
O O7 0.765260 0.690774 0.385677
O O8 0.555208 0.440240 0.820666
O O9 0.000000 0.500000 0.500000
O O10 0.003561 0.729336 0.478901
O O11 0.776263 0.999247 0.722242
O O12 0.553954 0.736371 0.943516
O O13 0.237917 0.780562 0.084162
#
# Coordination Sequence:
#
# PCOD8021595 Si02
#       6
#     2   2   2   2   2   2
#     4  10  23  39  69 100 135 177 232 282 337 404
#     4  11  25  42  70 102 133 180 234 277 337 414
#     4  11  24  47  69  96 146 186 220 282 353 397
#     4  11  24  41  75 101 133 177 238 277 337 407
#     4  10  22  44  65 100 136 179 228 282 338 408
#     4  11  24  44  71  99 142 180 219 288 343 398
#
# _framework density 24.559979999999999
#
# number of rings (size 3 to 8) (size 9 to 14) (size 15 to 20)
#    0.000    1.333    3.333    1.000    4.667    0.667 
#    0.000    4.167    0.000    0.000    0.000    0.000 
#    0.000    0.000    0.000    0.000    0.000    0.000 
#
# Total GULP energy -148814.235276 kJ/mol
# GULP energy per Si atom -12401.186273 kJ/mol
# Density = 2.450408 g / cm^3
# Si number density = 24.559980 Si / 1000 Ang^3
#
#
#
# Elastic Constant Matrix: (Units=GPa)
#
#
# Indices 1 2 3 4 5 6 
#
# 1 158.8869 27.2911 59.9823 2.5866 7.6431 -5.8504
# 2 27.2911 24.6363 36.4454 -12.5246 12.4184 -4.9931
# 3 59.9823 36.4454 154.2579 -1.9561 5.8507 -6.7311
# 4 2.5866 -12.5246 -1.9561 41.8156 -7.5100 10.6157
# 5 7.6431 12.4184 5.8507 -7.5100 65.0524 -1.1222
# 6 -5.8504 -4.9931 -6.7311 10.6157 -1.1222 32.6377
#
#
#
# Elastic Compliance Matrix: (Units=1/GPa)
#
#
# Indices 1 2 3 4 5 6 
#
# 1 0.008420 -0.009829 -0.000976 -0.003666 0.000569 0.001017
# 2 -0.009829 0.100039 -0.018958 0.027254 -0.013086 0.000318
# 3 -0.000976 -0.018958 0.011236 -0.004937 0.002169 0.000923
# 4 -0.003666 0.027254 -0.004937 0.034171 -0.000532 -0.008639
# 5 0.000569 -0.013086 0.002169 -0.000532 0.017535 -0.000677
# 6 0.001017 0.000318 0.000923 -0.008639 -0.000677 0.033847
#
#
# Mechanical properties :
#
#
# Convention : Reuss Voigt Hill
#
# Bulk Modulus (GPa) = 16.61924 65.02432 40.82178
# Shear Modulus (GPa) = 17.55428 42.17196 29.86312
#
# Velocity S-wave (km/s) = 2.67638 4.14829 3.49080
# Velocity P-wave (km/s) = 4.04131 7.03403 5.73628
#
# Compressibility (1/GPa) = 0.06017121
#
# Stress axis : x y z
#
# Youngs Moduli (GPa) = 118.76375 9.99607 88.99598
#
# Poissons Ratio (x) = 0.09825 0.08683
# Poissons Ratio (y) = 1.16730 1.68718
# Poissons Ratio (z) = 0.11587 0.18950
#
# Static dielectric constant tensor:
#      x y z
#    x 4.457250 -0.126030 0.221620 
#    y -0.126030 4.423000 -0.454690 
#    z 0.221620 -0.454690 4.817450 
# 
# 
# High freq. dielectric constant tensor:
#      x y z
#    x 1.984490 -0.000200 0.005310 
#    y -0.000200 1.960020 -0.015360 
#    z 0.005310 -0.015360 1.994530 
# 
# From -- ./inp_files/156400.got.cif
#   From: 2010.06.25/outbox.cif.g09.slc.cpg/sg2_79_cif.got.tgz:156400.got - 2010.06.27 13:26:56.
