data_PCOD8021908
_publ_section_title
;
Structure prediction by ZEFSAII (Michael W. Deem and Ramdas Pophale) SiO2 
 PCOD8021908
Probable space group: P -1
;
_chemical_formula_sum "Si O2"
_cell_formula_units_Z 12
_cell_length_a 13.891474
_cell_length_b 4.947625
_cell_length_c 10.190247
_cell_angle_alpha 106.557421
_cell_angle_beta 132.273029
_cell_angle_gamma 71.813975
_cell_volume 489.540230
_symmetry_space_group_name_H-M "P -1"
_symmetry_group_IT_number 2
_symmetry_cell_setting 'triclinic'
loop_
_space_group_symop_operation_xyz
x,y,z
-x,-y,-z
loop_
_atom_site_type_symbol
_atom_site_label
_atom_site_fract_x
_atom_site_fract_y
_atom_site_fract_z
Si Si1 0.024945 0.544575 0.182396
Si Si2 0.808444 0.999820 0.622722
Si Si3 0.745155 0.633733 0.055830
Si Si4 0.614133 0.381311 0.684250
Si Si5 0.633487 0.066882 0.214026
Si Si6 0.467783 0.680461 0.137085
O O1 0.899094 0.528675 0.156130
O O2 0.143369 0.312977 0.316872
O O3 0.066471 0.854329 0.281742
O O4 0.000000 0.500000 0.000000
O O5 0.715667 0.987543 0.411305
O O6 0.733106 0.180961 0.696502
O O7 0.723341 0.934366 0.154944
O O8 0.669759 0.644685 0.845556
O O9 0.675607 0.406105 0.044976
O O10 0.500000 0.500000 0.500000
O O11 0.544879 0.207010 0.708394
O O12 0.501299 0.916823 0.096698
O O13 0.585076 0.404032 0.196426
#
# Coordination Sequence:
#
# PCOD8021908 Si02
#       6
#     2   2   2   2   2   2
#     4  12  26  47  70  99 138 182 228 280 329 405
#     4  12  26  44  72 100 138 178 230 278 333 402
#     4  10  25  43  70  98 138 182 224 275 340 405
#     4  10  22  44  70 107 129 179 222 283 340 400
#     4  12  24  45  67 103 136 177 223 284 340 395
#     4  10  24  41  70  97 139 173 223 279 342 395
#
# _framework density 24.512796999999999
#
# number of rings (size 3 to 8) (size 9 to 14) (size 15 to 20)
#    1.000    0.000    3.333    2.500    0.000    7.333 
#    0.000    0.000    0.000    0.000    0.000    0.000 
#    0.000    0.000    0.000    0.000    0.000    0.000 
#
# Total GULP energy -148694.786016 kJ/mol
# GULP energy per Si atom -12391.232168 kJ/mol
# Density = 2.445701 g / cm^3
# Si number density = 24.512797 Si / 1000 Ang^3
#
#
#
# Elastic Constant Matrix: (Units=GPa)
#
#
# Indices 1 2 3 4 5 6 
#
# 1 147.2100 55.8263 53.1267 -13.2449 -15.0880 -23.5916
# 2 55.8263 96.6933 29.3590 -14.3598 -13.9209 3.1592
# 3 53.1267 29.3590 87.5098 0.2503 -17.1301 -10.5907
# 4 -13.2449 -14.3598 0.2503 31.9800 -4.3214 -7.6485
# 5 -15.0880 -13.9209 -17.1301 -4.3214 41.8419 5.2625
# 6 -23.5916 3.1592 -10.5907 -7.6485 5.2625 49.7123
#
#
#
# Elastic Compliance Matrix: (Units=1/GPa)
#
#
# Indices 1 2 3 4 5 6 
#
# 1 0.011560 -0.004767 -0.004703 0.004021 0.000398 0.005364
# 2 -0.004767 0.014901 -0.001860 0.004398 0.003344 -0.003283
# 3 -0.004703 -0.001860 0.015720 -0.002275 0.003826 0.000480
# 4 0.004021 0.004398 -0.002275 0.037118 0.005020 0.006323
# 5 0.000398 0.003344 0.003826 0.005020 0.027408 -0.001338
# 6 0.005364 -0.003283 0.000480 0.006323 -0.001338 0.024087
#
#
# Mechanical properties :
#
#
# Convention : Reuss Voigt Hill
#
# Bulk Modulus (GPa) = 51.23009 67.55968 59.39489
# Shear Modulus (GPa) = 31.25722 37.58025 34.41873
#
# Velocity S-wave (km/s) = 3.57478 3.91971 3.75121
# Velocity P-wave (km/s) = 6.16307 6.93587 6.56086
#
# Compressibility (1/GPa) = 0.01951978
#
# Stress axis : x y z
#
# Youngs Moduli (GPa) = 86.50265 67.10943 63.61182
#
# Poissons Ratio (x) = 0.31993 0.29919
# Poissons Ratio (y) = 0.41238 0.11834
# Poissons Ratio (z) = 0.40686 0.12485
#
# Static dielectric constant tensor:
#      x y z
#    x 5.100790 -0.375070 -0.255900 
#    y -0.375070 4.434910 0.236370 
#    z -0.255900 0.236370 4.646750 
# 
# 
# High freq. dielectric constant tensor:
#      x y z
#    x 1.994880 -0.006410 -0.016630 
#    y -0.006410 1.967410 -0.000480 
#    z -0.016630 -0.000480 1.979000 
# 
# From -- ./inp_files/441464.got.cif
#   From: 2010.06.25/outbox.cif.g09.slc.cpg/sg2_221_cif.got.tgz:441464.got - 2010.06.27 13:26:56.
