data_PCOD8021196
_publ_section_title
;
Structure prediction by ZEFSAII (Michael W. Deem and Ramdas Pophale) SiO2 
 PCOD8021196
Probable space group: P -1
;
_chemical_formula_sum "Si O2"
_cell_formula_units_Z 16
_cell_length_a 8.960694
_cell_length_b 8.475946
_cell_length_c 14.524972
_cell_angle_alpha 137.255009
_cell_angle_beta 81.511477
_cell_angle_gamma 103.053778
_cell_volume 729.138966
_symmetry_space_group_name_H-M "P -1"
_symmetry_group_IT_number 2
_symmetry_cell_setting 'triclinic'
loop_
_space_group_symop_operation_xyz
x,y,z
-x,-y,-z
loop_
_atom_site_type_symbol
_atom_site_label
_atom_site_fract_x
_atom_site_fract_y
_atom_site_fract_z
Si Si1 0.879399 0.770187 0.258421
Si Si2 0.409200 0.375267 0.866042
Si Si3 0.147737 0.605311 0.258501
Si Si4 0.631690 0.744493 0.918144
Si Si5 0.493699 0.875992 0.812136
Si Si6 0.998562 0.689290 0.500296
Si Si7 0.305162 0.368566 0.608024
Si Si8 0.584314 0.992252 0.660924
O O1 0.776964 0.646913 0.127511
O O2 0.757285 0.754457 0.345065
O O3 0.003228 0.607785 0.205254
O O4 0.948259 0.044430 0.352050
O O5 0.486624 0.529426 0.838777
O O6 0.432747 0.108404 0.730143
O O7 0.500000 0.500000 0.000000
O O8 0.209522 0.357683 0.133541
O O9 0.104502 0.635792 0.382071
O O10 0.271980 0.821623 0.306122
O O11 0.619406 0.888037 0.887088
O O12 0.608978 0.915707 0.079378
O O13 0.368197 0.642531 0.725187
O O14 0.602943 0.904236 0.725658
O O15 0.000000 0.500000 0.500000
O O16 0.826007 0.674056 0.475829
O O17 0.439583 0.231493 0.501163
#
# Coordination Sequence:
#
# PCOD8021196 Si02
#       8
#     2   2   2   2   2   2   2   2
#     4  11  22  45  67  94 137 178 217 276 339 393
#     4  11  23  42  68  94 132 177 224 272 330 399
#     4  10  22  43  68  98 134 180 223 271 336 408
#     4  10  23  42  66  96 135 178 229 270 333 393
#     4  11  23  40  67  98 140 176 219 291 324 381
#     4  11  24  40  67  98 141 172 220 280 338 398
#     4  11  22  42  65  99 134 179 218 275 338 395
#     4  11  22  39  67  98 137 167 229 273 328 403
#
# _framework density 21.94369
#
# number of rings (size 3 to 8) (size 9 to 14) (size 15 to 20)
#    0.000    1.250    5.000    1.125    3.500    1.500 
#    0.000    5.000    2.750    0.000    0.000    0.000 
#    0.000    0.000    0.000    0.000    0.000    0.000 
#
# Total GULP energy -198264.015709 kJ/mol
# GULP energy per Si atom -12391.500982 kJ/mol
# Density = 2.189374 g / cm^3
# Si number density = 21.943690 Si / 1000 Ang^3
#
#
#
# Elastic Constant Matrix: (Units=GPa)
#
#
# Indices 1 2 3 4 5 6 
#
# 1 120.2207 25.3720 52.1468 9.7662 0.7955 -12.4507
# 2 25.3720 117.5760 22.0839 2.2259 -2.1694 -0.0976
# 3 52.1468 22.0839 94.9971 21.3830 -13.2043 -6.1085
# 4 9.7662 2.2259 21.3830 32.3150 -3.3317 -6.9134
# 5 0.7955 -2.1694 -13.2043 -3.3317 44.4966 0.2897
# 6 -12.4507 -0.0976 -6.1085 -6.9134 0.2897 26.5309
#
#
#
# Elastic Compliance Matrix: (Units=1/GPa)
#
#
# Indices 1 2 3 4 5 6 
#
# 1 0.011781 -0.001385 -0.006508 0.001577 -0.002120 0.004459
# 2 -0.001385 0.009081 -0.001539 0.000646 0.000064 -0.000803
# 3 -0.006508 -0.001539 0.017011 -0.009059 0.004421 -0.001552
# 4 0.001577 0.000646 -0.009059 0.038278 0.000125 0.008629
# 5 -0.002120 0.000064 0.004421 0.000125 0.023837 -0.000205
# 6 0.004459 -0.000803 -0.001552 0.008629 -0.000205 0.041675
#
#
# Mechanical properties :
#
#
# Convention : Reuss Voigt Hill
#
# Bulk Modulus (GPa) = 52.60607 59.11101 55.85854
# Shear Modulus (GPa) = 29.96461 36.21458 33.08960
#
# Velocity S-wave (km/s) = 3.69931 4.06685 3.88742
# Velocity P-wave (km/s) = 6.50167 7.00346 6.75722
#
# Compressibility (1/GPa) = 0.01900921
#
# Stress axis : x y z
#
# Youngs Moduli (GPa) = 84.88279 110.11537 58.78687
#
# Poissons Ratio (x) = 0.15253 0.38257
# Poissons Ratio (y) = 0.11758 0.09047
# Poissons Ratio (z) = 0.55240 0.16946
#
# Static dielectric constant tensor:
#      x y z
#    x 4.154510 -0.137600 -0.181700 
#    y -0.137600 4.222720 -0.008940 
#    z -0.181700 -0.008940 4.018380 
# 
# 
# High freq. dielectric constant tensor:
#      x y z
#    x 1.850770 -0.012690 -0.009040 
#    y -0.012690 1.879250 0.002230 
#    z -0.009040 0.002230 1.854570 
# 
# From -- ./inp_files/378580.got.cif
#   From: 2010.06.25/outbox.cif.g09.slc.cpg/sg2_190_cif.got.tgz:378580.got - 2010.06.27 13:26:56.
