data_PCOD8021478
_publ_section_title
;
Structure prediction by ZEFSAII (Michael W. Deem and Ramdas Pophale) SiO2 
 PCOD8021478
Probable space group: P -1
;
_chemical_formula_sum "Si O2"
_cell_formula_units_Z 12
_cell_length_a 5.173365
_cell_length_b 11.104299
_cell_length_c 10.314475
_cell_angle_alpha 94.714881
_cell_angle_beta 109.880529
_cell_angle_gamma 124.336059
_cell_volume 430.523177
_symmetry_space_group_name_H-M "P -1"
_symmetry_group_IT_number 2
_symmetry_cell_setting 'triclinic'
loop_
_space_group_symop_operation_xyz
x,y,z
-x,-y,-z
loop_
_atom_site_type_symbol
_atom_site_label
_atom_site_fract_x
_atom_site_fract_y
_atom_site_fract_z
Si Si1 0.644850 0.669138 0.078798
Si Si2 0.308382 0.140084 0.443604
Si Si3 0.800039 0.300638 0.171595
Si Si4 0.040055 0.245384 0.590823
Si Si5 0.441604 0.578439 0.652769
Si Si6 0.794278 0.009063 0.852981
O O1 0.675304 0.678802 0.239141
O O2 0.046438 0.810439 0.103715
O O3 0.500000 0.500000 0.000000
O O4 0.383633 0.705992 0.994243
O O5 0.036497 0.111717 0.507721
O O6 0.475652 0.314662 0.444830
O O7 0.634049 0.151765 0.557275
O O8 0.121760 0.021439 0.279898
O O9 0.760285 0.403800 0.268669
O O10 0.200734 0.376087 0.217615
O O11 0.617924 0.129312 0.192904
O O12 0.178998 0.398243 0.541045
O O13 0.000000 0.000000 0.000000
#
# Coordination Sequence:
#
# PCOD8021478 Si02
#       6
#     2   2   2   2   2   2
#     4  11  24  46  73 105 146 185 236 291 354 418
#     4  11  24  44  69 105 143 187 232 287 356 418
#     4  10  22  43  74 100 136 185 238 284 339 409
#     4  12  25  41  71 106 148 184 227 295 354 415
#     4  11  21  42  71 102 141 181 236 286 341 413
#     4   9  22  47  73 102 138 187 239 289 345 423
#
# _framework density 27.873066999999999
#
# number of rings (size 3 to 8) (size 9 to 14) (size 15 to 20)
#    0.000    1.333    1.667    4.000    0.000    3.333 
#    0.000   35.000    0.000    0.000    0.000    0.000 
#    0.000    0.000    0.000    0.000    0.000    0.000 
#
# Total GULP energy -148705.616660 kJ/mol
# GULP energy per Si atom -12392.134722 kJ/mol
# Density = 2.780963 g / cm^3
# Si number density = 27.873067 Si / 1000 Ang^3
#
#
#
# Elastic Constant Matrix: (Units=GPa)
#
#
# Indices 1 2 3 4 5 6 
#
# 1 132.8042 30.1088 57.2733 8.1293 22.7971 -3.1874
# 2 30.1088 154.9356 4.9231 57.6782 -0.4332 -14.4717
# 3 57.2733 4.9231 145.3648 8.7134 -6.1032 -15.7678
# 4 8.1293 57.6782 8.7134 44.0982 -0.1081 1.9859
# 5 22.7971 -0.4332 -6.1032 -0.1081 30.2105 4.7857
# 6 -3.1874 -14.4717 -15.7678 1.9859 4.7857 28.1646
#
#
#
# Elastic Compliance Matrix: (Units=1/GPa)
#
#
# Indices 1 2 3 4 5 6 
#
# 1 0.012291 -0.004028 -0.005644 0.004202 -0.010074 -0.002423
# 2 -0.004028 0.016252 0.003633 -0.021726 0.002172 0.011092
# 3 -0.005644 0.003633 0.010269 -0.006020 0.005335 0.006495
# 4 0.004202 -0.021726 -0.006020 0.052289 -0.001748 -0.017448
# 5 -0.010074 0.002172 0.005335 -0.001748 0.042460 -0.004129
# 6 -0.002423 0.011092 0.006495 -0.017448 -0.004129 0.046499
#
#
# Mechanical properties :
#
#
# Convention : Reuss Voigt Hill
#
# Bulk Modulus (GPa) = 37.40505 68.63500 53.02002
# Shear Modulus (GPa) = 24.86965 43.21462 34.04213
#
# Velocity S-wave (km/s) = 2.99029 3.94179 3.49854
# Velocity P-wave (km/s) = 5.03700 6.73755 5.94836
#
# Compressibility (1/GPa) = 0.02673436
#
# Stress axis : x y z
#
# Youngs Moduli (GPa) = 81.36032 61.53251 97.37789
#
# Poissons Ratio (x) = 0.24786 0.54959
# Poissons Ratio (y) = 0.32773 -0.35380
# Poissons Ratio (z) = 0.45919 -0.22356
#
# Static dielectric constant tensor:
#      x y z
#    x 4.808090 0.106240 0.063940 
#    y 0.106240 6.215050 -0.029890 
#    z 0.063940 -0.029890 5.219300 
# 
# 
# High freq. dielectric constant tensor:
#      x y z
#    x 2.092820 0.001120 0.007840 
#    y 0.001120 2.165040 0.002120 
#    z 0.007840 0.002120 2.135410 
# 
# From -- ./inp_files/361397.got.cif
#   From: 2010.06.25/outbox.cif.g09.slc.cpg/sg2_181_cif.got.tgz:361397.got - 2010.06.27 13:26:56.
