data_PCOD8021963
_publ_section_title
;
Structure prediction by ZEFSAII (Michael W. Deem and Ramdas Pophale) SiO2 
 PCOD8021963
Probable space group: P -1
;
_chemical_formula_sum "Si O2"
_cell_formula_units_Z 16
_cell_length_a 23.307885
_cell_length_b 8.734339
_cell_length_c 11.154313
_cell_angle_alpha 61.976205
_cell_angle_beta 30.921291
_cell_angle_gamma 42.665299
_cell_volume 701.243436
_symmetry_space_group_name_H-M "P -1"
_symmetry_group_IT_number 2
_symmetry_cell_setting 'triclinic'
loop_
_space_group_symop_operation_xyz
x,y,z
-x,-y,-z
loop_
_atom_site_type_symbol
_atom_site_label
_atom_site_fract_x
_atom_site_fract_y
_atom_site_fract_z
Si Si1 0.234290 0.563233 0.442603
Si Si2 0.132039 0.601408 0.023288
Si Si3 0.836364 0.621059 0.187515
Si Si4 0.868913 0.919831 0.890454
Si Si5 0.852839 0.748170 0.747173
Si Si6 0.358954 0.549755 0.794221
Si Si7 0.242159 0.919776 0.406630
Si Si8 0.528823 0.769775 0.069312
O O1 0.281583 0.332765 0.517450
O O2 0.284837 0.674832 0.386277
O O3 0.038315 0.783098 0.698300
O O4 0.325516 0.465486 0.189154
O O5 0.220690 0.332040 0.021944
O O6 0.132276 0.573097 0.890686
O O7 0.243689 0.631167 0.858319
O O8 0.945039 0.846388 0.304692
O O9 0.772001 0.867988 0.146852
O O10 0.000000 0.500000 0.000000
O O11 0.912216 0.823003 0.710835
O O12 0.743592 0.220510 0.011182
O O13 0.000000 0.500000 0.500000
O O14 0.725449 0.989275 0.798894
O O15 0.500000 0.500000 0.500000
O O16 0.422611 0.314225 0.846996
O O17 0.363916 0.844565 0.319626
O O18 0.500000 0.000000 0.000000
#
# Coordination Sequence:
#
# PCOD8021963 Si02
#       8
#     2   2   2   2   2   2   2   2
#     4  11  24  42  71 100 143 182 237 287 364 413
#     4  10  22  44  72 101 134 187 235 289 349 430
#     4   9  22  41  70 103 137 181 237 291 352 417
#     4  10  22  44  71 103 138 191 235 296 347 435
#     4   9  20  38  70 100 137 175 241 285 350 418
#     4  12  28  47  72 106 146 186 241 296 358 421
#     4  11  23  42  68 101 138 180 234 290 349 428
#     4  12  30  44  69 106 149 185 227 300 362 418
#
# _framework density 22.816611999999999
#
# number of rings (size 3 to 8) (size 9 to 14) (size 15 to 20)
#    0.000    1.500    1.250    1.875   14.000    2.500 
#    0.000    1.250    0.000    0.000    0.000    0.000 
#    0.000    0.000    0.000    0.000    0.000    0.000 
#
# Total GULP energy -198273.736876 kJ/mol
# GULP energy per Si atom -12392.108555 kJ/mol
# Density = 2.276468 g / cm^3
# Si number density = 22.816612 Si / 1000 Ang^3
#
#
#
# Elastic Constant Matrix: (Units=GPa)
#
#
# Indices 1 2 3 4 5 6 
#
# 1 133.4511 24.9262 42.6902 2.0350 0.1311 15.1350
# 2 24.9262 90.0461 25.3898 -3.0725 -2.1008 3.1772
# 3 42.6902 25.3898 96.7292 -11.8858 -14.8894 1.3910
# 4 2.0350 -3.0725 -11.8858 23.5203 -3.5953 4.5673
# 5 0.1311 -2.1008 -14.8894 -3.5953 27.2580 -6.6098
# 6 15.1350 3.1772 1.3910 4.5673 -6.6098 39.8604
#
#
#
# Elastic Compliance Matrix: (Units=1/GPa)
#
#
# Indices 1 2 3 4 5 6 
#
# 1 0.009839 -0.001398 -0.005005 -0.003485 -0.004260 -0.003757
# 2 -0.001398 0.012251 -0.002626 0.000406 -0.000549 -0.000492
# 3 -0.005005 -0.002626 0.015928 0.009284 0.010279 0.002195
# 4 -0.003485 0.000406 0.009284 0.049808 0.010981 -0.002919
# 5 -0.004260 -0.000549 0.010279 0.010981 0.045571 0.007601
# 6 -0.003757 -0.000492 0.002195 -0.002919 0.007601 0.028072
#
#
# Mechanical properties :
#
#
# Convention : Reuss Voigt Hill
#
# Bulk Modulus (GPa) = 50.10284 56.24874 53.17579
# Shear Modulus (GPa) = 26.85552 33.27576 30.06564
#
# Velocity S-wave (km/s) = 3.43449 3.82304 3.63396
# Velocity P-wave (km/s) = 6.14282 6.64783 6.40031
#
# Compressibility (1/GPa) = 0.01995895
#
# Stress axis : x y z
#
# Youngs Moduli (GPa) = 101.63573 81.62364 62.78249
#
# Poissons Ratio (x) = 0.11411 0.31424
# Poissons Ratio (y) = 0.14209 0.16489
# Poissons Ratio (z) = 0.50871 0.21438
#
# Static dielectric constant tensor:
#      x y z
#    x 4.497600 -0.152180 0.282810 
#    y -0.152180 4.532980 -0.395170 
#    z 0.282810 -0.395170 3.959730 
# 
# 
# High freq. dielectric constant tensor:
#      x y z
#    x 1.910120 0.006010 0.008560 
#    y 0.006010 1.907400 -0.016670 
#    z 0.008560 -0.016670 1.877710 
# 
# From -- ./inp_files/474173.got.cif
#   From: 2010.06.25/outbox.cif.g09.slc.cpg/sg2_238_cif.got.tgz:474173.got - 2010.06.27 13:26:56.
