data_PCOD8021161
_publ_section_title
;
Structure prediction by ZEFSAII (Michael W. Deem and Ramdas Pophale) SiO2 
 PCOD8021161
Probable space group: P -1
;
_chemical_formula_sum "Si O2"
_cell_formula_units_Z 16
_cell_length_a 8.488305
_cell_length_b 9.050681
_cell_length_c 19.391468
_cell_angle_alpha 96.920370
_cell_angle_beta 64.948798
_cell_angle_gamma 46.090692
_cell_volume 751.485513
_symmetry_space_group_name_H-M "P -1"
_symmetry_group_IT_number 2
_symmetry_cell_setting 'triclinic'
loop_
_space_group_symop_operation_xyz
x,y,z
-x,-y,-z
loop_
_atom_site_type_symbol
_atom_site_label
_atom_site_fract_x
_atom_site_fract_y
_atom_site_fract_z
Si Si1 0.270872 0.754139 0.605625
Si Si2 0.319365 0.502692 0.949968
Si Si3 0.398272 0.910009 0.234793
Si Si4 0.719487 0.839317 0.278405
Si Si5 0.391302 0.936994 0.859097
Si Si6 0.191411 0.146297 0.592826
Si Si7 0.365194 0.419615 0.086673
Si Si8 0.436329 0.328599 0.322508
O O1 0.500000 0.500000 0.500000
O O2 0.396032 0.674885 0.656753
O O3 0.218394 0.952421 0.592410
O O4 0.950145 0.893986 0.678601
O O5 0.399842 0.344276 0.861893
O O6 0.470486 0.554422 0.908959
O O7 0.468748 0.327534 0.982549
O O8 0.954061 0.775163 0.040134
O O9 0.564866 0.799864 0.273414
O O10 0.413218 0.062982 0.206879
O O11 0.874391 0.711200 0.317409
O O12 0.992375 0.704684 0.169653
O O13 0.453619 0.155441 0.347069
O O14 0.549013 0.781290 0.893574
O O15 0.407290 0.793348 0.790030
O O16 0.918300 0.367603 0.601634
O O17 0.500000 0.000000 0.500000
#
# Coordination Sequence:
#
# PCOD8021161 Si02
#       8
#     2   2   2   2   2   2   2   2
#     4  11  28  47  67  99 139 171 218 280 340 384
#     4  11  23  42  64  98 140 173 223 272 330 385
#     4  11  25  45  64  96 145 173 214 284 332 386
#     4  10  22  43  68  94 135 175 218 273 335 387
#     4  11  23  42  68  98 131 178 226 263 331 398
#     4  11  25  44  75  96 124 176 232 270 329 404
#     4  11  22  40  67  94 132 178 226 263 320 403
#     4  10  22  44  69  94 130 174 219 265 328 395
#
# _framework density 21.291164999999999
#
# number of rings (size 3 to 8) (size 9 to 14) (size 15 to 20)
#    0.000    1.250    3.750    2.250    7.000    2.000 
#    2.250    0.000    0.000    0.000    0.000    0.000 
#    0.000    0.000    0.000    0.000    0.000    0.000 
#
# Total GULP energy -198329.707302 kJ/mol
# GULP energy per Si atom -12395.606706 kJ/mol
# Density = 2.124271 g / cm^3
# Si number density = 21.291165 Si / 1000 Ang^3
#
#
#
# Elastic Constant Matrix: (Units=GPa)
#
#
# Indices 1 2 3 4 5 6 
#
# 1 153.7990 47.1138 72.4438 -4.2813 -10.5131 -2.5430
# 2 47.1138 81.9101 30.9971 8.4827 -13.6611 -6.9629
# 3 72.4438 30.9971 135.6021 6.0798 -9.8172 4.4464
# 4 -4.2813 8.4827 6.0798 21.0681 1.9896 -3.0143
# 5 -10.5131 -13.6611 -9.8172 1.9896 48.4060 -2.9586
# 6 -2.5430 -6.9629 4.4464 -3.0143 -2.9586 26.7700
#
#
#
# Elastic Compliance Matrix: (Units=1/GPa)
#
#
# Indices 1 2 3 4 5 6 
#
# 1 0.010324 -0.004644 -0.004753 0.005523 -0.000188 0.001163
# 2 -0.004644 0.016992 -0.000896 -0.007380 0.004138 0.003754
# 3 -0.004753 -0.000896 0.010454 -0.004100 0.000833 -0.002791
# 4 0.005523 -0.007380 -0.004100 0.053792 -0.003624 0.004942
# 5 -0.000188 0.004138 0.000833 -0.003624 0.022285 0.002975
# 6 0.001163 0.003754 -0.002791 0.004942 0.002975 0.039791
#
#
# Mechanical properties :
#
#
# Convention : Reuss Voigt Hill
#
# Bulk Modulus (GPa) = 58.19289 74.71340 66.45314
# Shear Modulus (GPa) = 27.78526 33.96591 30.87558
#
# Velocity S-wave (km/s) = 3.61642 3.99846 3.81223
# Velocity P-wave (km/s) = 6.69546 7.51561 7.11736
#
# Compressibility (1/GPa) = 0.01718423
#
# Stress axis : x y z
#
# Youngs Moduli (GPa) = 96.86615 58.85073 95.65476
#
# Poissons Ratio (x) = 0.27329 0.45466
# Poissons Ratio (y) = 0.44982 0.08570
# Poissons Ratio (z) = 0.46042 0.05273
#
# Static dielectric constant tensor:
#      x y z
#    x 4.088190 -0.222420 0.170460 
#    y -0.222420 3.850040 -0.107050 
#    z 0.170460 -0.107050 4.034520 
# 
# 
# High freq. dielectric constant tensor:
#      x y z
#    x 1.841190 -0.019960 0.001370 
#    y -0.019960 1.827440 -0.001940 
#    z 0.001370 -0.001940 1.839470 
# 
# From -- ./inp_files/606412.got.cif
#   From: 2010.06.25/outbox.cif.g09.slc.cpg/sg2_304_cif.got.tgz:606412.got - 2010.06.27 13:26:56.
