data_PCOD8021538
_publ_section_title
;
Structure prediction by ZEFSAII (Michael W. Deem and Ramdas Pophale) SiO2 
 PCOD8021538
Probable space group: P -1
;
_chemical_formula_sum "Si O2"
_cell_formula_units_Z 16
_cell_length_a 6.821592
_cell_length_b 26.446424
_cell_length_c 11.971632
_cell_angle_alpha 151.016862
_cell_angle_beta 130.011105
_cell_angle_gamma 46.611885
_cell_volume 755.085761
_symmetry_space_group_name_H-M "P -1"
_symmetry_group_IT_number 2
_symmetry_cell_setting 'triclinic'
loop_
_space_group_symop_operation_xyz
x,y,z
-x,-y,-z
loop_
_atom_site_type_symbol
_atom_site_label
_atom_site_fract_x
_atom_site_fract_y
_atom_site_fract_z
Si Si1 0.148270 0.575678 0.337749
Si Si2 0.019836 0.073052 0.250474
Si Si3 0.952293 0.728453 0.775226
Si Si4 0.396725 0.702730 0.511456
Si Si5 0.448583 0.401464 0.854912
Si Si6 0.570838 0.103588 0.561992
Si Si7 0.051302 0.026813 0.745572
Si Si8 0.444034 0.654729 0.973733
O O1 0.086458 0.663757 0.586330
O O2 0.324701 0.605054 0.359948
O O3 0.866620 0.572033 0.177129
O O4 0.324566 0.451095 0.201388
O O5 0.320798 0.060176 0.375409
O O6 0.867543 0.191514 0.370001
O O7 0.883282 0.038602 0.240852
O O8 0.000000 0.000000 0.000000
O O9 0.675285 0.710597 0.679742
O O10 0.884517 0.859906 0.993265
O O11 0.161646 0.678343 0.853687
O O12 0.448354 0.696421 0.385281
O O13 0.619096 0.370085 0.969933
O O14 0.500000 0.500000 0.000000
O O15 0.739975 0.057173 0.647551
O O16 0.461706 0.237512 0.785408
O O17 0.758361 0.057779 0.435674
#
# Coordination Sequence:
#
# PCOD8021538 Si02
#       8
#     2   2   2   2   2   2   2   2
#     4  11  23  42  63  91 130 162 207 255 307 371
#     4  12  24  38  65  95 123 164 206 255 316 366
#     4  10  24  43  62  91 125 167 209 253 312 365
#     4  11  24  41  62  91 127 164 208 254 307 372
#     4  11  23  40  62  91 122 163 203 255 305 361
#     4  10  23  41  65  92 122 164 208 254 312 365
#     4  10  22  44  63  89 127 160 208 262 303 369
#     4  11  22  42  65  91 127 164 206 258 307 371
#
# _framework density 21.189644999999999
#
# number of rings (size 3 to 8) (size 9 to 14) (size 15 to 20)
#    0.000    1.250    1.250    4.125    1.750    4.500 
#    2.250    3.750    0.000    0.000    0.000    0.000 
#    0.000    0.000    0.000    0.000    0.000    0.000 
#
# Total GULP energy -198355.552679 kJ/mol
# GULP energy per Si atom -12397.222042 kJ/mol
# Density = 2.114142 g / cm^3
# Si number density = 21.189645 Si / 1000 Ang^3
#
#
#
# Elastic Constant Matrix: (Units=GPa)
#
#
# Indices 1 2 3 4 5 6 
#
# 1 89.7437 36.7418 36.2742 -13.1066 16.3078 -2.3928
# 2 36.7418 97.0056 35.6531 3.4435 1.3701 5.5583
# 3 36.2742 35.6531 99.8604 2.9071 -1.1420 -5.8245
# 4 -13.1066 3.4435 2.9071 41.0356 -3.1926 -7.0314
# 5 16.3078 1.3701 -1.1420 -3.1926 30.2648 -1.3802
# 6 -2.3928 5.5583 -5.8245 -7.0314 -1.3802 34.8558
#
#
#
# Elastic Compliance Matrix: (Units=1/GPa)
#
#
# Indices 1 2 3 4 5 6 
#
# 1 0.017723 -0.005187 -0.004739 0.006117 -0.008751 0.002139
# 2 -0.005187 0.013713 -0.003116 -0.003086 0.001566 -0.003624
# 3 -0.004739 -0.003116 0.013055 -0.001564 0.003121 0.002161
# 4 0.006117 -0.003086 -0.001564 0.027764 -0.000002 0.006251
# 5 -0.008751 0.001566 0.003121 -0.000002 0.037857 0.001170
# 6 0.002139 -0.003624 0.002161 0.006251 0.001170 0.031083
#
#
# Mechanical properties :
#
#
# Convention : Reuss Voigt Hill
#
# Bulk Modulus (GPa) = 54.32506 55.99422 55.15964
# Shear Modulus (GPa) = 28.83275 33.09396 30.96335
#
# Velocity S-wave (km/s) = 3.69277 3.95625 3.82678
# Velocity P-wave (km/s) = 6.62384 6.88127 6.75378
#
# Compressibility (1/GPa) = 0.01840771
#
# Stress axis : x y z
#
# Youngs Moduli (GPa) = 56.42530 72.92109 76.59829
#
# Poissons Ratio (x) = 0.37823 0.36301
# Poissons Ratio (y) = 0.29267 0.23865
# Poissons Ratio (z) = 0.26741 0.22719
#
# Static dielectric constant tensor:
#      x y z
#    x 3.069430 -0.757440 0.059720 
#    y -0.757440 3.001420 0.179130 
#    z 0.059720 0.179130 4.012800 
# 
# 
# High freq. dielectric constant tensor:
#      x y z
#    x 1.821540 -0.002600 -0.008240 
#    y -0.002600 1.838150 0.001960 
#    z -0.008240 0.001960 1.852730 
# 
# From -- ./inp_files/90387.got.cif
#   From: 2010.06.25/outbox.cif.g09.slc.cpg/sg2_46_cif.got.tgz:90387.got - 2010.06.27 13:26:56.
