data_PCOD8021354
_publ_section_title
;
Structure prediction by ZEFSAII (Michael W. Deem and Ramdas Pophale) SiO2 
 PCOD8021354
Probable space group: P -1
;
_chemical_formula_sum "Si O2"
_cell_formula_units_Z 16
_cell_length_a 14.524414
_cell_length_b 9.395885
_cell_length_c 9.106272
_cell_angle_alpha 65.508546
_cell_angle_beta 128.188722
_cell_angle_gamma 80.577335
_cell_volume 719.475387
_symmetry_space_group_name_H-M "P -1"
_symmetry_group_IT_number 2
_symmetry_cell_setting 'triclinic'
loop_
_space_group_symop_operation_xyz
x,y,z
-x,-y,-z
loop_
_atom_site_type_symbol
_atom_site_label
_atom_site_fract_x
_atom_site_fract_y
_atom_site_fract_z
Si Si1 0.409036 0.918318 0.924728
Si Si2 0.117376 0.772289 0.446815
Si Si3 0.135131 0.108052 0.385435
Si Si4 0.889877 0.445296 0.190308
Si Si5 0.872223 0.819628 0.991799
Si Si6 0.433599 0.510536 0.777241
Si Si7 0.355519 0.832449 0.203415
Si Si8 0.370396 0.485966 0.269620
O O1 0.301805 0.002989 0.643042
O O2 0.535338 0.693968 0.130072
O O3 0.312504 0.955364 0.958042
O O4 0.500000 0.000000 0.000000
O O5 0.130921 0.631957 0.646417
O O6 0.262391 0.672632 0.536302
O O7 0.088874 0.962500 0.413227
O O8 0.992738 0.830518 0.184228
O O9 0.112475 0.189570 0.164208
O O10 0.038332 0.283932 0.326329
O O11 0.887629 0.630600 0.145446
O O12 0.758183 0.514008 0.921706
O O13 0.719430 0.017119 0.801192
O O14 0.510468 0.557670 0.713536
O O15 0.500000 0.500000 0.000000
O O16 0.305810 0.688742 0.203166
O O17 0.532001 0.698989 0.448087
#
# Coordination Sequence:
#
# PCOD8021354 Si02
#       8
#     2   2   2   2   2   2   2   2
#     4  11  26  41  68  96 136 174 216 280 335 397
#     4  12  24  45  74  96 136 183 230 271 327 418
#     4  12  26  47  67  99 137 181 230 273 339 402
#     4  12  26  43  70  99 141 174 224 282 345 390
#     4  12  28  43  69 104 138 177 223 285 338 394
#     4  11  21  42  69 103 128 172 229 274 330 392
#     4  10  23  44  67  97 133 176 230 263 339 401
#     4  10  22  43  70  99 132 179 223 280 326 410
#
# _framework density 22.238426
#
# number of rings (size 3 to 8) (size 9 to 14) (size 15 to 20)
#    0.000    0.750    2.500    4.500    5.250    3.500 
#    0.000    0.000    0.000    0.000    0.000    0.000 
#    0.000    0.000    0.000    0.000    0.000    0.000 
#
# Total GULP energy -198434.716807 kJ/mol
# GULP energy per Si atom -12402.169800 kJ/mol
# Density = 2.218781 g / cm^3
# Si number density = 22.238426 Si / 1000 Ang^3
#
#
#
# Elastic Constant Matrix: (Units=GPa)
#
#
# Indices 1 2 3 4 5 6 
#
# 1 61.7624 39.3419 12.4675 -10.3325 -5.2634 1.2209
# 2 39.3419 120.9837 24.4100 -11.9797 7.6181 6.8943
# 3 12.4675 24.4100 107.0958 12.3554 5.8357 14.3679
# 4 -10.3325 -11.9797 12.3554 42.6013 -0.4659 6.9099
# 5 -5.2634 7.6181 5.8357 -0.4659 40.5665 1.6375
# 6 1.2209 6.8943 14.3679 6.9099 1.6375 42.0443
#
#
#
# Elastic Compliance Matrix: (Units=1/GPa)
#
#
# Indices 1 2 3 4 5 6 
#
# 1 0.021795 -0.006632 -0.001749 0.003938 0.004361 0.000235
# 2 -0.006632 0.011234 -0.001725 0.002236 -0.002643 -0.001325
# 3 -0.001749 -0.001725 0.010790 -0.003615 -0.001388 -0.002705
# 4 0.003938 0.002236 -0.003615 0.026714 0.001066 -0.003678
# 5 0.004361 -0.002643 -0.001388 0.001066 0.025941 -0.000405
# 6 0.000235 -0.001325 -0.002705 -0.003678 -0.000405 0.025540
#
#
# Mechanical properties :
#
#
# Convention : Reuss Voigt Hill
#
# Bulk Modulus (GPa) = 42.36225 49.14232 45.75228
# Shear Modulus (GPa) = 33.31257 39.28393 36.29825
#
# Velocity S-wave (km/s) = 3.87456 4.20752 4.04447
# Velocity P-wave (km/s) = 6.25354 6.76389 6.51372
#
# Compressibility (1/GPa) = 0.02360592
#
# Stress axis : x y z
#
# Youngs Moduli (GPa) = 45.88282 89.01806 92.68068
#
# Poissons Ratio (x) = 0.59041 0.16210
# Poissons Ratio (y) = 0.30432 0.15984
# Poissons Ratio (z) = 0.08025 0.15352
#
# Static dielectric constant tensor:
#      x y z
#    x 3.565420 0.062130 0.041930 
#    y 0.062130 4.058170 -0.133540 
#    z 0.041930 -0.133540 4.895110 
# 
# 
# High freq. dielectric constant tensor:
#      x y z
#    x 1.864960 -0.007300 -0.006600 
#    y -0.007300 1.885240 0.001110 
#    z -0.006600 0.001110 1.893550 
# 
# From -- ./inp_files/208907.got.cif
#   From: 2010.06.25/outbox.cif.g09.slc.cpg/sg2_105_cif.got.tgz:208907.got - 2010.06.27 13:26:56.
