data_PCOD8021571
_publ_section_title
;
Structure prediction by ZEFSAII (Michael W. Deem and Ramdas Pophale) SiO2 
 PCOD8021571
Probable space group: P -1
;
_chemical_formula_sum "Si O2"
_cell_formula_units_Z 16
_cell_length_a 11.755726
_cell_length_b 18.729482
_cell_length_c 9.313070
_cell_angle_alpha 150.225913
_cell_angle_beta 120.296699
_cell_angle_gamma 50.390755
_cell_volume 778.041140
_symmetry_space_group_name_H-M "P -1"
_symmetry_group_IT_number 2
_symmetry_cell_setting 'triclinic'
loop_
_space_group_symop_operation_xyz
x,y,z
-x,-y,-z
loop_
_atom_site_type_symbol
_atom_site_label
_atom_site_fract_x
_atom_site_fract_y
_atom_site_fract_z
Si Si1 0.116869 0.606908 0.640422
Si Si2 0.348652 0.182460 0.470639
Si Si3 0.316053 0.996007 0.606715
Si Si4 0.208811 0.274796 0.247522
Si Si5 0.312034 0.674732 0.078081
Si Si6 0.171463 0.042781 0.286938
Si Si7 0.356264 0.503013 0.095240
Si Si8 0.158583 0.745651 0.627941
O O1 0.219820 0.419959 0.424122
O O2 0.131734 0.631970 0.525913
O O3 0.946759 0.661908 0.660600
O O4 0.175604 0.714821 0.953949
O O5 0.513260 0.039737 0.361562
O O6 0.335083 0.202690 0.324400
O O7 0.230148 0.130242 0.364504
O O8 0.321671 0.351065 0.821975
O O9 0.311713 0.842332 0.409652
O O10 0.241949 0.035649 0.473367
O O11 0.224669 0.144036 0.911663
O O12 0.284038 0.595852 0.064217
O O13 0.467786 0.554425 0.891405
O O14 0.215849 0.862160 0.943678
O O15 0.993142 0.146557 0.367526
O O16 0.286695 0.626276 0.396306
#
# Coordination Sequence:
#
# PCOD8021571 Si02
#       8
#     2   2   2   2   2   2   2   2
#     4  11  23  44  63  94 129 161 215 263 301 385
#     4  11  23  45  62  94 132 160 212 265 307 380
#     4  11  25  41  67  92 126 171 209 257 318 371
#     4  11  25  41  67  96 124 169 208 262 318 364
#     4  10  22  44  64  93 128 157 221 260 304 378
#     4  11  25  43  61  97 130 163 214 257 311 381
#     4  10  24  41  68  94 123 170 205 264 317 365
#     4  11  25  43  66  91 130 170 205 261 316 370
#
# _framework density 20.564464000000001
#
# number of rings (size 3 to 8) (size 9 to 14) (size 15 to 20)
#    0.000    1.250    3.750    0.750    5.250    2.500 
#    0.000    0.000    0.000    0.000    0.000    0.000 
#    0.000    0.000    0.000    0.000    0.000    0.000 
#
# Total GULP energy -198495.380352 kJ/mol
# GULP energy per Si atom -12405.961272 kJ/mol
# Density = 2.051766 g / cm^3
# Si number density = 20.564464 Si / 1000 Ang^3
#
#
#
# Elastic Constant Matrix: (Units=GPa)
#
#
# Indices 1 2 3 4 5 6 
#
# 1 72.0713 20.3043 40.6659 3.2355 2.1918 19.2588
# 2 20.3043 113.5219 39.0467 -13.1089 -5.9015 8.2305
# 3 40.6659 39.0467 116.3954 -2.2793 -15.0275 13.1841
# 4 3.2355 -13.1089 -2.2793 30.6935 2.6516 10.6232
# 5 2.1918 -5.9015 -15.0275 2.6516 29.1009 -7.4136
# 6 19.2588 8.2305 13.1841 10.6232 -7.4136 25.0536
#
#
#
# Elastic Compliance Matrix: (Units=1/GPa)
#
#
# Indices 1 2 3 4 5 6 
#
# 1 0.023214 -0.000375 -0.007135 0.004367 -0.010747 -0.018999
# 2 -0.000375 0.010908 -0.003019 0.006171 -0.001062 -0.004637
# 3 -0.007135 -0.003019 0.012741 -0.001020 0.007192 0.002332
# 4 0.004367 0.006171 -0.001020 0.044954 -0.010589 -0.027043
# 5 -0.010747 -0.001062 0.007192 -0.010589 0.045434 0.022760
# 6 -0.018999 -0.004637 0.002332 -0.027043 0.022760 0.073017
#
#
# Mechanical properties :
#
#
# Convention : Reuss Voigt Hill
#
# Bulk Modulus (GPa) = 38.75125 55.78027 47.26576
# Shear Modulus (GPa) = 20.83953 30.43437 25.63695
#
# Velocity S-wave (km/s) = 3.18681 3.85118 3.53464
# Velocity P-wave (km/s) = 5.69436 6.85266 6.30019
#
# Compressibility (1/GPa) = 0.02580562
#
# Stress axis : x y z
#
# Youngs Moduli (GPa) = 43.07713 91.67578 78.48439
#
# Poissons Ratio (x) = 0.03437 0.55996
# Poissons Ratio (y) = 0.01615 0.23697
# Poissons Ratio (z) = 0.30734 0.27680
#
# Static dielectric constant tensor:
#      x y z
#    x 3.622910 0.040430 0.178130 
#    y 0.040430 3.859120 0.116470 
#    z 0.178130 0.116470 3.652400 
# 
# 
# High freq. dielectric constant tensor:
#      x y z
#    x 1.801830 0.000940 0.013820 
#    y 0.000940 1.819220 0.001930 
#    z 0.013820 0.001930 1.802730 
# 
# From -- ./inp_files/190000.got.cif
#   From: 2010.06.25/outbox.cif.g09.slc.cpg/sg2_95_cif.got.tgz:190000.got - 2010.06.27 13:26:56.
