data_PCOD8021318
_publ_section_title
;
Structure prediction by ZEFSAII (Michael W. Deem and Ramdas Pophale) SiO2 
 PCOD8021318
Probable space group: P -1
;
_chemical_formula_sum "Si O2"
_cell_formula_units_Z 12
_cell_length_a 6.714947
_cell_length_b 14.369411
_cell_length_c 11.271426
_cell_angle_alpha 29.108878
_cell_angle_beta 105.542041
_cell_angle_gamma 105.373745
_cell_volume 508.611778
_symmetry_space_group_name_H-M "P -1"
_symmetry_group_IT_number 2
_symmetry_cell_setting 'triclinic'
loop_
_space_group_symop_operation_xyz
x,y,z
-x,-y,-z
loop_
_atom_site_type_symbol
_atom_site_label
_atom_site_fract_x
_atom_site_fract_y
_atom_site_fract_z
Si Si1 0.115832 0.801411 0.687613
Si Si2 0.304373 0.501609 0.382286
Si Si3 0.386068 0.866529 0.453375
Si Si4 0.017525 0.148600 0.732097
Si Si5 0.294859 0.410658 0.215952
Si Si6 0.229031 0.910861 0.835123
O O1 0.268252 0.934671 0.477704
O O2 0.084671 0.894393 0.709895
O O3 0.895530 0.751435 0.645806
O O4 0.234441 0.606733 0.931924
O O5 0.500000 0.500000 0.500000
O O6 0.126180 0.349239 0.572626
O O7 0.364602 0.437861 0.332096
O O8 0.218723 0.712291 0.126647
O O9 0.509419 0.679168 0.714519
O O10 0.211434 0.807961 0.393896
O O11 0.537237 0.036737 0.232670
O O12 0.152144 0.067902 0.736537
O O13 0.000000 0.000000 0.000000
#
# Coordination Sequence:
#
# PCOD8021318 Si02
#       6
#     2   2   2   2   2   2
#     4  10  22  43  71 107 141 182 228 277 359 411
#     4  11  24  48  71  97 138 189 231 287 348 399
#     4  12  22  43  72 105 140 183 230 283 352 409
#     4  12  28  48  69 104 140 186 236 288 344 408
#     4  10  22  43  70 104 145 178 228 294 335 415
#     4  11  26  45  72 103 143 181 227 293 340 418
#
# _framework density 23.593633000000001
#
# number of rings (size 3 to 8) (size 9 to 14) (size 15 to 20)
#    0.000    1.000    3.333    2.000    2.333    6.000 
#    6.000    0.000    0.000    0.000    0.000    0.000 
#    0.000    0.000    0.000    0.000    0.000    0.000 
#
# Total GULP energy -148788.224060 kJ/mol
# GULP energy per Si atom -12399.018672 kJ/mol
# Density = 2.353993 g / cm^3
# Si number density = 23.593633 Si / 1000 Ang^3
#
#
#
# Elastic Constant Matrix: (Units=GPa)
#
#
# Indices 1 2 3 4 5 6 
#
# 1 131.4578 58.7250 41.5020 8.6263 -8.4703 14.2522
# 2 58.7250 122.2967 49.4349 7.2749 10.1866 27.8629
# 3 41.5020 49.4349 100.9246 1.7088 -13.0943 13.0233
# 4 8.6263 7.2749 1.7088 48.5212 7.6715 4.7088
# 5 -8.4703 10.1866 -13.0943 7.6715 37.6895 -1.7014
# 6 14.2522 27.8629 13.0233 4.7088 -1.7014 42.7124
#
#
#
# Elastic Compliance Matrix: (Units=1/GPa)
#
#
# Indices 1 2 3 4 5 6 
#
# 1 0.010483 -0.004646 -0.001609 -0.001683 0.003411 0.000345
# 2 -0.004646 0.014691 -0.005373 0.000624 -0.007314 -0.006755
# 3 -0.001609 -0.005373 0.013982 -0.000359 0.006024 0.000058
# 4 -0.001683 0.000624 -0.000359 0.021884 -0.005233 -0.002357
# 5 0.003411 -0.007314 0.006024 -0.005233 0.032600 0.003671
# 6 0.000345 -0.006755 0.000058 -0.002357 0.003671 0.028092
#
#
# Mechanical properties :
#
#
# Convention : Reuss Voigt Hill
#
# Bulk Modulus (GPa) = 62.89195 72.66700 67.77947
# Shear Modulus (GPa) = 33.26965 39.45245 36.36105
#
# Velocity S-wave (km/s) = 3.75922 4.09365 3.92999
# Velocity P-wave (km/s) = 6.74956 7.29453 7.02733
#
# Compressibility (1/GPa) = 0.01590029
#
# Stress axis : x y z
#
# Youngs Moduli (GPa) = 95.39004 68.06993 71.52162
#
# Poissons Ratio (x) = 0.31627 0.11504
# Poissons Ratio (y) = 0.44321 0.38429
# Poissons Ratio (z) = 0.15343 0.36574
#
# Static dielectric constant tensor:
#      x y z
#    x 4.141910 0.094690 0.040530 
#    y 0.094690 4.329100 -0.003520 
#    z 0.040530 -0.003520 4.601890 
# 
# 
# High freq. dielectric constant tensor:
#      x y z
#    x 1.930940 0.005800 0.005330 
#    y 0.005800 1.936260 0.004250 
#    z 0.005330 0.004250 1.960380 
# 
# From -- ./inp_files/22554.got.cif
#   From: 2010.06.25/outbox.cif.g09.slc.cpg/sg2_12_cif.got.tgz:22554.got - 2010.06.27 13:26:56.
