data_PCOD8021134
_publ_section_title
;
Structure prediction by ZEFSAII (Michael W. Deem and Ramdas Pophale) SiO2 
 PCOD8021134
Probable space group: P -1
;
_chemical_formula_sum "Si O2"
_cell_formula_units_Z 16
_cell_length_a 10.601049
_cell_length_b 5.286426
_cell_length_c 19.029068
_cell_angle_alpha 57.821128
_cell_angle_beta 48.137442
_cell_angle_gamma 64.759648
_cell_volume 667.935581
_symmetry_space_group_name_H-M "P -1"
_symmetry_group_IT_number 2
_symmetry_cell_setting 'triclinic'
loop_
_space_group_symop_operation_xyz
x,y,z
-x,-y,-z
loop_
_atom_site_type_symbol
_atom_site_label
_atom_site_fract_x
_atom_site_fract_y
_atom_site_fract_z
Si Si1 0.932869 0.143921 0.294536
Si Si2 0.654468 0.060358 0.610848
Si Si3 0.418795 0.828711 0.116775
Si Si4 0.992232 0.097373 0.124281
Si Si5 0.247523 0.269169 0.233187
Si Si6 0.284679 0.301855 0.738591
Si Si7 0.258588 0.337070 0.902180
Si Si8 0.840784 0.630141 0.492962
O O1 0.037080 0.154108 0.180578
O O2 0.749290 0.344331 0.321685
O O3 0.045506 0.269649 0.296090
O O4 0.901781 0.804974 0.376599
O O5 0.451605 0.142164 0.661782
O O6 0.741348 0.365763 0.539366
O O7 0.700003 0.862614 0.691394
O O8 0.717360 0.866682 0.548833
O O9 0.285019 0.616949 0.166060
O O10 0.569364 0.607346 0.129788
O O11 0.341299 0.067611 0.167261
O O12 0.500000 0.000000 0.000000
O O13 0.860505 0.353552 0.100527
O O14 0.896640 0.801874 0.201199
O O15 0.164141 0.080638 0.016193
O O16 0.313183 0.228732 0.820547
O O17 0.000000 0.500000 0.500000
#
# Coordination Sequence:
#
# PCOD8021134 Si02
#       8
#     2   2   2   2   2   2   2   2
#     4  11  28  44  73 107 145 194 247 309 371 438
#     4  12  27  48  81 105 145 194 245 308 369 439
#     4  12  26  43  71 109 149 189 248 299 361 431
#     4  10  23  44  71  98 150 189 251 290 372 428
#     4  12  26  46  73 105 147 194 241 303 369 435
#     4  11  25  45  73 106 145 193 243 305 363 443
#     4  10  22  43  68 105 139 201 239 301 355 445
#     4  12  28  50  77 111 144 190 247 306 378 439
#
# _framework density 23.954405999999999
#
# number of rings (size 3 to 8) (size 9 to 14) (size 15 to 20)
#    0.000    0.750    2.500    3.375    8.750    1.000 
#    0.000    0.000    0.000    0.000    0.000    0.000 
#    0.000    0.000    0.000    0.000    0.000    0.000 
#
# Total GULP energy -198421.104276 kJ/mol
# GULP energy per Si atom -12401.319017 kJ/mol
# Density = 2.389988 g / cm^3
# Si number density = 23.954406 Si / 1000 Ang^3
#
#
#
# Elastic Constant Matrix: (Units=GPa)
#
#
# Indices 1 2 3 4 5 6 
#
# 1 70.8747 8.5423 12.4791 -9.8396 0.0240 -7.1815
# 2 8.5423 93.9802 36.7038 -3.2410 3.6588 4.2057
# 3 12.4791 36.7038 102.0276 -11.3053 3.6615 -9.1589
# 4 -9.8396 -3.2410 -11.3053 41.3156 1.4359 -5.5641
# 5 0.0240 3.6588 3.6615 1.4359 38.3437 -8.5827
# 6 -7.1815 4.2057 -9.1589 -5.5641 -8.5827 38.8027
#
#
#
# Elastic Compliance Matrix: (Units=1/GPa)
#
#
# Indices 1 2 3 4 5 6 
#
# 1 0.015259 -0.001152 -0.000748 0.003781 0.000812 0.003494
# 2 -0.001152 0.012785 -0.004800 -0.000964 -0.001439 -0.003188
# 3 -0.000748 -0.004800 0.012326 0.003326 0.000000 0.003768
# 4 0.003781 -0.000964 0.003326 0.026668 -0.000016 0.005410
# 5 0.000812 -0.001439 0.000000 -0.000016 0.027654 0.006421
# 6 0.003494 -0.003188 0.003768 0.005410 0.006421 0.029849
#
#
# Mechanical properties :
#
#
# Convention : Reuss Voigt Hill
#
# Bulk Modulus (GPa) = 37.07920 42.48145 39.78033
# Shear Modulus (GPa) = 34.02917 37.63621 35.83269
#
# Velocity S-wave (km/s) = 3.77315 3.96809 3.87184
# Velocity P-wave (km/s) = 5.87323 6.22632 6.05235
#
# Compressibility (1/GPa) = 0.02696930
#
# Stress axis : x y z
#
# Youngs Moduli (GPa) = 65.53606 78.21460 81.12739
#
# Poissons Ratio (x) = 0.09013 0.06071
# Poissons Ratio (y) = 0.07552 0.38941
# Poissons Ratio (z) = 0.04904 0.37543
#
# Static dielectric constant tensor:
#      x y z
#    x 4.431430 -0.089360 -0.014040 
#    y -0.089360 4.240600 -0.107450 
#    z -0.014040 -0.107450 4.512390 
# 
# 
# High freq. dielectric constant tensor:
#      x y z
#    x 1.961150 -0.012470 0.004590 
#    y -0.012470 1.952000 -0.004870 
#    z 0.004590 -0.004870 1.954120 
# 
# From -- ./inp_files/364449.got.cif
#   From: 2010.06.25/outbox.cif.g09.slc.cpg/sg2_183_cif.got.tgz:364449.got - 2010.06.27 13:26:56.
