data_PCOD8021110
_publ_section_title
;
Structure prediction by ZEFSAII (Michael W. Deem and Ramdas Pophale) SiO2 
 PCOD8021110
Probable space group: P -1
;
_chemical_formula_sum "Si O2"
_cell_formula_units_Z 16
_cell_length_a 14.140575
_cell_length_b 11.643470
_cell_length_c 9.393049
_cell_angle_alpha 95.539801
_cell_angle_beta 103.579926
_cell_angle_gamma 28.735069
_cell_volume 702.656594
_symmetry_space_group_name_H-M "P -1"
_symmetry_group_IT_number 2
_symmetry_cell_setting 'triclinic'
loop_
_space_group_symop_operation_xyz
x,y,z
-x,-y,-z
loop_
_atom_site_type_symbol
_atom_site_label
_atom_site_fract_x
_atom_site_fract_y
_atom_site_fract_z
Si Si1 0.429019 0.928360 0.211622
Si Si2 0.578912 0.282102 0.631108
Si Si3 0.187749 0.768312 0.139821
Si Si4 0.131417 0.769866 0.434747
Si Si5 0.961557 0.433674 0.164963
Si Si6 0.691008 0.876577 0.285372
Si Si7 0.611533 0.665383 0.948028
Si Si8 0.077488 0.193081 0.458062
O O1 0.469702 0.791930 0.330127
O O2 0.564720 0.897441 0.296602
O O3 0.489522 0.810481 0.068680
O O4 0.188606 0.217876 0.157640
O O5 0.667707 0.272940 0.783178
O O6 0.372620 0.547591 0.517749
O O7 0.752825 0.083752 0.547539
O O8 0.090617 0.817725 0.256951
O O9 0.334939 0.523579 0.082198
O O10 0.000000 0.000000 0.000000
O O11 0.076247 0.699760 0.465432
O O12 0.000000 0.000000 0.500000
O O13 0.852963 0.668448 0.195125
O O14 0.956293 0.353078 0.290417
O O15 0.824217 0.515891 0.005207
O O16 0.818035 0.797792 0.450935
O O17 0.534659 0.137442 0.206045
#
# Coordination Sequence:
#
# PCOD8021110 Si02
#       8
#     2   2   2   2   2   2   2   2
#     4  10  23  43  71  97 138 184 221 285 352 397
#     4  11  25  46  70 101 141 182 232 286 342 418
#     4  12  27  47  72 105 142 182 237 288 340 418
#     4  12  26  44  73  96 138 188 225 283 353 397
#     4  10  22  43  67  99 137 178 227 280 343 418
#     4  11  24  40  68 101 137 177 229 289 337 411
#     4  11  25  43  65  99 140 178 231 283 342 407
#     4  11  24  44  69 101 136 175 233 281 344 413
#
# _framework density 22.770727999999998
#
# number of rings (size 3 to 8) (size 9 to 14) (size 15 to 20)
#    0.000    1.000    1.250    6.000    3.500    8.500 
#    0.000    0.000    0.000    0.000    0.000    0.000 
#    0.000    0.000    0.000    0.000    0.000    0.000 
#
# Total GULP energy -198473.031176 kJ/mol
# GULP energy per Si atom -12404.564449 kJ/mol
# Density = 2.271890 g / cm^3
# Si number density = 22.770728 Si / 1000 Ang^3
#
#
#
# Elastic Constant Matrix: (Units=GPa)
#
#
# Indices 1 2 3 4 5 6 
#
# 1 105.2679 46.4583 35.6897 7.6488 9.0210 -3.5358
# 2 46.4583 144.8269 34.2619 -9.2063 16.2095 6.2090
# 3 35.6897 34.2619 95.9926 -8.5327 8.6840 -1.8232
# 4 7.6488 -9.2063 -8.5327 33.6013 3.4848 0.7371
# 5 9.0210 16.2095 8.6840 3.4848 42.9035 5.2705
# 6 -3.5358 6.2090 -1.8232 0.7371 5.2705 38.6233
#
#
#
# Elastic Compliance Matrix: (Units=1/GPa)
#
#
# Indices 1 2 3 4 5 6 
#
# 1 0.012815 -0.003534 -0.003868 -0.004865 -0.000391 0.001705
# 2 -0.003534 0.008906 -0.001394 0.003174 -0.002406 -0.001553
# 3 -0.003868 -0.001394 0.012864 0.003923 -0.001660 0.000629
# 4 -0.004865 0.003174 0.003923 0.033122 -0.003548 -0.000918
# 5 -0.000391 -0.002406 -0.001660 -0.003548 0.025306 -0.003113
# 6 0.001705 -0.001553 0.000629 -0.000918 -0.003113 0.026769
#
#
# Mechanical properties :
#
#
# Convention : Reuss Voigt Hill
#
# Bulk Modulus (GPa) = 58.85102 64.32303 61.58702
# Shear Modulus (GPa) = 34.95545 38.33746 36.64645
#
# Velocity S-wave (km/s) = 3.92229 4.10766 4.01604
# Velocity P-wave (km/s) = 6.81276 7.12787 6.97209
#
# Compressibility (1/GPa) = 0.01699206
#
# Stress axis : x y z
#
# Youngs Moduli (GPa) = 78.03395 112.28159 77.73644
#
# Poissons Ratio (x) = 0.39685 0.30066
# Poissons Ratio (y) = 0.27581 0.10839
# Poissons Ratio (z) = 0.30181 0.15656
#
# Static dielectric constant tensor:
#      x y z
#    x 4.156910 -0.082440 0.028450 
#    y -0.082440 4.380960 -0.047230 
#    z 0.028450 -0.047230 3.954160 
# 
# 
# High freq. dielectric constant tensor:
#      x y z
#    x 1.899850 0.001610 0.002370 
#    y 0.001610 1.918590 -0.009090 
#    z 0.002370 -0.009090 1.894060 
# 
# From -- ./inp_files/307577.got.cif
#   From: 2010.06.25/outbox.cif.g09.slc.cpg/sg2_154_cif.got.tgz:307577.got - 2010.06.27 13:26:56.
