data_PCOD8021813
_publ_section_title
;
Structure prediction by ZEFSAII (Michael W. Deem and Ramdas Pophale) SiO2 
 PCOD8021813
Probable space group: P -1
;
_chemical_formula_sum "Si O2"
_cell_formula_units_Z 14
_cell_length_a 9.012348
_cell_length_b 8.138698
_cell_length_c 12.526170
_cell_angle_alpha 119.959263
_cell_angle_beta 62.685985
_cell_angle_gamma 79.960695
_cell_volume 602.326237
_symmetry_space_group_name_H-M "P -1"
_symmetry_group_IT_number 2
_symmetry_cell_setting 'triclinic'
loop_
_space_group_symop_operation_xyz
x,y,z
-x,-y,-z
loop_
_atom_site_type_symbol
_atom_site_label
_atom_site_fract_x
_atom_site_fract_y
_atom_site_fract_z
Si Si1 0.537309 0.773989 0.061137
Si Si2 0.930244 0.383458 0.904809
Si Si3 0.411728 0.853371 0.898567
Si Si4 0.954829 0.950891 0.800142
Si Si5 0.333096 0.599008 0.671898
Si Si6 0.157472 0.019506 0.381852
Si Si7 0.291631 0.187817 0.579198
O O1 0.351978 0.792988 0.195696
O O2 0.507821 0.021244 0.159799
O O3 0.740829 0.577266 0.972668
O O4 0.539098 0.723506 0.918412
O O5 0.110056 0.215794 0.714993
O O6 0.879018 0.213886 0.919737
O O7 0.000000 0.500000 0.000000
O O8 0.404463 0.665395 0.773759
O O9 0.203001 0.060889 0.077247
O O10 0.161589 0.816242 0.743532
O O11 0.959562 0.855922 0.648106
O O12 0.500000 0.500000 0.500000
O O13 0.272832 0.424221 0.666776
O O14 0.253741 0.134307 0.454417
O O15 0.000000 0.000000 0.500000
O O16 0.500000 0.000000 0.500000
#
# Coordination Sequence:
#
# PCOD8021813 Si02
#       7
#     2   2   2   2   2   2   2
#     4  10  23  42  72 100 133 184 227 276 343 398
#     4  12  23  40  66 102 134 176 231 276 332 405
#     4  10  22  44  68  98 138 173 225 281 333 412
#     4  11  24  43  66  97 135 179 223 275 344 396
#     4  12  25  41  67  99 136 179 223 279 342 403
#     4  11  24  46  69  98 140 176 226 287 333 408
#     4  12  26  44  68  98 137 181 224 282 341 402
#
# _framework density 23.243217999999999
#
# number of rings (size 3 to 8) (size 9 to 14) (size 15 to 20)
#    0.000    0.857    1.429    5.571    0.000    5.143 
#    0.000    0.000    0.000    0.000    0.000    0.000 
#    0.000    0.000    0.000    0.000    0.000    0.000 
#
# Total GULP energy -173477.991202 kJ/mol
# GULP energy per Si atom -12391.285086 kJ/mol
# Density = 2.319032 g / cm^3
# Si number density = 23.243218 Si / 1000 Ang^3
#
#
#
# Elastic Constant Matrix: (Units=GPa)
#
#
# Indices 1 2 3 4 5 6 
#
# 1 145.5023 60.3681 49.9425 13.8253 21.0844 -20.5375
# 2 60.3681 107.2889 42.1869 14.1285 1.2868 -16.1684
# 3 49.9425 42.1869 109.4216 -11.9683 -4.3302 -13.2768
# 4 13.8253 14.1285 -11.9683 34.4301 4.1159 -10.9024
# 5 21.0844 1.2868 -4.3302 4.1159 69.9946 5.3177
# 6 -20.5375 -16.1684 -13.2768 -10.9024 5.3177 37.9934
#
#
#
# Elastic Compliance Matrix: (Units=1/GPa)
#
#
# Indices 1 2 3 4 5 6 
#
# 1 0.010851 -0.003902 -0.003562 -0.002739 -0.003458 0.002658
# 2 -0.003902 0.013925 -0.004062 -0.005448 0.000935 0.000703
# 3 -0.003562 -0.004062 0.013776 0.008860 0.001211 0.003533
# 4 -0.002739 -0.005448 0.008860 0.039054 -0.001639 0.010733
# 5 -0.003458 0.000935 0.001211 -0.001639 0.015766 -0.003725
# 6 0.002658 0.000703 0.003533 0.010733 -0.003725 0.032892
#
#
# Mechanical properties :
#
#
# Convention : Reuss Voigt Hill
#
# Bulk Modulus (GPa) = 64.51023 74.13420 69.32221
# Shear Modulus (GPa) = 32.36591 42.46465 37.41528
#
# Velocity S-wave (km/s) = 3.73565 4.27894 4.01650
# Velocity P-wave (km/s) = 6.81333 7.50844 7.16932
#
# Compressibility (1/GPa) = 0.01550142
#
# Stress axis : x y z
#
# Youngs Moduli (GPa) = 92.15803 71.81093 72.58808
#
# Poissons Ratio (x) = 0.28021 0.25857
# Poissons Ratio (y) = 0.35961 0.29482
# Poissons Ratio (z) = 0.32828 0.29166
#
# Static dielectric constant tensor:
#      x y z
#    x 4.448850 -0.078740 -0.049490 
#    y -0.078740 3.917440 -0.347210 
#    z -0.049490 -0.347210 4.362510 
# 
# 
# High freq. dielectric constant tensor:
#      x y z
#    x 1.951710 -0.000570 -0.002610 
#    y -0.000570 1.905490 -0.020200 
#    z -0.002610 -0.020200 1.925170 
# 
# From -- ./inp_files/189859.got.cif
#   From: 2010.06.25/outbox.cif.g09.slc.cpg/sg2_95_cif.got.tgz:189859.got - 2010.06.27 13:26:56.
