data_PCOD8021501
_publ_section_title
;
Structure prediction by ZEFSAII (Michael W. Deem and Ramdas Pophale) SiO2 
 PCOD8021501
Probable space group: P -1
;
_chemical_formula_sum "Si O2"
_cell_formula_units_Z 12
_cell_length_a 5.015227
_cell_length_b 5.604391
_cell_length_c 20.072907
_cell_angle_alpha 119.782379
_cell_angle_beta 109.312163
_cell_angle_gamma 90.741485
_cell_volume 451.176472
_symmetry_space_group_name_H-M "P -1"
_symmetry_group_IT_number 2
_symmetry_cell_setting 'triclinic'
loop_
_space_group_symop_operation_xyz
x,y,z
-x,-y,-z
loop_
_atom_site_type_symbol
_atom_site_label
_atom_site_fract_x
_atom_site_fract_y
_atom_site_fract_z
Si Si1 0.168470 0.392255 0.940792
Si Si2 0.245717 0.841241 0.515527
Si Si3 0.283486 0.830088 0.904952
Si Si4 0.928059 0.273637 0.365092
Si Si5 0.644945 0.459248 0.254580
Si Si6 0.250790 0.815833 0.330358
O O1 0.099592 0.543186 0.886289
O O2 0.095484 0.046076 0.887874
O O3 0.500000 0.500000 0.000000
O O4 0.000000 0.500000 0.000000
O O5 0.190022 0.551554 0.430164
O O6 0.223778 0.790295 0.585663
O O7 0.576071 0.041596 0.567432
O O8 0.000000 0.000000 0.500000
O O9 0.465060 0.729149 0.845560
O O10 0.500000 0.000000 0.000000
O O11 0.643186 0.285775 0.298586
O O12 0.085528 0.039292 0.315235
O O13 0.470371 0.707498 0.282496
O O14 0.995229 0.555313 0.291405
#
# Coordination Sequence:
#
# PCOD8021501 Si02
#       6
#     2   2   2   2   2   2
#     4  10  22  43  76 105 143 182 247 307 369 443
#     4  11  23  47  75 104 147 192 251 299 371 454
#     4  10  25  50  76 113 148 201 255 312 380 455
#     4  11  25  45  74 106 146 199 242 307 376 444
#     4  12  29  46  73 106 153 192 246 315 374 445
#     4  12  26  48  68 110 146 190 247 303 377 440
#
# _framework density 26.597132999999999
#
# number of rings (size 3 to 8) (size 9 to 14) (size 15 to 20)
#    0.000    1.000    3.333    1.000    4.667    8.000 
#    0.000    1.667    0.000    0.000    0.000    0.000 
#    0.000    0.000    0.000    0.000    0.000    0.000 
#
# Total GULP energy -148683.926789 kJ/mol
# GULP energy per Si atom -12390.327232 kJ/mol
# Density = 2.653660 g / cm^3
# Si number density = 26.597133 Si / 1000 Ang^3
#
#
#
# Elastic Constant Matrix: (Units=GPa)
#
#
# Indices 1 2 3 4 5 6 
#
# 1 85.6558 10.4512 10.7443 1.3444 -5.9245 -29.8170
# 2 10.4512 192.8772 29.1324 -1.8761 -25.0229 -23.9552
# 3 10.7443 29.1324 126.9779 1.9312 -27.4833 -21.0368
# 4 1.3444 -1.8761 1.9312 38.2155 -2.7524 -15.5718
# 5 -5.9245 -25.0229 -27.4833 -2.7524 45.1818 16.3519
# 6 -29.8170 -23.9552 -21.0368 -15.5718 16.3519 40.0065
#
#
#
# Elastic Compliance Matrix: (Units=1/GPa)
#
#
# Indices 1 2 3 4 5 6 
#
# 1 0.017174 0.000814 0.000490 0.006176 -0.002811 0.017098
# 2 0.000814 0.005958 -0.000406 0.002050 0.001833 0.004010
# 3 0.000490 -0.000406 0.009477 0.001379 0.004279 0.003893
# 4 0.006176 0.002050 0.001379 0.034361 -0.002741 0.021050
# 5 -0.002811 0.001833 0.004279 -0.002741 0.029514 -0.011877
# 6 0.017098 0.004010 0.003893 0.021050 -0.011877 0.055235
#
#
# Mechanical properties :
#
#
# Convention : Reuss Voigt Hill
#
# Bulk Modulus (GPa) = 29.06394 56.24076 42.65235
# Shear Modulus (GPa) = 30.98068 48.35964 39.67016
#
# Velocity S-wave (km/s) = 3.41664 4.26869 3.86621
# Velocity P-wave (km/s) = 5.14934 6.74440 6.00011
#
# Compressibility (1/GPa) = 0.03440689
#
# Stress axis : x y z
#
# Youngs Moduli (GPa) = 58.22644 167.85372 105.51536
#
# Poissons Ratio (x) = -0.13669 -0.05174
# Poissons Ratio (y) = -0.04742 0.04283
# Poissons Ratio (z) = -0.02855 0.06813
#
# Static dielectric constant tensor:
#      x y z
#    x 4.354490 0.481730 -0.162630 
#    y 0.481730 6.965820 0.016620 
#    z -0.162630 0.016620 4.842620 
# 
# 
# High freq. dielectric constant tensor:
#      x y z
#    x 2.057140 0.004140 -0.011620 
#    y 0.004140 2.093020 -0.001950 
#    z -0.011620 -0.001950 2.061780 
# 
# From -- ./inp_files/5127.got.cif
#   From: 2010.06.25/outbox.cif.g09.slc.cpg/sg2_3_cif.got.tgz:5127.got - 2010.06.27 13:26:56.
