data_PCOD8021557
_publ_section_title
;
Structure prediction by ZEFSAII (Michael W. Deem and Ramdas Pophale) SiO2 
 PCOD8021557
Probable space group: P -1
;
_chemical_formula_sum "Si O2"
_cell_formula_units_Z 14
_cell_length_a 8.909365
_cell_length_b 17.158326
_cell_length_c 6.831766
_cell_angle_alpha 108.933316
_cell_angle_beta 130.324430
_cell_angle_gamma 59.879151
_cell_volume 688.705727
_symmetry_space_group_name_H-M "P -1"
_symmetry_group_IT_number 2
_symmetry_cell_setting 'triclinic'
loop_
_space_group_symop_operation_xyz
x,y,z
-x,-y,-z
loop_
_atom_site_type_symbol
_atom_site_label
_atom_site_fract_x
_atom_site_fract_y
_atom_site_fract_z
Si Si1 0.248656 0.295886 0.981078
Si Si2 0.393221 0.403291 0.479473
Si Si3 0.518463 0.111882 0.228027
Si Si4 0.227986 0.609936 0.486923
Si Si5 0.252115 0.004917 0.018443
Si Si6 0.777100 0.128246 0.800687
Si Si7 0.425035 0.684265 0.034287
O O1 0.395190 0.308754 0.947300
O O2 0.010429 0.324646 0.722429
O O3 0.255385 0.353123 0.224848
O O4 0.330716 0.190599 0.017093
O O5 0.244000 0.508976 0.429666
O O6 0.616534 0.378906 0.536284
O O7 0.447453 0.375982 0.726743
O O8 0.616614 0.158197 0.505694
O O9 0.709890 0.052946 0.195144
O O10 0.426944 0.047903 0.211083
O O11 0.286941 0.637591 0.770688
O O12 0.017086 0.084555 0.884656
O O13 0.280459 0.941847 0.177552
O O14 0.745173 0.217032 0.967132
#
# Coordination Sequence:
#
# PCOD8021557 Si02
#       7
#     2   2   2   2   2   2   2
#     4  11  23  39  63  93 126 159 201 253 300 360
#     4  10  22  44  64  88 124 162 204 250 301 361
#     4  11  22  41  61  90 122 157 204 248 299 359
#     4  10  24  41  64  93 121 161 205 247 305 364
#     4  10  24  40  61  89 118 161 201 252 298 356
#     4  11  22  42  62  89 122 160 201 247 305 353
#     4  11  23  39  63  92 127 157 202 255 295 365
#
# _framework density 20.327985999999999
#
# number of rings (size 3 to 8) (size 9 to 14) (size 15 to 20)
#    0.000    1.429    2.857    1.714    2.000    2.857 
#   10.286    0.000    0.000    0.000    0.000    0.000 
#    0.000    0.000    0.000    0.000    0.000    0.000 
#
# Total GULP energy -173676.145745 kJ/mol
# GULP energy per Si atom -12405.438982 kJ/mol
# Density = 2.028172 g / cm^3
# Si number density = 20.327986 Si / 1000 Ang^3
#
#
#
# Elastic Constant Matrix: (Units=GPa)
#
#
# Indices 1 2 3 4 5 6 
#
# 1 71.6692 25.5622 29.7406 -2.6515 -7.0437 -15.2272
# 2 25.5622 71.3051 15.1828 1.6468 -4.1319 -18.3237
# 3 29.7406 15.1828 103.0498 3.0409 -10.1282 -14.2293
# 4 -2.6515 1.6468 3.0409 40.2859 -1.3854 -0.6755
# 5 -7.0437 -4.1319 -10.1282 -1.3854 23.4633 -5.4105
# 6 -15.2272 -18.3237 -14.2293 -0.6755 -5.4105 31.7830
#
#
#
# Elastic Compliance Matrix: (Units=1/GPa)
#
#
# Indices 1 2 3 4 5 6 
#
# 1 0.018712 -0.004230 -0.003565 0.001935 0.004782 0.005785
# 2 -0.004230 0.018109 0.000250 -0.000742 0.004107 0.009209
# 3 -0.003565 0.000250 0.011858 -0.000888 0.005099 0.004594
# 4 0.001935 -0.000742 -0.000888 0.025124 0.001767 0.000937
# 5 0.004782 0.004107 0.005099 0.001767 0.050683 0.015607
# 6 0.005785 0.009209 0.004594 0.000937 0.015607 0.044278
#
#
# Mechanical properties :
#
#
# Convention : Reuss Voigt Hill
#
# Bulk Modulus (GPa) = 29.77268 42.99946 36.38607
# Shear Modulus (GPa) = 25.63449 30.80901 28.22175
#
# Velocity S-wave (km/s) = 3.55497 3.89729 3.73006
# Velocity P-wave (km/s) = 5.61501 6.43821 6.04065
#
# Compressibility (1/GPa) = 0.03358784
#
# Stress axis : x y z
#
# Youngs Moduli (GPa) = 53.44207 55.22119 84.33181
#
# Poissons Ratio (x) = 0.23358 0.30068
# Poissons Ratio (y) = 0.22605 -0.02106
# Poissons Ratio (z) = 0.19054 -0.01379
#
# Static dielectric constant tensor:
#      x y z
#    x 3.650160 -0.023690 -0.150410 
#    y -0.023690 3.766740 0.120060 
#    z -0.150410 0.120060 3.637470 
# 
# 
# High freq. dielectric constant tensor:
#      x y z
#    x 1.793420 0.000190 -0.009880 
#    y 0.000190 1.809090 0.001740 
#    z -0.009880 0.001740 1.796410 
# 
# From -- ./inp_files/9138.got.cif
#   From: 2010.06.25/outbox.cif.g09.slc.cpg/sg2_5_cif.got.tgz:9138.got - 2010.06.27 13:26:56.
