data_PCOD8021237
_publ_section_title
;
Structure prediction by ZEFSAII (Michael W. Deem and Ramdas Pophale) SiO2 
 PCOD8021237
Probable space group: P -1
;
_chemical_formula_sum "Si O2"
_cell_formula_units_Z 14
_cell_length_a 13.458701
_cell_length_b 10.479371
_cell_length_c 12.236476
_cell_angle_alpha 42.988087
_cell_angle_beta 54.414549
_cell_angle_gamma 32.406744
_cell_volume 627.636802
_symmetry_space_group_name_H-M "P -1"
_symmetry_group_IT_number 2
_symmetry_cell_setting 'triclinic'
loop_
_space_group_symop_operation_xyz
x,y,z
-x,-y,-z
loop_
_atom_site_type_symbol
_atom_site_label
_atom_site_fract_x
_atom_site_fract_y
_atom_site_fract_z
Si Si1 0.335393 0.515084 0.799452
Si Si2 0.249248 0.324352 0.161485
Si Si3 0.978427 0.839530 0.346659
Si Si4 0.504266 0.135668 0.310987
Si Si5 0.526945 0.686861 0.379819
Si Si6 0.084982 0.330073 0.708284
Si Si7 0.369060 0.544211 0.314164
O O1 0.323973 0.433090 0.736781
O O2 0.549953 0.342448 0.783456
O O3 0.286397 0.417963 0.979563
O O4 0.202507 0.849663 0.683167
O O5 0.334867 0.301908 0.233458
O O6 0.026413 0.571612 0.168406
O O7 0.337444 0.020329 0.270606
O O8 0.007727 0.613284 0.533456
O O9 0.148136 0.791082 0.278776
O O10 0.949321 0.810963 0.258210
O O11 0.476791 0.364267 0.246765
O O12 0.500000 0.000000 0.500000
O O13 0.694575 0.909971 0.260883
O O14 0.500000 0.500000 0.500000
O O15 0.597147 0.639485 0.489093
#
# Coordination Sequence:
#
# PCOD8021237 Si02
#       7
#     2   2   2   2   2   2   2
#     4  11  26  41  60  92 136 169 203 250 316 384
#     4  12  24  41  64  95 131 165 198 261 326 371
#     4  11  21  38  64  93 125 159 215 258 307 365
#     4  12  20  39  67  98 122 159 214 265 308 365
#     4  10  22  43  69  88 119 170 220 257 297 365
#     4  11  21  36  66  95 125 160 209 264 308 366
#     4  11  21  41  66  93 123 164 217 260 302 363
#
# _framework density 22.305892
#
# number of rings (size 3 to 8) (size 9 to 14) (size 15 to 20)
#    0.000    0.857    5.714    3.000    0.000    2.857 
#    0.000    2.857    0.000    8.571    0.000    0.000 
#    0.000    0.000    0.000    0.000    0.000    0.000 
#
# Total GULP energy -173499.829402 kJ/mol
# GULP energy per Si atom -12392.844957 kJ/mol
# Density = 2.225512 g / cm^3
# Si number density = 22.305892 Si / 1000 Ang^3
#
#
#
# Elastic Constant Matrix: (Units=GPa)
#
#
# Indices 1 2 3 4 5 6 
#
# 1 54.9318 46.3324 15.9198 5.8948 -9.2769 -1.7344
# 2 46.3324 142.4929 30.2702 24.8693 -1.0117 9.8715
# 3 15.9198 30.2702 78.1159 28.4803 0.4894 6.7867
# 4 5.8948 24.8693 28.4803 36.4075 -0.5881 -2.5511
# 5 -9.2769 -1.0117 0.4894 -0.5881 20.3839 8.4214
# 6 -1.7344 9.8715 6.7867 -2.5511 8.4214 43.8125
#
#
#
# Elastic Compliance Matrix: (Units=1/GPa)
#
#
# Indices 1 2 3 4 5 6 
#
# 1 0.029082 -0.009535 -0.004564 0.005711 0.012214 0.001991
# 2 -0.009535 0.011412 0.000213 -0.006662 -0.002800 -0.002831
# 3 -0.004564 0.000213 0.019420 -0.014889 -0.001376 -0.003839
# 4 0.005711 -0.006662 -0.014889 0.043203 0.001267 0.006305
# 5 0.012214 -0.002800 -0.001376 0.001267 0.058624 -0.009867
# 6 0.001991 -0.002831 -0.003839 0.006305 -0.009867 0.026400
#
#
# Mechanical properties :
#
#
# Convention : Reuss Voigt Hill
#
# Bulk Modulus (GPa) = 31.11090 51.17615 41.14352
# Shear Modulus (GPa) = 22.06302 32.32200 27.19251
#
# Velocity S-wave (km/s) = 3.14843 3.81075 3.49531
# Velocity P-wave (km/s) = 5.21483 6.50808 5.89701
#
# Compressibility (1/GPa) = 0.03214308
#
# Stress axis : x y z
#
# Youngs Moduli (GPa) = 34.38591 87.62896 51.49435
#
# Poissons Ratio (x) = 0.83550 0.23501
# Poissons Ratio (y) = 0.32786 -0.01099
# Poissons Ratio (z) = 0.15693 -0.01871
#
# Static dielectric constant tensor:
#      x y z
#    x 4.168480 0.369250 0.277660 
#    y 0.369250 4.601700 0.421030 
#    z 0.277660 0.421030 3.958990 
# 
# 
# High freq. dielectric constant tensor:
#      x y z
#    x 1.867870 0.013200 -0.003810 
#    y 0.013200 1.891830 0.015890 
#    z -0.003810 0.015890 1.854560 
# 
# From -- ./inp_files/258778.got.cif
#   From: 2010.06.25/outbox.cif.g09.slc.cpg/sg2_130_cif.got.tgz:258778.got - 2010.06.27 13:26:56.
