data_PCOD8021572
_publ_section_title
;
Structure prediction by ZEFSAII (Michael W. Deem and Ramdas Pophale) SiO2 
 PCOD8021572
Probable space group: P -1
;
_chemical_formula_sum "Si O2"
_cell_formula_units_Z 16
_cell_length_a 8.674602
_cell_length_b 10.613579
_cell_length_c 12.023291
_cell_angle_alpha 131.942013
_cell_angle_beta 98.565612
_cell_angle_gamma 54.491198
_cell_volume 615.704751
_symmetry_space_group_name_H-M "P -1"
_symmetry_group_IT_number 2
_symmetry_cell_setting 'triclinic'
loop_
_space_group_symop_operation_xyz
x,y,z
-x,-y,-z
loop_
_atom_site_type_symbol
_atom_site_label
_atom_site_fract_x
_atom_site_fract_y
_atom_site_fract_z
Si Si1 0.258743 0.217005 0.430704
Si Si2 0.347303 0.361576 0.037516
Si Si3 0.574206 0.233852 0.759417
Si Si4 0.003375 0.698998 0.750492
Si Si5 0.686425 0.951821 0.051665
Si Si6 0.038928 0.862316 0.314397
Si Si7 0.603152 0.223544 0.389992
Si Si8 0.417534 0.576013 0.746143
O O1 0.091291 0.443637 0.615272
O O2 0.413986 0.238879 0.406963
O O3 0.151999 0.181414 0.300190
O O4 0.381304 0.997829 0.392412
O O5 0.288658 0.204428 0.937226
O O6 0.142788 0.606705 0.200300
O O7 0.529882 0.283265 0.101669
O O8 0.424955 0.367078 0.927968
O O9 0.797835 0.159345 0.761485
O O10 0.476071 0.381252 0.723772
O O11 0.178834 0.718207 0.771118
O O12 0.890858 0.818119 0.923646
O O13 0.500000 0.000000 0.000000
O O14 0.629195 0.182288 0.232362
O O15 0.000000 0.000000 0.500000
O O16 0.820470 0.989481 0.309706
O O17 0.558740 0.439706 0.567489
#
# Coordination Sequence:
#
# PCOD8021572 Si02
#       8
#     2   2   2   2   2   2   2   2
#     4  10  22  44  64  93 129 171 214 264 320 393
#     4  11  24  43  64  94 133 172 211 269 326 384
#     4  11  22  42  65  93 134 168 212 267 329 375
#     4  10  23  41  66  92 128 169 219 261 322 381
#     4  12  25  44  65  93 135 167 219 271 317 379
#     4  11  23  41  64  96 132 163 214 268 324 386
#     4  11  22  42  64  94 132 166 213 268 321 381
#     4  10  23  42  66  92 130 171 215 264 326 388
#
# _framework density 25.986481999999999
#
# number of rings (size 3 to 8) (size 9 to 14) (size 15 to 20)
#    0.000    1.250    5.000    1.500    5.250    3.500 
#    2.250    1.875    0.000    0.000    0.000    0.000 
#    0.000    0.000    0.000    0.000    0.000    0.000 
#
# Total GULP energy -198310.827192 kJ/mol
# GULP energy per Si atom -12394.426700 kJ/mol
# Density = 2.592734 g / cm^3
# Si number density = 25.986482 Si / 1000 Ang^3
#
#
#
# Elastic Constant Matrix: (Units=GPa)
#
#
# Indices 1 2 3 4 5 6 
#
# 1 103.9158 31.6257 47.1473 14.0479 -3.0064 -5.1064
# 2 31.6257 61.9547 52.6476 -2.0960 1.0286 5.2781
# 3 47.1473 52.6476 211.3723 8.8295 -2.5230 11.9992
# 4 14.0479 -2.0960 8.8295 42.9215 3.9789 5.0358
# 5 -3.0064 1.0286 -2.5230 3.9789 45.4787 7.5002
# 6 -5.1064 5.2781 11.9992 5.0358 7.5002 50.9335
#
#
#
# Elastic Compliance Matrix: (Units=1/GPa)
#
#
# Indices 1 2 3 4 5 6 
#
# 1 0.012749 -0.005738 -0.001357 -0.004550 0.000881 0.002512
# 2 -0.005738 0.023332 -0.004604 0.004328 -0.001185 -0.002162
# 3 -0.001357 -0.004604 0.006294 -0.001001 0.000639 -0.001137
# 4 -0.004550 0.004328 -0.001001 0.025750 -0.002231 -0.002886
# 5 0.000881 -0.001185 0.000639 -0.002231 0.022812 -0.003078
# 6 0.002512 -0.002162 -0.001137 -0.002886 -0.003078 0.021116
#
#
# Mechanical properties :
#
#
# Convention : Reuss Voigt Hill
#
# Bulk Modulus (GPa) = 52.68940 71.12044 61.90492
# Shear Modulus (GPa) = 35.26689 44.25489 39.76089
#
# Velocity S-wave (km/s) = 3.68791 4.13121 3.91584
# Velocity P-wave (km/s) = 6.20113 7.08404 6.65724
#
# Compressibility (1/GPa) = 0.01897915
#
# Stress axis : x y z
#
# Youngs Moduli (GPa) = 78.43773 42.85911 158.87415
#
# Poissons Ratio (x) = 0.24591 0.21553
# Poissons Ratio (y) = 0.45005 0.73144
# Poissons Ratio (z) = 0.10641 0.19732
#
# Static dielectric constant tensor:
#      x y z
#    x 4.973890 -0.068470 0.494600 
#    y -0.068470 4.394060 0.766260 
#    z 0.494600 0.766260 5.240310 
# 
# 
# High freq. dielectric constant tensor:
#      x y z
#    x 2.040670 0.007770 0.007580 
#    y 0.007770 2.055780 0.012130 
#    z 0.007580 0.012130 2.063100 
# 
# From -- ./inp_files/393100.got.cif
#   From: 2010.06.25/outbox.cif.g09.slc.cpg/sg2_197_cif.got.tgz:393100.got - 2010.06.27 13:26:56.
