data_PCOD8021223
_publ_section_title
;
Structure prediction by ZEFSAII (Michael W. Deem and Ramdas Pophale) SiO2 
 PCOD8021223
Probable space group: P -1
;
_chemical_formula_sum "Si O2"
_cell_formula_units_Z 12
_cell_length_a 14.567283
_cell_length_b 4.894930
_cell_length_c 11.210540
_cell_angle_alpha 95.462526
_cell_angle_beta 46.077274
_cell_angle_gamma 78.226165
_cell_volume 530.939475
_symmetry_space_group_name_H-M "P -1"
_symmetry_group_IT_number 2
_symmetry_cell_setting 'triclinic'
loop_
_space_group_symop_operation_xyz
x,y,z
-x,-y,-z
loop_
_atom_site_type_symbol
_atom_site_label
_atom_site_fract_x
_atom_site_fract_y
_atom_site_fract_z
Si Si1 0.231226 0.299303 0.175791
Si Si2 0.283589 0.741472 0.511693
Si Si3 0.027056 0.180237 0.211309
Si Si4 0.354991 0.219981 0.592147
Si Si5 0.648089 0.284906 0.816697
Si Si6 0.180509 0.498674 0.983586
O O1 0.233134 0.586978 0.256029
O O2 0.079653 0.282248 0.292984
O O3 0.328947 0.016580 0.147515
O O4 0.282380 0.322938 0.994162
O O5 0.375713 0.434110 0.480588
O O6 0.352937 0.765899 0.325594
O O7 0.272032 0.025899 0.611154
O O8 0.131875 0.748208 0.628857
O O9 0.117445 0.843015 0.085358
O O10 0.055556 0.375604 0.086145
O O11 0.266762 0.440118 0.783131
O O12 0.500000 0.000000 0.500000
O O13 0.500000 0.500000 0.000000
#
# Coordination Sequence:
#
# PCOD8021223 Si02
#       6
#     2   2   2   2   2   2
#     4  10  22  44  67  98 126 182 211 265 338 379
#     4  12  28  43  66 107 127 174 226 272 330 380
#     4  10  22  43  69 102 132 167 225 267 329 402
#     4  12  28  45  69  95 139 174 218 278 322 401
#     4  12  26  42  69  94 140 173 218 274 316 405
#     4  10  22  43  71  95 129 180 213 263 339 384
#
# _framework density 22.60145
#
# number of rings (size 3 to 8) (size 9 to 14) (size 15 to 20)
#    1.000    0.000    1.667    4.000    4.667    5.333 
#    0.000    0.000    0.000    0.000    0.000    0.000 
#    0.000    0.000    0.000    0.000    0.000    0.000 
#
# Total GULP energy -148708.357162 kJ/mol
# GULP energy per Si atom -12392.363097 kJ/mol
# Density = 2.255001 g / cm^3
# Si number density = 22.601450 Si / 1000 Ang^3
#
#
#
# Elastic Constant Matrix: (Units=GPa)
#
#
# Indices 1 2 3 4 5 6 
#
# 1 91.6877 33.2001 36.0210 -1.0990 15.7730 -6.3018
# 2 33.2001 130.7328 11.1838 -2.8300 14.1900 4.3756
# 3 36.0210 11.1838 80.3247 3.1285 6.9083 -5.3169
# 4 -1.0990 -2.8300 3.1285 21.8659 -0.6513 -3.0551
# 5 15.7730 14.1900 6.9083 -0.6513 23.4362 -2.2686
# 6 -6.3018 4.3756 -5.3169 -3.0551 -2.2686 35.2921
#
#
#
# Elastic Compliance Matrix: (Units=1/GPa)
#
#
# Indices 1 2 3 4 5 6 
#
# 1 0.015550 -0.002734 -0.005931 0.001338 -0.006841 0.001898
# 2 -0.002734 0.008800 0.000179 0.000624 -0.003692 -0.001736
# 3 -0.005931 0.000179 0.015291 -0.002343 -0.000595 0.000981
# 4 0.001338 0.000624 -0.002343 0.046798 0.001094 0.003930
# 5 -0.006841 -0.003692 -0.000595 0.001094 0.049952 0.002452
# 6 0.001898 -0.001736 0.000981 0.003930 0.002452 0.029535
#
#
# Mechanical properties :
#
#
# Convention : Reuss Voigt Hill
#
# Bulk Modulus (GPa) = 44.10919 51.50609 47.80764
# Shear Modulus (GPa) = 26.25307 30.94154 28.59731
#
# Velocity S-wave (km/s) = 3.41187 3.70402 3.56095
# Velocity P-wave (km/s) = 5.92281 6.41337 6.17296
#
# Compressibility (1/GPa) = 0.02267101
#
# Stress axis : x y z
#
# Youngs Moduli (GPa) = 64.30987 113.63091 65.39590
#
# Poissons Ratio (x) = 0.31062 0.38784
# Poissons Ratio (y) = 0.17580 -0.01170
# Poissons Ratio (z) = 0.38140 -0.02033
#
# Static dielectric constant tensor:
#      x y z
#    x 4.313470 0.076110 0.208810 
#    y 0.076110 4.337060 -0.245940 
#    z 0.208810 -0.245940 3.762390 
# 
# 
# High freq. dielectric constant tensor:
#      x y z
#    x 1.899780 0.004370 0.008330 
#    y 0.004370 1.915650 -0.012010 
#    z 0.008330 -0.012010 1.860180 
# 
# From -- ./inp_files/86653.got.cif
#   From: 2010.06.25/outbox.cif.g09.slc.cpg/sg2_44_cif.got.tgz:86653.got - 2010.06.27 13:26:56.
