data_PCOD8021990
_publ_section_title
;
Structure prediction by ZEFSAII (Michael W. Deem and Ramdas Pophale) SiO2 
 PCOD8021990
Probable space group: P -1
;
_chemical_formula_sum "Si O2"
_cell_formula_units_Z 12
_cell_length_a 17.700600
_cell_length_b 20.410489
_cell_length_c 11.348130
_cell_angle_alpha 23.034177
_cell_angle_beta 147.057847
_cell_angle_gamma 159.921761
_cell_volume 541.003581
_symmetry_space_group_name_H-M "P -1"
_symmetry_group_IT_number 2
_symmetry_cell_setting 'triclinic'
loop_
_space_group_symop_operation_xyz
x,y,z
-x,-y,-z
loop_
_atom_site_type_symbol
_atom_site_label
_atom_site_fract_x
_atom_site_fract_y
_atom_site_fract_z
Si Si1 0.534901 0.342219 0.351009
Si Si2 0.058413 0.724727 0.770002
Si Si3 0.808966 0.735436 0.263275
Si Si4 0.721776 0.843326 0.186796
Si Si5 0.726253 0.504183 0.880986
Si Si6 0.138687 0.460558 0.744769
O O1 0.652436 0.468031 0.423208
O O2 0.682744 0.374926 0.399609
O O3 0.317466 0.022269 0.618398
O O4 0.500000 0.500000 0.000000
O O5 0.929076 0.747636 0.500278
O O6 0.945716 0.615800 0.932548
O O7 0.000000 0.500000 0.000000
O O8 0.675081 0.742053 0.156355
O O9 0.000000 0.000000 0.000000
O O10 0.722681 0.701919 0.523716
O O11 0.509251 0.772515 0.035787
O O12 0.962918 0.149927 0.004223
O O13 0.727137 0.454704 0.100838
O O14 0.000000 0.500000 0.500000
#
# Coordination Sequence:
#
# PCOD8021990 Si02
#       6
#     2   2   2   2   2   2
#     4  12  24  45  74 101 133 185 235 278 331 415
#     4  11  27  43  67 100 138 179 222 283 345 399
#     4  11  21  42  71  98 129 175 237 277 324 407
#     4  10  22  44  71  97 130 186 229 278 335 409
#     4  10  24  44  67  95 136 182 226 274 340 419
#     4  12  27  41  68 106 141 173 224 290 352 397
#
# _framework density 22.181000000000001
#
# number of rings (size 3 to 8) (size 9 to 14) (size 15 to 20)
#    0.000    1.000    3.333    2.500    4.667    5.333 
#    0.000    0.000    0.000    0.000    0.000    0.000 
#    0.000    0.000    0.000    0.000    0.000    0.000 
#
# Total GULP energy -148664.406248 kJ/mol
# GULP energy per Si atom -12388.700521 kJ/mol
# Density = 2.213052 g / cm^3
# Si number density = 22.181000 Si / 1000 Ang^3
#
#
#
# Elastic Constant Matrix: (Units=GPa)
#
#
# Indices 1 2 3 4 5 6 
#
# 1 12.4324 -11.3358 -0.1421 28.3304 10.4010 2.6970
# 2 -11.3358 109.4948 10.8717 -2.8329 2.3029 1.5857
# 3 -0.1421 10.8717 39.8712 3.7649 6.5191 -2.2809
# 4 28.3304 -2.8329 3.7649 37.8120 -1.6415 -2.8920
# 5 10.4010 2.3029 6.5191 -1.6415 28.4563 2.6036
# 6 2.6970 1.5857 -2.2809 -2.8920 2.6036 45.0550
#
#
#
# Elastic Compliance Matrix: (Units=1/GPa)
#
#
# Indices 1 2 3 4 5 6 
#
# 1 -0.064965 -0.005302 -0.007920 0.050705 0.028430 0.005286
# 2 -0.005302 0.008997 -0.003320 0.005077 0.002261 0.000028
# 3 -0.007920 -0.003320 0.026265 0.003120 -0.002883 0.002287
# 4 0.050705 0.005077 0.003120 -0.012555 -0.020136 -0.002698
# 5 0.028430 0.002261 -0.002883 -0.020136 0.024490 -0.004635
# 6 0.005286 0.000028 0.002287 -0.002698 -0.004635 0.022088
#
#
# Mechanical properties :
#
#
# Convention : Reuss Voigt Hill
#
# Bulk Modulus (GPa) = -15.92720 17.84288 0.95784
# Shear Modulus (GPa) = 303.49475 33.09164 168.29319
#
# Velocity S-wave (km/s) = 11.70997 3.86669 8.71994
# Velocity P-wave (km/s) = 13.25274 5.29120 10.09039
#
# Compressibility (1/GPa) = -0.06278567
#
# Stress axis : x y z
#
# Youngs Moduli (GPa) = -15.39280 111.14887 38.07294
#
# Poissons Ratio (x) = 0.58932 0.30152
# Poissons Ratio (y) = -0.08161 0.12639
# Poissons Ratio (z) = -0.12191 0.36896
#
# Static dielectric constant tensor:
#      x y z
#    x 3.934810 0.028240 -0.319360 
#    y 0.028240 4.989170 0.085060 
#    z -0.319360 0.085060 3.815360 
# 
# 
# High freq. dielectric constant tensor:
#      x y z
#    x 1.886220 0.013630 -0.013860 
#    y 0.013630 1.892720 -0.002350 
#    z -0.013860 -0.002350 1.854890 
# 
# From -- ./inp_files/72502.got.cif
#   From: 2010.06.25/outbox.cif.g09.slc.cpg/sg2_37_cif.got.tgz:72502.got - 2010.06.27 13:26:56.
