data_PCOD8021626
_publ_section_title
;
Structure prediction by ZEFSAII (Michael W. Deem and Ramdas Pophale) SiO2 
 PCOD8021626
Probable space group: P -1
;
_chemical_formula_sum "Si O2"
_cell_formula_units_Z 14
_cell_length_a 11.651207
_cell_length_b 19.351535
_cell_length_c 9.897062
_cell_angle_alpha 28.121941
_cell_angle_beta 131.558863
_cell_angle_gamma 140.665446
_cell_volume 665.369274
_symmetry_space_group_name_H-M "P -1"
_symmetry_group_IT_number 2
_symmetry_cell_setting 'triclinic'
loop_
_space_group_symop_operation_xyz
x,y,z
-x,-y,-z
loop_
_atom_site_type_symbol
_atom_site_label
_atom_site_fract_x
_atom_site_fract_y
_atom_site_fract_z
Si Si1 0.766355 0.742878 0.787060
Si Si2 0.344786 0.528260 0.284339
Si Si3 0.173483 0.906004 0.878629
Si Si4 0.309858 0.852234 0.354782
Si Si5 0.044098 0.690937 0.670451
Si Si6 0.686430 0.181421 0.114606
Si Si7 0.584060 0.403399 0.077971
O O1 0.621277 0.656685 0.943186
O O2 0.956857 0.792816 0.912825
O O3 0.760575 0.901639 0.448005
O O4 0.717366 0.605976 0.865054
O O5 0.500000 0.500000 0.500000
O O6 0.156260 0.339148 0.448063
O O7 0.321336 0.646962 0.169606
O O8 0.400853 0.629360 0.011260
O O9 0.249516 0.822125 0.980542
O O10 0.253707 0.914800 0.072326
O O11 0.145963 0.769669 0.474473
O O12 0.354306 0.707467 0.597627
O O13 0.489073 0.014969 0.279521
O O14 0.166707 0.817590 0.669777
O O15 0.000000 0.500000 0.000000
#
# Coordination Sequence:
#
# PCOD8021626 Si02
#       7
#     2   2   2   2   2   2   2
#     4  10  25  44  66  97 139 176 213 283 332 388
#     4  11  26  43  69  99 133 176 225 277 335 392
#     4  11  25  43  69 100 135 175 225 270 334 394
#     4  12  24  41  69 103 129 177 228 266 331 399
#     4  10  22  44  65  95 132 176 218 269 334 395
#     4  11  23  44  69  96 135 178 216 275 330 400
#     4  11  23  44  67  96 137 174 224 274 332 392
#
# _framework density 21.040946999999999
#
# number of rings (size 3 to 8) (size 9 to 14) (size 15 to 20)
#    0.000    1.143    4.286    1.714    6.000    1.714 
#    0.000    0.714    0.000    0.000    0.000    0.000 
#    0.000    0.000    0.000    0.000    0.000    0.000 
#
# Total GULP energy -173618.824451 kJ/mol
# GULP energy per Si atom -12401.344604 kJ/mol
# Density = 2.099306 g / cm^3
# Si number density = 21.040947 Si / 1000 Ang^3
#
#
#
# Elastic Constant Matrix: (Units=GPa)
#
#
# Indices 1 2 3 4 5 6 
#
# 1 91.8573 64.3492 38.8194 6.0204 -6.1273 20.0170
# 2 64.3492 152.7422 64.1817 2.0557 -3.0616 24.2934
# 3 38.8194 64.1817 68.9877 4.4379 6.2099 6.5421
# 4 6.0204 2.0557 4.4379 30.1327 2.2017 2.3230
# 5 -6.1273 -3.0616 6.2099 2.2017 36.7783 1.8732
# 6 20.0170 24.2934 6.5421 2.3230 1.8732 40.3953
#
#
#
# Elastic Compliance Matrix: (Units=1/GPa)
#
#
# Indices 1 2 3 4 5 6 
#
# 1 0.017862 -0.004003 -0.006023 -0.002280 0.004077 -0.005526
# 2 -0.004003 0.013087 -0.009795 0.001534 0.002213 -0.004492
# 3 -0.006023 -0.009795 0.027255 -0.002040 -0.006547 0.004882
# 4 -0.002280 0.001534 -0.002040 0.034078 -0.001880 -0.001335
# 5 0.004077 0.002213 -0.006547 -0.001880 0.029452 -0.003549
# 6 -0.005526 -0.004492 0.004882 -0.001335 -0.003549 0.029646
#
#
# Mechanical properties :
#
#
# Convention : Reuss Voigt Hill
#
# Bulk Modulus (GPa) = 53.87425 72.03198 62.95312
# Shear Modulus (GPa) = 25.35374 31.21038 28.28206
#
# Velocity S-wave (km/s) = 3.47504 3.85556 3.67023
# Velocity P-wave (km/s) = 6.46229 7.35724 6.92424
#
# Compressibility (1/GPa) = 0.01856174
#
# Stress axis : x y z
#
# Youngs Moduli (GPa) = 55.98613 76.40973 36.69046
#
# Poissons Ratio (x) = 0.30585 0.22099
# Poissons Ratio (y) = 0.22410 0.35939
# Poissons Ratio (z) = 0.33721 0.74845
#
# Static dielectric constant tensor:
#      x y z
#    x 4.029190 0.367400 0.019790 
#    y 0.367400 4.199280 -0.085450 
#    z 0.019790 -0.085450 3.586590 
# 
# 
# High freq. dielectric constant tensor:
#      x y z
#    x 1.840380 0.015420 -0.004820 
#    y 0.015420 1.834760 -0.005490 
#    z -0.004820 -0.005490 1.804920 
# 
# From -- ./inp_files/150457.got.cif
#   From: 2010.06.25/outbox.cif.g09.slc.cpg/sg2_76_cif.got.tgz:150457.got - 2010.06.27 13:26:56.
