data_PCOD8021094
_publ_section_title
;
Structure prediction by ZEFSAII (Michael W. Deem and Ramdas Pophale) SiO2 
 PCOD8021094
Probable space group: P -1
;
_chemical_formula_sum "Si O2"
_cell_formula_units_Z 16
_cell_length_a 12.006424
_cell_length_b 8.709913
_cell_length_c 27.821545
_cell_angle_alpha 148.076080
_cell_angle_beta 28.814424
_cell_angle_gamma 136.248171
_cell_volume 738.912460
_symmetry_space_group_name_H-M "P -1"
_symmetry_group_IT_number 2
_symmetry_cell_setting 'triclinic'
loop_
_space_group_symop_operation_xyz
x,y,z
-x,-y,-z
loop_
_atom_site_type_symbol
_atom_site_label
_atom_site_fract_x
_atom_site_fract_y
_atom_site_fract_z
Si Si1 0.472629 0.668703 0.909349
Si Si2 0.123357 0.650748 0.270519
Si Si3 0.980120 0.268058 0.140748
Si Si4 0.467539 0.499144 0.758579
Si Si5 0.620792 0.863179 0.541140
Si Si6 0.214686 0.294015 0.382648
Si Si7 0.037257 0.389678 0.043904
Si Si8 0.486682 0.432525 0.405309
O O1 0.684262 0.449496 0.789805
O O2 0.471690 0.659634 0.850146
O O3 0.235158 0.565666 0.992822
O O4 0.500000 0.000000 0.000000
O O5 0.133402 0.405891 0.160259
O O6 0.872747 0.684765 0.399762
O O7 0.165586 0.959032 0.313314
O O8 0.089796 0.342682 0.067937
O O9 0.717369 0.408747 0.279750
O O10 0.981244 0.923007 0.057420
O O11 0.566441 0.703787 0.735200
O O12 0.207781 0.426260 0.823733
O O13 0.635553 0.202193 0.616336
O O14 0.466194 0.736007 0.523251
O O15 0.504251 0.827093 0.627711
O O16 0.271522 0.413477 0.445840
O O17 0.000000 0.500000 0.500000
#
# Coordination Sequence:
#
# PCOD8021094 Si02
#       8
#     2   2   2   2   2   2   2   2
#     4  12  29  46  69 103 137 180 225 285 341 395
#     4  11  25  44  68 100 140 176 223 283 343 401
#     4  10  22  43  70  98 128 183 232 273 340 397
#     4  12  25  44  66 100 137 179 231 271 343 402
#     4  10  23  42  70  98 131 180 217 285 333 417
#     4  12  25  41  67 104 142 177 219 284 342 405
#     4  11  24  44  70  94 133 181 231 284 323 408
#     4  10  22  43  67  97 132 174 230 270 346 403
#
# _framework density 21.653444
#
# number of rings (size 3 to 8) (size 9 to 14) (size 15 to 20)
#    0.000    1.000    2.500    3.375    5.250    6.000 
#    0.000    0.000    0.000    0.000    0.000    0.000 
#    0.000    0.000    0.000    0.000    0.000    0.000 
#
# Total GULP energy -198473.685598 kJ/mol
# GULP energy per Si atom -12404.605350 kJ/mol
# Density = 2.160416 g / cm^3
# Si number density = 21.653444 Si / 1000 Ang^3
#
#
#
# Elastic Constant Matrix: (Units=GPa)
#
#
# Indices 1 2 3 4 5 6 
#
# 1 102.4675 42.4161 38.9312 -7.7784 10.4633 8.8189
# 2 42.4161 138.0443 43.8937 3.6462 17.4539 0.6086
# 3 38.9312 43.8937 82.8000 -0.4939 5.3621 -0.1340
# 4 -7.7784 3.6462 -0.4939 27.9809 -5.7261 -5.4817
# 5 10.4633 17.4539 5.3621 -5.7261 40.5631 -4.4588
# 6 8.8189 0.6086 -0.1340 -5.4817 -4.4588 30.1312
#
#
#
# Elastic Compliance Matrix: (Units=1/GPa)
#
#
# Indices 1 2 3 4 5 6 
#
# 1 0.013299 -0.002375 -0.004869 0.002854 -0.001758 -0.003607
# 2 -0.002375 0.009711 -0.003821 -0.002822 -0.003520 -0.000552
# 3 -0.004869 -0.003821 0.016335 -0.000045 0.000921 0.001703
# 4 0.002854 -0.002822 -0.000045 0.039782 0.006922 0.007483
# 5 -0.001758 -0.003520 0.000921 0.006922 0.028137 0.006013
# 6 -0.003607 -0.000552 0.001703 0.007483 0.006013 0.036514
#
#
# Mechanical properties :
#
#
# Convention : Reuss Voigt Hill
#
# Bulk Modulus (GPa) = 58.08950 63.75489 60.92220
# Shear Modulus (GPa) = 29.12992 32.93976 31.03484
#
# Velocity S-wave (km/s) = 3.67178 3.90452 3.78994
# Velocity P-wave (km/s) = 6.69785 7.05934 6.88097
#
# Compressibility (1/GPa) = 0.01721481
#
# Stress axis : x y z
#
# Youngs Moduli (GPa) = 75.19426 102.97833 61.21928
#
# Poissons Ratio (x) = 0.24461 0.29805
# Poissons Ratio (y) = 0.17861 0.23391
# Poissons Ratio (z) = 0.36609 0.39346
#
# Static dielectric constant tensor:
#      x y z
#    x 3.966050 0.052340 0.080650 
#    y 0.052340 3.953560 -0.061230 
#    z 0.080650 -0.061230 3.941250 
# 
# 
# High freq. dielectric constant tensor:
#      x y z
#    x 1.858140 0.002050 0.008300 
#    y 0.002050 1.857800 -0.004320 
#    z 0.008300 -0.004320 1.851900 
# 
# From -- ./inp_files/462551.got.cif
#   From: 2010.06.25/outbox.cif.g09.slc.cpg/sg2_232_cif.got.tgz:462551.got - 2010.06.27 13:26:56.
