data_PCOD8021692
_publ_section_title
;
Structure prediction by ZEFSAII (Michael W. Deem and Ramdas Pophale) SiO2 
 PCOD8021692
Probable space group: P -1
;
_chemical_formula_sum "Si O2"
_cell_formula_units_Z 14
_cell_length_a 19.229007
_cell_length_b 14.400639
_cell_length_c 11.786291
_cell_angle_alpha 150.935761
_cell_angle_beta 148.525597
_cell_angle_gamma 23.273478
_cell_volume 604.901381
_symmetry_space_group_name_H-M "P -1"
_symmetry_group_IT_number 2
_symmetry_cell_setting 'triclinic'
loop_
_space_group_symop_operation_xyz
x,y,z
-x,-y,-z
loop_
_atom_site_type_symbol
_atom_site_label
_atom_site_fract_x
_atom_site_fract_y
_atom_site_fract_z
Si Si1 0.011504 0.758787 0.514293
Si Si2 0.099067 0.682656 0.293764
Si Si3 0.704699 0.227006 0.979331
Si Si4 0.669691 0.165683 0.613874
Si Si5 0.399995 0.671401 0.654198
Si Si6 0.394677 0.112450 0.162837
Si Si7 0.162636 0.223705 0.153589
O O1 0.011661 0.759374 0.378975
O O2 0.033661 0.519680 0.337727
O O3 0.821661 0.033128 0.585984
O O4 0.173686 0.722119 0.751734
O O5 0.191960 0.797392 0.516401
O O6 0.251342 0.368460 0.158479
O O7 0.943700 0.804932 0.114683
O O8 0.755094 0.126637 0.813043
O O9 0.748313 0.990301 0.854237
O O10 0.500000 0.500000 0.000000
O O11 0.586356 0.034310 0.349568
O O12 0.513846 0.478884 0.713792
O O13 0.500000 0.500000 0.500000
O O14 0.412127 0.886588 0.892501
O O15 0.327148 0.168254 0.257933
#
# Coordination Sequence:
#
# PCOD8021692 Si02
#       7
#     2   2   2   2   2   2   2
#     4  11  25  45  72  98 139 172 225 285 326 400
#     4  10  24  44  68 104 132 176 228 272 337 394
#     4  12  26  47  70  96 135 177 231 275 329 405
#     4  11  27  44  66 104 137 176 223 276 334 394
#     4  11  26  41  71 100 136 179 217 276 339 393
#     4  10  22  44  66  98 137 172 222 274 330 399
#     4  11  25  42  74  97 130 186 221 273 339 393
#
# _framework density 23.144271
#
# number of rings (size 3 to 8) (size 9 to 14) (size 15 to 20)
#    0.000    1.143    0.000    6.429    8.000    6.286 
#    0.000    0.000    0.000    0.000    0.000    0.000 
#    0.000    0.000    0.000    0.000    0.000    0.000 
#
# Total GULP energy -173645.358631 kJ/mol
# GULP energy per Si atom -12403.239902 kJ/mol
# Density = 2.309159 g / cm^3
# Si number density = 23.144271 Si / 1000 Ang^3
#
#
#
# Elastic Constant Matrix: (Units=GPa)
#
#
# Indices 1 2 3 4 5 6 
#
# 1 62.7021 16.2127 0.1536 -5.4855 3.1615 1.0717
# 2 16.2127 87.8109 17.9337 4.8455 17.4612 15.4772
# 3 0.1536 17.9337 72.7578 15.4676 26.4062 8.2064
# 4 -5.4855 4.8455 15.4676 47.7743 0.4415 8.4081
# 5 3.1615 17.4612 26.4062 0.4415 33.2514 2.5645
# 6 1.0717 15.4772 8.2064 8.4081 2.5645 49.0341
#
#
#
# Elastic Compliance Matrix: (Units=1/GPa)
#
#
# Indices 1 2 3 4 5 6 
#
# 1 0.017003 -0.003338 0.000385 0.002121 -0.000218 0.000265
# 2 -0.003338 0.014098 -0.000541 -0.000911 -0.006351 -0.003798
# 3 0.000385 -0.000541 0.021419 -0.006427 -0.016565 -0.001454
# 4 0.002121 -0.000911 -0.006427 0.023836 0.005299 -0.003048
# 5 -0.000218 -0.006351 -0.016565 0.005299 0.046403 0.001446
# 6 0.000265 -0.003798 -0.001454 -0.003048 0.001446 0.022277
#
#
# Mechanical properties :
#
#
# Convention : Reuss Voigt Hill
#
# Bulk Modulus (GPa) = 21.96294 32.43009 27.19651
# Shear Modulus (GPa) = 29.90435 38.61001 34.25718
#
# Velocity S-wave (km/s) = 3.59846 4.08883 3.85146
# Velocity P-wave (km/s) = 5.17449 6.02776 5.61735
#
# Compressibility (1/GPa) = 0.04553124
#
# Stress axis : x y z
#
# Youngs Moduli (GPa) = 58.81403 70.93453 46.68788
#
# Poissons Ratio (x) = 0.23681 -0.01798
# Poissons Ratio (y) = 0.19634 0.02524
# Poissons Ratio (z) = -0.02265 0.03835
#
# Static dielectric constant tensor:
#      x y z
#    x 4.236320 0.127670 0.165160 
#    y 0.127670 4.608350 0.214440 
#    z 0.165160 0.214440 4.296500 
# 
# 
# High freq. dielectric constant tensor:
#      x y z
#    x 1.912230 0.001790 0.008470 
#    y 0.001790 1.932350 0.010780 
#    z 0.008470 0.010780 1.922220 
# 
# From -- ./inp_files/472016.got.cif
#   From: 2010.06.25/outbox.cif.g09.slc.cpg/sg2_237_cif.got.tgz:472016.got - 2010.06.27 13:26:56.
