data_PCOD8021795
_publ_section_title
;
Structure prediction by ZEFSAII (Michael W. Deem and Ramdas Pophale) SiO2 
 PCOD8021795
Probable space group: P -1
;
_chemical_formula_sum "Si O2"
_cell_formula_units_Z 14
_cell_length_a 7.667979
_cell_length_b 19.279554
_cell_length_c 11.768415
_cell_angle_alpha 32.641072
_cell_angle_beta 68.707963
_cell_angle_gamma 45.775362
_cell_volume 547.783329
_symmetry_space_group_name_H-M "P -1"
_symmetry_group_IT_number 2
_symmetry_cell_setting 'triclinic'
loop_
_space_group_symop_operation_xyz
x,y,z
-x,-y,-z
loop_
_atom_site_type_symbol
_atom_site_label
_atom_site_fract_x
_atom_site_fract_y
_atom_site_fract_z
Si Si1 0.659076 0.269977 0.122667
Si Si2 0.317733 0.209245 0.376015
Si Si3 0.782196 0.638399 0.581301
Si Si4 0.102740 0.647277 0.346685
Si Si5 0.106318 0.979521 0.221695
Si Si6 0.919412 0.755828 0.840513
Si Si7 0.353746 0.616209 0.555147
O O1 0.474560 0.261459 0.243086
O O2 0.880290 0.222469 0.225770
O O3 0.420237 0.497667 0.814610
O O4 0.851550 0.102309 0.207349
O O5 0.140327 0.312055 0.395707
O O6 0.072677 0.303828 0.207578
O O7 0.573107 0.964557 0.664217
O O8 0.429889 0.803352 0.445956
O O9 0.866051 0.661157 0.410539
O O10 0.961813 0.409402 0.867492
O O11 0.276941 0.567566 0.534537
O O12 0.332144 0.481145 0.422086
O O13 0.934889 0.868432 0.049497
O O14 0.097457 0.859281 0.307062
#
# Coordination Sequence:
#
# PCOD8021795 Si02
#       7
#     2   2   2   2   2   2   2
#     4  11  23  45  67  97 136 167 219 268 319 395
#     4  11  26  43  66  98 133 173 216 269 323 384
#     4  12  24  42  64  98 130 170 218 264 326 388
#     4  10  24  42  66  96 131 166 220 271 317 396
#     4  11  23  41  67  97 127 173 214 264 333 380
#     4  11  24  43  65  96 132 173 218 264 325 383
#     4  10  22  44  68  95 127 173 214 268 334 375
#
# _framework density 25.557549000000002
#
# number of rings (size 3 to 8) (size 9 to 14) (size 15 to 20)
#    0.000    1.143    2.857    2.571    0.000    5.714 
#    0.000    0.000    0.000    0.000    0.000    0.000 
#    0.000    0.000    0.000    0.000    0.000    0.000 
#
# Total GULP energy -173640.329419 kJ/mol
# GULP energy per Si atom -12402.880673 kJ/mol
# Density = 2.549938 g / cm^3
# Si number density = 25.557549 Si / 1000 Ang^3
#
#
#
# Elastic Constant Matrix: (Units=GPa)
#
#
# Indices 1 2 3 4 5 6 
#
# 1 67.0069 -1.4433 -0.8098 1.1393 5.0005 11.5116
# 2 -1.4433 88.3521 29.8092 7.2689 -21.0464 -17.8698
# 3 -0.8098 29.8092 122.3120 -7.8329 3.4153 -14.5435
# 4 1.1393 7.2689 -7.8329 31.3733 8.0203 1.2597
# 5 5.0005 -21.0464 3.4153 8.0203 34.6396 -0.6087
# 6 11.5116 -17.8698 -14.5435 1.2597 -0.6087 20.2976
#
#
#
# Elastic Compliance Matrix: (Units=1/GPa)
#
#
# Indices 1 2 3 4 5 6 
#
# 1 0.017634 -0.004005 -0.000272 0.002245 -0.005719 -0.014033
# 2 -0.004005 0.021523 -0.004137 -0.010988 0.016949 0.019447
# 3 -0.000272 -0.004137 0.009978 0.004463 -0.004434 0.003252
# 4 0.002245 -0.010988 0.004463 0.040215 -0.016940 -0.010753
# 5 -0.005719 0.016949 -0.004434 -0.016940 0.044657 0.017378
# 6 -0.014033 0.019447 0.003252 -0.010753 0.017378 0.077865
#
#
# Mechanical properties :
#
#
# Convention : Reuss Voigt Hill
#
# Bulk Modulus (GPa) = 30.95302 36.97590 33.96446
# Shear Modulus (GPa) = 20.87953 33.93643 27.40798
#
# Velocity S-wave (km/s) = 2.86135 3.64791 3.27831
# Velocity P-wave (km/s) = 4.80144 5.67822 5.25814
#
# Compressibility (1/GPa) = 0.03230702
#
# Stress axis : x y z
#
# Youngs Moduli (GPa) = 56.70970 46.46162 100.21573
#
# Poissons Ratio (x) = 0.18609 0.02728
# Poissons Ratio (y) = 0.22714 0.41456
# Poissons Ratio (z) = 0.01544 0.19220
#
# Static dielectric constant tensor:
#      x y z
#    x 4.590730 0.115400 0.059900 
#    y 0.115400 4.716140 -0.145470 
#    z 0.059900 -0.145470 4.600900 
# 
# 
# High freq. dielectric constant tensor:
#      x y z
#    x 2.018950 0.004380 0.004350 
#    y 0.004380 2.024740 -0.004630 
#    z 0.004350 -0.004630 2.028490 
# 
# From -- ./inp_files/272948.got.cif
#   From: 2010.06.25/outbox.cif.g09.slc.cpg/sg2_137_cif.got.tgz:272948.got - 2010.06.27 13:26:56.
