data_PCOD8021459
_publ_section_title
;
Structure prediction by ZEFSAII (Michael W. Deem and Ramdas Pophale) SiO2 
 PCOD8021459
Probable space group: P -1
;
_chemical_formula_sum "Si O2"
_cell_formula_units_Z 14
_cell_length_a 14.912923
_cell_length_b 12.395638
_cell_length_c 8.529313
_cell_angle_alpha 51.861478
_cell_angle_beta 61.396686
_cell_angle_gamma 28.957048
_cell_volume 592.485552
_symmetry_space_group_name_H-M "P -1"
_symmetry_group_IT_number 2
_symmetry_cell_setting 'triclinic'
loop_
_space_group_symop_operation_xyz
x,y,z
-x,-y,-z
loop_
_atom_site_type_symbol
_atom_site_label
_atom_site_fract_x
_atom_site_fract_y
_atom_site_fract_z
Si Si1 0.491803 0.790976 0.734153
Si Si2 0.221346 0.299386 0.911380
Si Si3 0.895304 0.260091 0.833419
Si Si4 0.176392 0.068769 0.977269
Si Si5 0.426817 0.039978 0.277806
Si Si6 0.964350 0.233734 0.449616
Si Si7 0.722858 0.253186 0.556032
O O1 0.672093 0.489589 0.832043
O O2 0.564729 0.835276 0.735911
O O3 0.328649 0.895652 0.865925
O O4 0.414134 0.924660 0.508705
O O5 0.172990 0.211436 0.949180
O O6 0.050856 0.599819 0.769708
O O7 0.392589 0.179911 0.787096
O O8 0.252545 0.239928 0.124148
O O9 0.942150 0.276947 0.613963
O O10 0.971259 0.279741 0.884012
O O11 0.000000 0.000000 0.000000
O O12 0.223450 0.883808 0.206897
O O13 0.799130 0.322302 0.439566
O O14 0.171158 0.940622 0.502990
O O15 0.500000 0.500000 0.500000
#
# Coordination Sequence:
#
# PCOD8021459 Si02
#       7
#     2   2   2   2   2   2   2
#     4  10  23  44  71 101 143 183 228 285 354 407
#     4  10  22  43  73 105 139 181 239 288 351 407
#     4  12  26  46  68  98 145 184 229 284 350 418
#     4  11  27  45  70 107 135 185 239 286 344 423
#     4   9  20  41  70 103 143 183 220 295 354 404
#     4  11  26  49  72 101 145 187 226 296 350 409
#     4  11  28  47  71 104 141 184 241 283 347 423
#
# _framework density 23.629266999999999
#
# number of rings (size 3 to 8) (size 9 to 14) (size 15 to 20)
#    0.000    1.429    2.857    0.000   10.000    4.000 
#    0.000    0.000    0.000    0.000    0.000    0.000 
#    0.000    0.000    0.000    0.000    0.000    0.000 
#
# Total GULP energy -173626.593678 kJ/mol
# GULP energy per Si atom -12401.899548 kJ/mol
# Density = 2.357549 g / cm^3
# Si number density = 23.629267 Si / 1000 Ang^3
#
#
#
# Elastic Constant Matrix: (Units=GPa)
#
#
# Indices 1 2 3 4 5 6 
#
# 1 78.4480 26.0549 37.0297 -5.8876 21.5851 4.7801
# 2 26.0549 97.6089 45.4653 -5.8720 -6.5503 -8.8152
# 3 37.0297 45.4653 126.3205 -3.2191 23.5217 5.8177
# 4 -5.8876 -5.8720 -3.2191 44.6614 2.1956 -4.2012
# 5 21.5851 -6.5503 23.5217 2.1956 28.8681 4.7994
# 6 4.7801 -8.8152 5.8177 -4.2012 4.7994 32.8295
#
#
#
# Elastic Compliance Matrix: (Units=1/GPa)
#
#
# Indices 1 2 3 4 5 6 
#
# 1 0.019523 -0.006011 -0.000552 0.002330 -0.015388 -0.001811
# 2 -0.006011 0.016280 -0.006679 0.000674 0.012807 0.004644
# 3 -0.000552 -0.006679 0.012653 0.000288 -0.011052 -0.002303
# 4 0.002330 0.000674 0.000288 0.023330 -0.004161 0.003385
# 5 -0.015388 0.012807 -0.011052 -0.004161 0.058617 -0.001464
# 6 -0.001811 0.004644 -0.002303 0.003385 -0.001464 0.033026
#
#
# Mechanical properties :
#
#
# Convention : Reuss Voigt Hill
#
# Bulk Modulus (GPa) = 45.50773 57.71970 51.61371
# Shear Modulus (GPa) = 25.35031 34.19365 29.77198
#
# Velocity S-wave (km/s) = 3.27897 3.80819 3.55345
# Velocity P-wave (km/s) = 5.79969 6.61941 6.22306
#
# Compressibility (1/GPa) = 0.02197429
#
# Stress axis : x y z
#
# Youngs Moduli (GPa) = 51.22104 61.42627 79.03108
#
# Poissons Ratio (x) = 0.36920 0.04359
# Poissons Ratio (y) = 0.30786 0.52784
# Poissons Ratio (z) = 0.02825 0.41026
#
# Static dielectric constant tensor:
#      x y z
#    x 4.128760 -0.011230 0.166820 
#    y -0.011230 4.358930 0.136950 
#    z 0.166820 0.136950 4.398490 
# 
# 
# High freq. dielectric constant tensor:
#      x y z
#    x 1.931150 0.003590 0.005310 
#    y 0.003590 1.946970 0.008590 
#    z 0.005310 0.008590 1.944110 
# 
# From -- ./inp_files/306466.got.cif
#   From: 2010.06.25/outbox.cif.g09.slc.cpg/sg2_154_cif.got.tgz:306466.got - 2010.06.27 13:26:56.
