data_PCOD8021214
_publ_section_title
;
Structure prediction by ZEFSAII (Michael W. Deem and Ramdas Pophale) SiO2 
 PCOD8021214
Probable space group: P -1
;
_chemical_formula_sum "Si O2"
_cell_formula_units_Z 16
_cell_length_a 11.583246
_cell_length_b 14.456100
_cell_length_c 9.353713
_cell_angle_alpha 47.685135
_cell_angle_beta 115.042838
_cell_angle_gamma 77.507032
_cell_volume 696.126056
_symmetry_space_group_name_H-M "P -1"
_symmetry_group_IT_number 2
_symmetry_cell_setting 'triclinic'
loop_
_space_group_symop_operation_xyz
x,y,z
-x,-y,-z
loop_
_atom_site_type_symbol
_atom_site_label
_atom_site_fract_x
_atom_site_fract_y
_atom_site_fract_z
Si Si1 0.934090 0.290551 0.826061
Si Si2 0.881063 0.184110 0.651486
Si Si3 0.663217 0.117868 0.513681
Si Si4 0.685531 0.595947 0.771140
Si Si5 0.736023 0.674816 0.411135
Si Si6 0.937271 0.759100 0.520454
Si Si7 0.356720 0.891999 0.813938
Si Si8 0.676888 0.361096 0.842545
O O1 0.810870 0.339806 0.568302
O O2 0.896250 0.464373 0.649448
O O3 0.868714 0.257642 0.963593
O O4 0.159614 0.099948 0.117857
O O5 0.712760 0.230017 0.437745
O O6 0.009833 0.155892 0.628577
O O7 0.000000 0.000000 0.000000
O O8 0.483346 0.220939 0.412998
O O9 0.602876 0.127122 0.312404
O O10 0.700314 0.670990 0.562103
O O11 0.641830 0.483933 0.824907
O O12 0.880844 0.455442 0.110633
O O13 0.810969 0.761634 0.349422
O O14 0.540730 0.803082 0.089178
O O15 0.820189 0.889059 0.463419
O O16 0.297603 0.794596 0.920944
O O17 0.500000 0.500000 0.500000
#
# Coordination Sequence:
#
# PCOD8021214 Si02
#       8
#     2   2   2   2   2   2   2   2
#     4  10  22  43  69 100 137 182 224 278 346 406
#     4  10  23  42  73 101 138 172 223 287 351 396
#     4  11  25  42  70 108 135 171 230 291 348 392
#     4  11  25  44  72 101 140 181 225 286 337 410
#     4  11  26  47  71  95 140 191 229 272 338 413
#     4  12  27  46  69 100 138 185 236 276 335 411
#     4  12  24  43  69 102 137 177 231 285 341 405
#     4  11  20  39  71 100 134 174 227 278 346 400
#
# _framework density 22.984342000000002
#
# number of rings (size 3 to 8) (size 9 to 14) (size 15 to 20)
#    0.000    1.000    2.500    5.250    5.250    3.000 
#    0.000    1.250    0.000    0.000    0.000    0.000 
#    0.000    0.000    0.000    0.000    0.000    0.000 
#
# Total GULP energy -198441.716154 kJ/mol
# GULP energy per Si atom -12402.607260 kJ/mol
# Density = 2.293203 g / cm^3
# Si number density = 22.984342 Si / 1000 Ang^3
#
#
#
# Elastic Constant Matrix: (Units=GPa)
#
#
# Indices 1 2 3 4 5 6 
#
# 1 62.1738 29.1642 26.8050 -1.5417 7.7643 2.4699
# 2 29.1642 128.6783 27.1538 -6.9482 4.1274 -23.5663
# 3 26.8050 27.1538 89.1329 -4.2158 12.6120 -19.1059
# 4 -1.5417 -6.9482 -4.2158 45.1344 -6.8487 6.0643
# 5 7.7643 4.1274 12.6120 -6.8487 21.3262 -6.0702
# 6 2.4699 -23.5663 -19.1059 6.0643 -6.0702 35.5099
#
#
#
# Elastic Compliance Matrix: (Units=1/GPa)
#
#
# Indices 1 2 3 4 5 6 
#
# 1 0.022434 -0.005310 -0.006297 -0.000308 -0.006214 -0.009482
# 2 -0.005310 0.010348 -0.000285 0.000765 0.002443 0.007370
# 3 -0.006297 -0.000285 0.015541 -0.000594 -0.004787 0.007894
# 4 -0.000308 0.000765 -0.000594 0.023645 0.007168 -0.002603
# 5 -0.006214 0.002443 -0.004787 0.007168 0.056043 0.007834
# 6 -0.009482 0.007370 0.007894 -0.002603 0.007834 0.039743
#
#
# Mechanical properties :
#
#
# Convention : Reuss Voigt Hill
#
# Bulk Modulus (GPa) = 40.75079 49.58123 45.16601
# Shear Modulus (GPa) = 25.03536 33.51824 29.27680
#
# Velocity S-wave (km/s) = 3.30394 3.82292 3.57287
# Velocity P-wave (km/s) = 5.68533 6.41131 6.05920
#
# Compressibility (1/GPa) = 0.02453940
#
# Stress axis : x y z
#
# Youngs Moduli (GPa) = 44.57434 96.64035 64.34577
#
# Poissons Ratio (x) = 0.51313 0.40518
# Poissons Ratio (y) = 0.23668 0.01835
# Poissons Ratio (z) = 0.28068 0.02756
#
# Static dielectric constant tensor:
#      x y z
#    x 4.365030 -0.010120 0.139390 
#    y -0.010120 4.715070 0.071830 
#    z 0.139390 0.071830 3.971510 
# 
# 
# High freq. dielectric constant tensor:
#      x y z
#    x 1.892900 0.002270 0.006890 
#    y 0.002270 1.929370 0.002850 
#    z 0.006890 0.002850 1.899500 
# 
# From -- ./inp_files/245680.got.cif
#   From: 2010.06.25/outbox.cif.g09.slc.cpg/sg2_123_cif.got.tgz:245680.got - 2010.06.27 13:26:56.
