data_PCOD8021899
_publ_section_title
;
Structure prediction by ZEFSAII (Michael W. Deem and Ramdas Pophale) SiO2 
 PCOD8021899
Probable space group: P -1
;
_chemical_formula_sum "Si O2"
_cell_formula_units_Z 14
_cell_length_a 15.029386
_cell_length_b 7.502526
_cell_length_c 8.404148
_cell_angle_alpha 127.355498
_cell_angle_beta 86.241182
_cell_angle_gamma 61.341640
_cell_volume 568.101302
_symmetry_space_group_name_H-M "P -1"
_symmetry_group_IT_number 2
_symmetry_cell_setting 'triclinic'
loop_
_space_group_symop_operation_xyz
x,y,z
-x,-y,-z
loop_
_atom_site_type_symbol
_atom_site_label
_atom_site_fract_x
_atom_site_fract_y
_atom_site_fract_z
Si Si1 0.901818 0.126941 0.451013
Si Si2 0.173662 0.388437 0.539278
Si Si3 0.322429 0.376475 0.103671
Si Si4 0.520934 0.488592 0.805665
Si Si5 0.039510 0.175652 0.022129
Si Si6 0.630974 0.867142 0.381375
Si Si7 0.728935 0.016016 0.957466
O O1 0.880136 0.369372 0.463408
O O2 0.784002 0.279344 0.650138
O O3 0.947251 0.846232 0.182988
O O4 0.000000 0.000000 0.500000
O O5 0.274511 0.350916 0.610063
O O6 0.229985 0.074384 0.281124
O O7 0.065342 0.486944 0.721709
O O8 0.438501 0.319343 0.119106
O O9 0.304786 0.176282 0.088087
O O10 0.321294 0.323345 0.887715
O O11 0.616850 0.162049 0.539429
O O12 0.500000 0.500000 0.000000
O O13 0.392896 0.645548 0.826683
O O14 0.168734 0.033133 0.985665
O O15 0.000000 0.000000 0.000000
O O16 0.500000 0.000000 0.500000
#
# Coordination Sequence:
#
# PCOD8021899 Si02
#       7
#     2   2   2   2   2   2   2
#     4  10  23  44  69 101 141 183 232 295 352 416
#     4  10  22  44  70 102 140 182 236 286 348 423
#     4  11  26  47  68 105 146 184 235 299 350 416
#     4  12  25  44  72 105 142 189 242 285 350 428
#     4  10  23  42  72 104 135 187 237 286 352 423
#     4  12  25  44  74 106 142 190 235 289 352 427
#     4  11  24  46  70 105 146 186 231 300 356 410
#
# _framework density 24.643492999999999
#
# number of rings (size 3 to 8) (size 9 to 14) (size 15 to 20)
#    0.000    1.143    2.857    1.714    6.000    4.000 
#    5.143    3.571    0.000    0.000    0.000    0.000 
#    0.000    0.000    0.000    0.000    0.000    0.000 
#
# Total GULP energy -173446.685291 kJ/mol
# GULP energy per Si atom -12389.048949 kJ/mol
# Density = 2.458740 g / cm^3
# Si number density = 24.643493 Si / 1000 Ang^3
#
#
#
# Elastic Constant Matrix: (Units=GPa)
#
#
# Indices 1 2 3 4 5 6 
#
# 1 159.8078 53.3416 44.4779 -2.9615 -4.9925 -34.5839
# 2 53.3416 86.4382 45.7886 -3.7221 -9.0817 -40.7087
# 3 44.4779 45.7886 200.4759 -25.2149 -14.5673 -22.6891
# 4 -2.9615 -3.7221 -25.2149 31.8552 -8.6663 4.5279
# 5 -4.9925 -9.0817 -14.5673 -8.6663 38.2875 2.5484
# 6 -34.5839 -40.7087 -22.6891 4.5279 2.5484 52.0711
#
#
#
# Elastic Compliance Matrix: (Units=1/GPa)
#
#
# Indices 1 2 3 4 5 6 
#
# 1 0.008166 -0.003548 -0.000866 -0.000798 -0.000444 0.002363
# 2 -0.003548 0.021680 -0.002592 -0.001061 0.002560 0.013430
# 3 -0.000866 -0.002592 0.006696 0.005826 0.003161 -0.000346
# 4 -0.000798 -0.001061 0.005826 0.039166 0.010910 -0.002761
# 5 -0.000444 0.002560 0.003161 0.010910 0.030296 0.000652
# 6 0.002363 0.013430 -0.000346 -0.002761 0.000652 0.031331
#
#
# Mechanical properties :
#
#
# Convention : Reuss Voigt Hill
#
# Bulk Modulus (GPa) = 44.38949 81.54865 62.96907
# Shear Modulus (GPa) = 31.47484 44.65034 38.06259
#
# Velocity S-wave (km/s) = 3.57768 4.26120 3.93431
# Velocity P-wave (km/s) = 5.92606 7.57454 6.80043
#
# Compressibility (1/GPa) = 0.02252785
#
# Stress axis : x y z
#
# Youngs Moduli (GPa) = 122.46258 46.12566 149.34942
#
# Poissons Ratio (x) = 0.16367 0.12941
# Poissons Ratio (y) = 0.43454 0.38710
# Poissons Ratio (z) = 0.10611 0.11955
#
# Static dielectric constant tensor:
#      x y z
#    x 9.802570 -2.514150 -5.471070 
#    y -2.514150 5.314210 2.538850 
#    z -5.471070 2.538850 11.490060 
# 
# 
# High freq. dielectric constant tensor:
#      x y z
#    x 1.979260 -0.019900 -0.007940 
#    y -0.019900 1.958970 0.003940 
#    z -0.007940 0.003940 2.011870 
# 
# From -- ./inp_files/296765.got.cif
#   From: 2010.06.25/outbox.cif.g09.slc.cpg/sg2_149_cif.got.tgz:296765.got - 2010.06.27 13:26:56.
