data_PCOD8021160
_publ_section_title
;
Structure prediction by ZEFSAII (Michael W. Deem and Ramdas Pophale) SiO2 
 PCOD8021160
Probable space group: P -1
;
_chemical_formula_sum "Si O2"
_cell_formula_units_Z 16
_cell_length_a 13.506205
_cell_length_b 8.020086
_cell_length_c 10.977550
_cell_angle_alpha 45.980253
_cell_angle_beta 121.638564
_cell_angle_gamma 100.815567
_cell_volume 696.951704
_symmetry_space_group_name_H-M "P -1"
_symmetry_group_IT_number 2
_symmetry_cell_setting 'triclinic'
loop_
_space_group_symop_operation_xyz
x,y,z
-x,-y,-z
loop_
_atom_site_type_symbol
_atom_site_label
_atom_site_fract_x
_atom_site_fract_y
_atom_site_fract_z
Si Si1 0.699153 0.989201 0.975057
Si Si2 0.007423 0.225794 0.137159
Si Si3 0.548284 0.732729 0.389761
Si Si4 0.817300 0.074145 0.763046
Si Si5 0.364241 0.144433 0.370686
Si Si6 0.254195 0.680477 0.973943
Si Si7 0.236638 0.372255 0.592968
Si Si8 0.128711 0.039350 0.538378
O O1 0.566299 0.023840 0.812221
O O2 0.790516 0.031084 0.908804
O O3 0.753122 0.730537 0.208798
O O4 0.664614 0.206776 0.943079
O O5 0.124084 0.091300 0.365467
O O6 0.877181 0.208328 0.102038
O O7 0.049106 0.109207 0.090289
O O8 0.000000 0.500000 0.000000
O O9 0.500000 0.500000 0.500000
O O10 0.640108 0.775278 0.531572
O O11 0.626694 0.696403 0.336317
O O12 0.822454 0.341754 0.598962
O O13 0.715679 0.026918 0.631765
O O14 0.500000 0.000000 0.500000
O O15 0.309447 0.395948 0.133400
O O16 0.237999 0.799772 0.767710
O O17 0.145255 0.263914 0.512762
O O18 0.000000 0.000000 0.500000
#
# Coordination Sequence:
#
# PCOD8021160 Si02
#       8
#     2   2   2   2   2   2   2   2
#     4  11  24  44  66  99 137 185 230 282 345 408
#     4  11  23  42  68  96 130 181 230 278 349 413
#     4  12  21  42  72  96 140 184 230 280 342 417
#     4  12  25  42  66 103 140 175 231 292 340 413
#     4  12  22  39  69 100 137 180 225 283 346 403
#     4  10  22  43  68  94 133 185 233 280 346 414
#     4  11  24  44  71 100 139 182 232 283 350 415
#     4   9  22  46  71  96 133 183 233 288 341 413
#
# _framework density 22.957115999999999
#
# number of rings (size 3 to 8) (size 9 to 14) (size 15 to 20)
#    0.000    1.000    5.000    1.125    1.750    1.500 
#    2.250    3.750    0.000    0.000    0.000    0.000 
#    0.000    0.000    0.000    0.000    0.000    0.000 
#
# Total GULP energy -198282.913476 kJ/mol
# GULP energy per Si atom -12392.682092 kJ/mol
# Density = 2.290486 g / cm^3
# Si number density = 22.957116 Si / 1000 Ang^3
#
#
#
# Elastic Constant Matrix: (Units=GPa)
#
#
# Indices 1 2 3 4 5 6 
#
# 1 78.1904 21.7706 42.5816 -16.7669 0.2824 -4.5311
# 2 21.7706 83.1363 39.8149 -16.9770 -9.5457 11.4347
# 3 42.5816 39.8149 146.1011 -17.9892 -15.0564 -13.8005
# 4 -16.7669 -16.9770 -17.9892 42.7044 -3.4635 3.6207
# 5 0.2824 -9.5457 -15.0564 -3.4635 36.3571 -4.3988
# 6 -4.5311 11.4347 -13.8005 3.6207 -4.3988 38.7955
#
#
#
# Elastic Compliance Matrix: (Units=1/GPa)
#
#
# Indices 1 2 3 4 5 6 
#
# 1 0.016296 -0.001901 -0.003901 0.003808 -0.001816 0.000514
# 2 -0.001901 0.016514 -0.003692 0.005025 0.002503 -0.006588
# 3 -0.003901 -0.003692 0.009945 0.001119 0.003831 0.004500
# 4 0.003808 0.005025 0.001119 0.027948 0.004079 -0.002784
# 5 -0.001816 0.002503 0.003831 0.004079 0.030575 0.003499
# 6 0.000514 -0.006588 0.004500 -0.002784 0.003499 0.030035
#
#
# Mechanical properties :
#
#
# Convention : Reuss Voigt Hill
#
# Bulk Modulus (GPa) = 42.07372 57.30690 49.69031
# Shear Modulus (GPa) = 31.60083 37.12212 34.36147
#
# Velocity S-wave (km/s) = 3.71417 4.02558 3.87301
# Velocity P-wave (km/s) = 6.06302 6.82817 6.45694
#
# Compressibility (1/GPa) = 0.02376781
#
# Stress axis : x y z
#
# Youngs Moduli (GPa) = 61.36443 60.55471 100.54933
#
# Poissons Ratio (x) = 0.11509 0.39227
# Poissons Ratio (y) = 0.11663 0.37122
# Poissons Ratio (z) = 0.23940 0.22356
#
# Static dielectric constant tensor:
#      x y z
#    x 3.163850 -0.417130 -0.723260 
#    y -0.417130 4.019300 0.071110 
#    z -0.723260 0.071110 4.264920 
# 
# 
# High freq. dielectric constant tensor:
#      x y z
#    x 1.898970 0.013200 -0.000990 
#    y 0.013200 1.904460 0.011700 
#    z -0.000990 0.011700 1.917420 
# 
# From -- ./inp_files/446678.got.cif
#   From: 2010.06.25/outbox.cif.g09.slc.cpg/sg2_224_cif.got.tgz:446678.got - 2010.06.27 13:26:56.
