data_PCOD8021653
_publ_section_title
;
Structure prediction by ZEFSAII (Michael W. Deem and Ramdas Pophale) SiO2 
 PCOD8021653
Probable space group: P -1
;
_chemical_formula_sum "Si O2"
_cell_formula_units_Z 14
_cell_length_a 7.496406
_cell_length_b 16.372418
_cell_length_c 10.611099
_cell_angle_alpha 35.390919
_cell_angle_beta 135.389816
_cell_angle_gamma 122.611674
_cell_volume 526.945674
_symmetry_space_group_name_H-M "P -1"
_symmetry_group_IT_number 2
_symmetry_cell_setting 'triclinic'
loop_
_space_group_symop_operation_xyz
x,y,z
-x,-y,-z
loop_
_atom_site_type_symbol
_atom_site_label
_atom_site_fract_x
_atom_site_fract_y
_atom_site_fract_z
Si Si1 0.877952 0.904785 0.796841
Si Si2 0.243594 0.681131 0.553673
Si Si3 0.449784 0.918068 0.763812
Si Si4 0.796784 0.877565 0.215237
Si Si5 0.516074 0.336791 0.560916
Si Si6 0.802412 0.626479 0.003539
Si Si7 0.267587 0.634007 0.087543
O O1 0.680814 0.947117 0.753877
O O2 0.925800 0.735253 0.023753
O O3 0.776824 0.961673 0.536411
O O4 0.131961 0.980646 0.857759
O O5 0.287374 0.717334 0.383423
O O6 0.506397 0.679919 0.765578
O O7 0.032161 0.801815 0.346719
O O8 0.144318 0.526987 0.712105
O O9 0.551143 0.930801 0.939939
O O10 0.344374 0.765412 0.878137
O O11 0.709433 0.766296 0.412806
O O12 0.397555 0.493810 0.261626
O O13 0.644200 0.349050 0.745386
O O14 0.961191 0.625657 0.952658
#
# Coordination Sequence:
#
# PCOD8021653 Si02
#       7
#     2   2   2   2   2   2   2
#     4  11  24  45  69 100 143 189 225 280 357 408
#     4  11  24  44  73 103 135 178 236 289 345 411
#     4  10  23  43  69  98 137 186 231 281 340 412
#     4  11  24  47  72 104 139 182 234 287 340 419
#     4  10  23  43  70 103 137 178 228 291 351 402
#     4  11  25  43  67 107 137 178 235 286 346 417
#     4  10  22  44  66 102 141 174 233 291 342 413
#
# _framework density 26.568204999999999
#
# number of rings (size 3 to 8) (size 9 to 14) (size 15 to 20)
#    0.000    1.429    1.429    3.000    4.000    2.857 
#    2.571    1.429    0.000    0.000    0.000    0.000 
#    0.000    0.000    0.000    0.000    0.000    0.000 
#
# Total GULP energy -173594.243805 kJ/mol
# GULP energy per Si atom -12399.588843 kJ/mol
# Density = 2.650773 g / cm^3
# Si number density = 26.568205 Si / 1000 Ang^3
#
#
#
# Elastic Constant Matrix: (Units=GPa)
#
#
# Indices 1 2 3 4 5 6 
#
# 1 103.0068 30.7559 10.9239 -2.7841 -6.5776 18.1868
# 2 30.7559 150.4280 46.8094 -33.9683 -7.5910 23.3774
# 3 10.9239 46.8094 59.2389 -9.6951 -12.3807 9.7040
# 4 -2.7841 -33.9683 -9.6951 32.7279 5.8029 -7.4984
# 5 -6.5776 -7.5910 -12.3807 5.8029 35.7604 -7.7040
# 6 18.1868 23.3774 9.7040 -7.4984 -7.7040 38.6413
#
#
#
# Elastic Compliance Matrix: (Units=1/GPa)
#
#
# Indices 1 2 3 4 5 6 
#
# 1 0.011081 -0.002159 0.000194 -0.002403 0.001132 -0.004198
# 2 -0.002159 0.011975 -0.007535 0.009810 -0.002696 -0.002970
# 3 0.000194 -0.007535 0.024011 -0.002057 0.006959 -0.000574
# 4 -0.002403 0.009810 -0.002057 0.041471 -0.005215 0.002720
# 5 0.001132 -0.002696 0.006959 -0.005215 0.031866 0.004691
# 6 -0.004198 -0.002970 -0.000574 0.002720 0.004691 0.031259
#
#
# Mechanical properties :
#
#
# Convention : Reuss Voigt Hill
#
# Bulk Modulus (GPa) = 35.63110 54.40579 45.01845
# Shear Modulus (GPa) = 27.77475 36.37157 32.07316
#
# Velocity S-wave (km/s) = 3.23679 3.70400 3.47825
# Velocity P-wave (km/s) = 5.23540 6.23017 5.75432
#
# Compressibility (1/GPa) = 0.02806537
#
# Stress axis : x y z
#
# Youngs Moduli (GPa) = 90.24634 83.50966 41.64719
#
# Poissons Ratio (x) = 0.18029 -0.00807
# Poissons Ratio (y) = 0.19483 0.31383
# Poissons Ratio (z) = -0.01748 0.62928
#
# Static dielectric constant tensor:
#      x y z
#    x 4.791210 0.409420 -0.018180 
#    y 0.409420 4.828900 -0.167380 
#    z -0.018180 -0.167380 4.938060 
# 
# 
# High freq. dielectric constant tensor:
#      x y z
#    x 2.066760 0.021000 -0.000880 
#    y 0.021000 2.070260 -0.010370 
#    z -0.000880 -0.010370 2.069200 
# 
# From -- ./inp_files/402768.got.cif
#   From: 2010.06.25/outbox.cif.g09.slc.cpg/sg2_202_cif.got.tgz:402768.got - 2010.06.27 13:26:56.
