data_PCOD8021247
_publ_section_title
;
Structure prediction by ZEFSAII (Michael W. Deem and Ramdas Pophale) SiO2 
 PCOD8021247
Probable space group: P -1
;
_chemical_formula_sum "Si O2"
_cell_formula_units_Z 16
_cell_length_a 10.762796
_cell_length_b 8.315673
_cell_length_c 15.778543
_cell_angle_alpha 132.437441
_cell_angle_beta 69.785753
_cell_angle_gamma 134.679006
_cell_volume 718.353755
_symmetry_space_group_name_H-M "P -1"
_symmetry_group_IT_number 2
_symmetry_cell_setting 'triclinic'
loop_
_space_group_symop_operation_xyz
x,y,z
-x,-y,-z
loop_
_atom_site_type_symbol
_atom_site_label
_atom_site_fract_x
_atom_site_fract_y
_atom_site_fract_z
Si Si1 0.169152 0.157960 0.578763
Si Si2 0.470629 0.720375 0.074993
Si Si3 0.087814 0.213803 0.793685
Si Si4 0.060713 0.213326 0.983791
Si Si5 0.500812 0.773313 0.467876
Si Si6 0.309728 0.134613 0.246009
Si Si7 0.423798 0.781865 0.673292
Si Si8 0.721681 0.133508 0.011249
O O1 0.127699 0.086788 0.664032
O O2 0.298801 0.094351 0.507578
O O3 0.268077 0.498913 0.665305
O O4 0.000000 0.000000 0.500000
O O5 0.257889 0.538108 0.065701
O O6 0.567584 0.950998 0.212948
O O7 0.563929 0.904722 0.032829
O O8 0.500000 0.500000 0.000000
O O9 0.243327 0.569348 0.892953
O O10 0.065359 0.081474 0.846379
O O11 0.900553 0.111103 0.774910
O O12 0.914260 0.239502 0.021795
O O13 0.000000 0.000000 0.000000
O O14 0.388585 0.468408 0.332665
O O15 0.391632 0.700559 0.553676
O O16 0.500000 0.000000 0.500000
O O17 0.390760 0.123678 0.308038
O O18 0.360391 0.043819 0.120910
#
# Coordination Sequence:
#
# PCOD8021247 Si02
#       8
#     2   2   2   2   2   2   2   2
#     4  11  23  44  71 100 131 178 241 292 337 414
#     4  12  25  40  68  99 141 176 223 285 355 415
#     4  11  22  41  69 101 130 173 233 287 339 413
#     4  11  24  40  60  97 141 178 215 274 352 415
#     4  11  26  44  66  97 136 184 234 283 354 415
#     4  10  22  43  69  93 137 176 227 286 345 416
#     4  11  23  43  67  96 131 182 231 277 347 417
#     4  11  23  43  66 104 131 176 227 283 347 416
#
# _framework density 22.273149
#
# number of rings (size 3 to 8) (size 9 to 14) (size 15 to 20)
#    0.000    1.000    2.500    6.000    5.250    1.000 
#    0.000    5.000    0.000    0.000    0.000    0.000 
#    0.000    0.000    0.000    0.000    0.000    0.000 
#
# Total GULP energy -198286.097116 kJ/mol
# GULP energy per Si atom -12392.881070 kJ/mol
# Density = 2.222245 g / cm^3
# Si number density = 22.273149 Si / 1000 Ang^3
#
#
#
# Elastic Constant Matrix: (Units=GPa)
#
#
# Indices 1 2 3 4 5 6 
#
# 1 85.2850 33.5737 26.3184 12.6595 -0.4404 3.2344
# 2 33.5737 130.4985 45.1532 -11.2030 4.2774 1.1690
# 3 26.3184 45.1532 132.3126 -6.6101 0.0422 -6.0339
# 4 12.6595 -11.2030 -6.6101 47.3982 -2.3308 2.7315
# 5 -0.4404 4.2774 0.0422 -2.3308 34.0265 4.1925
# 6 3.2344 1.1690 -6.0339 2.7315 4.1925 42.8596
#
#
#
# Elastic Compliance Matrix: (Units=1/GPa)
#
#
# Indices 1 2 3 4 5 6 
#
# 1 0.014464 -0.003457 -0.001987 -0.004879 0.000414 -0.001007
# 2 -0.003457 0.009698 -0.002500 0.002842 -0.001012 -0.000438
# 3 -0.001987 -0.002500 0.008925 0.001114 0.000183 0.001386
# 4 -0.004879 0.002842 0.001114 0.023361 0.001323 -0.001171
# 5 0.000414 -0.001012 0.000183 0.001323 0.029981 -0.002995
# 6 -0.001007 -0.000438 0.001386 -0.001171 -0.002995 0.023983
#
#
# Mechanical properties :
#
#
# Convention : Reuss Voigt Hill
#
# Bulk Modulus (GPa) = 58.14048 62.02074 60.08061
# Shear Modulus (GPa) = 37.86955 41.06024 39.46490
#
# Velocity S-wave (km/s) = 4.12786 4.29824 4.21391
# Velocity P-wave (km/s) = 6.99136 7.24839 7.12103
#
# Compressibility (1/GPa) = 0.01719972
#
# Stress axis : x y z
#
# Youngs Moduli (GPa) = 69.13690 103.11034 112.04587
#
# Poissons Ratio (x) = 0.35646 0.22264
# Poissons Ratio (y) = 0.23901 0.28008
# Poissons Ratio (z) = 0.13738 0.25774
#
# Static dielectric constant tensor:
#      x y z
#    x 3.995220 0.158920 0.151680 
#    y 0.158920 4.168230 -0.052580 
#    z 0.151680 -0.052580 4.471350 
# 
# 
# High freq. dielectric constant tensor:
#      x y z
#    x 1.867250 0.016860 0.009310 
#    y 0.016860 1.884850 -0.006050 
#    z 0.009310 -0.006050 1.883830 
# 
# From -- ./inp_files/403435.got.cif
#   From: 2010.06.25/outbox.cif.g09.slc.cpg/sg2_202_cif.got.tgz:403435.got - 2010.06.27 13:26:56.
