data_PCOD8021102
_publ_section_title
;
Structure prediction by ZEFSAII (Michael W. Deem and Ramdas Pophale) SiO2 
 PCOD8021102
Probable space group: P -1
;
_chemical_formula_sum "Si O2"
_cell_formula_units_Z 14
_cell_length_a 12.336860
_cell_length_b 6.761606
_cell_length_c 11.600970
_cell_angle_alpha 120.421881
_cell_angle_beta 50.681279
_cell_angle_gamma 102.134609
_cell_volume 636.643350
_symmetry_space_group_name_H-M "P -1"
_symmetry_group_IT_number 2
_symmetry_cell_setting 'triclinic'
loop_
_space_group_symop_operation_xyz
x,y,z
-x,-y,-z
loop_
_atom_site_type_symbol
_atom_site_label
_atom_site_fract_x
_atom_site_fract_y
_atom_site_fract_z
Si Si1 0.889189 0.728364 0.662320
Si Si2 0.268841 0.273770 0.449933
Si Si3 0.494702 0.080672 0.709373
Si Si4 0.976637 0.203977 0.738853
Si Si5 0.350866 0.759306 0.559811
Si Si6 0.914941 0.896332 0.124705
Si Si7 0.220589 0.356987 0.046723
O O1 0.751944 0.713976 0.670646
O O2 0.963227 0.943150 0.635035
O O3 0.843963 0.761614 0.835753
O O4 0.000000 0.500000 0.500000
O O5 0.115763 0.283174 0.614815
O O6 0.338877 0.491212 0.511952
O O7 0.371372 0.033768 0.339111
O O8 0.544446 0.220338 0.610193
O O9 0.411206 0.872577 0.665335
O O10 0.390983 0.274563 0.911127
O O11 0.984154 0.230055 0.880482
O O12 0.834352 0.365905 0.832589
O O13 0.194238 0.899839 0.678746
O O14 0.831497 0.717066 0.064463
O O15 0.000000 0.000000 0.000000
#
# Coordination Sequence:
#
# PCOD8021102 Si02
#       7
#     2   2   2   2   2   2   2
#     4  12  26  44  68  97 135 172 226 274 318 394
#     4  12  24  41  73  95 130 185 220 258 333 396
#     4  10  24  44  66  97 136 172 220 270 329 388
#     4  12  24  43  71 100 129 175 219 272 338 383
#     4  10  22  43  67  98 135 171 216 276 324 391
#     4  11  20  41  69 100 133 163 220 280 329 382
#     4  11  25  42  65 101 134 170 217 281 322 388
#
# _framework density 21.990333
#
# number of rings (size 3 to 8) (size 9 to 14) (size 15 to 20)
#    0.000    0.857    4.286    3.000    0.000    1.714 
#    0.000    1.429    0.000    0.000    0.000    0.000 
#    0.000    0.000    0.000    0.000    0.000    0.000 
#
# Total GULP energy -173615.068528 kJ/mol
# GULP energy per Si atom -12401.076323 kJ/mol
# Density = 2.194028 g / cm^3
# Si number density = 21.990333 Si / 1000 Ang^3
#
#
#
# Elastic Constant Matrix: (Units=GPa)
#
#
# Indices 1 2 3 4 5 6 
#
# 1 77.4949 29.8071 34.4616 8.1370 -5.7225 -15.1231
# 2 29.8071 114.7112 56.6811 10.9790 -10.6683 1.4144
# 3 34.4616 56.6811 125.2430 4.7038 -28.2457 -5.0250
# 4 8.1370 10.9790 4.7038 35.7799 -5.4745 -2.2909
# 5 -5.7225 -10.6683 -28.2457 -5.4745 36.2952 3.5423
# 6 -15.1231 1.4144 -5.0250 -2.2909 3.5423 45.1277
#
#
#
# Elastic Compliance Matrix: (Units=1/GPa)
#
#
# Indices 1 2 3 4 5 6 
#
# 1 0.016607 -0.002583 -0.003490 -0.002454 -0.001741 0.005270
# 2 -0.002583 0.012009 -0.004905 -0.002713 -0.000923 -0.001853
# 3 -0.003490 -0.004905 0.012985 0.001869 0.008409 -0.000135
# 4 -0.002454 -0.002713 0.001869 0.029854 0.004713 0.000616
# 5 -0.001741 -0.000923 0.008409 0.004713 0.034464 -0.002084
# 6 0.005270 -0.001853 -0.000135 0.000616 -0.002084 0.024163
#
#
# Mechanical properties :
#
#
# Convention : Reuss Voigt Hill
#
# Bulk Modulus (GPa) = 50.89982 62.14986 56.52484
# Shear Modulus (GPa) = 31.52869 36.54051 34.03460
#
# Velocity S-wave (km/s) = 3.79060 4.08077 3.93836
# Velocity P-wave (km/s) = 6.50806 7.10826 6.81477
#
# Compressibility (1/GPa) = 0.01964644
#
# Stress axis : x y z
#
# Youngs Moduli (GPa) = 60.21603 83.27178 77.01105
#
# Poissons Ratio (x) = 0.21508 0.26874
# Poissons Ratio (y) = 0.15553 0.37772
# Poissons Ratio (z) = 0.21013 0.40842
#
# Static dielectric constant tensor:
#      x y z
#    x 4.226490 -0.274870 0.029750 
#    y -0.274870 4.037110 -0.017520 
#    z 0.029750 -0.017520 4.002580 
# 
# 
# High freq. dielectric constant tensor:
#      x y z
#    x 1.859100 -0.010800 -0.001410 
#    y -0.010800 1.867720 0.000860 
#    z -0.001410 0.000860 1.860550 
# 
# From -- ./inp_files/442139.got.cif
#   From: 2010.06.25/outbox.cif.g09.slc.cpg/sg2_222_cif.got.tgz:442139.got - 2010.06.27 13:26:56.
