data_PCOD8021787
_publ_section_title
;
Structure prediction by ZEFSAII (Michael W. Deem and Ramdas Pophale) SiO2 
 PCOD8021787
Probable space group: P -1
;
_chemical_formula_sum "Si O2"
_cell_formula_units_Z 16
_cell_length_a 21.657211
_cell_length_b 9.199872
_cell_length_c 20.848582
_cell_angle_alpha 142.115639
_cell_angle_beta 17.961334
_cell_angle_gamma 144.309390
_cell_volume 744.121382
_symmetry_space_group_name_H-M "P -1"
_symmetry_group_IT_number 2
_symmetry_cell_setting 'triclinic'
loop_
_space_group_symop_operation_xyz
x,y,z
-x,-y,-z
loop_
_atom_site_type_symbol
_atom_site_label
_atom_site_fract_x
_atom_site_fract_y
_atom_site_fract_z
Si Si1 0.655329 0.865485 0.553607
Si Si2 0.878910 0.244740 0.566720
Si Si3 0.562720 0.939434 0.531690
Si Si4 0.675070 0.265269 0.911499
Si Si5 0.886277 0.478631 0.172836
Si Si6 0.718188 0.566024 0.177024
Si Si7 0.538118 0.460698 0.703994
Si Si8 0.988611 0.860929 0.396390
O O1 0.652893 0.997880 0.534407
O O2 0.834124 0.729858 0.328784
O O3 0.424905 0.663326 0.718743
O O4 0.699128 0.077636 0.638511
O O5 0.773829 0.305920 0.757009
O O6 0.000000 0.500000 0.500000
O O7 0.034515 0.082055 0.374177
O O8 0.323219 0.758318 0.702083
O O9 0.716089 0.825054 0.300907
O O10 0.578818 0.200133 0.574719
O O11 0.841660 0.283837 0.812354
O O12 0.563502 0.476544 0.107799
O O13 0.500000 0.000000 0.000000
O O14 0.000000 0.500000 0.000000
O O15 0.042702 0.442271 0.061167
O O16 0.631371 0.542177 0.183379
O O17 0.756875 0.672257 0.543986
O O18 0.000000 0.000000 0.500000
#
# Coordination Sequence:
#
# PCOD8021787 Si02
#       8
#     2   2   2   2   2   2   2   2
#     4  11  22  42  66  94 135 177 215 274 345 393
#     4  11  25  44  69 102 133 173 229 280 332 395
#     4  11  25  39  66  99 136 168 223 280 334 401
#     4  11  23  45  68  95 136 183 225 269 334 404
#     4  11  21  41  68  94 131 176 218 275 340 398
#     4  11  22  44  66  96 133 173 223 274 333 411
#     4  12  25  42  70 100 133 182 226 272 338 401
#     4  10  22  44  68  90 138 178 219 275 343 387
#
# _framework density 21.501868000000002
#
# number of rings (size 3 to 8) (size 9 to 14) (size 15 to 20)
#    0.000    1.000    6.250    1.125    5.250    2.500 
#    0.000    1.250    0.000    0.000    0.000    0.000 
#    0.000    0.000    0.000    0.000    0.000    0.000 
#
# Total GULP energy -198357.770438 kJ/mol
# GULP energy per Si atom -12397.360652 kJ/mol
# Density = 2.145293 g / cm^3
# Si number density = 21.501868 Si / 1000 Ang^3
#
#
#
# Elastic Constant Matrix: (Units=GPa)
#
#
# Indices 1 2 3 4 5 6 
#
# 1 115.9528 39.2068 34.7510 -9.7526 -20.9828 3.5235
# 2 39.2068 108.7827 31.6578 3.3165 -8.0024 -13.2988
# 3 34.7510 31.6578 94.5097 0.6390 -18.0368 -7.8655
# 4 -9.7526 3.3165 0.6390 12.7250 -1.4455 6.4183
# 5 -20.9828 -8.0024 -18.0368 -1.4455 42.8418 -2.2278
# 6 3.5235 -13.2988 -7.8655 6.4183 -2.2278 28.4488
#
#
#
# Elastic Compliance Matrix: (Units=1/GPa)
#
#
# Indices 1 2 3 4 5 6 
#
# 1 0.013933 -0.005296 -0.003309 0.017089 0.004570 -0.008614
# 2 -0.005296 0.012997 -0.001748 -0.011930 -0.000843 0.008874
# 3 -0.003309 -0.001748 0.013538 -0.004693 0.003838 0.004695
# 4 0.017089 -0.011930 -0.004693 0.112866 0.006207 -0.033968
# 5 0.004570 -0.000843 0.003838 0.006207 0.027291 0.000838
# 6 -0.008614 0.008874 0.004695 -0.033968 0.000838 0.049393
#
#
# Mechanical properties :
#
#
# Convention : Reuss Voigt Hill
#
# Bulk Modulus (GPa) = 50.60483 58.94182 54.77332
# Shear Modulus (GPa) = 19.43166 31.04509 25.23838
#
# Velocity S-wave (km/s) = 3.00945 3.80390 3.42976
# Velocity P-wave (km/s) = 5.97176 6.83848 6.41976
#
# Compressibility (1/GPa) = 0.01976096
#
# Stress axis : x y z
#
# Youngs Moduli (GPa) = 71.77240 76.94254 73.86533
#
# Poissons Ratio (x) = 0.40752 0.24444
# Poissons Ratio (y) = 0.38014 0.12910
# Poissons Ratio (z) = 0.23751 0.13448
#
# Static dielectric constant tensor:
#      x y z
#    x 2.964710 -0.505040 1.390470 
#    y -0.505040 3.507120 0.897310 
#    z 1.390470 0.897310 2.501330 
# 
# 
# High freq. dielectric constant tensor:
#      x y z
#    x 1.861630 0.010670 -0.007310 
#    y 0.010670 1.833170 0.011220 
#    z -0.007310 0.011220 1.841100 
# 
# From -- ./inp_files/601219.got.cif
#   From: 2010.06.25/outbox.cif.g09.slc.cpg/sg2_301_cif.got.tgz:601219.got - 2010.06.27 13:26:56.
