data_PCOD8021968
_publ_section_title
;
Structure prediction by ZEFSAII (Michael W. Deem and Ramdas Pophale) SiO2 
 PCOD8021968
Probable space group: P -1
;
_chemical_formula_sum "Si O2"
_cell_formula_units_Z 14
_cell_length_a 14.841123
_cell_length_b 5.217692
_cell_length_c 9.090784
_cell_angle_alpha 72.711086
_cell_angle_beta 104.273943
_cell_angle_gamma 115.484604
_cell_volume 600.971920
_symmetry_space_group_name_H-M "P -1"
_symmetry_group_IT_number 2
_symmetry_cell_setting 'triclinic'
loop_
_space_group_symop_operation_xyz
x,y,z
-x,-y,-z
loop_
_atom_site_type_symbol
_atom_site_label
_atom_site_fract_x
_atom_site_fract_y
_atom_site_fract_z
Si Si1 0.239158 0.142237 0.250615
Si Si2 0.202132 0.591843 0.690822
Si Si3 0.429983 0.772626 0.813260
Si Si4 0.948558 0.170120 0.349635
Si Si5 0.452466 0.587079 0.179588
Si Si6 0.161086 0.492994 0.382558
Si Si7 0.103852 0.101507 0.938631
O O1 0.353927 0.366514 0.256755
O O2 0.180507 0.289166 0.302863
O O3 0.236882 0.831644 0.356924
O O4 0.189480 0.068565 0.081489
O O5 0.320834 0.755275 0.725991
O O6 0.144058 0.807274 0.598947
O O7 0.177261 0.378153 0.573247
O O8 0.149510 0.437416 0.847622
O O9 0.466791 0.566020 0.763043
O O10 0.503553 0.109871 0.765531
O O11 0.424082 0.658238 0.995213
O O12 0.046611 0.475376 0.315658
O O13 0.908561 0.071498 0.187276
O O14 0.000000 0.000000 0.500000
O O15 0.000000 0.000000 0.000000
#
# Coordination Sequence:
#
# PCOD8021968 Si02
#       7
#     2   2   2   2   2   2   2
#     4  12  26  47  72 108 145 187 238 301 360 409
#     4  12  27  45  72 104 142 196 238 292 355 438
#     4  10  23  42  73 105 137 183 241 291 359 421
#     4  12  26  45  71 103 149 191 238 291 358 430
#     4  10  22  44  71 105 141 179 234 306 356 412
#     4  12  27  46  70 102 152 192 234 288 364 431
#     4  12  26  43  72 106 142 182 243 295 345 427
#
# _framework density 23.295597999999998
#
# number of rings (size 3 to 8) (size 9 to 14) (size 15 to 20)
#    0.000    0.571    4.286    3.000    4.000    2.286 
#    0.000    4.286    0.000    0.000    0.000    0.000 
#    0.000    0.000    0.000    0.000    0.000    0.000 
#
# Total GULP energy -173518.602646 kJ/mol
# GULP energy per Si atom -12394.185903 kJ/mol
# Density = 2.324258 g / cm^3
# Si number density = 23.295598 Si / 1000 Ang^3
#
#
#
# Elastic Constant Matrix: (Units=GPa)
#
#
# Indices 1 2 3 4 5 6 
#
# 1 135.8889 46.5472 43.7354 4.3376 19.8570 12.8345
# 2 46.5472 108.3583 28.8347 4.5587 1.7923 -2.9856
# 3 43.7354 28.8347 96.7131 10.5727 -7.2365 2.1049
# 4 4.3376 4.5587 10.5727 32.9380 1.5240 1.8107
# 5 19.8570 1.7923 -7.2365 1.5240 28.6290 3.2400
# 6 12.8345 -2.9856 2.1049 1.8107 3.2400 42.0507
#
#
#
# Elastic Compliance Matrix: (Units=1/GPa)
#
#
# Indices 1 2 3 4 5 6 
#
# 1 0.011769 -0.003724 -0.004936 0.001125 -0.008901 -0.002972
# 2 -0.003724 0.011304 -0.001550 -0.000744 0.001303 0.001948
# 3 -0.004936 -0.001550 0.014004 -0.003983 0.007237 0.000309
# 4 0.001125 -0.000744 -0.003983 0.031817 -0.003285 -0.001314
# 5 -0.008901 0.001303 0.007237 -0.003285 0.043109 -0.000733
# 6 -0.002972 0.001948 0.000309 -0.001314 -0.000733 0.024924
#
#
# Mechanical properties :
#
#
# Convention : Reuss Voigt Hill
#
# Bulk Modulus (GPa) = 60.03331 64.35501 62.19416
# Shear Modulus (GPa) = 30.69379 35.51307 33.10343
#
# Velocity S-wave (km/s) = 3.63378 3.90866 3.77373
# Velocity P-wave (km/s) = 6.59030 6.93221 6.76342
#
# Compressibility (1/GPa) = 0.01665742
#
# Stress axis : x y z
#
# Youngs Moduli (GPa) = 84.97191 88.46284 71.40671
#
# Poissons Ratio (x) = 0.32943 0.35247
# Poissons Ratio (y) = 0.31643 0.11067
# Poissons Ratio (z) = 0.41942 0.13711
#
# Static dielectric constant tensor:
#      x y z
#    x 4.204380 0.219870 -0.226770 
#    y 0.219870 4.499170 -0.086720 
#    z -0.226770 -0.086720 4.488670 
# 
# 
# High freq. dielectric constant tensor:
#      x y z
#    x 1.917710 0.011910 -0.004070 
#    y 0.011910 1.936740 -0.000020 
#    z -0.004070 -0.000020 1.922660 
# 
# From -- ./inp_files/107418.got.cif
#   From: 2010.06.25/outbox.cif.g09.slc.cpg/sg2_54_cif.got.tgz:107418.got - 2010.06.27 13:26:56.
