data_PCOD8021130
_publ_section_title
;
Structure prediction by ZEFSAII (Michael W. Deem and Ramdas Pophale) SiO2 
 PCOD8021130
Probable space group: P -1
;
_chemical_formula_sum "Si O2"
_cell_formula_units_Z 14
_cell_length_a 24.910659
_cell_length_b 7.200063
_cell_length_c 8.785106
_cell_angle_alpha 123.154892
_cell_angle_beta 28.923671
_cell_angle_gamma 120.922024
_cell_volume 635.587179
_symmetry_space_group_name_H-M "P -1"
_symmetry_group_IT_number 2
_symmetry_cell_setting 'triclinic'
loop_
_space_group_symop_operation_xyz
x,y,z
-x,-y,-z
loop_
_atom_site_type_symbol
_atom_site_label
_atom_site_fract_x
_atom_site_fract_y
_atom_site_fract_z
Si Si1 0.486565 0.731593 0.806775
Si Si2 0.891919 0.368972 0.779907
Si Si3 0.793545 0.966753 0.665825
Si Si4 0.274149 0.306905 0.767286
Si Si5 0.368638 0.272734 0.822638
Si Si6 0.885925 0.496174 0.192825
Si Si7 0.736508 0.123281 0.552509
O O1 0.596519 0.685318 0.610243
O O2 0.405455 0.506870 0.910477
O O3 0.526477 0.808032 0.570148
O O4 0.399160 0.903154 0.159725
O O5 0.000000 0.500000 0.500000
O O6 0.877841 0.119584 0.633924
O O7 0.780101 0.481631 0.066452
O O8 0.902118 0.372165 0.937529
O O9 0.851773 0.747760 0.371000
O O10 0.761763 0.107654 0.661731
O O11 0.678159 0.902464 0.013432
O O12 0.268589 0.305249 0.964080
O O13 0.211470 0.078399 0.754946
O O14 0.790857 0.358047 0.463099
O O15 0.000000 0.500000 0.000000
#
# Coordination Sequence:
#
# PCOD8021130 Si02
#       7
#     2   2   2   2   2   2   2
#     4   9  20  40  70  99 143 187 228 286 342 412
#     4  12  28  48  73 105 139 184 237 291 353 419
#     4  12  26  46  75 103 140 189 229 289 355 412
#     4  10  22  43  68 103 140 182 232 288 342 416
#     4   9  20  41  66  99 141 179 235 274 346 408
#     4  12  29  48  72 105 137 183 239 295 349 416
#     4  12  23  45  71 102 147 179 238 290 342 417
#
# _framework density 22.026873999999999
#
# number of rings (size 3 to 8) (size 9 to 14) (size 15 to 20)
#    0.857    0.286    2.857    3.000    4.000    2.286 
#    0.000    1.429    0.000    0.000    0.000    0.000 
#    0.000    0.000    0.000    0.000    0.000    0.000 
#
# Total GULP energy -173491.556070 kJ/mol
# GULP energy per Si atom -12392.254005 kJ/mol
# Density = 2.197674 g / cm^3
# Si number density = 22.026874 Si / 1000 Ang^3
#
#
#
# Elastic Constant Matrix: (Units=GPa)
#
#
# Indices 1 2 3 4 5 6 
#
# 1 110.5533 31.0120 25.4294 -5.8738 -1.8867 -6.7914
# 2 31.0120 89.0873 35.9560 -16.2061 9.8980 4.5556
# 3 25.4294 35.9560 81.1683 -18.4235 -13.5535 -6.5011
# 4 -5.8738 -16.2061 -18.4235 40.2730 -1.0307 5.5819
# 5 -1.8867 9.8980 -13.5535 -1.0307 30.0657 1.1303
# 6 -6.7914 4.5556 -6.5011 5.5819 1.1303 34.6692
#
#
#
# Elastic Compliance Matrix: (Units=1/GPa)
#
#
# Indices 1 2 3 4 5 6 
#
# 1 0.010478 -0.003352 -0.001664 -0.000877 0.000895 0.002293
# 2 -0.003352 0.017408 -0.007803 0.003356 -0.009169 -0.004649
# 3 -0.001664 -0.007803 0.019701 0.005487 0.011416 0.003138
# 4 -0.000877 0.003356 0.005487 0.029233 0.002480 -0.004371
# 5 0.000895 -0.009169 0.011416 0.002480 0.041500 0.001768
# 6 0.002293 -0.004649 0.003138 -0.004371 0.001768 0.031139
#
#
# Mechanical properties :
#
#
# Convention : Reuss Voigt Hill
#
# Bulk Modulus (GPa) = 45.55889 51.73375 48.64632
# Shear Modulus (GPa) = 27.41048 33.56234 30.48641
#
# Velocity S-wave (km/s) = 3.53145 3.90769 3.72433
# Velocity P-wave (km/s) = 6.11199 6.62554 6.37394
#
# Compressibility (1/GPa) = 0.02194961
#
# Stress axis : x y z
#
# Youngs Moduli (GPa) = 95.43831 57.44445 50.75947
#
# Poissons Ratio (x) = 0.19256 0.08444
# Poissons Ratio (y) = 0.31993 0.39607
# Poissons Ratio (z) = 0.15877 0.44823
#
# Static dielectric constant tensor:
#      x y z
#    x 3.950270 0.176970 -0.020630 
#    y 0.176970 3.891710 0.128570 
#    z -0.020630 0.128570 4.093430 
# 
# 
# High freq. dielectric constant tensor:
#      x y z
#    x 1.862090 0.021160 0.002910 
#    y 0.021160 1.865290 0.005660 
#    z 0.002910 0.005660 1.866910 
# 
# From -- ./inp_files/356052.got.cif
#   From: 2010.06.25/outbox.cif.g09.slc.cpg/sg2_179_cif.got.tgz:356052.got - 2010.06.27 13:26:56.
