data_PCOD8021020
_publ_section_title
;
Structure prediction by ZEFSAII (Michael W. Deem and Ramdas Pophale) SiO2 
 PCOD8021020
Probable space group: P -1
;
_chemical_formula_sum "Si O2"
_cell_formula_units_Z 16
_cell_length_a 9.911871
_cell_length_b 18.902683
_cell_length_c 13.111227
_cell_angle_alpha 146.154266
_cell_angle_beta 37.660304
_cell_angle_gamma 147.567036
_cell_volume 699.165935
_symmetry_space_group_name_H-M "P -1"
_symmetry_group_IT_number 2
_symmetry_cell_setting 'triclinic'
loop_
_space_group_symop_operation_xyz
x,y,z
-x,-y,-z
loop_
_atom_site_type_symbol
_atom_site_label
_atom_site_fract_x
_atom_site_fract_y
_atom_site_fract_z
Si Si1 0.140569 0.709470 0.438362
Si Si2 0.286167 0.355994 0.747262
Si Si3 0.760286 0.021265 0.159396
Si Si4 0.810671 0.165357 0.656551
Si Si5 0.874621 0.157149 0.044624
Si Si6 0.476079 0.376995 0.943785
Si Si7 0.919626 0.925528 0.348780
Si Si8 0.810606 0.425260 0.424852
O O1 0.161426 0.826937 0.647649
O O2 0.073567 0.743216 0.407784
O O3 0.414121 0.719092 0.281970
O O4 0.913974 0.541078 0.407573
O O5 0.275246 0.256409 0.733484
O O6 0.514682 0.376103 0.562522
O O7 0.006370 0.268871 0.753403
O O8 0.352498 0.520578 0.938673
O O9 0.708994 0.041667 0.096625
O O10 0.485829 0.876731 0.193955
O O11 0.000000 0.000000 0.000000
O O12 0.790018 0.005342 0.465405
O O13 0.786674 0.273616 0.218076
O O14 0.181721 0.254751 0.010240
O O15 0.842107 0.058204 0.844046
O O16 0.500000 0.500000 0.000000
O O17 0.000000 0.000000 0.500000
O O18 0.000000 0.500000 0.500000
#
# Coordination Sequence:
#
# PCOD8021020 Si02
#       8
#     2   2   2   2   2   2   2   2
#     4  12  24  43  68 101 137 179 235 284 341 414
#     4  11  23  44  67 100 139 177 230 286 347 410
#     4  12  25  44  68  99 136 178 233 282 334 414
#     4  11  26  44  66  94 143 190 219 277 354 418
#     4  12  22  39  72  99 131 173 237 286 336 393
#     4  12  21  39  73 100 129 178 230 289 346 397
#     4  10  22  43  66  97 138 184 224 275 341 420
#     4  12  22  40  69 107 134 172 231 304 329 392
#
# _framework density 22.884409999999999
#
# number of rings (size 3 to 8) (size 9 to 14) (size 15 to 20)
#    0.000    0.500    5.000    3.375    0.000    1.000 
#    0.000   16.250    0.000    0.000    0.000    0.000 
#    0.000    0.000    0.000    0.000    0.000    0.000 
#
# Total GULP energy -198380.148641 kJ/mol
# GULP energy per Si atom -12398.759290 kJ/mol
# Density = 2.283232 g / cm^3
# Si number density = 22.884410 Si / 1000 Ang^3
#
#
#
# Elastic Constant Matrix: (Units=GPa)
#
#
# Indices 1 2 3 4 5 6 
#
# 1 85.1816 29.4457 40.8721 2.6651 -2.1019 -21.3484
# 2 29.4457 82.2436 26.9965 -12.7748 0.4729 -24.7771
# 3 40.8721 26.9965 173.1803 5.3323 0.6039 -1.8562
# 4 2.6651 -12.7748 5.3323 42.8875 2.9711 6.9162
# 5 -2.1019 0.4729 0.6039 2.9711 38.4069 -6.5546
# 6 -21.3484 -24.7771 -1.8562 6.9162 -6.5546 46.1412
#
#
#
# Elastic Compliance Matrix: (Units=1/GPa)
#
#
# Indices 1 2 3 4 5 6 
#
# 1 0.016102 -0.003277 -0.003145 -0.002758 0.002259 0.006298
# 2 -0.003277 0.016653 -0.001883 0.004273 0.000471 0.006777
# 3 -0.003145 -0.001883 0.006815 -0.000828 -0.000559 -0.002147
# 4 -0.002758 0.004273 -0.000828 0.025574 -0.002721 -0.003235
# 5 0.002259 0.000471 -0.000559 -0.002721 0.027324 0.005565
# 6 0.006298 0.006777 -0.002147 -0.003235 0.005565 0.029415
#
#
# Mechanical properties :
#
#
# Convention : Reuss Voigt Hill
#
# Bulk Modulus (GPa) = 43.55402 59.47044 51.51223
# Shear Modulus (GPa) = 34.21270 41.70653 37.95962
#
# Velocity S-wave (km/s) = 3.87075 4.27369 4.07720
# Velocity P-wave (km/s) = 6.24903 7.09904 6.68755
#
# Compressibility (1/GPa) = 0.02295999
#
# Stress axis : x y z
#
# Youngs Moduli (GPa) = 62.10511 60.04947 146.74524
#
# Poissons Ratio (x) = 0.19675 0.46149
# Poissons Ratio (y) = 0.20349 0.27636
# Poissons Ratio (z) = 0.19531 0.11309
#
# Static dielectric constant tensor:
#      x y z
#    x 4.105040 -0.300610 -0.004180 
#    y -0.300610 4.481820 0.194300 
#    z -0.004180 0.194300 4.648520 
# 
# 
# High freq. dielectric constant tensor:
#      x y z
#    x 1.882770 -0.012060 0.006190 
#    y -0.012060 1.909560 0.001520 
#    z 0.006190 0.001520 1.924200 
# 
# From -- ./inp_files/403321.got.cif
#   From: 2010.06.25/outbox.cif.g09.slc.cpg/sg2_202_cif.got.tgz:403321.got - 2010.06.27 13:26:56.
