data_PCOD8021752
_publ_section_title
;
Structure prediction by ZEFSAII (Michael W. Deem and Ramdas Pophale) SiO2 
 PCOD8021752
Probable space group: P -1
;
_chemical_formula_sum "Si O2"
_cell_formula_units_Z 16
_cell_length_a 5.220516
_cell_length_b 8.713352
_cell_length_c 21.075556
_cell_angle_alpha 121.245809
_cell_angle_beta 65.891874
_cell_angle_gamma 117.749628
_cell_volume 707.488802
_symmetry_space_group_name_H-M "P -1"
_symmetry_group_IT_number 2
_symmetry_cell_setting 'triclinic'
loop_
_space_group_symop_operation_xyz
x,y,z
-x,-y,-z
loop_
_atom_site_type_symbol
_atom_site_label
_atom_site_fract_x
_atom_site_fract_y
_atom_site_fract_z
Si Si1 0.627890 0.048254 0.897761
Si Si2 0.411706 0.918148 0.293731
Si Si3 0.927900 0.738993 0.207830
Si Si4 0.882845 0.504678 0.582947
Si Si5 0.770420 0.848349 0.949440
Si Si6 0.845853 0.347555 0.174024
Si Si7 0.344719 0.667240 0.674021
Si Si8 0.264844 0.915447 0.450773
O O1 0.812464 0.943088 0.896011
O O2 0.367291 0.869530 0.857168
O O3 0.819827 0.188337 0.855498
O O4 0.535596 0.183299 0.988069
O O5 0.094973 0.787235 0.269714
O O6 0.403569 0.966898 0.378785
O O7 0.671772 0.827986 0.239185
O O8 0.475463 0.111478 0.289302
O O9 0.768858 0.509573 0.175284
O O10 0.577315 0.551582 0.620340
O O11 0.845577 0.309166 0.580017
O O12 0.000000 0.500000 0.500000
O O13 0.135568 0.653099 0.630855
O O14 0.838575 0.652265 0.887626
O O15 0.000000 0.000000 0.000000
O O16 0.858599 0.405314 0.259080
O O17 0.500000 0.000000 0.500000
O O18 0.000000 0.000000 0.500000
#
# Coordination Sequence:
#
# PCOD8021752 Si02
#       8
#     2   2   2   2   2   2   2   2
#     4  10  22  44  67  98 136 181 223 281 343 402
#     4  12  25  45  64 102 134 177 226 284 347 394
#     4  12  26  42  69 100 139 175 229 284 335 407
#     4  12  25  43  65  99 129 177 229 271 340 406
#     4   9  21  42  69  96 136 178 225 278 339 408
#     4  11  24  41  68 100 133 179 228 280 341 403
#     4  12  24  42  70  94 134 177 222 284 332 398
#     4  12  24  43  67  94 136 178 222 283 341 405
#
# _framework density 22.615197999999999
#
# number of rings (size 3 to 8) (size 9 to 14) (size 15 to 20)
#    0.000    0.750    1.250    6.375    5.250    0.500 
#    0.000    5.625    0.000    0.000    0.000    0.000 
#    0.000    0.000    0.000    0.000    0.000    0.000 
#
# Total GULP energy -198275.139359 kJ/mol
# GULP energy per Si atom -12392.196210 kJ/mol
# Density = 2.256372 g / cm^3
# Si number density = 22.615198 Si / 1000 Ang^3
#
#
#
# Elastic Constant Matrix: (Units=GPa)
#
#
# Indices 1 2 3 4 5 6 
#
# 1 107.4054 -5.1818 33.7301 3.7520 -6.3823 -13.4047
# 2 -5.1818 96.4890 33.6347 -5.7151 -21.6439 -18.1115
# 3 33.7301 33.6347 127.0678 -10.4321 -18.0994 -14.6783
# 4 3.7520 -5.7151 -10.4321 28.8127 -12.7089 -1.5785
# 5 -6.3823 -21.6439 -18.0994 -12.7089 45.2340 4.1507
# 6 -13.4047 -18.1115 -14.6783 -1.5785 4.1507 32.2060
#
#
#
# Elastic Compliance Matrix: (Units=1/GPa)
#
#
# Indices 1 2 3 4 5 6 
#
# 1 0.011073 0.002600 -0.003130 -0.001495 0.000723 0.004478
# 2 0.002600 0.014672 -0.002200 0.005427 0.007330 0.007652
# 3 -0.003130 -0.002200 0.010584 0.005754 0.004171 0.002028
# 4 -0.001495 0.005427 0.005754 0.045889 0.017114 0.005096
# 5 0.000723 0.007330 0.004171 0.017114 0.031914 0.003050
# 6 0.004478 0.007652 0.002028 0.005096 0.003050 0.037998
#
#
# Mechanical properties :
#
#
# Convention : Reuss Voigt Hill
#
# Bulk Modulus (GPa) = 32.39583 50.59202 41.49392
# Shear Modulus (GPa) = 29.78302 39.16916 34.47609
#
# Velocity S-wave (km/s) = 3.63291 4.16623 3.90868
# Velocity P-wave (km/s) = 5.65273 6.75001 6.22559
#
# Compressibility (1/GPa) = 0.03086817
#
# Stress axis : x y z
#
# Youngs Moduli (GPa) = 90.31004 68.15495 94.48320
#
# Poissons Ratio (x) = -0.17719 0.29573
# Poissons Ratio (y) = -0.23479 0.20790
# Poissons Ratio (z) = 0.28267 0.14997
#
# Static dielectric constant tensor:
#      x y z
#    x 4.256600 -0.079940 -0.418310 
#    y -0.079940 3.994020 0.010450 
#    z -0.418310 0.010450 4.932810 
# 
# 
# High freq. dielectric constant tensor:
#      x y z
#    x 1.899520 -0.014650 -0.002270 
#    y -0.014650 1.886580 -0.001880 
#    z -0.002270 -0.001880 1.910680 
# 
# From -- ./inp_files/582565.got.cif
#   From: 2010.06.25/outbox.cif.g09.slc.cpg/sg2_292_cif.got.tgz:582565.got - 2010.06.27 13:26:56.
