data_PCOD8021746
_publ_section_title
;
Structure prediction by ZEFSAII (Michael W. Deem and Ramdas Pophale) SiO2 
 PCOD8021746
Probable space group: P -1
;
_chemical_formula_sum "Si O2"
_cell_formula_units_Z 16
_cell_length_a 20.003626
_cell_length_b 12.382193
_cell_length_c 13.732591
_cell_angle_alpha 127.144840
_cell_angle_beta 31.994301
_cell_angle_gamma 149.946292
_cell_volume 786.343431
_symmetry_space_group_name_H-M "P -1"
_symmetry_group_IT_number 2
_symmetry_cell_setting 'triclinic'
loop_
_space_group_symop_operation_xyz
x,y,z
-x,-y,-z
loop_
_atom_site_type_symbol
_atom_site_label
_atom_site_fract_x
_atom_site_fract_y
_atom_site_fract_z
Si Si1 0.332165 0.664855 0.305065
Si Si2 0.424846 0.611913 0.558814
Si Si3 0.562552 0.820738 0.791927
Si Si4 0.814525 0.868361 0.355061
Si Si5 0.936436 0.270654 0.706655
Si Si6 0.616912 0.454512 0.647490
Si Si7 0.622447 0.169451 0.143583
Si Si8 0.313729 0.431225 0.029943
O O1 0.071686 0.464054 0.554985
O O2 0.476243 0.735369 0.258641
O O3 0.437625 0.897726 0.264332
O O4 0.313197 0.531918 0.175444
O O5 0.668238 0.784654 0.397137
O O6 0.226171 0.326488 0.678263
O O7 0.469512 0.664644 0.417490
O O8 0.341244 0.680441 0.740956
O O9 0.695238 0.994028 0.817204
O O10 0.736443 0.880118 0.552520
O O11 0.473570 0.861192 0.856599
O O12 0.343417 0.540225 0.951233
O O13 0.081919 0.134785 0.148683
O O14 0.101326 0.301679 0.565916
O O15 0.868025 0.317920 0.900474
O O16 0.532665 0.527865 0.821155
#
# Coordination Sequence:
#
# PCOD8021746 Si02
#       8
#     2   2   2   2   2   2   2   2
#     4  10  24  41  64 100 128 167 215 259 330 387
#     4  10  23  45  65  93 134 172 217 262 309 398
#     4  11  22  41  70 102 126 161 221 275 327 375
#     4  10  22  44  67  98 127 166 218 272 327 360
#     4  10  23  42  63  98 131 171 209 265 320 388
#     4  10  24  43  63  97 130 174 219 255 319 390
#     4  11  24  43  66  94 134 173 214 262 323 382
#     4  12  22  42  72  99 126 164 213 283 328 368
#
# _framework density 20.347342999999999
#
# number of rings (size 3 to 8) (size 9 to 14) (size 15 to 20)
#    0.750    0.750    3.750    0.750    0.000    5.500 
#    4.500    0.000    0.000    0.000    0.000    0.000 
#    0.000    0.000    0.000    0.000    0.000    0.000 
#
# Total GULP energy -198339.348958 kJ/mol
# GULP energy per Si atom -12396.209310 kJ/mol
# Density = 2.030103 g / cm^3
# Si number density = 20.347343 Si / 1000 Ang^3
#
#
#
# Elastic Constant Matrix: (Units=GPa)
#
#
# Indices 1 2 3 4 5 6 
#
# 1 95.8702 45.1647 12.4369 -13.8897 10.2373 -7.6548
# 2 45.1647 119.6783 50.9848 -1.5980 -1.5713 -21.8183
# 3 12.4369 50.9848 102.9039 -10.8488 -1.4466 -8.4457
# 4 -13.8897 -1.5980 -10.8488 26.8643 -3.9569 8.4374
# 5 10.2373 -1.5713 -1.4466 -3.9569 21.9312 0.3678
# 6 -7.6548 -21.8183 -8.4457 8.4374 0.3678 24.2806
#
#
#
# Elastic Compliance Matrix: (Units=1/GPa)
#
#
# Indices 1 2 3 4 5 6 
#
# 1 0.015199 -0.007435 0.002360 0.008777 -0.005820 -0.004031
# 2 -0.007435 0.016561 -0.007195 -0.009630 0.002221 0.013347
# 3 0.002360 -0.007195 0.013498 0.007487 0.000685 -0.003638
# 4 0.008777 -0.009630 0.007487 0.051707 0.005393 -0.021331
# 5 -0.005820 0.002221 0.000685 0.005393 0.049529 -0.002225
# 6 -0.004031 0.013347 -0.003638 -0.021331 -0.002225 0.058089
#
#
# Mechanical properties :
#
#
# Convention : Reuss Voigt Hill
#
# Bulk Modulus (GPa) = 48.27153 59.51391 53.89272
# Shear Modulus (GPa) = 21.18391 28.60629 24.89510
#
# Velocity S-wave (km/s) = 3.23013 3.75360 3.50166
# Velocity P-wave (km/s) = 6.13897 6.93531 6.54925
#
# Compressibility (1/GPa) = 0.02071614
#
# Stress axis : x y z
#
# Youngs Moduli (GPa) = 65.79503 60.38391 74.08618
#
# Poissons Ratio (x) = 0.44896 -0.17481
# Poissons Ratio (y) = 0.48919 0.53306
# Poissons Ratio (z) = -0.15525 0.43447
#
# Static dielectric constant tensor:
#      x y z
#    x 3.669610 -0.098520 0.129730 
#    y -0.098520 3.630130 0.114170 
#    z 0.129730 0.114170 3.720810 
# 
# 
# High freq. dielectric constant tensor:
#      x y z
#    x 1.794120 -0.007130 0.013920 
#    y -0.007130 1.783380 0.012410 
#    z 0.013920 0.012410 1.801890 
# 
# From -- ./inp_files/540979.got.cif
#   From: 2010.06.25/outbox.cif.g09.slc.cpg/sg2_271_cif.got.tgz:540979.got - 2010.06.27 13:26:56.
