data_PCOD8021901
_publ_section_title
;
Structure prediction by ZEFSAII (Michael W. Deem and Ramdas Pophale) SiO2 
 PCOD8021901
Probable space group: P -1
;
_chemical_formula_sum "Si O2"
_cell_formula_units_Z 16
_cell_length_a 16.955884
_cell_length_b 9.219583
_cell_length_c 8.840077
_cell_angle_alpha 119.441629
_cell_angle_beta 140.048275
_cell_angle_gamma 80.053627
_cell_volume 719.498747
_symmetry_space_group_name_H-M "P -1"
_symmetry_group_IT_number 2
_symmetry_cell_setting 'triclinic'
loop_
_space_group_symop_operation_xyz
x,y,z
-x,-y,-z
loop_
_atom_site_type_symbol
_atom_site_label
_atom_site_fract_x
_atom_site_fract_y
_atom_site_fract_z
Si Si1 0.628717 0.138402 0.329498
Si Si2 0.848276 0.036395 0.448239
Si Si3 0.867221 0.737619 0.113237
Si Si4 0.355367 0.919679 0.324163
Si Si5 0.495318 0.575636 0.697568
Si Si6 0.689690 0.742004 0.597642
Si Si7 0.250144 0.268028 0.659841
Si Si8 0.852634 0.474645 0.223569
O O1 0.745525 0.134419 0.386293
O O2 0.639159 0.074506 0.482934
O O3 0.613610 0.330991 0.409161
O O4 0.500000 0.000000 0.000000
O O5 0.981337 0.191090 0.675617
O O6 0.816549 0.884496 0.191496
O O7 0.859065 0.928045 0.561140
O O8 0.844290 0.563684 0.094710
O O9 0.787875 0.679463 0.810863
O O10 0.500000 0.000000 0.500000
O O11 0.287817 0.053207 0.230083
O O12 0.255281 0.725092 0.027230
O O13 0.500000 0.500000 0.500000
O O14 0.456157 0.398609 0.652860
O O15 0.635435 0.708227 0.033579
O O16 0.699252 0.722305 0.426080
O O17 0.188356 0.418655 0.652405
O O18 0.000000 0.500000 0.500000
#
# Coordination Sequence:
#
# PCOD8021901 Si02
#       8
#     2   2   2   2   2   2   2   2
#     4  12  24  43  72 108 143 186 244 303 347 432
#     4  10  22  44  70 103 138 182 245 288 355 434
#     4  10  25  45  74  98 141 192 234 288 375 427
#     4  12  27  44  69 108 144 184 243 294 362 427
#     4  12  24  44  70 100 147 192 233 291 365 431
#     4  12  25  43  69 100 138 190 232 292 363 425
#     4  11  23  45  67 104 144 180 235 296 360 422
#     4  11  27  49  73 102 143 190 243 302 359 433
#
# _framework density 22.237703
#
# number of rings (size 3 to 8) (size 9 to 14) (size 15 to 20)
#    0.000    0.750    2.500    4.875    7.000    3.500 
#    0.000    1.875    0.000    0.000    0.000    0.000 
#    0.000    0.000    0.000    0.000    0.000    0.000 
#
# Total GULP energy -198209.394029 kJ/mol
# GULP energy per Si atom -12388.087127 kJ/mol
# Density = 2.218709 g / cm^3
# Si number density = 22.237703 Si / 1000 Ang^3
#
#
#
# Elastic Constant Matrix: (Units=GPa)
#
#
# Indices 1 2 3 4 5 6 
#
# 1 160.9204 54.7507 40.5520 8.9044 10.1002 -8.2875
# 2 54.7507 148.3510 43.0475 16.1628 9.9945 -10.6384
# 3 40.5520 43.0475 86.2263 0.5809 11.8368 -0.7285
# 4 8.9044 16.1628 0.5809 41.0735 9.2971 5.8222
# 5 10.1002 9.9945 11.8368 9.2971 32.8743 0.3264
# 6 -8.2875 -10.6384 -0.7285 5.8222 0.3264 50.4758
#
#
#
# Elastic Compliance Matrix: (Units=1/GPa)
#
#
# Indices 1 2 3 4 5 6 
#
# 1 0.007630 -0.001871 -0.002556 -0.000873 -0.000617 0.000926
# 2 -0.001871 0.008965 -0.003566 -0.003358 0.000064 0.001918
# 3 -0.002556 -0.003566 0.015153 0.002917 -0.004399 -0.001260
# 4 -0.000873 -0.003358 0.002917 0.028121 -0.007674 -0.004003
# 5 -0.000617 0.000064 -0.004399 -0.007674 0.034338 0.000512
# 6 0.000926 0.001918 -0.001260 -0.004003 0.000512 0.020808
#
#
# Mechanical properties :
#
#
# Convention : Reuss Voigt Hill
#
# Bulk Modulus (GPa) = 63.43984 74.68867 69.06425
# Shear Modulus (GPa) = 36.69624 42.02790 39.36207
#
# Velocity S-wave (km/s) = 4.06665 4.35206 4.21177
# Velocity P-wave (km/s) = 7.11619 7.67550 7.40113
#
# Compressibility (1/GPa) = 0.01576296
#
# Stress axis : x y z
#
# Youngs Moduli (GPa) = 131.06778 111.54406 65.99337
#
# Poissons Ratio (x) = 0.20871 0.16865
# Poissons Ratio (y) = 0.24524 0.23531
# Poissons Ratio (z) = 0.33496 0.39773
#
# Static dielectric constant tensor:
#      x y z
#    x 4.260290 -0.301950 0.072390 
#    y -0.301950 5.327040 0.288040 
#    z 0.072390 0.288040 3.868560 
# 
# 
# High freq. dielectric constant tensor:
#      x y z
#    x 1.891640 0.006340 0.002130 
#    y 0.006340 1.889460 0.012130 
#    z 0.002130 0.012130 1.865390 
# 
# From -- ./inp_files/329498.got.cif
#   From: 2010.06.25/outbox.cif.g09.slc.cpg/sg2_165_cif.got.tgz:329498.got - 2010.06.27 13:26:56.
