data_PCOD8021392
_publ_section_title
;
Structure prediction by ZEFSAII (Michael W. Deem and Ramdas Pophale) SiO2 
 PCOD8021392
Probable space group: P -1
;
_chemical_formula_sum "Si O2"
_cell_formula_units_Z 14
_cell_length_a 18.936131
_cell_length_b 9.655300
_cell_length_c 9.038178
_cell_angle_alpha 121.123997
_cell_angle_beta 59.641701
_cell_angle_gamma 155.059115
_cell_volume 593.423987
_symmetry_space_group_name_H-M "P -1"
_symmetry_group_IT_number 2
_symmetry_cell_setting 'triclinic'
loop_
_space_group_symop_operation_xyz
x,y,z
-x,-y,-z
loop_
_atom_site_type_symbol
_atom_site_label
_atom_site_fract_x
_atom_site_fract_y
_atom_site_fract_z
Si Si1 0.844889 0.698241 0.886740
Si Si2 0.013361 0.686457 0.680251
Si Si3 0.423700 0.347333 0.161849
Si Si4 0.114986 0.589449 0.026964
Si Si5 0.348512 0.740139 0.713835
Si Si6 0.327893 0.527183 0.328837
Si Si7 0.657364 0.552979 0.231642
O O1 0.849152 0.516700 0.732655
O O2 0.828378 0.763871 0.782771
O O3 0.683197 0.468754 0.025089
O O4 0.000000 0.000000 0.000000
O O5 0.000000 0.500000 0.500000
O O6 0.015068 0.666356 0.843507
O O7 0.178499 0.071429 0.671783
O O8 0.358222 0.409969 0.313386
O O9 0.543311 0.497690 0.252782
O O10 0.500000 0.500000 0.000000
O O11 0.274224 0.963637 0.117427
O O12 0.186995 0.546841 0.856470
O O13 0.000000 0.500000 0.000000
O O14 0.286326 0.588782 0.530684
O O15 0.410025 0.679671 0.694870
O O16 0.506782 0.134452 0.754039
#
# Coordination Sequence:
#
# PCOD8021392 Si02
#       7
#     2   2   2   2   2   2   2
#     4  10  22  43  71  94 137 189 228 285 351 419
#     4  11  27  44  67 106 141 183 234 299 350 416
#     4  12  24  45  74 105 139 189 236 296 349 422
#     4  12  27  44  71 103 145 187 235 288 365 417
#     4  11  26  46  72 107 141 191 233 298 355 425
#     4  11  26  45  72 107 145 180 244 294 354 420
#     4  11  24  47  73  99 143 188 242 281 360 427
#
# _framework density 23.591899999999999
#
# number of rings (size 3 to 8) (size 9 to 14) (size 15 to 20)
#    0.000    0.857    4.286    0.857    8.000    2.857 
#    0.000    3.571    0.000    0.000    0.000    0.000 
#    0.000    0.000    0.000    0.000    0.000    0.000 
#
# Total GULP energy -173435.522757 kJ/mol
# GULP energy per Si atom -12388.251625 kJ/mol
# Density = 2.353820 g / cm^3
# Si number density = 23.591900 Si / 1000 Ang^3
#
#
#
# Elastic Constant Matrix: (Units=GPa)
#
#
# Indices 1 2 3 4 5 6 
#
# 1 183.5427 19.1317 48.8784 9.0875 -0.1775 -4.6231
# 2 19.1317 59.3333 13.4402 6.2877 -0.7582 -8.9293
# 3 48.8784 13.4402 122.1489 9.4116 -13.5231 11.2331
# 4 9.0875 6.2877 9.4116 26.8961 -7.3363 4.9954
# 5 -0.1775 -0.7582 -13.5231 -7.3363 46.0833 4.9452
# 6 -4.6231 -8.9293 11.2331 4.9954 4.9452 32.0154
#
#
#
# Elastic Compliance Matrix: (Units=1/GPa)
#
#
# Indices 1 2 3 4 5 6 
#
# 1 0.006391 -0.000989 -0.002642 -0.001726 -0.001261 0.002038
# 2 -0.000989 0.019272 -0.002188 -0.005254 -0.001929 0.007118
# 3 -0.002642 -0.002188 0.010367 -0.000319 0.003495 -0.005119
# 4 -0.001726 -0.005254 -0.000319 0.042958 0.007670 -0.009490
# 5 -0.001261 -0.001929 0.003495 0.007670 0.024656 -0.006951
# 6 0.002038 0.007118 -0.005119 -0.009490 -0.006951 0.037865
#
#
# Mechanical properties :
#
#
# Convention : Reuss Voigt Hill
#
# Bulk Modulus (GPa) = 40.99878 58.65837 49.82858
# Shear Modulus (GPa) = 31.00252 39.90394 35.45323
#
# Velocity S-wave (km/s) = 3.62901 4.11716 3.88076
# Velocity P-wave (km/s) = 5.91402 6.89341 6.42241
#
# Compressibility (1/GPa) = 0.02439097
#
# Stress axis : x y z
#
# Youngs Moduli (GPa) = 156.47875 51.88967 96.45821
#
# Poissons Ratio (x) = 0.05129 0.25489
# Poissons Ratio (y) = 0.15468 0.21107
# Poissons Ratio (z) = 0.41349 0.11355
#
# Static dielectric constant tensor:
#      x y z
#    x 4.588560 -0.268170 -0.162320 
#    y -0.268170 3.715360 0.094620 
#    z -0.162320 0.094620 4.341460 
# 
# 
# High freq. dielectric constant tensor:
#      x y z
#    x 1.953800 -0.010840 -0.003400 
#    y -0.010840 1.915090 0.005320 
#    z -0.003400 0.005320 1.938250 
# 
# From -- ./inp_files/156869.got.cif
#   From: 2010.06.25/outbox.cif.g09.slc.cpg/sg2_79_cif.got.tgz:156869.got - 2010.06.27 13:26:56.
