data_PCOD8021032
_publ_section_title
;
Structure prediction by ZEFSAII (Michael W. Deem and Ramdas Pophale) SiO2 
 PCOD8021032
Probable space group: P -1
;
_chemical_formula_sum "Si O2"
_cell_formula_units_Z 16
_cell_length_a 18.556899
_cell_length_b 21.241512
_cell_length_c 12.578929
_cell_angle_alpha 35.402846
_cell_angle_beta 152.209716
_cell_angle_gamma 161.984506
_cell_volume 703.073830
_symmetry_space_group_name_H-M "P -1"
_symmetry_group_IT_number 2
_symmetry_cell_setting 'triclinic'
loop_
_space_group_symop_operation_xyz
x,y,z
-x,-y,-z
loop_
_atom_site_type_symbol
_atom_site_label
_atom_site_fract_x
_atom_site_fract_y
_atom_site_fract_z
Si Si1 0.794947 0.978940 0.772521
Si Si2 0.413526 0.601055 0.472225
Si Si3 0.065337 0.354872 0.569221
Si Si4 0.221377 0.535303 0.090461
Si Si5 0.173969 0.349254 0.101354
Si Si6 0.481617 0.074114 0.100737
Si Si7 0.561273 0.175845 0.688794
Si Si8 0.266575 0.579365 0.725730
O O1 0.592634 0.884113 0.538077
O O2 0.578198 0.830114 0.796220
O O3 0.021563 0.212213 0.764184
O O4 0.000000 0.000000 0.000000
O O5 0.226015 0.442848 0.543923
O O6 0.194272 0.474528 0.258950
O O7 0.680722 0.680991 0.683686
O O8 0.546634 0.802476 0.392434
O O9 0.271356 0.541862 0.661738
O O10 0.742257 0.215034 0.331877
O O11 0.305126 0.486251 0.189144
O O12 0.478995 0.780962 0.093168
O O13 0.915980 0.407038 0.828622
O O14 0.248546 0.469935 0.933702
O O15 0.825671 0.122538 0.968703
O O16 0.500636 0.991168 0.146361
O O17 0.000000 0.500000 0.500000
#
# Coordination Sequence:
#
# PCOD8021032 Si02
#       8
#     2   2   2   2   2   2   2   2
#     4  11  24  42  67 100 134 169 218 280 338 396
#     4  12  24  45  71 100 139 177 220 296 338 385
#     4  11  24  43  68  99 129 176 231 266 337 404
#     4  11  23  48  71  92 138 186 230 270 338 409
#     4  11  27  43  65 104 140 172 226 286 341 397
#     4  10  22  45  67  97 132 179 231 273 328 415
#     4  10  22  43  67 101 133 168 234 274 329 405
#     4  12  24  45  69  93 139 183 221 275 331 412
#
# _framework density 22.757211999999999
#
# number of rings (size 3 to 8) (size 9 to 14) (size 15 to 20)
#    0.000    1.000    2.500    4.500    1.750    5.000 
#   11.250    0.000    0.000    0.000    0.000    0.000 
#    0.000    0.000    0.000    0.000    0.000    0.000 
#
# Total GULP energy -198294.741409 kJ/mol
# GULP energy per Si atom -12393.421338 kJ/mol
# Density = 2.270542 g / cm^3
# Si number density = 22.757212 Si / 1000 Ang^3
#
#
#
# Elastic Constant Matrix: (Units=GPa)
#
#
# Indices 1 2 3 4 5 6 
#
# 1 118.8830 38.8253 27.1870 -14.6531 7.9316 -10.9161
# 2 38.8253 104.8234 1.6308 -15.6418 -0.0834 -5.7311
# 3 27.1870 1.6308 64.5117 -5.6156 10.8799 -0.4604
# 4 -14.6531 -15.6418 -5.6156 17.3983 -4.7408 0.5566
# 5 7.9316 -0.0834 10.8799 -4.7408 43.0303 -3.9635
# 6 -10.9161 -5.7311 -0.4604 0.5566 -3.9635 33.4098
#
#
#
# Elastic Compliance Matrix: (Units=1/GPa)
#
#
# Indices 1 2 3 4 5 6 
#
# 1 0.011341 -0.003200 -0.004195 0.005173 -0.000191 0.002990
# 2 -0.003200 0.012106 0.001617 0.009030 0.001297 0.001057
# 3 -0.004195 0.001617 0.018071 0.002814 -0.003604 -0.001319
# 4 0.005173 0.009030 0.002814 0.072571 0.006611 0.002853
# 5 -0.000191 0.001297 -0.003604 0.006611 0.025192 0.002989
# 6 0.002990 0.001057 -0.001319 0.002853 0.002989 0.031378
#
#
# Mechanical properties :
#
#
# Convention : Reuss Voigt Hill
#
# Bulk Modulus (GPa) = 33.37327 47.05603 40.21465
# Shear Modulus (GPa) = 26.01432 33.47271 29.74351
#
# Velocity S-wave (km/s) = 3.38468 3.83934 3.61916
# Velocity P-wave (km/s) = 5.47462 6.35424 5.93076
#
# Compressibility (1/GPa) = 0.02996410
#
# Stress axis : x y z
#
# Youngs Moduli (GPa) = 88.17692 82.60177 55.33620
#
# Poissons Ratio (x) = 0.26433 0.23212
# Poissons Ratio (y) = 0.28217 -0.08951
# Poissons Ratio (z) = 0.36987 -0.13361
#
# Static dielectric constant tensor:
#      x y z
#    x 5.994560 -2.454220 -1.005960 
#    y -2.454220 6.902490 1.181750 
#    z -1.005960 1.181750 4.674070 
# 
# 
# High freq. dielectric constant tensor:
#      x y z
#    x 1.887760 -0.013330 0.007090 
#    y -0.013330 1.910080 -0.009440 
#    z 0.007090 -0.009440 1.897320 
# 
# From -- ./inp_files/467106.got.cif
#   From: 2010.06.25/outbox.cif.g09.slc.cpg/sg2_234_cif.got.tgz:467106.got - 2010.06.27 13:26:56.
