data_PCOD8021509
_publ_section_title
;
Structure prediction by ZEFSAII (Michael W. Deem and Ramdas Pophale) SiO2 
 PCOD8021509
Probable space group: P -1
;
_chemical_formula_sum "Si O2"
_cell_formula_units_Z 10
_cell_length_a 11.979535
_cell_length_b 6.425281
_cell_length_c 15.525333
_cell_angle_alpha 56.361255
_cell_angle_beta 152.401909
_cell_angle_gamma 130.454142
_cell_volume 420.503594
_symmetry_space_group_name_H-M "P -1"
_symmetry_group_IT_number 2
_symmetry_cell_setting 'triclinic'
loop_
_space_group_symop_operation_xyz
x,y,z
-x,-y,-z
loop_
_atom_site_type_symbol
_atom_site_label
_atom_site_fract_x
_atom_site_fract_y
_atom_site_fract_z
Si Si1 0.608099 0.221328 0.803522
Si Si2 0.545662 0.740129 0.647859
Si Si3 0.223133 0.898595 0.881425
Si Si4 0.197303 0.680532 0.273685
Si Si5 0.865020 0.204833 0.516444
O O1 0.593608 0.488120 0.778157
O O2 0.786044 0.331561 0.815275
O O3 0.316805 0.000330 0.633266
O O4 0.739283 0.091803 0.991760
O O5 0.457239 0.676750 0.501449
O O6 0.309690 0.782917 0.525500
O O7 0.808879 0.025631 0.772207
O O8 0.053962 0.585616 0.806067
O O9 0.084054 0.100012 0.719398
O O10 0.500000 0.000000 0.000000
O O11 0.000000 0.500000 0.500000
#
# Coordination Sequence:
#
# PCOD8021509 Si02
#       5
#     2   2   2   2   2
#     4  11  24  47  72 101 137 180 226 285 342 396
#     4  10  22  43  78  96 135 184 225 282 340 397
#     4  12  27  45  70 102 142 182 224 281 341 409
#     4  10  23  44  70 106 136 176 230 278 341 405
#     4  11  26  46  69 101 140 181 230 281 338 406
#
# _framework density 23.781009999999998
#
# number of rings (size 3 to 8) (size 9 to 14) (size 15 to 20)
#    0.000    1.200    2.000    2.400    8.400    3.200 
#    7.200    0.000    0.000    0.000    0.000    0.000 
#    0.000    0.000    0.000    0.000    0.000    0.000 
#
# Total GULP energy -123979.685087 kJ/mol
# GULP energy per Si atom -12397.968509 kJ/mol
# Density = 2.372688 g / cm^3
# Si number density = 23.781010 Si / 1000 Ang^3
#
#
#
# Elastic Constant Matrix: (Units=GPa)
#
#
# Indices 1 2 3 4 5 6 
#
# 1 82.4111 58.9550 39.5044 5.5539 -3.2947 8.9803
# 2 58.9550 226.3187 86.8481 1.8538 9.1362 16.6931
# 3 39.5044 86.8481 130.3030 -16.7200 -11.0366 2.4634
# 4 5.5539 1.8538 -16.7200 38.5518 7.6231 1.9815
# 5 -3.2947 9.1362 -11.0366 7.6231 38.6323 1.7107
# 6 8.9803 16.6931 2.4634 1.9815 1.7107 38.2392
#
#
#
# Elastic Compliance Matrix: (Units=1/GPa)
#
#
# Indices 1 2 3 4 5 6 
#
# 1 0.016383 -0.002861 -0.003356 -0.003956 0.001996 -0.002267
# 2 -0.002861 0.007021 -0.004150 -0.001073 -0.002792 -0.001945
# 3 -0.003356 -0.004150 0.012384 0.005367 0.003113 0.001384
# 4 -0.003956 -0.001073 0.005367 0.029776 -0.004413 -0.000294
# 5 0.001996 -0.002792 0.003113 -0.004413 0.028498 -0.000497
# 6 -0.002267 -0.001945 0.001384 -0.000294 -0.000497 0.027481
#
#
# Mechanical properties :
#
#
# Convention : Reuss Voigt Hill
#
# Bulk Modulus (GPa) = 66.42268 89.96084 78.19176
# Shear Modulus (GPa) = 33.94569 39.99968 36.97268
#
# Velocity S-wave (km/s) = 3.78223 4.10567 3.94726
# Velocity P-wave (km/s) = 6.86042 7.77086 7.32979
#
# Compressibility (1/GPa) = 0.01505510
#
# Stress axis : x y z
#
# Youngs Moduli (GPa) = 61.03902 142.42495 80.75039
#
# Poissons Ratio (x) = 0.40747 0.27098
# Poissons Ratio (y) = 0.17463 0.33510
# Poissons Ratio (z) = 0.20483 0.59103
#
# Static dielectric constant tensor:
#      x y z
#    x 4.046780 0.120560 -0.188380 
#    y 0.120560 4.781780 0.112770 
#    z -0.188380 0.112770 4.302170 
# 
# 
# High freq. dielectric constant tensor:
#      x y z
#    x 1.922250 0.009040 -0.017150 
#    y 0.009040 1.970050 0.003590 
#    z -0.017150 0.003590 1.945010 
# 
# From -- ./inp_files/28975.got.cif
#   From: 2010.06.25/outbox.cif.g09.slc.cpg/sg2_15_cif.got.tgz:28975.got - 2010.06.27 13:26:56.
