data_PCOD8021073
_publ_section_title
;
Structure prediction by ZEFSAII (Michael W. Deem and Ramdas Pophale) SiO2 
 PCOD8021073
Probable space group: P -1
;
_chemical_formula_sum "Si O2"
_cell_formula_units_Z 14
_cell_length_a 14.956915
_cell_length_b 5.243081
_cell_length_c 9.239244
_cell_angle_alpha 60.298556
_cell_angle_beta 65.057744
_cell_angle_gamma 81.889842
_cell_volume 568.532682
_symmetry_space_group_name_H-M "P -1"
_symmetry_group_IT_number 2
_symmetry_cell_setting 'triclinic'
loop_
_space_group_symop_operation_xyz
x,y,z
-x,-y,-z
loop_
_atom_site_type_symbol
_atom_site_label
_atom_site_fract_x
_atom_site_fract_y
_atom_site_fract_z
Si Si1 0.909453 0.296597 0.180586
Si Si2 0.708658 0.612114 0.727122
Si Si3 0.480389 0.426099 0.302669
Si Si4 0.815275 0.210408 0.548269
Si Si5 0.595624 0.889155 0.278037
Si Si6 0.038760 0.812970 0.320637
Si Si7 0.789087 0.231653 0.005880
O O1 0.867417 0.412025 0.327962
O O2 0.818197 0.288967 0.135784
O O3 0.945354 0.979269 0.288217
O O4 0.000000 0.500000 0.000000
O O5 0.593175 0.533578 0.792645
O O6 0.770838 0.440235 0.619293
O O7 0.734960 0.965169 0.604252
O O8 0.732843 0.500234 0.902471
O O9 0.538490 0.736299 0.221933
O O10 0.413636 0.319664 0.516586
O O11 0.556328 0.198345 0.263718
O O12 0.895450 0.035644 0.634474
O O13 0.710591 0.943152 0.137755
O O14 0.000000 0.500000 0.500000
O O15 0.109342 0.810749 0.133744
#
# Coordination Sequence:
#
# PCOD8021073 Si02
#       7
#     2   2   2   2   2   2   2
#     4  12  24  40  66 100 137 179 231 291 343 400
#     4  11  24  44  69  99 135 179 222 275 343 412
#     4  10  22  43  67  94 134 176 215 270 346 409
#     4  11  24  43  68  97 136 180 228 275 339 411
#     4  10  23  41  66  98 130 171 223 278 333 402
#     4  11  24  46  69  97 139 187 230 280 347 412
#     4  11  25  41  67 103 135 173 230 285 334 400
#
# _framework density 24.624790999999998
#
# number of rings (size 3 to 8) (size 9 to 14) (size 15 to 20)
#    0.000    1.143    0.000    6.000    0.000    9.143 
#    0.000    0.000    0.000    0.000    0.000    0.000 
#    0.000    0.000    0.000    0.000    0.000    0.000 
#
# Total GULP energy -173582.403240 kJ/mol
# GULP energy per Si atom -12398.743089 kJ/mol
# Density = 2.456874 g / cm^3
# Si number density = 24.624791 Si / 1000 Ang^3
#
#
#
# Elastic Constant Matrix: (Units=GPa)
#
#
# Indices 1 2 3 4 5 6 
#
# 1 119.1921 18.8880 28.2879 -3.6312 16.5448 13.9618
# 2 18.8880 100.9743 30.6213 -6.1409 -1.2221 20.8216
# 3 28.2879 30.6213 108.2875 -4.3870 -0.4842 -2.8510
# 4 -3.6312 -6.1409 -4.3870 28.1644 11.7331 -2.8806
# 5 16.5448 -1.2221 -0.4842 11.7331 50.9016 -3.3587
# 6 13.9618 20.8216 -2.8510 -2.8806 -3.3587 29.8259
#
#
#
# Elastic Compliance Matrix: (Units=1/GPa)
#
#
# Indices 1 2 3 4 5 6 
#
# 1 0.010329 0.000124 -0.002810 0.002125 -0.004231 -0.005462
# 2 0.000124 0.013126 -0.003933 0.001608 -0.000762 -0.009528
# 3 -0.002810 -0.003933 0.011251 0.000603 0.001138 0.005323
# 4 0.002125 0.001608 0.000603 0.040431 -0.009918 0.000728
# 5 -0.004231 -0.000762 0.001138 -0.009918 0.023585 0.004319
# 6 -0.005462 -0.009528 0.005323 0.000728 0.004319 0.043802
#
#
# Mechanical properties :
#
#
# Convention : Reuss Voigt Hill
#
# Bulk Modulus (GPa) = 46.58145 53.78316 50.18231
# Shear Modulus (GPa) = 30.69045 38.48885 34.58965
#
# Velocity S-wave (km/s) = 3.53416 3.95778 3.75196
# Velocity P-wave (km/s) = 5.96752 6.54017 6.26040
#
# Compressibility (1/GPa) = 0.02146777
#
# Stress axis : x y z
#
# Youngs Moduli (GPa) = 96.81635 76.18182 88.88357
#
# Poissons Ratio (x) = -0.00947 0.24976
# Poissons Ratio (y) = -0.01204 0.34962
# Poissons Ratio (z) = 0.27205 0.29966
#
# Static dielectric constant tensor:
#      x y z
#    x 4.943470 0.219920 0.189700 
#    y 0.219920 4.204960 0.069410 
#    z 0.189700 0.069410 4.668870 
# 
# 
# High freq. dielectric constant tensor:
#      x y z
#    x 1.991490 0.014350 -0.000420 
#    y 0.014350 1.962660 0.007330 
#    z -0.000420 0.007330 1.990670 
# 
# From -- ./inp_files/288349.got.cif
#   From: 2010.06.25/outbox.cif.g09.slc.cpg/sg2_145_cif.got.tgz:288349.got - 2010.06.27 13:26:56.
