data_PCOD8021820
_publ_section_title
;
Structure prediction by ZEFSAII (Michael W. Deem and Ramdas Pophale) SiO2 
 PCOD8021820
Probable space group: P -1
;
_chemical_formula_sum "Si O2"
_cell_formula_units_Z 14
_cell_length_a 9.128186
_cell_length_b 19.466766
_cell_length_c 12.162282
_cell_angle_alpha 26.828585
_cell_angle_beta 118.315329
_cell_angle_gamma 133.666705
_cell_volume 635.523463
_symmetry_space_group_name_H-M "P -1"
_symmetry_group_IT_number 2
_symmetry_cell_setting 'triclinic'
loop_
_space_group_symop_operation_xyz
x,y,z
-x,-y,-z
loop_
_atom_site_type_symbol
_atom_site_label
_atom_site_fract_x
_atom_site_fract_y
_atom_site_fract_z
Si Si1 0.117526 0.551214 0.626697
Si Si2 0.847009 0.471672 0.083646
Si Si3 0.986461 0.245063 0.848538
Si Si4 0.967265 0.884871 0.545802
Si Si5 0.544824 0.846556 0.744196
Si Si6 0.617278 0.792284 0.390956
Si Si7 0.538913 0.576000 0.280781
O O1 0.107483 0.585655 0.703315
O O2 0.984416 0.604937 0.444598
O O3 0.375058 0.706158 0.458688
O O4 0.994858 0.320861 0.868185
O O5 0.588649 0.305192 0.190760
O O6 0.000000 0.500000 0.000000
O O7 0.904038 0.675317 0.849431
O O8 0.198168 0.265450 0.880204
O O9 0.756971 0.015042 0.066175
O O10 0.759527 0.838190 0.481968
O O11 0.192426 0.024662 0.354286
O O12 0.000000 0.000000 0.500000
O O13 0.500000 0.000000 0.500000
O O14 0.464854 0.703794 0.031520
O O15 0.604765 0.634638 0.537522
O O16 0.500000 0.500000 0.500000
#
# Coordination Sequence:
#
# PCOD8021820 Si02
#       7
#     2   2   2   2   2   2   2
#     4  10  24  41  68 101 137 180 231 293 347 427
#     4  12  26  44  68 102 143 183 233 291 358 419
#     4  10  22  44  68  99 136 178 235 288 355 419
#     4  12  25  42  73 101 136 184 233 291 353 427
#     4  12  26  47  68 103 144 183 236 291 357 428
#     4  11  22  43  67  99 134 178 236 285 355 419
#     4  11  26  43  69 100 138 183 237 292 350 428
#
# _framework density 22.029084999999998
#
# number of rings (size 3 to 8) (size 9 to 14) (size 15 to 20)
#    0.000    0.857    4.286    2.143    4.000    2.857 
#    0.000    0.000    0.000    0.000    0.000    0.000 
#    0.000    0.000    0.000    0.000    0.000    0.000 
#
# Total GULP energy -173469.548123 kJ/mol
# GULP energy per Si atom -12390.682009 kJ/mol
# Density = 2.197895 g / cm^3
# Si number density = 22.029085 Si / 1000 Ang^3
#
#
#
# Elastic Constant Matrix: (Units=GPa)
#
#
# Indices 1 2 3 4 5 6 
#
# 1 60.6855 27.3618 40.3644 1.0757 22.5660 -5.4521
# 2 27.3618 134.8509 51.2088 7.4917 10.9000 -7.8733
# 3 40.3644 51.2088 132.8645 -6.8888 18.9506 -10.3203
# 4 1.0757 7.4917 -6.8888 52.3272 8.1153 -4.3396
# 5 22.5660 10.9000 18.9506 8.1153 26.9447 -2.3047
# 6 -5.4521 -7.8733 -10.3203 -4.3396 -2.3047 36.7335
#
#
#
# Elastic Compliance Matrix: (Units=1/GPa)
#
#
# Indices 1 2 3 4 5 6 
#
# 1 0.028081 -0.002419 -0.004519 0.002386 -0.019959 0.001410
# 2 -0.002419 0.009078 -0.002950 -0.001743 0.001006 0.000615
# 3 -0.004519 -0.002950 0.010771 0.002584 -0.003220 0.001827
# 4 0.002386 -0.001743 0.002584 0.021313 -0.009304 0.002641
# 5 -0.019959 0.001006 -0.003220 -0.009304 0.058396 -0.001087
# 6 0.001410 0.000615 0.001827 0.002641 -0.001087 0.028321
#
#
# Mechanical properties :
#
#
# Convention : Reuss Voigt Hill
#
# Bulk Modulus (GPa) = 35.51764 62.91900 49.21832
# Shear Modulus (GPa) = 27.00941 37.16546 32.08743
#
# Velocity S-wave (km/s) = 3.50534 4.11190 3.82068
# Velocity P-wave (km/s) = 5.70450 7.15314 6.46949
#
# Compressibility (1/GPa) = 0.02815503
#
# Stress axis : x y z
#
# Youngs Moduli (GPa) = 35.61168 110.15472 92.83806
#
# Poissons Ratio (x) = 0.26643 0.41951
# Poissons Ratio (y) = 0.08613 0.27389
# Poissons Ratio (z) = 0.16092 0.32498
#
# Static dielectric constant tensor:
#      x y z
#    x 3.872070 0.242260 0.208440 
#    y 0.242260 4.237690 -0.095400 
#    z 0.208440 -0.095400 4.304470 
# 
# 
# High freq. dielectric constant tensor:
#      x y z
#    x 1.850780 0.018340 0.011880 
#    y 0.018340 1.883700 -0.006150 
#    z 0.011880 -0.006150 1.879700 
# 
# From -- ./inp_files/402680.got.cif
#   From: 2010.06.25/outbox.cif.g09.slc.cpg/sg2_202_cif.got.tgz:402680.got - 2010.06.27 13:26:56.
