data_PCOD8021495
_publ_section_title
;
Structure prediction by ZEFSAII (Michael W. Deem and Ramdas Pophale) SiO2 
 PCOD8021495
Probable space group: P -1
;
_chemical_formula_sum "Si O2"
_cell_formula_units_Z 16
_cell_length_a 8.913347
_cell_length_b 19.229109
_cell_length_c 6.005887
_cell_angle_alpha 100.499787
_cell_angle_beta 48.771669
_cell_angle_gamma 117.043127
_cell_volume 678.865875
_symmetry_space_group_name_H-M "P -1"
_symmetry_group_IT_number 2
_symmetry_cell_setting 'triclinic'
loop_
_space_group_symop_operation_xyz
x,y,z
-x,-y,-z
loop_
_atom_site_type_symbol
_atom_site_label
_atom_site_fract_x
_atom_site_fract_y
_atom_site_fract_z
Si Si1 0.528105 0.173838 0.217508
Si Si2 0.967158 0.305384 0.994986
Si Si3 0.764561 0.475142 0.600573
Si Si4 0.420862 0.933016 0.219893
Si Si5 0.828167 0.425537 0.009446
Si Si6 0.724776 0.622269 0.883442
Si Si7 0.242456 0.023770 0.699262
Si Si8 0.344160 0.293785 0.375415
O O1 0.727527 0.228491 0.222320
O O2 0.341304 0.096261 0.471778
O O3 0.400572 0.220538 0.268989
O O4 0.650693 0.151087 0.881613
O O5 0.931091 0.363011 0.887677
O O6 0.058522 0.354427 0.159933
O O7 0.156994 0.278615 0.734546
O O8 0.880100 0.479968 0.233287
O O9 0.717516 0.550973 0.700326
O O10 0.881057 0.461852 0.714398
O O11 0.516488 0.402065 0.775853
O O12 0.623486 0.948840 0.190714
O O13 0.232797 0.942900 0.556126
O O14 0.500000 0.000000 0.000000
O O15 0.561098 0.377994 0.253745
O O16 0.767659 0.699482 0.741897
O O17 0.000000 0.000000 0.000000
#
# Coordination Sequence:
#
# PCOD8021495 Si02
#       8
#     2   2   2   2   2   2   2   2
#     4  10  25  44  64  96 140 179 209 268 337 391
#     4  11  25  42  59  90 131 170 220 269 332 398
#     4  11  21  38  63  88 121 158 227 286 333 376
#     4   9  21  43  70 100 135 169 210 264 319 385
#     4  11  22  39  62  86 123 167 218 285 331 386
#     4  11  24  39  63  91 119 173 223 275 329 392
#     4  10  22  43  75 107 130 168 224 264 316 390
#     4  11  24  42  60  91 129 172 221 265 336 396
#
# _framework density 23.568719999999999
#
# number of rings (size 3 to 8) (size 9 to 14) (size 15 to 20)
#    0.000    1.500    2.500    1.500    1.750   10.000 
#    0.000    0.000    0.000    0.000    0.000    0.000 
#    0.000    0.000    0.000    0.000    0.000    0.000 
#
# Total GULP energy -198278.847249 kJ/mol
# GULP energy per Si atom -12392.427953 kJ/mol
# Density = 2.351508 g / cm^3
# Si number density = 23.568720 Si / 1000 Ang^3
#
#
#
# Elastic Constant Matrix: (Units=GPa)
#
#
# Indices 1 2 3 4 5 6 
#
# 1 130.6140 47.5611 39.9681 0.2258 -10.3316 -14.0392
# 2 47.5611 107.3708 55.8223 5.3344 -10.2999 -9.3322
# 3 39.9681 55.8223 115.3658 -5.6876 -19.0086 9.1772
# 4 0.2258 5.3344 -5.6876 31.9633 -1.4662 -2.0347
# 5 -10.3316 -10.2999 -19.0086 -1.4662 30.4338 -0.7025
# 6 -14.0392 -9.3322 9.1772 -2.0347 -0.7025 29.8212
#
#
#
# Elastic Compliance Matrix: (Units=1/GPa)
#
#
# Indices 1 2 3 4 5 6 
#
# 1 0.009926 -0.002719 -0.002283 0.000321 0.001145 0.004574
# 2 -0.002719 0.014608 -0.006735 -0.003301 -0.000226 0.005133
# 3 -0.002283 -0.006735 0.014453 0.003524 0.005975 -0.007249
# 4 0.000321 -0.003301 0.003524 0.032609 0.002772 0.000324
# 5 0.001145 -0.000226 0.005975 0.002772 0.037029 -0.000309
# 6 0.004574 0.005133 -0.007249 0.000324 -0.000309 0.039538
#
#
# Mechanical properties :
#
#
# Convention : Reuss Voigt Hill
#
# Bulk Modulus (GPa) = 64.45740 71.11706 67.78723
# Shear Modulus (GPa) = 28.27951 32.44361 30.36156
#
# Velocity S-wave (km/s) = 3.46768 3.71422 3.59306
# Velocity P-wave (km/s) = 6.59099 6.97379 6.78509
#
# Compressibility (1/GPa) = 0.01551412
#
# Stress axis : x y z
#
# Youngs Moduli (GPa) = 100.74277 68.45724 69.19209
#
# Poissons Ratio (x) = 0.18612 0.15795
# Poissons Ratio (y) = 0.27389 0.46599
# Poissons Ratio (z) = 0.22997 0.46104
#
# Static dielectric constant tensor:
#      x y z
#    x 4.620710 0.122890 0.181100 
#    y 0.122890 4.297170 0.180460 
#    z 0.181100 0.180460 4.734540 
# 
# 
# High freq. dielectric constant tensor:
#      x y z
#    x 1.958090 0.004220 -0.002700 
#    y 0.004220 1.919610 -0.000870 
#    z -0.002700 -0.000870 1.954150 
# 
# From -- ./inp_files/53375.got.cif
#   From: 2010.06.25/outbox.cif.g09.slc.cpg/sg2_27_cif.got.tgz:53375.got - 2010.06.27 13:26:56.
