data_PCOD8021158
_publ_section_title
;
Structure prediction by ZEFSAII (Michael W. Deem and Ramdas Pophale) SiO2 
 PCOD8021158
Probable space group: P -1
;
_chemical_formula_sum "Si O2"
_cell_formula_units_Z 12
_cell_length_a 9.182376
_cell_length_b 10.082529
_cell_length_c 12.922891
_cell_angle_alpha 58.466934
_cell_angle_beta 35.580930
_cell_angle_gamma 79.132939
_cell_volume 521.330406
_symmetry_space_group_name_H-M "P -1"
_symmetry_group_IT_number 2
_symmetry_cell_setting 'triclinic'
loop_
_space_group_symop_operation_xyz
x,y,z
-x,-y,-z
loop_
_atom_site_type_symbol
_atom_site_label
_atom_site_fract_x
_atom_site_fract_y
_atom_site_fract_z
Si Si1 0.283604 0.812411 0.035153
Si Si2 0.778433 0.519973 0.548752
Si Si3 0.064405 0.713627 0.986408
Si Si4 0.414979 0.187974 0.758494
Si Si5 0.602912 0.613987 0.996632
Si Si6 0.803190 0.305835 0.305656
O O1 0.500532 0.763400 0.991089
O O2 0.956026 0.705371 0.310078
O O3 0.285379 0.761919 0.933632
O O4 0.391460 0.019603 0.903292
O O5 0.655884 0.364494 0.599398
O O6 0.528251 0.508724 0.773989
O O7 0.000000 0.500000 0.500000
O O8 0.889872 0.820012 0.062630
O O9 0.846637 0.504376 0.194153
O O10 0.232645 0.774065 0.756076
O O11 0.513675 0.184766 0.584739
O O12 0.500000 0.500000 0.000000
O O13 0.940795 0.704187 0.776636
#
# Coordination Sequence:
#
# PCOD8021158 Si02
#       6
#     2   2   2   2   2   2
#     4  11  25  42  70  98 131 177 220 269 332 388
#     4  10  22  43  68  94 133 176 214 272 330 385
#     4  11  23  44  65 100 134 176 220 267 328 393
#     4  12  24  44  68 100 136 170 222 272 327 393
#     4  11  21  44  66  98 132 170 224 272 326 392
#     4  11  23  41  72  93 133 181 215 269 334 381
#
# _framework density 23.018032999999999
#
# number of rings (size 3 to 8) (size 9 to 14) (size 15 to 20)
#    0.000    1.000    5.000    2.000    0.000    4.000 
#    3.000    0.000    0.000    0.000    0.000    0.000 
#    0.000    0.000    0.000    0.000    0.000    0.000 
#
# Total GULP energy -148822.315922 kJ/mol
# GULP energy per Si atom -12401.859660 kJ/mol
# Density = 2.296564 g / cm^3
# Si number density = 23.018033 Si / 1000 Ang^3
#
#
#
# Elastic Constant Matrix: (Units=GPa)
#
#
# Indices 1 2 3 4 5 6 
#
# 1 79.1967 18.4230 14.9706 12.9410 16.6269 1.2120
# 2 18.4230 87.6148 62.6670 13.8005 16.7413 -18.5621
# 3 14.9706 62.6670 121.8085 9.4275 28.0742 2.3007
# 4 12.9410 13.8005 9.4275 39.8683 3.6101 9.2581
# 5 16.6269 16.7413 28.0742 3.6101 28.7765 4.5870
# 6 1.2120 -18.5621 2.3007 9.2581 4.5870 39.4772
#
#
#
# Elastic Compliance Matrix: (Units=1/GPa)
#
#
# Indices 1 2 3 4 5 6 
#
# 1 0.015250 -0.001734 0.001317 -0.004012 -0.008678 0.000589
# 2 -0.001734 0.025333 -0.011566 -0.008636 -0.003776 0.015103
# 3 0.001317 -0.011566 0.016028 0.001953 -0.008985 -0.005827
# 4 -0.004012 -0.008636 0.001953 0.031345 0.003385 -0.011796
# 5 -0.008678 -0.003776 -0.008985 0.003385 0.051541 -0.007768
# 6 0.000589 0.015103 -0.005827 -0.011796 -0.007768 0.036423
#
#
# Mechanical properties :
#
#
# Convention : Reuss Voigt Hill
#
# Bulk Modulus (GPa) = 30.63293 53.41568 42.02430
# Shear Modulus (GPa) = 23.72295 34.46170 29.09233
#
# Velocity S-wave (km/s) = 3.21382 3.87351 3.55898
# Velocity P-wave (km/s) = 5.20659 6.57738 5.93172
#
# Compressibility (1/GPa) = 0.03264461
#
# Stress axis : x y z
#
# Youngs Moduli (GPa) = 65.57533 39.47491 62.39044
#
# Poissons Ratio (x) = 0.06844 -0.08219
# Poissons Ratio (y) = 0.11369 0.72163
# Poissons Ratio (z) = -0.08638 0.45658
#
# Static dielectric constant tensor:
#      x y z
#    x 5.164580 0.656930 1.633750 
#    y 0.656930 4.612630 1.311270 
#    z 1.633750 1.311270 6.444780 
# 
# 
# High freq. dielectric constant tensor:
#      x y z
#    x 1.919930 -0.000080 0.016380 
#    y -0.000080 1.897970 0.018680 
#    z 0.016380 0.018680 1.902680 
# 
# From -- ./inp_files/144869.got.cif
#   From: 2010.06.25/outbox.cif.g09.slc.cpg/sg2_73_cif.got.tgz:144869.got - 2010.06.27 13:26:56.
