data_PCOD8021368
_publ_section_title
;
Structure prediction by ZEFSAII (Michael W. Deem and Ramdas Pophale) SiO2 
 PCOD8021368
Probable space group: P -1
;
_chemical_formula_sum "Si O2"
_cell_formula_units_Z 16
_cell_length_a 7.086165
_cell_length_b 17.722211
_cell_length_c 5.218664
_cell_angle_alpha 77.795122
_cell_angle_beta 92.571642
_cell_angle_gamma 96.313517
_cell_volume 636.517464
_symmetry_space_group_name_H-M "P -1"
_symmetry_group_IT_number 2
_symmetry_cell_setting 'triclinic'
loop_
_space_group_symop_operation_xyz
x,y,z
-x,-y,-z
loop_
_atom_site_type_symbol
_atom_site_label
_atom_site_fract_x
_atom_site_fract_y
_atom_site_fract_z
Si Si1 0.043076 0.820027 0.108350
Si Si2 0.752542 0.808611 0.701419
Si Si3 0.340139 0.745984 0.878727
Si Si4 0.698205 0.565758 0.735745
Si Si5 0.260772 0.958126 0.268658
Si Si6 0.302062 0.052060 0.710977
Si Si7 0.522775 0.401241 0.800103
Si Si8 0.001299 0.308863 0.421525
O O1 0.224654 0.813040 0.940640
O O2 0.111381 0.881459 0.291334
O O3 0.987537 0.732634 0.273956
O O4 0.863180 0.848951 0.925084
O O5 0.774167 0.864505 0.412425
O O6 0.852369 0.731109 0.722995
O O7 0.530239 0.791939 0.750528
O O8 0.386365 0.679974 0.129600
O O9 0.215527 0.701397 0.678476
O O10 0.688066 0.472422 0.795451
O O11 0.561811 0.596135 0.490139
O O12 0.913806 0.600715 0.649542
O O13 0.634397 0.594051 0.990553
O O14 0.471760 0.934574 0.270713
O O15 0.783266 0.982873 0.004448
O O16 0.229628 0.994781 0.516236
#
# Coordination Sequence:
#
# PCOD8021368 Si02
#       8
#     2   2   2   2   2   2   2   2
#     4  11  27  42  69 100 139 176 232 285 336 412
#     4  11  25  44  69  98 135 181 229 282 344 404
#     4  11  25  43  69 102 136 183 227 281 343 403
#     4  10  22  43  71 101 140 177 231 276 334 407
#     4  10  24  44  66 100 135 174 229 282 339 411
#     4  10  24  42  70  97 131 182 224 282 343 404
#     4  10  22  43  71 102 136 185 222 280 338 400
#     4  11  25  43  67 104 136 180 230 284 331 415
#
# _framework density 25.136779000000001
#
# number of rings (size 3 to 8) (size 9 to 14) (size 15 to 20)
#    0.000    1.500    1.250    1.500   14.000    3.500 
#    0.000    0.625    0.000    0.000    0.000    0.000 
#    0.000    0.000    0.000    0.000    0.000    0.000 
#
# Total GULP energy -198399.807861 kJ/mol
# GULP energy per Si atom -12399.987991 kJ/mol
# Density = 2.507957 g / cm^3
# Si number density = 25.136779 Si / 1000 Ang^3
#
#
#
# Elastic Constant Matrix: (Units=GPa)
#
#
# Indices 1 2 3 4 5 6 
#
# 1 119.2426 30.0696 19.5202 1.6066 5.5902 34.3584
# 2 30.0696 78.7005 13.4329 -10.9066 12.2280 17.6714
# 3 19.5202 13.4329 109.3416 -7.1118 13.3072 9.6571
# 4 1.6066 -10.9066 -7.1118 39.7459 1.5437 7.6841
# 5 5.5902 12.2280 13.3072 1.5437 24.4322 0.9838
# 6 34.3584 17.6714 9.6571 7.6841 0.9838 29.2090
#
#
#
# Elastic Compliance Matrix: (Units=1/GPa)
#
#
# Indices 1 2 3 4 5 6 
#
# 1 0.013152 -0.000948 -0.000534 0.002124 -0.001765 -0.015220
# 2 -0.000948 0.018111 0.000607 0.007749 -0.009193 -0.011771
# 3 -0.000534 0.000607 0.010413 0.003010 -0.005891 -0.003775
# 4 0.002124 0.007749 0.003010 0.031141 -0.007322 -0.016127
# 5 -0.001765 -0.009193 -0.005891 -0.007322 0.049209 0.009855
# 6 -0.015220 -0.011771 -0.003775 -0.016127 0.009855 0.064420
#
#
# Mechanical properties :
#
#
# Convention : Reuss Voigt Hill
#
# Bulk Modulus (GPa) = 25.04711 48.14779 36.59745
# Shear Modulus (GPa) = 24.81328 34.96156 29.88742
#
# Velocity S-wave (km/s) = 3.14527 3.73346 3.45192
# Velocity P-wave (km/s) = 4.81417 6.14661 5.52074
#
# Compressibility (1/GPa) = 0.03992477
#
# Stress axis : x y z
#
# Youngs Moduli (GPa) = 76.03144 55.21654 96.03770
#
# Poissons Ratio (x) = 0.05234 0.05132
# Poissons Ratio (y) = 0.07207 -0.05828
# Poissons Ratio (z) = 0.04063 -0.03351
#
# Static dielectric constant tensor:
#      x y z
#    x 4.351050 0.194970 0.166680 
#    y 0.194970 4.537570 -0.051250 
#    z 0.166680 -0.051250 4.616890 
# 
# 
# High freq. dielectric constant tensor:
#      x y z
#    x 1.998790 0.015560 0.002480 
#    y 0.015560 1.997800 -0.007960 
#    z 0.002480 -0.007960 2.014050 
# 
# From -- ./inp_files/10576.got.cif
#   From: 2010.06.25/outbox.cif.g09.slc.cpg/sg2_6_cif.got.tgz:10576.got - 2010.06.27 13:26:56.
