data_PCOD8021819
_publ_section_title
;
Structure prediction by ZEFSAII (Michael W. Deem and Ramdas Pophale) SiO2 
 PCOD8021819
Probable space group: P -1
;
_chemical_formula_sum "Si O2"
_cell_formula_units_Z 14
_cell_length_a 9.107511
_cell_length_b 10.752582
_cell_length_c 19.217126
_cell_angle_alpha 145.450240
_cell_angle_beta 132.797616
_cell_angle_gamma 71.149525
_cell_volume 644.371318
_symmetry_space_group_name_H-M "P -1"
_symmetry_group_IT_number 2
_symmetry_cell_setting 'triclinic'
loop_
_space_group_symop_operation_xyz
x,y,z
-x,-y,-z
loop_
_atom_site_type_symbol
_atom_site_label
_atom_site_fract_x
_atom_site_fract_y
_atom_site_fract_z
Si Si1 0.505801 0.950635 0.365469
Si Si2 0.672754 0.719688 0.602255
Si Si3 0.881608 0.991564 0.030190
Si Si4 0.595212 0.547734 0.974765
Si Si5 0.165729 0.862352 0.325415
Si Si6 0.643956 0.258726 0.117456
Si Si7 0.628247 0.545971 0.363224
O O1 0.519384 0.745222 0.227332
O O2 0.283101 0.768053 0.264026
O O3 0.458859 0.135777 0.390619
O O4 0.769267 0.161162 0.584863
O O5 0.500000 0.500000 0.500000
O O6 0.718557 0.579710 0.487758
O O7 0.934256 0.943242 0.818665
O O8 0.829061 0.222004 0.116483
O O9 0.653898 0.698288 0.840867
O O10 0.000000 0.000000 0.000000
O O11 0.516356 0.703816 0.972714
O O12 0.500000 0.500000 0.000000
O O13 0.886247 0.725345 0.155489
O O14 0.336030 0.181391 0.518393
O O15 0.769936 0.496394 0.325590
O O16 0.500000 0.000000 0.000000
#
# Coordination Sequence:
#
# PCOD8021819 Si02
#       7
#     2   2   2   2   2   2   2
#     4  10  24  43  72 101 135 181 240 282 345 423
#     4  11  24  41  70 108 134 181 228 288 353 408
#     4  11  24  44  68 100 148 177 231 296 347 414
#     4  12  27  46  69 104 144 185 232 294 364 406
#     4  10  23  46  72  98 135 183 238 284 341 424
#     4  10  25  46  68 101 140 186 232 286 356 417
#     4  10  22  44  68  99 134 177 236 279 346 413
#
# _framework density 21.726603000000001
#
# number of rings (size 3 to 8) (size 9 to 14) (size 15 to 20)
#    0.000    1.429    2.857    0.429   10.000    5.714 
#    5.143    0.000    0.000    0.000    0.000    0.000 
#    0.000    0.000    0.000    0.000    0.000    0.000 
#
# Total GULP energy -173432.956326 kJ/mol
# GULP energy per Si atom -12388.068309 kJ/mol
# Density = 2.167715 g / cm^3
# Si number density = 21.726603 Si / 1000 Ang^3
#
#
#
# Elastic Constant Matrix: (Units=GPa)
#
#
# Indices 1 2 3 4 5 6 
#
# 1 135.6633 38.6518 30.7029 -9.0336 -37.3420 -0.4819
# 2 38.6518 137.8718 35.2768 -23.8352 -14.4585 6.9687
# 3 30.7029 35.2768 88.8301 -18.1656 -23.4571 11.9015
# 4 -9.0336 -23.8352 -18.1656 35.1377 4.8344 -3.7956
# 5 -37.3420 -14.4585 -23.4571 4.8344 37.4347 1.5511
# 6 -0.4819 6.9687 11.9015 -3.7956 1.5511 27.9635
#
#
#
# Elastic Compliance Matrix: (Units=1/GPa)
#
#
# Indices 1 2 3 4 5 6 
#
# 1 0.010654 -0.001891 -0.000447 -0.000064 0.009613 0.000303
# 2 -0.001891 0.009106 -0.001946 0.004614 -0.000150 -0.000839
# 3 -0.000447 -0.001946 0.016363 0.005158 0.008650 -0.006267
# 4 -0.000064 0.004614 0.005158 0.034314 0.000465 0.001286
# 5 0.009613 -0.000150 0.008650 0.000465 0.041842 -0.005736
# 6 0.000303 -0.000839 -0.006267 0.001286 -0.005736 0.039135
#
#
# Mechanical properties :
#
#
# Convention : Reuss Voigt Hill
#
# Bulk Modulus (GPa) = 36.29075 63.51426 49.90251
# Shear Modulus (GPa) = 29.55674 37.28943 33.42309
#
# Velocity S-wave (km/s) = 3.69235 4.14732 3.92643
# Velocity P-wave (km/s) = 5.90911 7.22707 6.60107
#
# Compressibility (1/GPa) = 0.02755523
#
# Stress axis : x y z
#
# Youngs Moduli (GPa) = 93.86321 109.82314 61.11311
#
# Poissons Ratio (x) = 0.20765 0.02730
# Poissons Ratio (y) = 0.17748 0.11893
# Poissons Ratio (z) = 0.04193 0.21372
#
# Static dielectric constant tensor:
#      x y z
#    x 4.886320 -0.407150 -0.645070 
#    y -0.407150 4.314480 -0.098500 
#    z -0.645070 -0.098500 4.184480 
# 
# 
# High freq. dielectric constant tensor:
#      x y z
#    x 1.858160 0.002930 -0.026740 
#    y 0.002930 1.859560 -0.005030 
#    z -0.026740 -0.005030 1.854790 
# 
# From -- ./inp_files/589761.got.cif
#   From: 2010.06.25/outbox.cif.g09.slc.cpg/sg2_295_cif.got.tgz:589761.got - 2010.06.27 13:26:56.
