data_PCOD8021843
_publ_section_title
;
Structure prediction by ZEFSAII (Michael W. Deem and Ramdas Pophale) SiO2 
 PCOD8021843
Probable space group: P -1
;
_chemical_formula_sum "Si O2"
_cell_formula_units_Z 12
_cell_length_a 11.797499
_cell_length_b 5.315145
_cell_length_c 11.952290
_cell_angle_alpha 105.814929
_cell_angle_beta 47.498202
_cell_angle_gamma 77.847673
_cell_volume 441.768180
_symmetry_space_group_name_H-M "P -1"
_symmetry_group_IT_number 2
_symmetry_cell_setting 'triclinic'
loop_
_space_group_symop_operation_xyz
x,y,z
-x,-y,-z
loop_
_atom_site_type_symbol
_atom_site_label
_atom_site_fract_x
_atom_site_fract_y
_atom_site_fract_z
Si Si1 0.534757 0.209631 0.369698
Si Si2 0.205611 0.377491 0.739526
Si Si3 0.942312 0.346210 0.773938
Si Si4 0.674464 0.403677 0.127811
Si Si5 0.312591 0.294638 0.207119
Si Si6 0.696633 0.099962 0.642268
O O1 0.500000 0.500000 0.500000
O O2 0.338407 0.243562 0.523354
O O3 0.569175 0.234464 0.215689
O O4 0.717896 0.906696 0.259304
O O5 0.207722 0.640234 0.843504
O O6 0.998445 0.506444 0.851718
O O7 0.845880 0.589193 0.766946
O O8 0.805325 0.262920 0.914448
O O9 0.131635 0.022697 0.572128
O O10 0.506763 0.773876 0.262018
O O11 0.333817 0.586264 0.244453
O O12 0.249533 0.179979 0.340953
O O13 0.500000 0.000000 0.000000
#
# Coordination Sequence:
#
# PCOD8021843 Si02
#       6
#     2   2   2   2   2   2
#     4   9  19  40  67 100 150 195 250 307 381 457
#     4  10  22  44  69 114 150 204 253 316 393 460
#     4  12  26  48  78 114 159 203 262 327 388 468
#     4  11  25  45  76 112 155 205 257 321 389 471
#     4  12  28  56  82 114 154 210 265 326 394 466
#     4  12  28  53  81 117 157 206 265 325 393 465
#
# _framework density 27.163568999999999
#
# number of rings (size 3 to 8) (size 9 to 14) (size 15 to 20)
#    0.000    1.000    1.667    5.000    4.667    0.667 
#    9.000    0.000    0.000    0.000    0.000    0.000 
#    0.000    0.000    0.000    0.000    0.000    0.000 
#
# Total GULP energy -148727.457157 kJ/mol
# GULP energy per Si atom -12393.954763 kJ/mol
# Density = 2.710174 g / cm^3
# Si number density = 27.163569 Si / 1000 Ang^3
#
#
#
# Elastic Constant Matrix: (Units=GPa)
#
#
# Indices 1 2 3 4 5 6 
#
# 1 110.8420 40.6363 26.8228 3.3916 -21.1275 -33.7270
# 2 40.6363 111.2390 37.9643 -45.6341 -8.5429 -7.5242
# 3 26.8228 37.9643 190.3914 -34.1474 -16.9797 -4.4919
# 4 3.3916 -45.6341 -34.1474 55.4858 -1.8770 9.8389
# 5 -21.1275 -8.5429 -16.9797 -1.8770 32.7935 5.6242
# 6 -33.7270 -7.5242 -4.4919 9.8389 5.6242 43.2128
#
#
#
# Elastic Compliance Matrix: (Units=1/GPa)
#
#
# Indices 1 2 3 4 5 6 
#
# 1 0.019779 -0.010750 -0.002338 -0.014126 0.005203 0.015862
# 2 -0.010750 0.020056 0.000913 0.019435 0.001500 -0.009423
# 3 -0.002338 0.000913 0.006585 0.005508 0.002904 -0.002614
# 4 -0.014126 0.019435 0.005508 0.041420 0.004106 -0.017033
# 5 0.005203 0.001500 0.002904 0.004106 0.036150 -0.001016
# 6 0.015862 -0.009423 -0.002614 -0.017033 -0.001016 0.037619
#
#
# Mechanical properties :
#
#
# Convention : Reuss Voigt Hill
#
# Bulk Modulus (GPa) = 45.31242 69.25768 57.28505
# Shear Modulus (GPa) = 25.86441 46.76835 36.31638
#
# Velocity S-wave (km/s) = 3.08908 4.15388 3.66040
# Velocity P-wave (km/s) = 5.42593 6.96837 6.24495
#
# Compressibility (1/GPa) = 0.02206901
#
# Stress axis : x y z
#
# Youngs Moduli (GPa) = 50.55864 49.86017 151.86082
#
# Poissons Ratio (x) = 0.53599 0.35509
# Poissons Ratio (y) = 0.54350 -0.13858
# Poissons Ratio (z) = 0.11822 -0.04550
#
# Static dielectric constant tensor:
#      x y z
#    x 5.791660 0.328080 -0.178510 
#    y 0.328080 5.406010 -0.581860 
#    z -0.178510 -0.581860 5.093690 
# 
# 
# High freq. dielectric constant tensor:
#      x y z
#    x 2.101630 -0.001260 -0.000790 
#    y -0.001260 2.089170 -0.011900 
#    z -0.000790 -0.011900 2.101230 
# 
# From -- ./inp_files/141939.got.cif
#   From: 2010.06.25/outbox.cif.g09.slc.cpg/sg2_71_cif.got.tgz:141939.got - 2010.06.27 13:26:56.
