data_PCOD8021542
_publ_section_title
;
Structure prediction by ZEFSAII (Michael W. Deem and Ramdas Pophale) SiO2 
 PCOD8021542
Probable space group: P -1
;
_chemical_formula_sum "Si O2"
_cell_formula_units_Z 16
_cell_length_a 14.814716
_cell_length_b 9.314953
_cell_length_c 11.612716
_cell_angle_alpha 142.800454
_cell_angle_beta 110.037789
_cell_angle_gamma 52.800820
_cell_volume 738.937205
_symmetry_space_group_name_H-M "P -1"
_symmetry_group_IT_number 2
_symmetry_cell_setting 'triclinic'
loop_
_space_group_symop_operation_xyz
x,y,z
-x,-y,-z
loop_
_atom_site_type_symbol
_atom_site_label
_atom_site_fract_x
_atom_site_fract_y
_atom_site_fract_z
Si Si1 0.542440 0.843098 0.751004
Si Si2 0.918074 0.248730 0.012830
Si Si3 0.566787 0.703738 0.411911
Si Si4 0.179376 0.827791 0.866613
Si Si5 0.203236 0.327956 0.196921
Si Si6 0.563866 0.565616 0.810316
Si Si7 0.173618 0.730591 0.243524
Si Si8 0.990124 0.585268 0.417807
O O1 0.524722 0.779326 0.573642
O O2 0.670654 0.767630 0.771129
O O3 0.523960 0.662283 0.721505
O O4 0.448681 0.182563 0.955933
O O5 0.845190 0.156844 0.996422
O O6 0.934043 0.461045 0.232644
O O7 0.839020 0.407180 0.966949
O O8 0.047494 0.956201 0.840693
O O9 0.710671 0.503041 0.332970
O O10 0.514794 0.530520 0.231452
O O11 0.500000 0.000000 0.500000
O O12 0.214082 0.040594 0.974724
O O13 0.148903 0.576559 0.234443
O O14 0.122697 0.452496 0.353361
O O15 0.702517 0.311568 0.715012
O O16 0.081436 0.074574 0.419680
O O17 0.000000 0.500000 0.500000
#
# Coordination Sequence:
#
# PCOD8021542 Si02
#       8
#     2   2   2   2   2   2   2   2
#     4  10  23  45  70  89 129 176 212 272 330 381
#     4  10  24  43  66  94 132 178 209 262 334 384
#     4  12  27  40  68 101 128 169 222 271 320 395
#     4  10  22  44  63  94 133 168 215 261 331 383
#     4  10  22  44  67  97 128 171 219 270 325 382
#     4  10  24  47  64  95 131 169 219 267 329 384
#     4  11  24  42  69  96 130 169 221 271 315 393
#     4  11  24  41  67  97 136 171 213 266 326 392
#
# _framework density 21.652719999999999
#
# number of rings (size 3 to 8) (size 9 to 14) (size 15 to 20)
#    0.000    1.500    1.250    3.000    7.000    3.500 
#    4.500    0.000    0.000    0.000    0.000    0.000 
#    0.000    0.000    0.000    0.000    0.000    0.000 
#
# Total GULP energy -198291.375785 kJ/mol
# GULP energy per Si atom -12393.210987 kJ/mol
# Density = 2.160344 g / cm^3
# Si number density = 21.652720 Si / 1000 Ang^3
#
#
#
# Elastic Constant Matrix: (Units=GPa)
#
#
# Indices 1 2 3 4 5 6 
#
# 1 100.9303 30.2328 20.2840 9.9381 0.0747 17.0238
# 2 30.2328 100.6011 43.6505 8.9379 -1.0509 16.3014
# 3 20.2840 43.6505 70.4088 10.2123 -11.5851 -0.1006
# 4 9.9381 8.9379 10.2123 39.6450 1.7508 -0.2437
# 5 0.0747 -1.0509 -11.5851 1.7508 29.8899 0.4855
# 6 17.0238 16.3014 -0.1006 -0.2437 0.4855 19.1626
#
#
#
# Elastic Compliance Matrix: (Units=1/GPa)
#
#
# Indices 1 2 3 4 5 6 
#
# 1 0.012775 -0.000461 -0.003242 -0.002287 -0.000992 -0.010978
# 2 -0.000461 0.017177 -0.010963 -0.000872 -0.003363 -0.014186
# 3 -0.003242 -0.010963 0.023871 -0.003182 0.008865 0.012067
# 4 -0.002287 -0.000872 -0.003182 0.026960 -0.002889 0.003173
# 5 -0.000992 -0.003363 0.008865 -0.002889 0.036900 0.002817
# 6 -0.010978 -0.014186 0.012067 0.003173 0.002817 0.074038
#
#
# Mechanical properties :
#
#
# Convention : Reuss Voigt Hill
#
# Bulk Modulus (GPa) = 40.83181 51.14166 45.98674
# Shear Modulus (GPa) = 21.81345 29.59100 25.70222
#
# Velocity S-wave (km/s) = 3.17744 3.70079 3.44905
# Velocity P-wave (km/s) = 5.68858 6.47545 6.09473
#
# Compressibility (1/GPa) = 0.02449071
#
# Stress axis : x y z
#
# Youngs Moduli (GPa) = 78.27801 58.21861 41.89197
#
# Poissons Ratio (x) = 0.02683 0.13581
# Poissons Ratio (y) = 0.03607 0.45927
# Poissons Ratio (z) = 0.25377 0.63826
#
# Static dielectric constant tensor:
#      x y z
#    x 4.023720 0.110710 -0.112400 
#    y 0.110710 4.013650 0.009440 
#    z -0.112400 0.009440 4.029750 
# 
# 
# High freq. dielectric constant tensor:
#      x y z
#    x 1.862830 0.003260 -0.003540 
#    y 0.003260 1.849780 0.011100 
#    z -0.003540 0.011100 1.845330 
# 
# From -- ./inp_files/448373.got.cif
#   From: 2010.06.25/outbox.cif.g09.slc.cpg/sg2_225_cif.got.tgz:448373.got - 2010.06.27 13:26:56.
