data_PCOD8021585
_publ_section_title
;
Structure prediction by ZEFSAII (Michael W. Deem and Ramdas Pophale) SiO2 
 PCOD8021585
Probable space group: P -1
;
_chemical_formula_sum "Si O2"
_cell_formula_units_Z 14
_cell_length_a 8.994593
_cell_length_b 11.982049
_cell_length_c 19.080989
_cell_angle_alpha 151.804228
_cell_angle_beta 45.352281
_cell_angle_gamma 117.600007
_cell_volume 612.245980
_symmetry_space_group_name_H-M "P -1"
_symmetry_group_IT_number 2
_symmetry_cell_setting 'triclinic'
loop_
_space_group_symop_operation_xyz
x,y,z
-x,-y,-z
loop_
_atom_site_type_symbol
_atom_site_label
_atom_site_fract_x
_atom_site_fract_y
_atom_site_fract_z
Si Si1 0.390848 0.399372 0.720749
Si Si2 0.215340 0.996577 0.533024
Si Si3 0.862973 0.665242 0.570669
Si Si4 0.791293 0.228426 0.895951
Si Si5 0.352439 0.743885 0.794318
Si Si6 0.974410 0.647875 0.792110
Si Si7 0.661708 0.458893 0.856630
O O1 0.647583 0.217311 0.569510
O O2 0.396023 0.615958 0.786240
O O3 0.329124 0.189975 0.585527
O O4 0.190980 0.572700 0.941361
O O5 0.215860 0.851200 0.379637
O O6 0.949270 0.195245 0.756306
O O7 0.610587 0.677845 0.645723
O O8 0.000000 0.500000 0.500000
O O9 0.000594 0.555547 0.391242
O O10 0.853652 0.942816 0.747966
O O11 0.516042 0.360618 0.043843
O O12 0.227978 0.613469 0.713978
O O13 0.183768 0.059570 0.025435
O O14 0.854937 0.570797 0.855715
O O15 0.500000 0.500000 0.000000
#
# Coordination Sequence:
#
# PCOD8021585 Si02
#       7
#     2   2   2   2   2   2   2
#     4  10  23  41  66  99 132 173 220 279 342 398
#     4  10  22  44  64  97 133 169 229 283 326 404
#     4  12  24  41  74 101 133 179 225 276 339 399
#     4  11  22  40  68  95 132 170 230 278 331 394
#     4  11  25  44  66  98 138 182 217 278 341 398
#     4  11  25  47  64  99 142 172 229 279 330 410
#     4  11  25  43  68  97 130 178 227 277 336 397
#
# _framework density 22.866627000000001
#
# number of rings (size 3 to 8) (size 9 to 14) (size 15 to 20)
#    0.000    1.143    2.857    2.571    4.000    2.857 
#    5.143    0.000    0.000    0.000    0.000    0.000 
#    0.000    0.000    0.000    0.000    0.000    0.000 
#
# Total GULP energy -173504.936707 kJ/mol
# GULP energy per Si atom -12393.209765 kJ/mol
# Density = 2.281458 g / cm^3
# Si number density = 22.866627 Si / 1000 Ang^3
#
#
#
# Elastic Constant Matrix: (Units=GPa)
#
#
# Indices 1 2 3 4 5 6 
#
# 1 68.6687 11.9557 27.9641 2.4912 -7.6018 13.7254
# 2 11.9557 89.1448 22.4225 -6.1551 3.2513 9.9528
# 3 27.9641 22.4225 110.8521 -3.1310 12.2504 3.1264
# 4 2.4912 -6.1551 -3.1310 39.1885 3.6944 0.3933
# 5 -7.6018 3.2513 12.2504 3.6944 39.4874 -2.3433
# 6 13.7254 9.9528 3.1264 0.3933 -2.3433 30.3825
#
#
#
# Elastic Compliance Matrix: (Units=1/GPa)
#
#
# Indices 1 2 3 4 5 6 
#
# 1 0.018828 -0.000779 -0.004998 -0.002117 0.005003 -0.007323
# 2 -0.000779 0.012410 -0.002054 0.001958 -0.000931 -0.003599
# 3 -0.004998 -0.002054 0.011167 0.001278 -0.004292 0.001434
# 4 -0.002117 0.001958 0.001278 0.026392 -0.003460 -0.000425
# 5 0.005003 -0.000931 -0.004292 -0.003460 0.028061 0.000696
# 6 -0.007323 -0.003599 0.001434 -0.000425 0.000696 0.037312
#
#
# Mechanical properties :
#
#
# Convention : Reuss Voigt Hill
#
# Bulk Modulus (GPa) = 37.39300 43.70558 40.54929
# Shear Modulus (GPa) = 31.49660 35.56657 33.53159
#
# Velocity S-wave (km/s) = 3.71537 3.94812 3.83351
# Velocity P-wave (km/s) = 5.89859 6.31968 6.11276
#
# Compressibility (1/GPa) = 0.02674297
#
# Stress axis : x y z
#
# Youngs Moduli (GPa) = 53.11228 80.58132 89.54706
#
# Poissons Ratio (x) = 0.06277 0.44758
# Poissons Ratio (y) = 0.04137 0.18392
# Poissons Ratio (z) = 0.26547 0.16551
#
# Static dielectric constant tensor:
#      x y z
#    x 4.218490 0.090050 -0.027790 
#    y 0.090050 3.923500 0.075150 
#    z -0.027790 0.075150 4.397680 
# 
# 
# High freq. dielectric constant tensor:
#      x y z
#    x 1.900990 0.007910 -0.007920 
#    y 0.007910 1.900750 0.010790 
#    z -0.007920 0.010790 1.914340 
# 
# From -- ./inp_files/44152.got.cif
#   From: 2010.06.25/outbox.cif.g09.slc.cpg/sg2_23_cif.got.tgz:44152.got - 2010.06.27 13:26:56.
