data_PCOD8021988
_publ_section_title
;
Structure prediction by ZEFSAII (Michael W. Deem and Ramdas Pophale) SiO2 
 PCOD8021988
Probable space group: P -1
;
_chemical_formula_sum "Si O2"
_cell_formula_units_Z 12
_cell_length_a 14.496069
_cell_length_b 9.118706
_cell_length_c 11.481495
_cell_angle_alpha 54.508331
_cell_angle_beta 150.960636
_cell_angle_gamma 133.407595
_cell_volume 534.321113
_symmetry_space_group_name_H-M "P -1"
_symmetry_group_IT_number 2
_symmetry_cell_setting 'triclinic'
loop_
_space_group_symop_operation_xyz
x,y,z
-x,-y,-z
loop_
_atom_site_type_symbol
_atom_site_label
_atom_site_fract_x
_atom_site_fract_y
_atom_site_fract_z
Si Si1 0.590051 0.428003 0.021959
Si Si2 0.353854 0.058781 0.233899
Si Si3 0.018504 0.296454 0.107331
Si Si4 0.105504 0.253119 0.970219
Si Si5 0.159080 0.226855 0.537485
Si Si6 0.229430 0.627584 0.546244
O O1 0.715975 0.583758 0.989246
O O2 0.758263 0.363330 0.301892
O O3 0.500000 0.500000 0.000000
O O4 0.391376 0.250025 0.818574
O O5 0.518735 0.271594 0.261662
O O6 0.500000 0.000000 0.500000
O O7 0.154100 0.060768 0.087093
O O8 0.224709 0.885915 0.076076
O O9 0.148250 0.263921 0.371234
O O10 0.148663 0.311886 0.125660
O O11 0.000000 0.500000 0.000000
O O12 0.878575 0.237534 0.684464
O O13 0.113427 0.397135 0.475606
O O14 0.000000 0.000000 0.500000
#
# Coordination Sequence:
#
# PCOD8021988 Si02
#       6
#     2   2   2   2   2   2
#     4  10  22  44  71  96 140 192 238 295 348 434
#     4  12  24  46  74 104 141 191 248 291 356 442
#     4  12  26  46  72 110 153 183 238 314 360 431
#     4  12  24  45  77 106 137 197 250 289 368 430
#     4  11  23  45  72 102 150 192 230 305 369 413
#     4  11  23  47  73 103 142 193 248 294 351 447
#
# _framework density 22.458404000000002
#
# number of rings (size 3 to 8) (size 9 to 14) (size 15 to 20)
#    0.000    0.667    6.667    2.000    2.333    0.667 
#    0.000    0.833    0.000    0.000    0.000    0.000 
#    0.000    0.000    0.000    0.000    0.000    0.000 
#
# Total GULP energy -148662.111496 kJ/mol
# GULP energy per Si atom -12388.509291 kJ/mol
# Density = 2.240729 g / cm^3
# Si number density = 22.458404 Si / 1000 Ang^3
#
#
#
# Elastic Constant Matrix: (Units=GPa)
#
#
# Indices 1 2 3 4 5 6 
#
# 1 115.7778 57.7557 68.0972 -2.0442 -22.3884 11.2987
# 2 57.7557 125.9193 59.7051 1.3273 -3.2230 -11.7289
# 3 68.0972 59.7051 190.5208 -3.9700 -32.4396 -5.0868
# 4 -2.0442 1.3273 -3.9700 46.7283 6.0916 -0.8238
# 5 -22.3884 -3.2230 -32.4396 6.0916 56.2324 -4.4535
# 6 11.2987 -11.7289 -5.0868 -0.8238 -4.4535 24.2957
#
#
#
# Elastic Compliance Matrix: (Units=1/GPa)
#
#
# Indices 1 2 3 4 5 6 
#
# 1 0.015315 -0.006375 -0.003232 -0.000003 0.003051 -0.010318
# 2 -0.006375 0.012415 -0.001769 -0.000356 -0.002161 0.008180
# 3 -0.003232 -0.001769 0.007581 0.000187 0.003189 0.002827
# 4 -0.000003 -0.000356 0.000187 0.021723 -0.002252 0.000193
# 5 0.003051 -0.002161 0.003189 -0.002252 0.021116 0.002000
# 6 -0.010318 0.008180 0.002827 0.000193 0.002000 0.050872
#
#
# Mechanical properties :
#
#
# Convention : Reuss Voigt Hill
#
# Bulk Modulus (GPa) = 79.62874 89.25933 84.44403
# Shear Modulus (GPa) = 32.05948 41.89528 36.97738
#
# Velocity S-wave (km/s) = 3.78233 4.32378 4.06209
# Velocity P-wave (km/s) = 7.38971 8.04720 7.72545
#
# Compressibility (1/GPa) = 0.01255828
#
# Stress axis : x y z
#
# Youngs Moduli (GPa) = 65.29357 80.54987 131.91355
#
# Poissons Ratio (x) = 0.51351 0.42640
# Poissons Ratio (y) = 0.41625 0.23333
# Poissons Ratio (z) = 0.21106 0.14248
#
# Static dielectric constant tensor:
#      x y z
#    x 4.554100 0.592320 -0.311030 
#    y 0.592320 4.509410 -0.260820 
#    z -0.311030 -0.260820 4.871520 
# 
# 
# High freq. dielectric constant tensor:
#      x y z
#    x 1.882580 0.034240 -0.009810 
#    y 0.034240 1.893790 -0.011870 
#    z -0.009810 -0.011870 1.906730 
# 
# From -- ./inp_files/161870.got.cif
#   From: 2010.06.25/outbox.cif.g09.slc.cpg/sg2_81_cif.got.tgz:161870.got - 2010.06.27 13:26:56.
