data_PCOD8021922
_publ_section_title
;
Structure prediction by ZEFSAII (Michael W. Deem and Ramdas Pophale) SiO2 
 PCOD8021922
Probable space group: P -1
;
_chemical_formula_sum "Si O2"
_cell_formula_units_Z 16
_cell_length_a 9.619884
_cell_length_b 13.587540
_cell_length_c 9.766516
_cell_angle_alpha 55.788447
_cell_angle_beta 56.795687
_cell_angle_gamma 48.272744
_cell_volume 756.152971
_symmetry_space_group_name_H-M "P -1"
_symmetry_group_IT_number 2
_symmetry_cell_setting 'triclinic'
loop_
_space_group_symop_operation_xyz
x,y,z
-x,-y,-z
loop_
_atom_site_type_symbol
_atom_site_label
_atom_site_fract_x
_atom_site_fract_y
_atom_site_fract_z
Si Si1 0.431798 0.907469 0.684232
Si Si2 0.188331 0.936384 0.354808
Si Si3 0.047348 0.939786 0.875842
Si Si4 0.193305 0.633709 0.030411
Si Si5 0.524769 0.628284 0.420328
Si Si6 0.143215 0.368359 0.936677
Si Si7 0.447677 0.383927 0.272566
Si Si8 0.413042 0.074418 0.134048
O O1 0.213431 0.964471 0.706069
O O2 0.549771 0.743951 0.707929
O O3 0.439269 0.928267 0.829202
O O4 0.500000 0.000000 0.500000
O O5 0.314164 0.769335 0.406033
O O6 0.318986 0.989662 0.312698
O O7 0.000000 0.000000 0.500000
O O8 0.129135 0.998500 0.184459
O O9 0.130851 0.783511 0.999764
O O10 0.000000 0.000000 0.000000
O O11 0.359905 0.602733 0.851793
O O12 0.271770 0.523940 0.196108
O O13 0.996679 0.646346 0.078979
O O14 0.500000 0.500000 0.500000
O O15 0.689062 0.620006 0.239082
O O16 0.596658 0.622260 0.540357
O O17 0.247745 0.234347 0.081342
O O18 0.000000 0.500000 0.000000
O O19 0.500000 0.000000 0.000000
#
# Coordination Sequence:
#
# PCOD8021922 Si02
#       8
#     2   2   2   2   2   2   2   2
#     4  11  24  42  67 101 141 183 226 285 356 416
#     4  12  25  46  72 102 141 184 231 293 354 419
#     4  11  24  40  68  99 132 175 229 280 343 412
#     4  10  22  44  70  95 134 184 226 289 349 422
#     4  12  28  44  70 104 143 188 239 298 357 425
#     4  12  26  44  70 101 138 186 241 291 357 423
#     4  10  23  46  68  99 142 182 233 291 361 422
#     4  12  24  45  73 103 138 185 241 291 346 421
#
# _framework density 21.159738999999998
#
# number of rings (size 3 to 8) (size 9 to 14) (size 15 to 20)
#    0.000    0.750    2.500    5.250    3.500    1.500 
#    2.250    0.000    0.000    0.000    0.000    0.000 
#    0.000    0.000    0.000    0.000    0.000    0.000 
#
# Total GULP energy -198282.139009 kJ/mol
# GULP energy per Si atom -12392.633688 kJ/mol
# Density = 2.111158 g / cm^3
# Si number density = 21.159739 Si / 1000 Ang^3
#
#
#
# Elastic Constant Matrix: (Units=GPa)
#
#
# Indices 1 2 3 4 5 6 
#
# 1 108.6938 29.8745 29.1219 -4.2174 -8.6852 6.6070
# 2 29.8745 118.5854 60.7733 -5.0770 -7.3276 -0.0922
# 3 29.1219 60.7733 91.0921 -7.1238 -0.7095 8.0357
# 4 -4.2174 -5.0770 -7.1238 43.2959 1.6903 5.4984
# 5 -8.6852 -7.3276 -0.7095 1.6903 47.8787 0.1607
# 6 6.6070 -0.0922 8.0357 5.4984 0.1607 35.7082
#
#
#
# Elastic Compliance Matrix: (Units=1/GPa)
#
#
# Indices 1 2 3 4 5 6 
#
# 1 0.010418 -0.001355 -0.002230 0.000620 0.001633 -0.001532
# 2 -0.001355 0.013300 -0.008655 -0.000351 0.001666 0.002279
# 3 -0.002230 -0.008655 0.017986 0.002295 -0.001530 -0.004004
# 4 0.000620 -0.000351 0.002295 0.024073 -0.000743 -0.004336
# 5 0.001633 0.001666 -0.001530 -0.000743 0.021441 0.000064
# 6 -0.001532 0.002279 -0.004004 -0.004336 0.000064 0.029862
#
#
# Mechanical properties :
#
#
# Convention : Reuss Voigt Hill
#
# Bulk Modulus (GPa) = 58.06446 61.99007 60.02727
# Shear Modulus (GPa) = 33.94395 38.61667 36.28031
#
# Velocity S-wave (km/s) = 4.00956 4.27664 4.14525
# Velocity P-wave (km/s) = 6.99543 7.33117 7.16527
#
# Compressibility (1/GPa) = 0.01722224
#
# Stress axis : x y z
#
# Youngs Moduli (GPa) = 95.98982 75.19033 55.59869
#
# Poissons Ratio (x) = 0.10192 0.12398
# Poissons Ratio (y) = 0.13011 0.48122
# Poissons Ratio (z) = 0.21404 0.65079
#
# Static dielectric constant tensor:
#      x y z
#    x 3.854980 0.073980 -0.220670 
#    y 0.073980 3.960990 -0.029540 
#    z -0.220670 -0.029540 3.854880 
# 
# 
# High freq. dielectric constant tensor:
#      x y z
#    x 1.841870 0.004280 -0.004580 
#    y 0.004280 1.841410 -0.007740 
#    z -0.004580 -0.007740 1.833350 
# 
# From -- ./inp_files/199337.got.cif
#   From: 2010.06.25/outbox.cif.g09.slc.cpg/sg2_100_cif.got.tgz:199337.got - 2010.06.27 13:26:56.
