data_PCOD8021740
_publ_section_title
;
Structure prediction by ZEFSAII (Michael W. Deem and Ramdas Pophale) SiO2 
 PCOD8021740
Probable space group: P -1
;
_chemical_formula_sum "Si O2"
_cell_formula_units_Z 14
_cell_length_a 23.075091
_cell_length_b 5.356501
_cell_length_c 16.503124
_cell_angle_alpha 124.711131
_cell_angle_beta 159.323931
_cell_angle_gamma 63.179149
_cell_volume 568.194533
_symmetry_space_group_name_H-M "P -1"
_symmetry_group_IT_number 2
_symmetry_cell_setting 'triclinic'
loop_
_space_group_symop_operation_xyz
x,y,z
-x,-y,-z
loop_
_atom_site_type_symbol
_atom_site_label
_atom_site_fract_x
_atom_site_fract_y
_atom_site_fract_z
Si Si1 0.938007 0.714150 0.187500
Si Si2 0.260590 0.920395 0.112413
Si Si3 0.622521 0.894523 0.532432
Si Si4 0.354354 0.658805 0.820276
Si Si5 0.858611 0.645248 0.381983
Si Si6 0.508304 0.646506 0.856483
Si Si7 0.941890 0.314468 0.971707
O O1 0.825116 0.455666 0.054118
O O2 0.014952 0.547335 0.185835
O O3 0.086864 0.968072 0.479589
O O4 0.834335 0.939871 0.054426
O O5 0.449415 0.978227 0.337284
O O6 0.271664 0.112379 0.246998
O O7 0.593469 0.560205 0.388170
O O8 0.734714 0.189194 0.680171
O O9 0.170150 0.459369 0.579457
O O10 0.360102 0.665053 0.731060
O O11 0.500000 0.500000 0.000000
O O12 0.403852 0.998763 0.991804
O O13 0.000000 0.500000 0.500000
O O14 0.668257 0.512607 0.069315
O O15 0.000000 0.500000 0.000000
O O16 0.000000 0.000000 0.000000
#
# Coordination Sequence:
#
# PCOD8021740 Si02
#       7
#     2   2   2   2   2   2   2
#     4  11  25  45  70  99 147 176 231 292 343 414
#     4  10  24  46  69 106 131 187 226 287 355 408
#     4  10  23  43  72  95 137 176 232 287 343 424
#     4   9  22  42  61  97 131 180 236 274 352 410
#     4  11  25  41  69 102 138 186 231 293 350 417
#     4  10  22  44  67  97 134 183 230 288 346 414
#     4  11  25  43  66 102 132 180 227 275 348 407
#
# _framework density 24.639446
#
# number of rings (size 3 to 8) (size 9 to 14) (size 15 to 20)
#    0.000    1.714    0.000    2.571    6.000   10.286 
#   12.857    0.000    0.000    0.000    0.000    0.000 
#    0.000    0.000    0.000    0.000    0.000    0.000 
#
# Total GULP energy -173511.424806 kJ/mol
# GULP energy per Si atom -12393.673200 kJ/mol
# Density = 2.458337 g / cm^3
# Si number density = 24.639446 Si / 1000 Ang^3
#
#
#
# Elastic Constant Matrix: (Units=GPa)
#
#
# Indices 1 2 3 4 5 6 
#
# 1 109.4825 48.7744 61.6286 14.9668 38.1282 -10.6372
# 2 48.7744 118.6589 30.5343 28.0255 13.8591 2.3844
# 3 61.6286 30.5343 111.3083 33.8269 10.8492 -1.5797
# 4 14.9668 28.0255 33.8269 36.0379 -7.7349 -7.8468
# 5 38.1282 13.8591 10.8492 -7.7349 51.6988 9.1381
# 6 -10.6372 2.3844 -1.5797 -7.8468 9.1381 47.7763
#
#
#
# Elastic Compliance Matrix: (Units=1/GPa)
#
#
# Indices 1 2 3 4 5 6 
#
# 1 0.023211 -0.006300 -0.010987 0.004429 -0.013967 0.008518
# 2 -0.006300 0.013056 0.003503 -0.011788 -0.000691 -0.003742
# 3 -0.010987 0.003503 0.018963 -0.016720 0.001574 -0.005041
# 4 0.004429 -0.011788 -0.016720 0.054708 0.010162 0.008063
# 5 -0.013967 -0.000691 0.001574 0.010162 0.032352 -0.007542
# 6 0.008518 -0.003742 -0.005041 0.008063 -0.007542 0.025614
#
#
# Mechanical properties :
#
#
# Convention : Reuss Voigt Hill
#
# Bulk Modulus (GPa) = 36.15006 69.03603 52.59304
# Shear Modulus (GPa) = 24.42697 40.33676 32.38186
#
# Velocity S-wave (km/s) = 3.15203 4.05047 3.62916
# Velocity P-wave (km/s) = 5.28683 7.06785 6.24119
#
# Compressibility (1/GPa) = 0.02766247
#
# Stress axis : x y z
#
# Youngs Moduli (GPa) = 43.08233 76.59570 52.73478
#
# Poissons Ratio (x) = 0.48252 0.57941
# Poissons Ratio (y) = 0.27140 -0.18474
# Poissons Ratio (z) = 0.47335 -0.26833
#
# Static dielectric constant tensor:
#      x y z
#    x 5.537970 0.096940 0.432360 
#    y 0.096940 4.504950 0.085210 
#    z 0.432360 0.085210 4.835990 
# 
# 
# High freq. dielectric constant tensor:
#      x y z
#    x 1.981740 -0.006800 0.016580 
#    y -0.006800 1.983200 0.006660 
#    z 0.016580 0.006660 1.983990 
# 
# From -- ./inp_files/578782.got.cif
#   From: 2010.06.25/outbox.cif.g09.slc.cpg/sg2_290_cif.got.tgz:578782.got - 2010.06.27 13:26:56.
