data_PCOD8021274
_publ_section_title
;
Structure prediction by ZEFSAII (Michael W. Deem and Ramdas Pophale) SiO2 
 PCOD8021274
Probable space group: P -1
;
_chemical_formula_sum "Si O2"
_cell_formula_units_Z 14
_cell_length_a 9.325445
_cell_length_b 14.820402
_cell_length_c 15.569834
_cell_angle_alpha 26.925688
_cell_angle_beta 49.465817
_cell_angle_gamma 68.613468
_cell_volume 578.656666
_symmetry_space_group_name_H-M "P -1"
_symmetry_group_IT_number 2
_symmetry_cell_setting 'triclinic'
loop_
_space_group_symop_operation_xyz
x,y,z
-x,-y,-z
loop_
_atom_site_type_symbol
_atom_site_label
_atom_site_fract_x
_atom_site_fract_y
_atom_site_fract_z
Si Si1 0.130930 0.033909 0.157110
Si Si2 0.619487 0.796189 0.574083
Si Si3 0.719903 0.314882 0.058964
Si Si4 0.447179 0.485037 0.326621
Si Si5 0.257271 0.730162 0.446991
Si Si6 0.851755 0.712376 0.230044
Si Si7 0.657509 0.194025 0.001291
O O1 0.255852 0.900811 0.229356
O O2 0.285754 0.299515 0.922952
O O3 0.096889 0.071104 0.038634
O O4 0.862888 0.835668 0.470820
O O5 0.417625 0.632284 0.864997
O O6 0.517756 0.654857 0.642225
O O7 0.703591 0.077908 0.297226
O O8 0.587595 0.245366 0.076936
O O9 0.001571 0.554310 0.744032
O O10 0.275461 0.283313 0.639716
O O11 0.321212 0.606805 0.241031
O O12 0.322555 0.565644 0.513164
O O13 0.456130 0.904956 0.293639
O O14 0.092527 0.755422 0.126420
#
# Coordination Sequence:
#
# PCOD8021274 Si02
#       7
#     2   2   2   2   2   2   2
#     4  11  24  42  66 101 129 172 217 259 325 382
#     4  11  23  43  68  94 129 167 222 267 320 387
#     4  10  23  44  67  94 127 172 213 273 326 373
#     4  11  26  41  66 102 129 171 220 263 318 386
#     4  10  23  43  66  99 134 164 215 268 316 388
#     4  11  23  45  65  97 136 174 211 260 325 379
#     4  10  22  43  69  97 129 174 213 263 328 377
#
# _framework density 24.193964999999999
#
# number of rings (size 3 to 8) (size 9 to 14) (size 15 to 20)
#    0.000    1.429    2.857    2.571    2.000    7.429 
#    2.571    5.714    0.000    0.000    0.000    0.000 
#    0.000    0.000    0.000    0.000    0.000    0.000 
#
# Total GULP energy -173639.709805 kJ/mol
# GULP energy per Si atom -12402.836415 kJ/mol
# Density = 2.413890 g / cm^3
# Si number density = 24.193965 Si / 1000 Ang^3
#
#
#
# Elastic Constant Matrix: (Units=GPa)
#
#
# Indices 1 2 3 4 5 6 
#
# 1 77.0080 21.5291 11.9479 -0.5339 -1.7693 22.9865
# 2 21.5291 165.6933 43.8511 14.6963 -10.4341 23.2534
# 3 11.9479 43.8511 63.5231 0.9375 -3.7194 12.4970
# 4 -0.5339 14.6963 0.9375 32.4257 5.1752 1.1543
# 5 -1.7693 -10.4341 -3.7194 5.1752 30.6315 -10.8849
# 6 22.9865 23.2534 12.4970 1.1543 -10.8849 26.9376
#
#
#
# Elastic Compliance Matrix: (Units=1/GPa)
#
#
# Indices 1 2 3 4 5 6 
#
# 1 0.018235 -0.000433 -0.000041 0.002029 -0.005678 -0.017549
# 2 -0.000433 0.008316 -0.004762 -0.003741 0.001499 -0.003834
# 3 -0.000041 -0.004762 0.020075 0.002049 -0.001635 -0.005917
# 4 0.002029 -0.003741 0.002049 0.033957 -0.008136 -0.004195
# 5 -0.005678 0.001499 -0.001635 -0.008136 0.041639 0.021484
# 6 -0.017549 -0.003834 -0.005917 -0.004195 0.021484 0.067012
#
#
# Mechanical properties :
#
#
# Convention : Reuss Voigt Hill
#
# Bulk Modulus (GPa) = 27.65926 51.20896 39.43411
# Shear Modulus (GPa) = 23.61177 33.25872 28.43525
#
# Velocity S-wave (km/s) = 3.12739 3.71168 3.43199
# Velocity P-wave (km/s) = 4.94953 6.29132 5.66032
#
# Compressibility (1/GPa) = 0.03615426
#
# Stress axis : x y z
#
# Youngs Moduli (GPa) = 54.83984 120.24858 49.81250
#
# Poissons Ratio (x) = 0.05210 0.00203
# Poissons Ratio (y) = 0.02376 0.23721
# Poissons Ratio (z) = 0.00223 0.57263
#
# Static dielectric constant tensor:
#      x y z
#    x 4.454660 0.128040 0.018130 
#    y 0.128040 4.573830 -0.017870 
#    z 0.018130 -0.017870 4.594820 
# 
# 
# High freq. dielectric constant tensor:
#      x y z
#    x 1.974100 0.003770 0.005280 
#    y 0.003770 1.949560 -0.015280 
#    z 0.005280 -0.015280 1.969170 
# 
# From -- ./inp_files/503565.got.cif
#   From: 2010.06.25/outbox.cif.g09.slc.cpg/sg2_252_cif.got.tgz:503565.got - 2010.06.27 13:26:56.
