data_PCOD8021750
_publ_section_title
;
Structure prediction by ZEFSAII (Michael W. Deem and Ramdas Pophale) SiO2 
 PCOD8021750
Probable space group: P -1
;
_chemical_formula_sum "Si O2"
_cell_formula_units_Z 16
_cell_length_a 13.680719
_cell_length_b 11.346698
_cell_length_c 6.372754
_cell_angle_alpha 64.581683
_cell_angle_beta 87.389803
_cell_angle_gamma 124.200626
_cell_volume 682.345383
_symmetry_space_group_name_H-M "P -1"
_symmetry_group_IT_number 2
_symmetry_cell_setting 'triclinic'
loop_
_space_group_symop_operation_xyz
x,y,z
-x,-y,-z
loop_
_atom_site_type_symbol
_atom_site_label
_atom_site_fract_x
_atom_site_fract_y
_atom_site_fract_z
Si Si1 0.953596 0.307835 0.350891
Si Si2 0.896941 0.801765 0.618461
Si Si3 0.599980 0.773227 0.579915
Si Si4 0.681765 0.501365 0.106280
Si Si5 0.606159 0.003132 0.089233
Si Si6 0.805586 0.349606 0.017971
Si Si7 0.751771 0.725150 0.296121
Si Si8 0.238373 0.034858 0.184999
O O1 0.845266 0.283509 0.245009
O O2 0.032996 0.266487 0.246645
O O3 0.882746 0.168962 0.650593
O O4 0.068710 0.506353 0.245962
O O5 0.868132 0.777327 0.391203
O O6 0.757064 0.682603 0.837023
O O7 0.000000 0.000000 0.500000
O O8 0.470539 0.619085 0.832133
O O9 0.639920 0.698301 0.463299
O O10 0.719230 0.893715 0.635902
O O11 0.567016 0.884762 0.387735
O O12 0.732727 0.405236 0.098824
O O13 0.700232 0.550497 0.315390
O O14 0.716929 0.200138 0.978762
O O15 0.500000 0.000000 0.000000
O O16 0.643676 0.932647 0.962073
O O17 0.805938 0.875417 0.006372
#
# Coordination Sequence:
#
# PCOD8021750 Si02
#       8
#     2   2   2   2   2   2   2   2
#     4  10  22  44  67  98 134 182 224 280 339 397
#     4  11  25  45  69  97 139 174 232 292 336 401
#     4  11  24  44  69  99 142 173 229 288 335 411
#     4  11  25  43  70  99 135 187 218 282 354 397
#     4  11  25  42  68 104 137 180 231 276 340 418
#     4  10  23  45  68  99 143 175 230 284 332 410
#     4  11  25  44  68 102 132 176 236 278 342 413
#     4  11  24  43  73  98 134 187 221 281 351 391
#
# _framework density 23.448536000000001
#
# number of rings (size 3 to 8) (size 9 to 14) (size 15 to 20)
#    0.000    1.250    1.250    3.375    3.500    9.500 
#    4.500    0.000    0.000    0.000    0.000    0.000 
#    0.000    0.000    0.000    0.000    0.000    0.000 
#
# Total GULP energy -198235.555684 kJ/mol
# GULP energy per Si atom -12389.722230 kJ/mol
# Density = 2.339517 g / cm^3
# Si number density = 23.448536 Si / 1000 Ang^3
#
#
#
# Elastic Constant Matrix: (Units=GPa)
#
#
# Indices 1 2 3 4 5 6 
#
# 1 70.2267 16.6595 22.7061 -2.7559 9.0891 3.0415
# 2 16.6595 112.4468 28.3860 -0.2607 -1.8692 13.5374
# 3 22.7061 28.3860 98.6617 -14.0949 -6.6688 11.2070
# 4 -2.7559 -0.2607 -14.0949 43.1113 6.7208 -9.7414
# 5 9.0891 -1.8692 -6.6688 6.7208 28.9750 -5.9434
# 6 3.0415 13.5374 11.2070 -9.7414 -5.9434 40.4707
#
#
#
# Elastic Compliance Matrix: (Units=1/GPa)
#
#
# Indices 1 2 3 4 5 6 
#
# 1 0.016685 -0.001598 -0.003654 0.000762 -0.006451 -0.000472
# 2 -0.001598 0.010088 -0.002400 -0.001539 0.000360 -0.002907
# 3 -0.003654 -0.002400 0.012441 0.003098 0.002890 -0.001198
# 4 0.000762 -0.001539 0.003098 0.026147 -0.004620 0.005215
# 5 -0.006451 0.000360 0.002890 -0.004620 0.039158 0.004202
# 6 -0.000472 -0.002907 -0.001198 0.005215 0.004202 0.027921
#
#
# Mechanical properties :
#
#
# Convention : Reuss Voigt Hill
#
# Bulk Modulus (GPa) = 41.82263 46.31537 44.06900
# Shear Modulus (GPa) = 32.10993 36.75031 34.43012
#
# Velocity S-wave (km/s) = 3.70453 3.96318 3.83603
# Velocity P-wave (km/s) = 6.01437 6.38257 6.20120
#
# Compressibility (1/GPa) = 0.02391050
#
# Stress axis : x y z
#
# Youngs Moduli (GPa) = 59.93257 99.12627 80.37918
#
# Poissons Ratio (x) = 0.15844 0.29369
# Poissons Ratio (y) = 0.09579 0.19290
# Poissons Ratio (z) = 0.21898 0.23789
#
# Static dielectric constant tensor:
#      x y z
#    x 4.328060 -0.170480 0.048410 
#    y -0.170480 4.237000 -0.275900 
#    z 0.048410 -0.275900 4.367540 
# 
# 
# High freq. dielectric constant tensor:
#      x y z
#    x 1.941090 -0.004820 0.002750 
#    y -0.004820 1.931210 -0.018790 
#    z 0.002750 -0.018790 1.920950 
# 
# From -- ./inp_files/94647.got.cif
#   From: 2010.06.25/outbox.cif.g09.slc.cpg/sg2_48_cif.got.tgz:94647.got - 2010.06.27 13:26:56.
