data_PCOD8021360
_publ_section_title
;
Structure prediction by ZEFSAII (Michael W. Deem and Ramdas Pophale) SiO2 
 PCOD8021360
Probable space group: P -1
;
_chemical_formula_sum "Si O2"
_cell_formula_units_Z 16
_cell_length_a 14.640713
_cell_length_b 10.891919
_cell_length_c 8.883380
_cell_angle_alpha 102.796823
_cell_angle_beta 55.890167
_cell_angle_gamma 58.348118
_cell_volume 680.458350
_symmetry_space_group_name_H-M "P -1"
_symmetry_group_IT_number 2
_symmetry_cell_setting 'triclinic'
loop_
_space_group_symop_operation_xyz
x,y,z
-x,-y,-z
loop_
_atom_site_type_symbol
_atom_site_label
_atom_site_fract_x
_atom_site_fract_y
_atom_site_fract_z
Si Si1 0.215539 0.335375 0.781458
Si Si2 0.706803 0.276341 0.284752
Si Si3 0.172407 0.958061 0.398520
Si Si4 0.817123 0.368363 0.979605
Si Si5 0.583624 0.931826 0.181735
Si Si6 0.809268 0.300608 0.510852
Si Si7 0.197945 0.029763 0.073372
Si Si8 0.558211 0.676503 0.047632
O O1 0.214574 0.485048 0.842574
O O2 0.300105 0.183361 0.803181
O O3 0.363808 0.166794 0.465965
O O4 0.000000 0.500000 0.000000
O O5 0.500000 0.500000 0.500000
O O6 0.836305 0.230193 0.032486
O O7 0.766663 0.256540 0.391754
O O8 0.730024 0.106701 0.181717
O O9 0.131873 0.848759 0.447457
O O10 0.341633 0.851725 0.314848
O O11 0.232319 0.913304 0.157601
O O12 0.002639 0.206563 0.663782
O O13 0.643743 0.524577 0.069464
O O14 0.604009 0.782929 0.031819
O O15 0.691650 0.941880 0.993787
O O16 0.975656 0.247908 0.316888
O O17 0.632316 0.545361 0.789200
#
# Coordination Sequence:
#
# PCOD8021360 Si02
#       8
#     2   2   2   2   2   2   2   2
#     4  10  22  43  70  99 137 184 227 282 346 410
#     4  12  25  42  68 103 136 177 232 293 345 409
#     4  12  24  45  71  98 141 185 230 287 345 411
#     4  11  23  43  68 100 134 177 230 281 349 406
#     4  10  25  45  68 104 142 180 231 287 337 414
#     4  12  25  44  70 102 140 185 229 287 351 407
#     4  12  25  45  68 101 146 179 231 288 340 418
#     4  11  24  46  70  99 136 186 232 279 347 411
#
# _framework density 23.513563999999999
#
# number of rings (size 3 to 8) (size 9 to 14) (size 15 to 20)
#    0.000    0.750    2.500    4.875    1.750    3.000 
#    0.000    0.000    0.000    0.000    0.000    0.000 
#    0.000    0.000    0.000    0.000    0.000    0.000 
#
# Total GULP energy -198394.737651 kJ/mol
# GULP energy per Si atom -12399.671103 kJ/mol
# Density = 2.346005 g / cm^3
# Si number density = 23.513564 Si / 1000 Ang^3
#
#
#
# Elastic Constant Matrix: (Units=GPa)
#
#
# Indices 1 2 3 4 5 6 
#
# 1 82.1039 27.9120 36.5509 0.2166 -1.2983 5.1927
# 2 27.9120 61.7952 31.7028 -0.1631 2.8814 11.2804
# 3 36.5509 31.7028 97.6422 8.3520 1.6488 2.9934
# 4 0.2166 -0.1631 8.3520 36.9016 -2.2133 -6.7896
# 5 -1.2983 2.8814 1.6488 -2.2133 55.7326 7.5926
# 6 5.1927 11.2804 2.9934 -6.7896 7.5926 39.4946
#
#
#
# Elastic Compliance Matrix: (Units=1/GPa)
#
#
# Indices 1 2 3 4 5 6 
#
# 1 0.015835 -0.004848 -0.004431 0.000870 0.000836 -0.000373
# 2 -0.004848 0.021988 -0.005190 0.000335 -0.000386 -0.005118
# 3 -0.004431 -0.005190 0.013836 -0.003049 -0.000444 0.000577
# 4 0.000870 0.000335 -0.003049 0.028712 0.000573 0.004847
# 5 0.000836 -0.000386 -0.000444 0.000573 0.018484 -0.003421
# 6 -0.000373 -0.005118 0.000577 0.004847 -0.003421 0.028278
#
#
# Mechanical properties :
#
#
# Convention : Reuss Voigt Hill
#
# Bulk Modulus (GPa) = 44.01069 48.20809 46.10939
# Shear Modulus (GPa) = 30.55461 36.11745 33.33603
#
# Velocity S-wave (km/s) = 3.60869 3.92347 3.76937
# Velocity P-wave (km/s) = 6.01010 6.40871 6.21260
#
# Compressibility (1/GPa) = 0.02272175
#
# Stress axis : x y z
#
# Youngs Moduli (GPa) = 63.15253 45.48003 72.27779
#
# Poissons Ratio (x) = 0.22049 0.32023
# Poissons Ratio (y) = 0.30616 0.37509
# Poissons Ratio (z) = 0.27980 0.23602
#
# Static dielectric constant tensor:
#      x y z
#    x 4.370960 -0.060250 -0.066070 
#    y -0.060250 4.146810 0.055240 
#    z -0.066070 0.055240 4.374170 
# 
# 
# High freq. dielectric constant tensor:
#      x y z
#    x 1.939730 -0.006020 -0.005770 
#    y -0.006020 1.914400 0.011670 
#    z -0.005770 0.011670 1.944000 
# 
# From -- ./inp_files/307938.got.cif
#   From: 2010.06.25/outbox.cif.g09.slc.cpg/sg2_154_cif.got.tgz:307938.got - 2010.06.27 13:26:56.
