data_PCOD8021415
_publ_section_title
;
Structure prediction by ZEFSAII (Michael W. Deem and Ramdas Pophale) SiO2 
 PCOD8021415
Probable space group: P -1
;
_chemical_formula_sum "Si O2"
_cell_formula_units_Z 16
_cell_length_a 12.049776
_cell_length_b 17.535690
_cell_length_c 6.304526
_cell_angle_alpha 135.200167
_cell_angle_beta 62.870919
_cell_angle_gamma 130.508451
_cell_volume 713.656545
_symmetry_space_group_name_H-M "P -1"
_symmetry_group_IT_number 2
_symmetry_cell_setting 'triclinic'
loop_
_space_group_symop_operation_xyz
x,y,z
-x,-y,-z
loop_
_atom_site_type_symbol
_atom_site_label
_atom_site_fract_x
_atom_site_fract_y
_atom_site_fract_z
Si Si1 0.038620 0.917716 0.951343
Si Si2 0.051568 0.490924 0.209568
Si Si3 0.349584 0.459754 0.447949
Si Si4 0.231049 0.233517 0.805741
Si Si5 0.899600 0.716775 0.366552
Si Si6 0.331367 0.054579 0.241358
Si Si7 0.414027 0.908927 0.200900
Si Si8 0.244591 0.632889 0.979174
O O1 0.036850 0.817093 0.587934
O O2 0.907970 0.852087 0.100169
O O3 0.191202 0.984228 0.071810
O O4 0.000000 0.000000 0.000000
O O5 0.000000 0.500000 0.500000
O O6 0.918106 0.474403 0.154842
O O7 0.051301 0.361172 0.970566
O O8 0.211494 0.609341 0.219883
O O9 0.500000 0.500000 0.500000
O O10 0.225752 0.371390 0.540040
O O11 0.348677 0.590473 0.692163
O O12 0.324885 0.380508 0.094407
O O13 0.167151 0.220733 0.601530
O O14 0.334104 0.173135 0.588459
O O15 0.327793 0.960786 0.242239
O O16 0.476046 0.106789 0.077769
O O17 0.500000 0.000000 0.500000
O O18 0.297854 0.774151 0.139350
#
# Coordination Sequence:
#
# PCOD8021415 Si02
#       8
#     2   2   2   2   2   2   2   2
#     4  11  24  41  70 102 140 179 227 295 355 411
#     4  10  22  43  71  99 133 175 232 289 344 412
#     4  10  24  43  67  99 135 180 224 288 351 413
#     4  11  24  42  70 103 136 172 237 287 352 415
#     4  10  23  41  66 104 132 178 224 287 357 415
#     4  11  27  46  68 108 136 192 240 282 355 420
#     4  11  29  48  70  98 146 194 236 284 347 428
#     4  10  24  45  67 100 134 181 229 282 352 409
#
# _framework density 22.419746
#
# number of rings (size 3 to 8) (size 9 to 14) (size 15 to 20)
#    0.000    1.500    1.250    1.125    8.750    3.500 
#    2.250    0.000    0.000    0.000    0.000    0.000 
#    0.000    0.000    0.000    0.000    0.000    0.000 
#
# Total GULP energy -198221.248301 kJ/mol
# GULP energy per Si atom -12388.828019 kJ/mol
# Density = 2.236872 g / cm^3
# Si number density = 22.419746 Si / 1000 Ang^3
#
#
#
# Elastic Constant Matrix: (Units=GPa)
#
#
# Indices 1 2 3 4 5 6 
#
# 1 135.4221 24.4217 50.6538 9.0502 -3.6631 -11.1299
# 2 24.4217 87.0262 48.3077 7.8705 -5.8310 -21.8988
# 3 50.6538 48.3077 148.4598 -3.9649 -11.1787 -5.6371
# 4 9.0502 7.8705 -3.9649 18.4338 1.8054 2.5987
# 5 -3.6631 -5.8310 -11.1787 1.8054 47.2320 2.3703
# 6 -11.1299 -21.8988 -5.6371 2.5987 2.3703 34.3556
#
#
#
# Elastic Compliance Matrix: (Units=1/GPa)
#
#
# Indices 1 2 3 4 5 6 
#
# 1 0.009206 0.000681 -0.003393 -0.006013 0.000059 0.003310
# 2 0.000681 0.018829 -0.006152 -0.011466 0.000756 0.012028
# 3 -0.003393 -0.006152 0.010025 0.006884 0.001287 -0.003985
# 4 -0.006013 -0.011466 0.006884 0.065608 -0.002111 -0.012944
# 5 0.000059 0.000756 0.001287 -0.002111 0.021687 -0.000624
# 6 0.003310 0.012028 -0.003985 -0.012944 -0.000624 0.038215
#
#
# Mechanical properties :
#
#
# Convention : Reuss Voigt Hill
#
# Bulk Modulus (GPa) = 49.18427 68.63052 58.90740
# Shear Modulus (GPa) = 26.58526 36.50593 31.54560
#
# Velocity S-wave (km/s) = 3.44728 4.03959 3.75513
# Velocity P-wave (km/s) = 6.15065 7.24126 6.71812
#
# Compressibility (1/GPa) = 0.02033171
#
# Stress axis : x y z
#
# Youngs Moduli (GPa) = 108.62254 53.11020 99.75423
#
# Poissons Ratio (x) = -0.03615 0.33847
# Poissons Ratio (y) = -0.07394 0.61365
# Poissons Ratio (z) = 0.36856 0.32671
#
# Static dielectric constant tensor:
#      x y z
#    x 4.180920 -0.141610 -0.348380 
#    y -0.141610 3.529400 0.537800 
#    z -0.348380 0.537800 4.506970 
# 
# 
# High freq. dielectric constant tensor:
#      x y z
#    x 1.887950 -0.008620 -0.010670 
#    y -0.008620 1.885040 -0.008530 
#    z -0.010670 -0.008530 1.896860 
# 
# From -- ./inp_files/81699.got.cif
#   From: 2010.06.25/outbox.cif.g09.slc.cpg/sg2_41_cif.got.tgz:81699.got - 2010.06.27 13:26:56.
