data_PCOD8021975
_publ_section_title
;
Structure prediction by ZEFSAII (Michael W. Deem and Ramdas Pophale) SiO2 
 PCOD8021975
Probable space group: P -1
;
_chemical_formula_sum "Si O2"
_cell_formula_units_Z 16
_cell_length_a 18.615894
_cell_length_b 5.347280
_cell_length_c 8.142828
_cell_angle_alpha 116.626417
_cell_angle_beta 123.585799
_cell_angle_gamma 58.041599
_cell_volume 558.894708
_symmetry_space_group_name_H-M "P -1"
_symmetry_group_IT_number 2
_symmetry_cell_setting 'triclinic'
loop_
_space_group_symop_operation_xyz
x,y,z
-x,-y,-z
loop_
_atom_site_type_symbol
_atom_site_label
_atom_site_fract_x
_atom_site_fract_y
_atom_site_fract_z
Si Si1 0.647535 0.112803 0.917527
Si Si2 0.991607 0.582868 0.772871
Si Si3 0.540731 0.775956 0.134932
Si Si4 0.914062 0.221896 0.768702
Si Si5 0.252900 0.491989 0.647678
Si Si6 0.404525 0.770902 0.469529
Si Si7 0.286205 0.468941 0.337712
Si Si8 0.176404 0.142058 0.706133
O O1 0.655103 0.765222 0.796597
O O2 0.545208 0.313749 0.932451
O O3 0.649740 0.221910 0.767488
O O4 0.743952 0.054342 0.119333
O O5 0.085521 0.348665 0.744590
O O6 0.922279 0.408954 0.670340
O O7 0.005451 0.749693 0.003081
O O8 0.939595 0.857075 0.657150
O O9 0.646097 0.515278 0.144102
O O10 0.569349 0.943828 0.368317
O O11 0.500000 0.000000 0.000000
O O12 0.820816 0.364902 0.803714
O O13 0.284136 0.298483 0.461686
O O14 0.206937 0.341981 0.675492
O O15 0.178720 0.809619 0.550717
O O16 0.500000 0.500000 0.500000
O O17 0.338159 0.704486 0.504042
#
# Coordination Sequence:
#
# PCOD8021975 Si02
#       8
#     2   2   2   2   2   2   2   2
#     4  12  26  43  73 102 144 194 247 298 357 429
#     4  10  22  44  71 109 145 175 243 302 360 427
#     4  12  25  47  67 107 149 192 243 294 367 427
#     4  10  23  41  75 108 139 187 234 303 358 428
#     4  12  28  47  70 104 153 193 241 297 362 438
#     4  12  26  44  71 104 144 193 245 304 351 427
#     4  12  26  47  71 104 144 193 244 296 364 433
#     4  12  27  48  73 108 145 196 238 301 369 430
#
# _framework density 28.627932999999999
#
# number of rings (size 3 to 8) (size 9 to 14) (size 15 to 20)
#    0.000    0.500    5.000    2.625    5.250    1.500 
#    0.000    3.750    0.000    0.000    0.000    0.000 
#    0.000    0.000    0.000    0.000    0.000    0.000 
#
# Total GULP energy -198268.916938 kJ/mol
# GULP energy per Si atom -12391.807309 kJ/mol
# Density = 2.856277 g / cm^3
# Si number density = 28.627933 Si / 1000 Ang^3
#
#
#
# Elastic Constant Matrix: (Units=GPa)
#
#
# Indices 1 2 3 4 5 6 
#
# 1 208.1442 94.4337 34.5056 11.2220 16.6654 5.8264
# 2 94.4337 218.4011 35.6037 -20.1175 5.5647 -21.4627
# 3 34.5056 35.6037 66.9987 -8.1541 -2.2483 0.9944
# 4 11.2220 -20.1175 -8.1541 46.7809 5.3621 -1.4695
# 5 16.6654 5.5647 -2.2483 5.3621 47.2448 4.3631
# 6 5.8264 -21.4627 0.9944 -1.4695 4.3631 61.8559
#
#
#
# Elastic Compliance Matrix: (Units=1/GPa)
#
#
# Indices 1 2 3 4 5 6 
#
# 1 0.006924 -0.003019 -0.002388 -0.003233 -0.001684 -0.001619
# 2 -0.003019 0.006761 -0.001671 0.003480 -0.000462 0.002773
# 3 -0.002388 -0.001671 0.017435 0.002685 0.001628 -0.000686
# 4 -0.003233 0.003480 0.002685 0.024428 -0.002117 0.002199
# 5 -0.001684 -0.000462 0.001628 -0.002117 0.022285 -0.001650
# 6 -0.001619 0.002773 -0.000686 0.002199 -0.001650 0.017461
#
#
# Mechanical properties :
#
#
# Convention : Reuss Voigt Hill
#
# Bulk Modulus (GPa) = 58.94577 91.40334 75.17455
# Shear Modulus (GPa) = 43.43824 53.10974 48.27399
#
# Velocity S-wave (km/s) = 3.89953 4.31184 4.11086
# Velocity P-wave (km/s) = 6.39610 7.53569 6.98916
#
# Compressibility (1/GPa) = 0.01696475
#
# Stress axis : x y z
#
# Youngs Moduli (GPa) = 144.41893 147.90078 57.35504
#
# Poissons Ratio (x) = 0.44647 0.13696
# Poissons Ratio (y) = 0.43596 0.09586
# Poissons Ratio (z) = 0.34487 0.24720
#
# Static dielectric constant tensor:
#      x y z
#    x 4.970120 -0.391450 0.448960 
#    y -0.391450 6.812880 0.237980 
#    z 0.448960 0.237980 5.928580 
# 
# 
# High freq. dielectric constant tensor:
#      x y z
#    x 2.159640 -0.014330 0.031660 
#    y -0.014330 2.215380 -0.002360 
#    z 0.031660 -0.002360 2.209250 
# 
# From -- ./inp_files/112976.got.cif
#   From: 2010.06.25/outbox.cif.g09.slc.cpg/sg2_57_cif.got.tgz:112976.got - 2010.06.27 13:26:56.
