data_PCOD8021336
_publ_section_title
;
Structure prediction by ZEFSAII (Michael W. Deem and Ramdas Pophale) SiO2 
 PCOD8021336
Probable space group: P -1
;
_chemical_formula_sum "Si O2"
_cell_formula_units_Z 14
_cell_length_a 9.933991
_cell_length_b 9.271991
_cell_length_c 10.904021
_cell_angle_alpha 82.262050
_cell_angle_beta 117.295585
_cell_angle_gamma 132.672161
_cell_volume 631.908359
_symmetry_space_group_name_H-M "P -1"
_symmetry_group_IT_number 2
_symmetry_cell_setting 'triclinic'
loop_
_space_group_symop_operation_xyz
x,y,z
-x,-y,-z
loop_
_atom_site_type_symbol
_atom_site_label
_atom_site_fract_x
_atom_site_fract_y
_atom_site_fract_z
Si Si1 0.792166 0.723638 0.189744
Si Si2 0.664024 0.489189 0.925676
Si Si3 0.710377 0.223571 0.099823
Si Si4 0.136731 0.105827 0.421553
Si Si5 0.786588 0.420242 0.359270
Si Si6 0.840817 0.590841 0.729035
Si Si7 0.540480 0.197942 0.512841
O O1 0.588955 0.673779 0.158437
O O2 0.833983 0.609930 0.302967
O O3 0.766355 0.673334 0.041164
O O4 0.993427 0.962943 0.262116
O O5 0.733984 0.576469 0.809304
O O6 0.741399 0.381504 0.006272
O O7 0.700226 0.258617 0.234337
O O8 0.910807 0.255362 0.158710
O O9 0.500000 0.000000 0.000000
O O10 0.203475 0.318422 0.405379
O O11 0.341973 0.140530 0.503053
O O12 0.000000 0.000000 0.500000
O O13 0.595406 0.300853 0.390833
O O14 0.000000 0.500000 0.500000
O O15 0.741599 0.370124 0.665871
O O16 0.500000 0.000000 0.500000
#
# Coordination Sequence:
#
# PCOD8021336 Si02
#       7
#     2   2   2   2   2   2   2
#     4  10  22  43  70  95 138 184 226 292 353 421
#     4  10  23  43  67  98 138 182 236 282 351 422
#     4  11  25  41  70  98 138 186 229 288 351 420
#     4  12  26  43  70 102 142 183 236 291 359 419
#     4  11  22  44  68  98 140 181 237 289 350 418
#     4  12  25  44  68 100 144 179 236 297 350 417
#     4  12  27  41  71 103 138 187 235 288 357 420
#
# _framework density 22.155114000000001
#
# number of rings (size 3 to 8) (size 9 to 14) (size 15 to 20)
#    0.000    0.857    1.429    5.143    6.000    1.714 
#    0.000    0.000    0.000    0.000    0.000    0.000 
#    0.000    0.000    0.000    0.000    0.000    0.000 
#
# Total GULP energy -173646.640974 kJ/mol
# GULP energy per Si atom -12403.331498 kJ/mol
# Density = 2.210469 g / cm^3
# Si number density = 22.155114 Si / 1000 Ang^3
#
#
#
# Elastic Constant Matrix: (Units=GPa)
#
#
# Indices 1 2 3 4 5 6 
#
# 1 119.1853 48.9855 38.4281 -8.2026 -3.0767 2.7834
# 2 48.9855 96.9889 44.3845 15.3914 -8.7361 0.5724
# 3 38.4281 44.3845 105.7797 10.4495 -4.0827 2.8072
# 4 -8.2026 15.3914 10.4495 50.7823 3.1032 -3.5373
# 5 -3.0767 -8.7361 -4.0827 3.1032 45.9687 -11.3898
# 6 2.7834 0.5724 2.8072 -3.5373 -11.3898 29.8134
#
#
#
# Elastic Compliance Matrix: (Units=1/GPa)
#
#
# Indices 1 2 3 4 5 6 
#
# 1 0.011702 -0.005566 -0.002337 0.004070 -0.000913 -0.000632
# 2 -0.005566 0.016071 -0.004142 -0.005018 0.002931 0.001126
# 3 -0.002337 -0.004142 0.012238 -0.001714 -0.000004 -0.001059
# 4 0.004070 -0.005018 -0.001714 0.022465 -0.001900 0.001817
# 5 -0.000913 0.002931 -0.000004 -0.001900 0.024664 0.009226
# 6 -0.000632 0.001126 -0.001059 0.001817 0.009226 0.037420
#
#
# Mechanical properties :
#
#
# Convention : Reuss Voigt Hill
#
# Bulk Modulus (GPa) = 62.80563 65.06113 63.93338
# Shear Modulus (GPa) = 32.47681 37.98993 35.23337
#
# Velocity S-wave (km/s) = 3.83284 4.14542 3.99219
# Velocity P-wave (km/s) = 6.92800 7.23482 7.08307
#
# Compressibility (1/GPa) = 0.01592214
#
# Stress axis : x y z
#
# Youngs Moduli (GPa) = 85.45292 62.22473 81.71409
#
# Poissons Ratio (x) = 0.34631 0.19093
# Poissons Ratio (y) = 0.47559 0.33849
# Poissons Ratio (z) = 0.19966 0.25776
#
# Static dielectric constant tensor:
#      x y z
#    x 4.129360 -0.057480 -0.103060 
#    y -0.057480 3.982240 0.122240 
#    z -0.103060 0.122240 4.145290 
# 
# 
# High freq. dielectric constant tensor:
#      x y z
#    x 1.885120 -0.001680 -0.003870 
#    y -0.001680 1.868890 0.008900 
#    z -0.003870 0.008900 1.880690 
# 
# From -- ./inp_files/343369.got.cif
#   From: 2010.06.25/outbox.cif.g09.slc.cpg/sg2_172_cif.got.tgz:343369.got - 2010.06.27 13:26:56.
