data_PCOD8021907
_publ_section_title
;
Structure prediction by ZEFSAII (Michael W. Deem and Ramdas Pophale) SiO2 
 PCOD8021907
Probable space group: P -1
;
_chemical_formula_sum "Si O2"
_cell_formula_units_Z 16
_cell_length_a 5.204414
_cell_length_b 22.728531
_cell_length_c 6.810840
_cell_angle_alpha 102.653590
_cell_angle_beta 101.290638
_cell_angle_gamma 58.922480
_cell_volume 669.946317
_symmetry_space_group_name_H-M "P -1"
_symmetry_group_IT_number 2
_symmetry_cell_setting 'triclinic'
loop_
_space_group_symop_operation_xyz
x,y,z
-x,-y,-z
loop_
_atom_site_type_symbol
_atom_site_label
_atom_site_fract_x
_atom_site_fract_y
_atom_site_fract_z
Si Si1 0.145526 0.630144 0.713440
Si Si2 0.255398 0.282816 0.963126
Si Si3 0.354962 0.453657 0.001435
Si Si4 0.985002 0.112796 0.147884
Si Si5 0.247625 0.744502 0.681206
Si Si6 0.377065 0.138667 0.927011
Si Si7 0.254550 0.985862 0.367691
Si Si8 0.705618 0.648923 0.359599
O O1 0.498759 0.580475 0.787147
O O2 0.063091 0.705275 0.670713
O O3 0.978942 0.646315 0.909302
O O4 0.004197 0.600944 0.506220
O O5 0.578502 0.257770 0.092683
O O6 0.174071 0.220467 0.901282
O O7 0.228870 0.307259 0.755390
O O8 0.500000 0.500000 0.000000
O O9 0.417543 0.397540 0.798043
O O10 0.000000 0.500000 0.000000
O O11 0.983700 0.173211 0.331617
O O12 0.635740 0.133866 0.104257
O O13 0.132966 0.036099 0.199354
O O14 0.164645 0.111055 0.972830
O O15 0.454931 0.707128 0.501068
O O16 0.567500 0.093595 0.734777
O O17 0.500000 0.000000 0.500000
O O18 0.000000 0.000000 0.500000
#
# Coordination Sequence:
#
# PCOD8021907 Si02
#       8
#     2   2   2   2   2   2   2   2
#     4  11  24  47  73 107 146 183 248 299 364 440
#     4  10  22  44  70 106 145 183 247 301 366 431
#     4  12  29  51  75 107 150 194 240 293 359 451
#     4  11  23  45  69  98 141 187 242 294 364 425
#     4  10  23  42  72 107 138 185 243 306 358 438
#     4  11  23  43  70  98 136 199 233 292 371 422
#     4  12  26  42  64 101 147 184 245 300 348 435
#     4  11  26  44  77 104 144 196 232 313 366 423
#
# _framework density 23.88251
#
# number of rings (size 3 to 8) (size 9 to 14) (size 15 to 20)
#    0.000    1.000    2.500    3.000    7.000    2.000 
#    0.000    0.000    0.000    0.000    0.000    0.000 
#    0.000    0.000    0.000    0.000    0.000    0.000 
#
# Total GULP energy -198228.380842 kJ/mol
# GULP energy per Si atom -12389.273803 kJ/mol
# Density = 2.382815 g / cm^3
# Si number density = 23.882510 Si / 1000 Ang^3
#
#
#
# Elastic Constant Matrix: (Units=GPa)
#
#
# Indices 1 2 3 4 5 6 
#
# 1 106.3055 24.3801 36.4299 -0.3541 -6.8227 2.4840
# 2 24.3801 95.6950 44.9623 -0.8493 1.9039 8.1186
# 3 36.4299 44.9623 131.9238 3.5928 -4.1194 0.5591
# 4 -0.3541 -0.8493 3.5928 24.9782 -3.2595 -1.3482
# 5 -6.8227 1.9039 -4.1194 -3.2595 43.3069 3.1332
# 6 2.4840 8.1186 0.5591 -1.3482 3.1332 37.4813
#
#
#
# Elastic Compliance Matrix: (Units=1/GPa)
#
#
# Indices 1 2 3 4 5 6 
#
# 1 0.010703 -0.001600 -0.002375 0.000625 0.001610 -0.000439
# 2 -0.001600 0.012990 -0.004025 0.000735 -0.000967 -0.002540
# 3 -0.002375 -0.004025 0.009661 -0.001445 0.000556 0.000787
# 4 0.000625 0.000735 -0.001445 0.040714 0.002918 0.001042
# 5 0.001610 -0.000967 0.000556 0.002918 0.023789 -0.001789
# 6 -0.000439 -0.002540 0.000787 0.001042 -0.001789 0.027435
#
#
# Mechanical properties :
#
#
# Convention : Reuss Voigt Hill
#
# Bulk Modulus (GPa) = 57.62295 60.60766 59.11531
# Shear Modulus (GPa) = 33.99588 36.36341 35.17965
#
# Velocity S-wave (km/s) = 3.77697 3.90628 3.84217
# Velocity P-wave (km/s) = 6.57273 6.76593 6.67003
#
# Compressibility (1/GPa) = 0.01735420
#
# Stress axis : x y z
#
# Youngs Moduli (GPa) = 93.42798 76.98325 103.50728
#
# Poissons Ratio (x) = 0.12318 0.24586
# Poissons Ratio (y) = 0.14949 0.41659
# Poissons Ratio (z) = 0.22191 0.30984
#
# Static dielectric constant tensor:
#      x y z
#    x 4.489430 -0.052960 0.178770 
#    y -0.052960 4.430610 0.078090 
#    z 0.178770 0.078090 4.294100 
# 
# 
# High freq. dielectric constant tensor:
#      x y z
#    x 1.955970 0.004750 0.003110 
#    y 0.004750 1.952080 0.008080 
#    z 0.003110 0.008080 1.936870 
# 
# From -- ./inp_files/13460.got.cif
#   From: 2010.06.25/outbox.cif.g09.slc.cpg/sg2_7_cif.got.tgz:13460.got - 2010.06.27 13:26:56.
