data_PCOD8022686
_publ_section_title
;
Structure prediction by ZEFSAII (Michael W. Deem and Ramdas Pophale) SiO2 
 PCOD8022686
Probable space group: P -1
;
_chemical_formula_sum "Si O2"
_cell_formula_units_Z 14
_cell_length_a 11.514284
_cell_length_b 7.490831
_cell_length_c 11.733389
_cell_angle_alpha 80.028232
_cell_angle_beta 113.892381
_cell_angle_gamma 128.067351
_cell_volume 724.343759
_symmetry_space_group_name_H-M "P -1"
_symmetry_group_IT_number 2
_symmetry_cell_setting 'triclinic'
loop_
_space_group_symop_operation_xyz
x,y,z
-x,-y,-z
loop_
_atom_site_type_symbol
_atom_site_label
_atom_site_fract_x
_atom_site_fract_y
_atom_site_fract_z
Si Si1 0.153208 0.321198 0.375414
Si Si2 0.667004 0.564047 0.336629
Si Si3 0.307797 0.327022 0.225036
Si Si4 0.731999 0.986870 0.941653
Si Si5 0.691787 0.285306 0.763715
Si Si6 0.407155 0.840219 0.772542
Si Si7 0.206088 0.979364 0.783079
O O1 0.221705 0.317323 0.523038
O O2 0.199533 0.211467 0.309360
O O3 0.229854 0.583075 0.339540
O O4 0.963926 0.172710 0.329842
O O5 0.481863 0.399182 0.317393
O O6 0.704612 0.404780 0.307316
O O7 0.697746 0.758751 0.243564
O O8 0.232064 0.156451 0.107042
O O9 0.318052 0.549503 0.173391
O O10 0.539833 0.847594 0.901760
O O11 0.798608 0.222602 0.874833
O O12 0.822394 0.039038 0.090441
O O13 0.510647 0.051109 0.699452
O O14 0.298436 0.874971 0.801952
#
# Coordination Sequence:
#
# PCOD8022686 Si02
#       7
#     2   2   2   2   2   2   2
#     4  10  23  38  57  85 116 149 182 230 286 324
#     4  11  21  40  58  83 113 151 191 222 275 339
#     4   9  19  40  60  84 106 150 190 236 269 321
#     4   9  20  37  63  82 108 147 194 225 281 325
#     4   8  19  40  54  88 106 141 197 227 271 326
#     4   9  21  38  59  86 105 153 189 227 280 320
#     4  12  22  38  56  85 123 144 176 238 279 340
#
# _framework density 19.327840999999999
#
# number of rings (size 3 to 8) (size 9 to 14) (size 15 to 20)
#    1.714    0.571    1.429    1.286    0.000    5.714 
#    5.143    0.000    0.000    0.000    0.000    0.000 
#    0.000    0.000    0.000    0.000    0.000    0.000 
#
# Total GULP energy -173452.351301 kJ/mol
# GULP energy per Si atom -12389.453664 kJ/mol
# Density = 1.928385 g / cm^3
# Si number density = 19.327841 Si / 1000 Ang^3
#
#
#
# Elastic Constant Matrix: (Units=GPa)
#
#
# Indices 1 2 3 4 5 6 
#
# 1 52.6336 33.8728 7.8037 6.6324 -8.3277 -25.5612
# 2 33.8728 63.5547 13.0313 -1.8166 -7.3802 -27.4124
# 3 7.8037 13.0313 67.8348 -2.5648 -4.4499 -14.8261
# 4 6.6324 -1.8166 -2.5648 26.2871 -2.2245 0.9150
# 5 -8.3277 -7.3802 -4.4499 -2.2245 20.2309 7.6006
# 6 -25.5612 -27.4124 -14.8261 0.9150 7.6006 38.7028
#
#
#
# Elastic Compliance Matrix: (Units=1/GPa)
#
#
# Indices 1 2 3 4 5 6 
#
# 1 0.036234 -0.013121 0.001428 -0.010097 0.003820 0.014673
# 2 -0.013121 0.027599 -0.001343 0.004834 0.001135 0.010031
# 3 0.001428 -0.001343 0.016266 0.001063 0.001581 0.005887
# 4 -0.010097 0.004834 0.001063 0.041539 0.004150 -0.004635
# 5 0.003820 0.001135 0.001581 0.004150 0.054824 -0.006933
# 6 0.014673 0.010031 0.005887 -0.004635 -0.006933 0.046360
#
#
# Mechanical properties :
#
#
# Convention : Reuss Voigt Hill
#
# Bulk Modulus (GPa) = 18.50891 32.60429 25.55660
# Shear Modulus (GPa) = 18.73336 25.66517 22.19927
#
# Velocity S-wave (km/s) = 3.11664 3.64797 3.39272
# Velocity P-wave (km/s) = 4.74851 5.88636 5.34779
#
# Compressibility (1/GPa) = 0.05402804
#
# Stress axis : x y z
#
# Youngs Moduli (GPa) = 27.59823 36.23293 61.47769
#
# Poissons Ratio (x) = 0.47540 -0.08779
# Poissons Ratio (y) = 0.36211 0.08256
# Poissons Ratio (z) = -0.03941 0.04866
#
# Static dielectric constant tensor:
#      x y z
#    x 3.400760 -0.161810 -0.017610 
#    y -0.161810 3.429800 -0.005560 
#    z -0.017610 -0.005560 3.129270 
# 
# 
# High freq. dielectric constant tensor:
#      x y z
#    x 1.745010 -0.012610 0.000660 
#    y -0.012610 1.745480 -0.000010 
#    z 0.000660 -0.000010 1.725290 
# 
# From -- ./inp_files/308058.got.cif
#   From: 2010.06.25/outbox.cif.g09.slc.cpg/sg2_155_cif.got.tgz:308058.got - 2010.06.27 13:26:56.
