data_PCOD8022494
_publ_section_title
;
Structure prediction by ZEFSAII (Michael W. Deem and Ramdas Pophale) SiO2 
 PCOD8022494
Probable space group: P -1
;
_chemical_formula_sum "Si O2"
_cell_formula_units_Z 14
_cell_length_a 9.380181
_cell_length_b 16.293392
_cell_length_c 8.819766
_cell_angle_alpha 37.643369
_cell_angle_beta 107.185388
_cell_angle_gamma 124.635865
_cell_volume 644.522120
_symmetry_space_group_name_H-M "P -1"
_symmetry_group_IT_number 2
_symmetry_cell_setting 'triclinic'
loop_
_space_group_symop_operation_xyz
x,y,z
-x,-y,-z
loop_
_atom_site_type_symbol
_atom_site_label
_atom_site_fract_x
_atom_site_fract_y
_atom_site_fract_z
Si Si1 0.560803 0.752107 0.805142
Si Si2 0.855596 0.087667 0.545333
Si Si3 0.074437 0.890911 0.134777
Si Si4 0.239751 0.153225 0.583119
Si Si5 0.174037 0.637195 0.946073
Si Si6 0.479503 0.536428 0.611597
Si Si7 0.862973 0.522502 0.514084
O O1 0.629967 0.799534 0.586615
O O2 0.354438 0.697091 0.820024
O O3 0.685324 0.904359 0.731386
O O4 0.573354 0.606849 0.078430
O O5 0.839846 0.126581 0.659623
O O6 0.840901 0.210836 0.254417
O O7 0.044382 0.110254 0.532399
O O8 0.931722 0.710388 0.287662
O O9 0.216758 0.996887 0.889055
O O10 0.000000 0.000000 0.000000
O O11 0.329631 0.302591 0.511617
O O12 0.188834 0.570691 0.207260
O O13 0.000000 0.500000 0.000000
O O14 0.500000 0.500000 0.500000
O O15 0.316605 0.561270 0.524971
O O16 0.000000 0.500000 0.500000
#
# Coordination Sequence:
#
# PCOD8022494 Si02
#       7
#     2   2   2   2   2   2   2
#     4  12  26  43  72 104 136 184 241 292 347 422
#     4  11  23  45  70  99 141 183 230 290 360 418
#     4  10  22  46  71 100 135 189 233 281 352 418
#     4  11  25  42  74 103 136 179 242 298 339 418
#     4  12  26  47  69  98 147 185 231 289 364 414
#     4  12  23  46  69 101 140 185 241 282 353 427
#     4  12  28  45  73 106 142 189 234 298 351 418
#
# _framework density 21.721520000000002
#
# number of rings (size 3 to 8) (size 9 to 14) (size 15 to 20)
#    0.000    0.571    2.857    6.429    6.000    0.000 
#    0.000    1.429    0.000    0.000    0.000    0.000 
#    0.000    0.000    0.000    0.000    0.000    0.000 
#
# Total GULP energy -173620.418178 kJ/mol
# GULP energy per Si atom -12401.458441 kJ/mol
# Density = 2.167208 g / cm^3
# Si number density = 21.721520 Si / 1000 Ang^3
#
#
#
# Elastic Constant Matrix: (Units=GPa)
#
#
# Indices 1 2 3 4 5 6 
#
# 1 133.2402 35.6971 29.9701 -5.5722 -16.9467 12.1697
# 2 35.6971 85.9450 31.3421 -3.9994 -8.0817 17.6626
# 3 29.9701 31.3421 148.8691 -8.0212 -8.0954 1.8090
# 4 -5.5722 -3.9994 -8.0212 29.8338 -10.5337 -13.0145
# 5 -16.9467 -8.0817 -8.0954 -10.5337 41.4761 3.5627
# 6 12.1697 17.6626 1.8090 -13.0145 3.5627 38.5791
#
#
#
# Elastic Compliance Matrix: (Units=1/GPa)
#
#
# Indices 1 2 3 4 5 6 
#
# 1 0.009100 -0.002750 -0.000949 0.001765 0.003557 -0.001300
# 2 -0.002750 0.015134 -0.002552 -0.001514 0.001509 -0.006592
# 3 -0.000949 -0.002552 0.007634 0.002786 0.001146 0.001944
# 4 0.001765 -0.001514 0.002786 0.044383 0.011043 0.013958
# 5 0.003557 0.001509 0.001146 0.011043 0.028956 -0.000816
# 6 -0.001300 -0.006592 0.001944 0.013958 -0.000816 0.034042
#
#
# Mechanical properties :
#
#
# Convention : Reuss Voigt Hill
#
# Bulk Modulus (GPa) = 51.63294 62.45254 57.04274
# Shear Modulus (GPa) = 31.60414 40.04747 35.82580
#
# Velocity S-wave (km/s) = 3.81854 4.29846 4.06559
# Velocity P-wave (km/s) = 6.57752 7.31092 6.95390
#
# Compressibility (1/GPa) = 0.01936748
#
# Stress axis : x y z
#
# Youngs Moduli (GPa) = 109.88493 66.07468 130.98605
#
# Poissons Ratio (x) = 0.18170 0.12428
# Poissons Ratio (y) = 0.30218 0.33429
# Poissons Ratio (z) = 0.10426 0.16863
#
# Static dielectric constant tensor:
#      x y z
#    x 4.144370 0.195810 -0.105110 
#    y 0.195810 4.123650 0.060760 
#    z -0.105110 0.060760 4.516450 
# 
# 
# High freq. dielectric constant tensor:
#      x y z
#    x 1.841670 0.011220 -0.005810 
#    y 0.011220 1.857400 0.000840 
#    z -0.005810 0.000840 1.880520 
# 
# From -- ./inp_files/158541.got.cif
#   From: 2010.06.25/outbox.cif.g09.slc.cpg/sg2_80_cif.got.tgz:158541.got - 2010.06.27 13:26:56.
