data_PCOD8022443
_publ_section_title
;
Structure prediction by ZEFSAII (Michael W. Deem and Ramdas Pophale) SiO2 
 PCOD8022443
Probable space group: P -1
;
_chemical_formula_sum "Si O2"
_cell_formula_units_Z 16
_cell_length_a 23.085390
_cell_length_b 6.492026
_cell_length_c 13.821959
_cell_angle_alpha 98.937163
_cell_angle_beta 147.607967
_cell_angle_gamma 57.764604
_cell_volume 712.423358
_symmetry_space_group_name_H-M "P -1"
_symmetry_group_IT_number 2
_symmetry_cell_setting 'triclinic'
loop_
_space_group_symop_operation_xyz
x,y,z
-x,-y,-z
loop_
_atom_site_type_symbol
_atom_site_label
_atom_site_fract_x
_atom_site_fract_y
_atom_site_fract_z
Si Si1 0.131615 0.951923 0.236235
Si Si2 0.335195 0.935480 0.388798
Si Si3 0.844463 0.855650 0.531130
Si Si4 0.481156 0.901200 0.868529
Si Si5 0.433324 0.214400 0.633882
Si Si6 0.038386 0.209893 0.664371
Si Si7 0.646293 0.197211 0.810713
Si Si8 0.208019 0.799084 0.693868
O O1 0.182773 0.053954 0.239213
O O2 0.290948 0.594342 0.474740
O O3 0.058361 0.167098 0.246367
O O4 0.000000 0.000000 0.000000
O O5 0.506568 0.576407 0.633890
O O6 0.300147 0.970340 0.229039
O O7 0.348673 0.158084 0.447528
O O8 0.976419 0.528413 0.632111
O O9 0.701071 0.930684 0.385901
O O10 0.754209 0.141801 0.349139
O O11 0.504912 0.026019 0.822633
O O12 0.620109 0.515268 0.033196
O O13 0.500000 0.000000 0.000000
O O14 0.589074 0.087090 0.788242
O O15 0.890632 0.265145 0.477079
O O16 0.099032 0.111221 0.631298
O O17 0.194521 0.919188 0.929549
#
# Coordination Sequence:
#
# PCOD8022443 Si02
#       8
#     2   2   2   2   2   2   2   2
#     4  11  27  43  69 103 139 176 229 287 344 415
#     4  10  22  46  67  98 133 178 232 281 346 401
#     4  12  26  45  69 102 138 185 227 281 353 404
#     4  12  24  44  73 100 137 182 230 281 339 415
#     4  11  24  44  68  99 132 182 230 276 345 405
#     4  11  26  44  67 103 135 183 227 285 343 407
#     4  10  24  41  71  96 135 177 231 282 334 417
#     4  11  26  46  69  99 142 180 231 283 338 409
#
# _framework density 22.458558
#
# number of rings (size 3 to 8) (size 9 to 14) (size 15 to 20)
#    0.000    1.000    2.500    2.625    7.000    3.500 
#    0.000    0.000    0.000    0.000    0.000    0.000 
#    0.000    0.000    0.000    0.000    0.000    0.000 
#
# Total GULP energy -198473.666422 kJ/mol
# GULP energy per Si atom -12404.604151 kJ/mol
# Density = 2.240744 g / cm^3
# Si number density = 22.458558 Si / 1000 Ang^3
#
#
#
# Elastic Constant Matrix: (Units=GPa)
#
#
# Indices 1 2 3 4 5 6 
#
# 1 131.5468 36.3646 24.2778 -8.3674 -21.2907 -5.2662
# 2 36.3646 104.8392 16.9064 6.4519 -2.7818 -22.0961
# 3 24.2778 16.9064 89.2410 13.0533 -8.6141 -11.0427
# 4 -8.3674 6.4519 13.0533 32.8883 -3.8458 -6.2432
# 5 -21.2907 -2.7818 -8.6141 -3.8458 31.6480 0.3812
# 6 -5.2662 -22.0961 -11.0427 -6.2432 0.3812 28.3116
#
#
#
# Elastic Compliance Matrix: (Units=1/GPa)
#
#
# Indices 1 2 3 4 5 6 
#
# 1 0.010348 -0.003491 -0.002316 0.004876 0.006625 -0.000717
# 2 -0.003491 0.012713 -0.000264 -0.001798 -0.001628 0.008795
# 3 -0.002316 -0.000264 0.013161 -0.004960 0.001357 0.003384
# 4 0.004876 -0.001798 -0.004960 0.035692 0.006045 0.005358
# 5 0.006625 -0.001628 0.001357 0.006045 0.037000 0.001326
# 6 -0.000717 0.008795 0.003384 0.005358 0.001326 0.044536
#
#
# Mechanical properties :
#
#
# Convention : Reuss Voigt Hill
#
# Bulk Modulus (GPa) = 41.53085 53.41383 47.47234
# Shear Modulus (GPa) = 28.79862 35.10811 31.95337
#
# Velocity S-wave (km/s) = 3.58481 3.95807 3.77605
# Velocity P-wave (km/s) = 5.97217 6.68755 6.33996
#
# Compressibility (1/GPa) = 0.02407849
#
# Stress axis : x y z
#
# Youngs Moduli (GPa) = 96.63548 78.65854 75.98158
#
# Poissons Ratio (x) = 0.27462 0.17599
# Poissons Ratio (y) = 0.33739 0.02010
# Poissons Ratio (z) = 0.22382 0.02080
#
# Static dielectric constant tensor:
#      x y z
#    x 4.103420 -0.111750 -0.016780 
#    y -0.111750 4.160880 0.029760 
#    z -0.016780 0.029760 3.951730 
# 
# 
# High freq. dielectric constant tensor:
#      x y z
#    x 1.892960 -0.010000 -0.006370 
#    y -0.010000 1.894560 0.006700 
#    z -0.006370 0.006700 1.882510 
# 
# From -- ./inp_files/98526.got.cif
#   From: 2010.06.25/outbox.cif.g09.slc.cpg/sg2_50_cif.got.tgz:98526.got - 2010.06.27 13:26:56.
