data_PCOD8022610
_publ_section_title
;
Structure prediction by ZEFSAII (Michael W. Deem and Ramdas Pophale) SiO2 
 PCOD8022610
Probable space group: P -1
;
_chemical_formula_sum "Si O2"
_cell_formula_units_Z 12
_cell_length_a 7.053002
_cell_length_b 4.973359
_cell_length_c 15.621362
_cell_angle_alpha 88.701883
_cell_angle_beta 105.049561
_cell_angle_gamma 101.249038
_cell_volume 518.765670
_symmetry_space_group_name_H-M "P -1"
_symmetry_group_IT_number 2
_symmetry_cell_setting 'triclinic'
loop_
_space_group_symop_operation_xyz
x,y,z
-x,-y,-z
loop_
_atom_site_type_symbol
_atom_site_label
_atom_site_fract_x
_atom_site_fract_y
_atom_site_fract_z
Si Si1 0.606736 0.983039 0.409074
Si Si2 0.216402 0.490265 0.487594
Si Si3 0.509961 0.946404 0.902117
Si Si4 0.784344 0.945005 0.258570
Si Si5 0.224502 0.179760 0.317568
Si Si6 0.419911 0.530999 0.184233
O O1 0.652545 0.686573 0.440823
O O2 0.619451 0.020278 0.647610
O O3 0.659515 0.194946 0.494210
O O4 0.744823 0.091350 0.342567
O O5 0.197966 0.379799 0.390861
O O6 0.000000 0.500000 0.500000
O O7 0.288486 0.901170 0.833344
O O8 0.593501 0.673501 0.896539
O O9 0.650980 0.201637 0.866074
O O10 0.500000 0.000000 0.000000
O O11 0.020444 0.960778 0.277666
O O12 0.649653 0.633045 0.246142
O O13 0.279643 0.385958 0.243633
#
# Coordination Sequence:
#
# PCOD8022610 Si02
#       6
#     2   2   2   2   2   2
#     4  12  25  48  65 106 143 194 251 294 350 429
#     4  12  27  46  70 102 148 197 247 298 352 414
#     4  10  22  48  75 101 147 184 227 303 368 432
#     4  10  25  44  75 102 148 185 241 298 367 414
#     4  12  24  49  74 105 150 198 242 303 358 422
#     4  10  23  45  69 108 137 187 240 287 363 435
#
# _framework density 23.131831999999999
#
# number of rings (size 3 to 8) (size 9 to 14) (size 15 to 20)
#    1.000    0.000    3.333    3.000    0.000    2.667 
#    9.000    1.667    0.000    0.000    0.000    0.000 
#    0.000    0.000    0.000    0.000    0.000    0.000 
#
# Total GULP energy -148689.674917 kJ/mol
# GULP energy per Si atom -12390.806243 kJ/mol
# Density = 2.307918 g / cm^3
# Si number density = 23.131832 Si / 1000 Ang^3
#
#
#
# Elastic Constant Matrix: (Units=GPa)
#
#
# Indices 1 2 3 4 5 6 
#
# 1 105.1041 24.5353 13.6210 -7.5112 -17.9050 5.4483
# 2 24.5353 110.3952 18.6219 4.8578 -7.1304 -5.5076
# 3 13.6210 18.6219 126.7654 6.0285 -15.7155 3.2179
# 4 -7.5112 4.8578 6.0285 33.2878 -2.9514 -0.9773
# 5 -17.9050 -7.1304 -15.7155 -2.9514 23.6777 -4.3841
# 6 5.4483 -5.5076 3.2179 -0.9773 -4.3841 34.7967
#
#
#
# Elastic Compliance Matrix: (Units=1/GPa)
#
#
# Indices 1 2 3 4 5 6 
#
# 1 0.011821 -0.002289 -0.000031 0.003731 0.008503 -0.001034
# 2 -0.002289 0.009976 -0.001105 -0.001647 0.000721 0.002084
# 3 -0.000031 -0.001105 0.008763 -0.000975 0.005275 -0.000343
# 4 0.003731 -0.001647 -0.000975 0.031840 0.005808 0.000871
# 5 0.008503 0.000721 0.005275 0.005808 0.054082 0.005272
# 6 -0.001034 0.002084 -0.000343 0.000871 0.005272 0.029951
#
#
# Mechanical properties :
#
#
# Convention : Reuss Voigt Hill
#
# Bulk Modulus (GPa) = 42.17250 50.64679 46.40964
# Shear Modulus (GPa) = 31.01989 37.38491 34.20240
#
# Velocity S-wave (km/s) = 3.66595 4.02452 3.84941
# Velocity P-wave (km/s) = 6.01580 6.59834 6.31379
#
# Compressibility (1/GPa) = 0.02371214
#
# Stress axis : x y z
#
# Youngs Moduli (GPa) = 84.59249 100.23660 114.11254
#
# Poissons Ratio (x) = 0.22940 0.00354
# Poissons Ratio (y) = 0.19360 0.12607
# Poissons Ratio (z) = 0.00262 0.11074
#
# Static dielectric constant tensor:
#      x y z
#    x 4.097270 0.003460 -0.137500 
#    y 0.003460 4.221990 0.098710 
#    z -0.137500 0.098710 4.119700 
# 
# 
# High freq. dielectric constant tensor:
#      x y z
#    x 1.892290 -0.000360 -0.015750 
#    y -0.000360 1.923590 0.002800 
#    z -0.015750 0.002800 1.914310 
# 
# From -- ./inp_files/265651.got.cif
#   From: 2010.06.25/outbox.cif.g09.slc.cpg/sg2_133_cif.got.tgz:265651.got - 2010.06.27 13:26:56.
