data_PCOD8022287
_publ_section_title
;
Structure prediction by ZEFSAII (Michael W. Deem and Ramdas Pophale) SiO2 
 PCOD8022287
Probable space group: P -1
;
_chemical_formula_sum "Si O2"
_cell_formula_units_Z 16
_cell_length_a 14.135719
_cell_length_b 11.165633
_cell_length_c 8.831212
_cell_angle_alpha 49.971981
_cell_angle_beta 69.053815
_cell_angle_gamma 106.241595
_cell_volume 699.303330
_symmetry_space_group_name_H-M "P -1"
_symmetry_group_IT_number 2
_symmetry_cell_setting 'triclinic'
loop_
_space_group_symop_operation_xyz
x,y,z
-x,-y,-z
loop_
_atom_site_type_symbol
_atom_site_label
_atom_site_fract_x
_atom_site_fract_y
_atom_site_fract_z
Si Si1 0.338409 0.049285 0.599281
Si Si2 0.816744 0.664435 0.453853
Si Si3 0.717739 0.732953 0.739598
Si Si4 0.449366 0.764000 0.202084
Si Si5 0.374969 0.622343 0.693920
Si Si6 0.748575 0.994019 0.753864
Si Si7 0.830776 0.336615 0.229936
Si Si8 0.861863 0.035121 0.974229
O O1 0.376716 0.257485 0.324070
O O2 0.488371 0.138478 0.500582
O O3 0.254614 0.839805 0.711765
O O4 0.232057 0.952648 0.880841
O O5 0.806723 0.713823 0.594806
O O6 0.687119 0.402785 0.698652
O O7 0.968416 0.743101 0.278995
O O8 0.816569 0.808728 0.221405
O O9 0.809544 0.957878 0.606026
O O10 0.634446 0.549444 0.069178
O O11 0.412407 0.639999 0.482665
O O12 0.575564 0.795814 0.032984
O O13 0.500000 0.000000 0.000000
O O14 0.221210 0.541915 0.853570
O O15 0.781086 0.211999 0.521065
O O16 0.833233 0.031657 0.819204
O O17 0.000000 0.500000 0.000000
#
# Coordination Sequence:
#
# PCOD8022287 Si02
#       8
#     2   2   2   2   2   2   2   2
#     4  10  23  44  69  98 136 173 230 283 336 408
#     4  10  25  43  69 101 140 174 229 281 350 403
#     4  10  25  42  71 103 134 173 228 289 340 395
#     4  12  26  44  67 100 139 184 227 279 336 410
#     4  12  24  43  69  98 132 182 228 276 342 404
#     4  11  24  46  69  99 138 173 233 283 336 408
#     4  11  27  45  65  97 142 182 223 277 345 412
#     4  10  22  45  70 103 131 179 226 290 342 401
#
# _framework density 22.879916000000001
#
# number of rings (size 3 to 8) (size 9 to 14) (size 15 to 20)
#    0.000    1.250    2.500    1.500   10.500    2.500 
#    2.250    1.250    0.000    0.000    0.000    0.000 
#    0.000    0.000    0.000    0.000    0.000    0.000 
#
# Total GULP energy -198243.415529 kJ/mol
# GULP energy per Si atom -12390.213471 kJ/mol
# Density = 2.282784 g / cm^3
# Si number density = 22.879916 Si / 1000 Ang^3
#
#
#
# Elastic Constant Matrix: (Units=GPa)
#
#
# Indices 1 2 3 4 5 6 
#
# 1 93.6520 27.9780 47.4032 4.4030 -19.2334 15.6548
# 2 27.9780 75.6871 41.1746 11.5178 10.2694 9.1473
# 3 47.4032 41.1746 86.6946 5.2363 -10.7824 11.1939
# 4 4.4030 11.5178 5.2363 38.5161 11.8614 3.2870
# 5 -19.2334 10.2694 -10.7824 11.8614 38.8515 2.1343
# 6 15.6548 9.1473 11.1939 3.2870 2.1343 31.5036
#
#
#
# Elastic Compliance Matrix: (Units=1/GPa)
#
#
# Indices 1 2 3 4 5 6 
#
# 1 0.017738 -0.003411 -0.006017 -0.002477 0.009101 -0.006044
# 2 -0.003411 0.020979 -0.009087 -0.001787 -0.009191 -0.000358
# 3 -0.006017 -0.009087 0.020086 -0.000819 0.005346 -0.001785
# 4 -0.002477 -0.001787 -0.000819 0.030047 -0.010132 -0.000408
# 5 0.009101 -0.009191 0.005346 -0.010132 0.037539 -0.005240
# 6 -0.006044 -0.000358 -0.001785 -0.000408 -0.005240 0.035882
#
#
# Mechanical properties :
#
#
# Convention : Reuss Voigt Hill
#
# Bulk Modulus (GPa) = 45.93100 54.34948 50.14024
# Shear Modulus (GPa) = 24.20608 31.07278 27.63943
#
# Velocity S-wave (km/s) = 3.25616 3.68921 3.47943
# Velocity P-wave (km/s) = 5.85279 6.47710 6.17284
#
# Compressibility (1/GPa) = 0.02177179
#
# Stress axis : x y z
#
# Youngs Moduli (GPa) = 56.37472 47.66604 49.78709
#
# Poissons Ratio (x) = 0.16260 0.29957
# Poissons Ratio (y) = 0.19231 0.45244
# Poissons Ratio (z) = 0.33920 0.43316
#
# Static dielectric constant tensor:
#      x y z
#    x 4.142920 0.083340 0.050550 
#    y 0.083340 4.097680 0.193280 
#    z 0.050550 0.193280 4.224980 
# 
# 
# High freq. dielectric constant tensor:
#      x y z
#    x 1.904380 0.010650 0.004010 
#    y 0.010650 1.899470 0.015760 
#    z 0.004010 0.015760 1.902490 
# 
# From -- ./inp_files/208454.got.cif
#   From: 2010.06.25/outbox.cif.g09.slc.cpg/sg2_105_cif.got.tgz:208454.got - 2010.06.27 13:26:56.
