data_PCOD8022234
_publ_section_title
;
Structure prediction by ZEFSAII (Michael W. Deem and Ramdas Pophale) SiO2 
 PCOD8022234
Probable space group: P -1
;
_chemical_formula_sum "Si O2"
_cell_formula_units_Z 14
_cell_length_a 19.213216
_cell_length_b 19.050216
_cell_length_c 11.827827
_cell_angle_alpha 25.918110
_cell_angle_beta 26.511636
_cell_angle_gamma 20.210901
_cell_volume 615.609469
_symmetry_space_group_name_H-M "P -1"
_symmetry_group_IT_number 2
_symmetry_cell_setting 'triclinic'
loop_
_space_group_symop_operation_xyz
x,y,z
-x,-y,-z
loop_
_atom_site_type_symbol
_atom_site_label
_atom_site_fract_x
_atom_site_fract_y
_atom_site_fract_z
Si Si1 0.108689 0.696902 0.961530
Si Si2 0.365966 0.054652 0.726296
Si Si3 0.318653 0.579881 0.275718
Si Si4 0.675753 0.668417 0.002238
Si Si5 0.908764 0.717706 0.751441
Si Si6 0.614838 0.193803 0.567238
Si Si7 0.655731 0.578482 0.766806
O O1 0.197097 0.814745 0.664610
O O2 0.177838 0.566830 0.931092
O O3 0.187526 0.540205 0.182050
O O4 0.853679 0.881389 0.072807
O O5 0.330892 0.252522 0.548702
O O6 0.500000 0.000000 0.500000
O O7 0.493878 0.848755 0.919740
O O8 0.494341 0.328263 0.431877
O O9 0.275959 0.587272 0.193651
O O10 0.093059 0.720300 0.462778
O O11 0.416736 0.689777 0.993587
O O12 0.822606 0.715021 0.759761
O O13 0.563369 0.673789 0.268147
O O14 0.717696 0.943069 0.769637
O O15 0.000000 0.500000 0.000000
#
# Coordination Sequence:
#
# PCOD8022234 Si02
#       7
#     2   2   2   2   2   2   2
#     4  11  26  46  70 101 140 181 225 280 339 401
#     4  12  26  41  67  99 141 177 225 271 337 404
#     4  10  23  44  70  98 138 174 226 280 334 401
#     4  12  26  45  71 102 136 181 228 281 337 403
#     4  12  26  43  72 100 137 178 225 280 346 401
#     4  11  26  46  70 104 135 177 233 278 342 400
#     4  10  22  45  68  99 137 178 222 277 332 406
#
# _framework density 22.741689999999998
#
# number of rings (size 3 to 8) (size 9 to 14) (size 15 to 20)
#    0.000    0.857    2.857    3.000    8.000    0.571 
#    0.000    2.857    0.000    0.000    0.000    0.000 
#    0.000    0.000    0.000    0.000    0.000    0.000 
#
# Total GULP energy -173610.480080 kJ/mol
# GULP energy per Si atom -12400.748577 kJ/mol
# Density = 2.268993 g / cm^3
# Si number density = 22.741690 Si / 1000 Ang^3
#
#
#
# Elastic Constant Matrix: (Units=GPa)
#
#
# Indices 1 2 3 4 5 6 
#
# 1 115.3016 44.0262 18.7565 11.9383 -3.6514 -1.2021
# 2 44.0262 96.3383 23.6443 16.7503 -7.2896 0.9999
# 3 18.7565 23.6443 80.7571 19.1460 -5.5393 -11.8548
# 4 11.9383 16.7503 19.1460 42.5311 -2.1295 -12.0313
# 5 -3.6514 -7.2896 -5.5393 -2.1295 37.3692 10.5519
# 6 -1.2021 0.9999 -11.8548 -12.0313 10.5519 31.2356
#
#
#
# Elastic Compliance Matrix: (Units=1/GPa)
#
#
# Indices 1 2 3 4 5 6 
#
# 1 0.010623 -0.004468 -0.000985 -0.000818 0.000014 -0.000142
# 2 -0.004468 0.014018 -0.002488 -0.004174 0.002860 -0.004139
# 3 -0.000985 -0.002488 0.014971 -0.004350 0.000273 0.003956
# 4 -0.000818 -0.004174 -0.004350 0.030347 -0.002955 0.011138
# 5 0.000014 0.002860 0.000273 -0.002955 0.030410 -0.011399
# 6 -0.000142 -0.004139 0.003956 0.011138 -0.011399 0.041784
#
#
# Mechanical properties :
#
#
# Convention : Reuss Voigt Hill
#
# Bulk Modulus (GPa) = 42.14272 51.69457 46.91865
# Shear Modulus (GPa) = 30.13054 35.95851 33.04453
#
# Velocity S-wave (km/s) = 3.64387 3.98071 3.81601
# Velocity P-wave (km/s) = 6.02287 6.62636 6.33181
#
# Compressibility (1/GPa) = 0.02372889
#
# Stress axis : x y z
#
# Youngs Moduli (GPa) = 94.13638 71.33798 66.79641
#
# Poissons Ratio (x) = 0.31875 0.06579
# Poissons Ratio (y) = 0.42061 0.16621
# Poissons Ratio (z) = 0.09272 0.17751
#
# Static dielectric constant tensor:
#      x y z
#    x 5.112240 -0.124830 1.042080 
#    y -0.124830 4.000360 0.031420 
#    z 1.042080 0.031420 6.266420 
# 
# 
# High freq. dielectric constant tensor:
#      x y z
#    x 1.908070 -0.006440 -0.009780 
#    y -0.006440 1.886470 0.015800 
#    z -0.009780 0.015800 1.905660 
# 
# From -- ./inp_files/70082.got.cif
#   From: 2010.06.25/outbox.cif.g09.slc.cpg/sg2_36_cif.got.tgz:70082.got - 2010.06.27 13:26:56.
