data_PCOD8022937
_publ_section_title
;
Structure prediction by ZEFSAII (Michael W. Deem and Ramdas Pophale) SiO2 
 PCOD8022937
Probable space group: P -1
;
_chemical_formula_sum "Si O2"
_cell_formula_units_Z 16
_cell_length_a 25.904498
_cell_length_b 7.306683
_cell_length_c 5.303524
_cell_angle_alpha 62.832092
_cell_angle_beta 56.812573
_cell_angle_gamma 54.340915
_cell_volume 668.471715
_symmetry_space_group_name_H-M "P -1"
_symmetry_group_IT_number 2
_symmetry_cell_setting 'triclinic'
loop_
_space_group_symop_operation_xyz
x,y,z
-x,-y,-z
loop_
_atom_site_type_symbol
_atom_site_label
_atom_site_fract_x
_atom_site_fract_y
_atom_site_fract_z
Si Si1 0.000913 0.259927 0.668478
Si Si2 0.427097 0.004385 0.156514
Si Si3 0.258111 0.317954 0.887647
Si Si4 0.125187 0.520829 0.842222
Si Si5 0.808316 0.291186 0.811629
Si Si6 0.382845 0.858636 0.880607
Si Si7 0.328627 0.504449 0.217295
Si Si8 0.078848 0.154054 0.034835
O O1 0.032615 0.129490 0.403935
O O2 0.000000 0.500000 0.500000
O O3 0.044753 0.128694 0.881972
O O4 0.920499 0.324170 0.896138
O O5 0.368805 0.266289 0.105573
O O6 0.412028 0.885950 0.515321
O O7 0.500000 0.000000 0.000000
O O8 0.430151 0.863897 0.982765
O O9 0.200855 0.322982 0.839445
O O10 0.304799 0.436996 0.585178
O O11 0.305342 0.057392 0.005839
O O12 0.213569 0.468956 0.139740
O O13 0.134826 0.712487 0.534365
O O14 0.085208 0.394316 0.883763
O O15 0.738187 0.306705 0.866978
O O16 0.844147 0.058215 0.025103
O O17 0.380811 0.614650 0.055844
#
# Coordination Sequence:
#
# PCOD8022937 Si02
#       8
#     2   2   2   2   2   2   2   2
#     4  10  23  43  63  88 124 165 216 272 334 405
#     4  11  25  45  70 107 141 175 226 270 317 395
#     4  10  23  41  63  95 132 168 225 276 325 396
#     4  10  23  40  62  87 123 169 209 276 338 390
#     4  11  24  40  64  94 127 167 221 279 323 396
#     4  11  24  44  73  97 137 187 214 273 337 374
#     4  10  24  44  66 100 139 176 226 273 327 397
#     4  11  25  41  64  90 121 167 219 270 336 403
#
# _framework density 23.935195
#
# number of rings (size 3 to 8) (size 9 to 14) (size 15 to 20)
#    0.000    1.500    1.250    2.625   10.500    3.000 
#    0.000    0.000    0.000    0.000    0.000    0.000 
#    0.000    0.000    0.000    0.000    0.000    0.000 
#
# Total GULP energy -198332.042415 kJ/mol
# GULP energy per Si atom -12395.752651 kJ/mol
# Density = 2.388072 g / cm^3
# Si number density = 23.935195 Si / 1000 Ang^3
#
#
#
# Elastic Constant Matrix: (Units=GPa)
#
#
# Indices 1 2 3 4 5 6 
#
# 1 94.8495 0.1603 43.0656 -10.0249 -3.9157 4.8042
# 2 0.1603 42.1399 20.4572 -3.0824 -5.4409 -1.8033
# 3 43.0656 20.4572 103.4527 1.9254 0.3954 -3.0658
# 4 -10.0249 -3.0824 1.9254 19.9595 -0.7956 -2.3594
# 5 -3.9157 -5.4409 0.3954 -0.7956 44.1050 -0.1247
# 6 4.8042 -1.8033 -3.0658 -2.3594 -0.1247 35.6193
#
#
#
# Elastic Compliance Matrix: (Units=1/GPa)
#
#
# Indices 1 2 3 4 5 6 
#
# 1 0.014957 0.004319 -0.007306 0.008749 0.002079 -0.001841
# 2 0.004319 0.028502 -0.007569 0.007550 0.004106 0.000723
# 3 -0.007306 -0.007569 0.014367 -0.006128 -0.001818 0.001427
# 4 0.008749 0.007550 -0.006128 0.056652 0.002792 0.002437
# 5 0.002079 0.004106 -0.001818 0.002792 0.023431 0.000038
# 6 -0.001841 0.000723 0.001427 0.002437 0.000038 0.028644
#
#
# Mechanical properties :
#
#
# Convention : Reuss Voigt Hill
#
# Bulk Modulus (GPa) = 27.23655 40.86759 34.05207
# Shear Modulus (GPa) = 25.01228 31.72071 28.36649
#
# Velocity S-wave (km/s) = 3.23615 3.64438 3.44632
# Velocity P-wave (km/s) = 5.03662 5.90085 5.48578
#
# Compressibility (1/GPa) = 0.03671537
#
# Stress axis : x y z
#
# Youngs Moduli (GPa) = 66.86041 35.08548 69.60179
#
# Poissons Ratio (x) = -0.15155 0.50848
# Poissons Ratio (y) = -0.28879 0.52681
# Poissons Ratio (z) = 0.48846 0.26556
#
# Static dielectric constant tensor:
#      x y z
#    x 4.179670 -0.061870 0.173750 
#    y -0.061870 4.091950 0.075310 
#    z 0.173750 0.075310 4.632180 
# 
# 
# High freq. dielectric constant tensor:
#      x y z
#    x 1.945350 -0.004660 -0.001740 
#    y -0.004660 1.949000 0.001440 
#    z -0.001740 0.001440 1.947820 
# 
# From -- ./inp_files/126240.got.cif
#   From: 2010.06.25/outbox.cif.g09.slc.cpg/sg2_64_cif.got.tgz:126240.got - 2010.06.27 13:26:56.
