data_PCOD8022973
_publ_section_title
;
Structure prediction by ZEFSAII (Michael W. Deem and Ramdas Pophale) SiO2 
 PCOD8022973
Probable space group: P -1
;
_chemical_formula_sum "Si O2"
_cell_formula_units_Z 14
_cell_length_a 11.875978
_cell_length_b 8.557100
_cell_length_c 9.547475
_cell_angle_alpha 95.370128
_cell_angle_beta 70.762053
_cell_angle_gamma 132.282249
_cell_volume 666.254255
_symmetry_space_group_name_H-M "P -1"
_symmetry_group_IT_number 2
_symmetry_cell_setting 'triclinic'
loop_
_space_group_symop_operation_xyz
x,y,z
-x,-y,-z
loop_
_atom_site_type_symbol
_atom_site_label
_atom_site_fract_x
_atom_site_fract_y
_atom_site_fract_z
Si Si1 0.410493 0.502419 0.806612
Si Si2 0.904045 0.334532 0.901622
Si Si3 0.170884 0.371986 0.647208
Si Si4 0.689475 0.525966 0.690010
Si Si5 0.395050 0.754811 0.058808
Si Si6 0.004326 0.065929 0.238221
Si Si7 0.822256 0.976333 0.057693
O O1 0.312666 0.485731 0.714824
O O2 0.585878 0.588730 0.697764
O O3 0.321729 0.278560 0.901347
O O4 0.438782 0.664897 0.918485
O O5 0.795916 0.368183 0.872713
O O6 0.031496 0.372103 0.743841
O O7 0.000000 0.500000 0.000000
O O8 0.775535 0.094980 0.006302
O O9 0.250150 0.500581 0.479916
O O10 0.096440 0.130152 0.625390
O O11 0.580347 0.300178 0.801435
O O12 0.841842 0.710837 0.740691
O O13 0.500000 0.000000 0.000000
O O14 0.036677 0.965110 0.095726
O O15 0.888989 0.080985 0.196598
#
# Coordination Sequence:
#
# PCOD8022973 Si02
#       7
#     2   2   2   2   2   2   2
#     4  11  22  42  64  88 121 164 210 250 302 366
#     4  11  21  40  65  88 126 162 201 249 300 379
#     4  10  23  40  63  94 122 160 204 249 316 361
#     4  12  23  39  64  92 127 157 203 264 301 355
#     4  12  26  40  62  93 122 162 208 254 306 361
#     4   9  18  34  62  94 116 149 205 256 295 348
#     4   9  18  36  63  91 114 160 212 248 289 358
#
# _framework density 21.012996999999999
#
# number of rings (size 3 to 8) (size 9 to 14) (size 15 to 20)
#    0.000    1.429    2.857    3.857    4.000    0.571 
#    0.000    0.714    3.143    0.000    0.000    0.000 
#    0.000    0.000    0.000    0.000    0.000    0.000 
#
# Total GULP energy -173489.629575 kJ/mol
# GULP energy per Si atom -12392.116398 kJ/mol
# Density = 2.096517 g / cm^3
# Si number density = 21.012997 Si / 1000 Ang^3
#
#
#
# Elastic Constant Matrix: (Units=GPa)
#
#
# Indices 1 2 3 4 5 6 
#
# 1 95.4360 -1.6483 30.3001 2.8664 -12.9446 -2.9210
# 2 -1.6483 87.9852 34.0844 -2.7053 1.4459 -5.5756
# 3 30.3001 34.0844 117.8715 -5.7448 -5.8704 -9.3952
# 4 2.8664 -2.7053 -5.7448 18.8265 -2.9015 1.6083
# 5 -12.9446 1.4459 -5.8704 -2.9015 28.4809 -0.9966
# 6 -2.9210 -5.5756 -9.3952 1.6083 -0.9966 21.9219
#
#
#
# Elastic Compliance Matrix: (Units=1/GPa)
#
#
# Indices 1 2 3 4 5 6 
#
# 1 0.012295 0.001458 -0.003378 -0.002057 0.004641 0.000923
# 2 0.001458 0.013090 -0.004051 0.000157 -0.000760 0.001741
# 3 -0.003378 -0.004051 0.010993 0.003237 0.001373 0.003056
# 4 -0.002057 0.000157 0.003237 0.055483 0.005283 -0.002677
# 5 0.004641 -0.000760 0.001373 0.005283 0.038163 0.002361
# 6 0.000923 0.001741 0.003056 -0.002677 0.002361 0.047796
#
#
# Mechanical properties :
#
#
# Convention : Reuss Voigt Hill
#
# Bulk Modulus (GPa) = 40.92300 47.41835 44.17068
# Shear Modulus (GPa) = 25.26425 29.74963 27.50694
#
# Velocity S-wave (km/s) = 3.47120 3.76676 3.62200
# Velocity P-wave (km/s) = 5.96515 6.44462 6.20952
#
# Compressibility (1/GPa) = 0.02443613
#
# Stress axis : x y z
#
# Youngs Moduli (GPa) = 81.33194 76.39448 90.96421
#
# Poissons Ratio (x) = -0.11137 0.30725
# Poissons Ratio (y) = -0.11857 0.36853
# Poissons Ratio (z) = 0.27472 0.30950
#
# Static dielectric constant tensor:
#      x y z
#    x 5.084010 -0.645520 0.005810 
#    y -0.645520 3.968870 -0.166860 
#    z 0.005810 -0.166860 3.696510 
# 
# 
# High freq. dielectric constant tensor:
#      x y z
#    x 1.834460 0.004070 0.011040 
#    y 0.004070 1.816680 -0.010030 
#    z 0.011040 -0.010030 1.802350 
# 
# From -- ./inp_files/155482.got.cif
#   From: 2010.06.25/outbox.cif.g09.slc.cpg/sg2_78_cif.got.tgz:155482.got - 2010.06.27 13:26:56.
