data_PCOD8022253
_publ_section_title
;
Structure prediction by ZEFSAII (Michael W. Deem and Ramdas Pophale) SiO2 
 PCOD8022253
Probable space group: P -1
;
_chemical_formula_sum "Si O2"
_cell_formula_units_Z 16
_cell_length_a 14.896603
_cell_length_b 9.145666
_cell_length_c 12.043501
_cell_angle_alpha 109.633198
_cell_angle_beta 27.539157
_cell_angle_gamma 110.588154
_cell_volume 709.068749
_symmetry_space_group_name_H-M "P -1"
_symmetry_group_IT_number 2
_symmetry_cell_setting 'triclinic'
loop_
_space_group_symop_operation_xyz
x,y,z
-x,-y,-z
loop_
_atom_site_type_symbol
_atom_site_label
_atom_site_fract_x
_atom_site_fract_y
_atom_site_fract_z
Si Si1 0.206884 0.440952 0.264567
Si Si2 0.275392 0.649531 0.446586
Si Si3 0.591542 0.528659 0.188003
Si Si4 0.913873 0.758944 0.969181
Si Si5 0.323677 0.966807 0.375224
Si Si6 0.947616 0.160553 0.553352
Si Si7 0.694510 0.205558 0.038105
Si Si8 0.965319 0.094150 0.901007
O O1 0.321084 0.545342 0.262746
O O2 0.000000 0.500000 0.500000
O O3 0.151025 0.257493 0.312653
O O4 0.322441 0.457653 0.027850
O O5 0.371959 0.573093 0.427264
O O6 0.367164 0.832211 0.380265
O O7 0.046383 0.653815 0.723995
O O8 0.589793 0.361337 0.206692
O O9 0.704839 0.655672 0.178809
O O10 0.881615 0.919965 0.985548
O O11 0.006612 0.789111 0.996197
O O12 0.220712 0.868241 0.361396
O O13 0.530220 0.065619 0.144599
O O14 0.176769 0.085761 0.610974
O O15 0.854515 0.249443 0.778078
O O16 0.000000 0.000000 0.500000
O O17 0.806620 0.159871 0.013090
#
# Coordination Sequence:
#
# PCOD8022253 Si02
#       8
#     2   2   2   2   2   2   2   2
#     4  12  21  42  64  90 127 167 211 246 306 377
#     4  11  23  40  67  92 124 168 209 255 305 374
#     4  12  25  40  65  94 127 167 206 257 310 370
#     4  10  22  45  69  89 120 165 216 258 310 368
#     4  11  23  41  63  94 127 164 209 254 312 370
#     4  12  24  38  66  93 127 168 200 255 315 367
#     4  12  25  40  62  97 130 161 206 259 315 369
#     4  10  23  44  68  91 121 164 211 266 309 364
#
# _framework density 22.564806999999998
#
# number of rings (size 3 to 8) (size 9 to 14) (size 15 to 20)
#    0.000    0.750    5.000    2.250    3.500    2.500 
#    0.000    5.000    0.000    0.000    0.000    0.000 
#    0.000    0.000    0.000    0.000    0.000    0.000 
#
# Total GULP energy -198361.603189 kJ/mol
# GULP energy per Si atom -12397.600199 kJ/mol
# Density = 2.251345 g / cm^3
# Si number density = 22.564807 Si / 1000 Ang^3
#
#
#
# Elastic Constant Matrix: (Units=GPa)
#
#
# Indices 1 2 3 4 5 6 
#
# 1 122.2622 58.9539 18.4881 8.0073 -11.0620 -6.3812
# 2 58.9539 120.9933 17.3005 5.3627 -17.3967 -10.1302
# 3 18.4881 17.3005 24.5369 -0.6075 -3.0673 -2.9162
# 4 8.0073 5.3627 -0.6075 31.9772 -0.7611 -6.3844
# 5 -11.0620 -17.3967 -3.0673 -0.7611 32.1881 8.4792
# 6 -6.3812 -10.1302 -2.9162 -6.3844 8.4792 42.9583
#
#
#
# Elastic Compliance Matrix: (Units=1/GPa)
#
#
# Indices 1 2 3 4 5 6 
#
# 1 0.011415 -0.004586 -0.005335 -0.002221 0.000954 -0.000266
# 2 -0.004586 0.011809 -0.004261 -0.000634 0.004148 0.000901
# 3 -0.005335 -0.004261 0.048097 0.003357 0.000009 0.001965
# 4 -0.002221 -0.000634 0.003357 0.032946 -0.001298 0.004901
# 5 0.000954 0.004148 0.000009 -0.001298 0.035192 -0.006019
# 6 -0.000266 0.000901 0.001965 0.004901 -0.006019 0.025501
#
#
# Mechanical properties :
#
#
# Convention : Reuss Voigt Hill
#
# Bulk Modulus (GPa) = 23.27907 50.80861 37.04384
# Shear Modulus (GPa) = 24.07987 32.96140 28.52063
#
# Velocity S-wave (km/s) = 3.27026 3.82611 3.55905
# Velocity P-wave (km/s) = 4.95968 6.48726 5.77420
#
# Compressibility (1/GPa) = 0.04295705
#
# Stress axis : x y z
#
# Youngs Moduli (GPa) = 87.60397 84.68455 20.79145
#
# Poissons Ratio (x) = 0.38835 0.11092
# Poissons Ratio (y) = 0.40174 0.08859
# Poissons Ratio (z) = 0.46737 0.36082
#
# Static dielectric constant tensor:
#      x y z
#    x 3.665440 -0.671300 0.053770 
#    y -0.671300 3.459260 0.310120 
#    z 0.053770 0.310120 3.527450 
# 
# 
# High freq. dielectric constant tensor:
#      x y z
#    x 1.891810 -0.002740 -0.013230 
#    y -0.002740 1.898410 0.007200 
#    z -0.013230 0.007200 1.870320 
# 
# From -- ./inp_files/272442.got.cif
#   From: 2010.06.25/outbox.cif.g09.slc.cpg/sg2_137_cif.got.tgz:272442.got - 2010.06.27 13:26:56.
