data_PCOD8022134
_publ_section_title
;
Structure prediction by ZEFSAII (Michael W. Deem and Ramdas Pophale) SiO2 
 PCOD8022134
Probable space group: P -1
;
_chemical_formula_sum "Si O2"
_cell_formula_units_Z 16
_cell_length_a 9.321640
_cell_length_b 14.752392
_cell_length_c 17.452096
_cell_angle_alpha 31.461020
_cell_angle_beta 134.142342
_cell_angle_gamma 140.155588
_cell_volume 796.321749
_symmetry_space_group_name_H-M "P -1"
_symmetry_group_IT_number 2
_symmetry_cell_setting 'triclinic'
loop_
_space_group_symop_operation_xyz
x,y,z
-x,-y,-z
loop_
_atom_site_type_symbol
_atom_site_label
_atom_site_fract_x
_atom_site_fract_y
_atom_site_fract_z
Si Si1 0.761732 0.059244 0.564993
Si Si2 0.112434 0.032924 0.933346
Si Si3 0.939436 0.647022 0.411939
Si Si4 0.495868 0.643731 0.456285
Si Si5 0.962389 0.807385 0.582430
Si Si6 0.579593 0.060473 0.127781
Si Si7 0.148302 0.603015 0.908535
Si Si8 0.046156 0.204835 0.103832
O O1 0.861063 0.218925 0.553452
O O2 0.887137 0.149483 0.467894
O O3 0.500000 0.000000 0.500000
O O4 0.809745 0.879367 0.735253
O O5 0.119077 0.227070 0.760912
O O6 0.974058 0.853433 0.951808
O O7 0.368359 0.066715 0.004272
O O8 0.000000 0.000000 0.000000
O O9 0.727805 0.491590 0.488018
O O10 0.000000 0.500000 0.500000
O O11 0.500000 0.500000 0.500000
O O12 0.699933 0.695804 0.551020
O O13 0.499162 0.838797 0.283375
O O14 0.007229 0.663828 0.755865
O O15 0.000000 0.000000 0.500000
O O16 0.634040 0.202095 0.120919
O O17 0.795153 0.126856 0.103613
O O18 0.000000 0.500000 0.000000
O O19 0.194675 0.440983 0.997474
#
# Coordination Sequence:
#
# PCOD8022134 Si02
#       8
#     2   2   2   2   2   2   2   2
#     4  11  25  46  68  97 133 173 223 278 332 393
#     4  11  25  42  66  95 135 175 216 269 339 392
#     4  11  26  44  64 102 134 175 221 272 336 395
#     4  12  23  41  69  97 137 166 230 274 321 402
#     4  12  23  42  68 100 129 179 219 273 330 387
#     4  11  22  43  66  97 133 172 217 276 328 391
#     4  10  23  39  64  98 132 164 223 267 327 388
#     4  10  22  45  65  97 128 171 225 271 330 392
#
# _framework density 20.092382000000001
#
# number of rings (size 3 to 8) (size 9 to 14) (size 15 to 20)
#    0.000    1.000    3.750    2.625    7.000    4.000 
#    0.000    1.250    0.000    0.000    0.000    0.000 
#    0.000    0.000    0.000    0.000    0.000    0.000 
#
# Total GULP energy -198279.542169 kJ/mol
# GULP energy per Si atom -12392.471386 kJ/mol
# Density = 2.004665 g / cm^3
# Si number density = 20.092382 Si / 1000 Ang^3
#
#
#
# Elastic Constant Matrix: (Units=GPa)
#
#
# Indices 1 2 3 4 5 6 
#
# 1 90.9129 32.9689 55.1610 -7.2587 13.0360 -13.0090
# 2 32.9689 136.1359 82.9073 -10.6054 20.5482 -16.0658
# 3 55.1610 82.9073 172.2019 -3.5246 14.7310 -17.7944
# 4 -7.2587 -10.6054 -3.5246 49.0549 -0.2813 11.2569
# 5 13.0360 20.5482 14.7310 -0.2813 33.8506 1.2380
# 6 -13.0090 -16.0658 -17.7944 11.2569 1.2380 41.0618
#
#
#
# Elastic Compliance Matrix: (Units=1/GPa)
#
#
# Indices 1 2 3 4 5 6 
#
# 1 0.014464 -0.000107 -0.003956 0.001212 -0.003869 0.002611
# 2 -0.000107 0.011386 -0.004788 0.001603 -0.004849 0.002053
# 3 -0.003956 -0.004788 0.009468 -0.001239 0.000252 0.001308
# 4 0.001212 0.001603 -0.001239 0.022097 -0.000513 -0.005568
# 5 -0.003869 -0.004849 0.000252 -0.000513 0.034004 -0.003898
# 6 0.002611 0.002053 0.001308 -0.005568 -0.003898 0.028195
#
#
# Mechanical properties :
#
#
# Convention : Reuss Voigt Hill
#
# Bulk Modulus (GPa) = 56.76736 82.36945 69.56841
# Shear Modulus (GPa) = 34.91919 40.00770 37.46344
#
# Velocity S-wave (km/s) = 4.17337 4.46711 4.32274
# Velocity P-wave (km/s) = 7.17894 8.22746 7.72102
#
# Compressibility (1/GPa) = 0.01761576
#
# Stress axis : x y z
#
# Youngs Moduli (GPa) = 69.13841 87.82357 105.62015
#
# Poissons Ratio (x) = 0.00941 0.41784
# Poissons Ratio (y) = 0.00741 0.50571
# Poissons Ratio (z) = 0.27351 0.42050
#
# Static dielectric constant tensor:
#      x y z
#    x 3.696300 -0.298230 0.078740 
#    y -0.298230 4.195570 -0.136350 
#    z 0.078740 -0.136350 3.903530 
# 
# 
# High freq. dielectric constant tensor:
#      x y z
#    x 1.785110 -0.016010 0.004420 
#    y -0.016010 1.800210 -0.002700 
#    z 0.004420 -0.002700 1.802790 
# 
# From -- ./inp_files/184261.got.cif
#   From: 2010.06.25/outbox.cif.g09.slc.cpg/sg2_93_cif.got.tgz:184261.got - 2010.06.27 13:26:56.
