data_PCOD8022974
_publ_section_title
;
Structure prediction by ZEFSAII (Michael W. Deem and Ramdas Pophale) SiO2 
 PCOD8022974
Probable space group: P -1
;
_chemical_formula_sum "Si O2"
_cell_formula_units_Z 16
_cell_length_a 16.566590
_cell_length_b 11.860714
_cell_length_c 12.622418
_cell_angle_alpha 105.640909
_cell_angle_beta 25.223275
_cell_angle_gamma 121.319208
_cell_volume 753.416511
_symmetry_space_group_name_H-M "P -1"
_symmetry_group_IT_number 2
_symmetry_cell_setting 'triclinic'
loop_
_space_group_symop_operation_xyz
x,y,z
-x,-y,-z
loop_
_atom_site_type_symbol
_atom_site_label
_atom_site_fract_x
_atom_site_fract_y
_atom_site_fract_z
Si Si1 0.867024 0.143960 0.406118
Si Si2 0.618021 0.694224 0.095172
Si Si3 0.797929 0.195079 0.088112
Si Si4 0.251017 0.183804 0.258000
Si Si5 0.799630 0.311726 0.696726
Si Si6 0.678134 0.657773 0.578449
Si Si7 0.410449 0.777398 0.860046
Si Si8 0.376910 0.827938 0.482461
O O1 0.896666 0.245157 0.494632
O O2 0.828966 0.194734 0.353705
O O3 0.648421 0.960763 0.641512
O O4 0.132533 0.183035 0.095925
O O5 0.497156 0.523112 0.229978
O O6 0.423826 0.719471 0.351918
O O7 0.704215 0.723588 0.877944
O O8 0.724789 0.258650 0.100935
O O9 0.740166 0.232805 0.277528
O O10 0.640032 0.009673 0.216190
O O11 0.095955 0.286902 0.754254
O O12 0.195481 0.244632 0.438218
O O13 0.510861 0.220045 0.979692
O O14 0.000000 0.000000 0.500000
O O15 0.000000 0.500000 0.500000
O O16 0.791653 0.274368 0.820906
O O17 0.502706 0.681455 0.734536
#
# Coordination Sequence:
#
# PCOD8022974 Si02
#       8
#     2   2   2   2   2   2   2   2
#     4  11  22  40  67  92 128 170 216 269 321 393
#     4  12  24  40  65  94 134 169 210 272 330 386
#     4  10  23  43  71  89 127 172 220 274 314 390
#     4  11  23  41  66  95 134 172 221 269 323 401
#     4  11  23  39  63  97 137 167 213 275 331 395
#     4  11  25  40  61  96 131 168 212 268 328 386
#     4  10  23  40  63  94 127 170 217 263 321 389
#     4  10  23  45  66  97 122 170 227 267 324 379
#
# _framework density 21.236595000000001
#
# number of rings (size 3 to 8) (size 9 to 14) (size 15 to 20)
#    0.000    1.250    1.250    5.250    5.250    2.500 
#    0.000    5.000    0.000    0.000    0.000    0.000 
#    0.000    0.000    0.000    0.000    0.000    0.000 
#
# Total GULP energy -198451.565273 kJ/mol
# GULP energy per Si atom -12403.222830 kJ/mol
# Density = 2.118826 g / cm^3
# Si number density = 21.236595 Si / 1000 Ang^3
#
#
#
# Elastic Constant Matrix: (Units=GPa)
#
#
# Indices 1 2 3 4 5 6 
#
# 1 133.7969 25.9333 38.0965 4.5319 26.2161 -9.1970
# 2 25.9333 72.3402 7.6914 -4.0285 14.5476 -12.9691
# 3 38.0965 7.6914 68.1053 0.3415 14.2283 7.4771
# 4 4.5319 -4.0285 0.3415 19.0803 -4.2491 0.8602
# 5 26.2161 14.5476 14.2283 -4.2491 33.1813 0.4525
# 6 -9.1970 -12.9691 7.4771 0.8602 0.4525 25.1412
#
#
#
# Elastic Compliance Matrix: (Units=1/GPa)
#
#
# Indices 1 2 3 4 5 6 
#
# 1 0.010997 -0.001423 -0.005172 -0.004496 -0.006492 0.005097
# 2 -0.001423 0.017303 -0.000891 0.002300 -0.005904 0.008698
# 3 -0.005172 -0.000891 0.019325 0.000240 -0.003670 -0.008041
# 4 -0.004496 0.002300 0.000240 0.056233 0.009677 -0.002627
# 5 -0.006492 -0.005904 -0.003670 0.009677 0.040742 -0.005393
# 6 0.005097 0.008698 -0.008041 -0.002627 -0.005393 0.048705
#
#
# Mechanical properties :
#
#
# Convention : Reuss Voigt Hill
#
# Bulk Modulus (GPa) = 30.62476 46.40943 38.51710
# Shear Modulus (GPa) = 22.81423 28.98195 25.89809
#
# Velocity S-wave (km/s) = 3.28119 3.69822 3.49593
# Velocity P-wave (km/s) = 5.36722 6.33535 5.87127
#
# Compressibility (1/GPa) = 0.03265332
#
# Stress axis : x y z
#
# Youngs Moduli (GPa) = 90.93224 57.79275 51.74674
#
# Poissons Ratio (x) = 0.08226 0.26761
# Poissons Ratio (y) = 0.12944 0.04611
# Poissons Ratio (z) = 0.47026 0.05149
#
# Static dielectric constant tensor:
#      x y z
#    x 4.153600 -0.042820 0.102260 
#    y -0.042820 3.749290 0.035220 
#    z 0.102260 0.035220 3.964630 
# 
# 
# High freq. dielectric constant tensor:
#      x y z
#    x 1.841420 -0.010920 0.000130 
#    y -0.010920 1.825280 -0.005280 
#    z 0.000130 -0.005280 1.841910 
# 
# From -- ./inp_files/278159.got.cif
#   From: 2010.06.25/outbox.cif.g09.slc.cpg/sg2_140_cif.got.tgz:278159.got - 2010.06.27 13:26:56.
