data_PCOD8022232
_publ_section_title
;
Structure prediction by ZEFSAII (Michael W. Deem and Ramdas Pophale) SiO2 
 PCOD8022232
Probable space group: P -1
;
_chemical_formula_sum "Si O2"
_cell_formula_units_Z 14
_cell_length_a 10.802189
_cell_length_b 9.433718
_cell_length_c 9.495086
_cell_angle_alpha 96.802774
_cell_angle_beta 40.565915
_cell_angle_gamma 88.172792
_cell_volume 613.590505
_symmetry_space_group_name_H-M "P -1"
_symmetry_group_IT_number 2
_symmetry_cell_setting 'triclinic'
loop_
_space_group_symop_operation_xyz
x,y,z
-x,-y,-z
loop_
_atom_site_type_symbol
_atom_site_label
_atom_site_fract_x
_atom_site_fract_y
_atom_site_fract_z
Si Si1 0.712125 0.913904 0.820172
Si Si2 0.380576 0.268810 0.351307
Si Si3 0.457973 0.668346 0.503818
Si Si4 0.001505 0.561826 0.354235
Si Si5 0.050866 0.828597 0.952315
Si Si6 0.250505 0.297414 0.969863
Si Si7 0.802214 0.198973 0.869535
O O1 0.748678 0.839281 0.624829
O O2 0.723217 0.795789 0.921067
O O3 0.844754 0.032372 0.756108
O O4 0.500000 0.000000 0.000000
O O5 0.448144 0.235396 0.449794
O O6 0.221258 0.417793 0.506931
O O7 0.572226 0.267403 0.090794
O O8 0.500000 0.500000 0.500000
O O9 0.232930 0.744350 0.693851
O O10 0.546477 0.684823 0.274867
O O11 0.000000 0.500000 0.500000
O O12 0.134152 0.457589 0.119114
O O13 0.098428 0.704063 0.310012
O O14 0.860734 0.773970 0.061321
O O15 0.089161 0.789655 0.076502
O O16 0.000000 0.000000 0.000000
#
# Coordination Sequence:
#
# PCOD8022232 Si02
#       7
#     2   2   2   2   2   2   2
#     4  10  22  46  66  98 138 180 219 281 342 403
#     4  10  22  45  68  99 136 174 227 276 344 399
#     4  11  25  46  72 103 138 186 225 279 353 404
#     4  12  25  43  67 102 131 181 229 279 337 408
#     4  11  23  44  72 107 133 177 235 283 338 406
#     4  12  24  46  71  99 140 174 232 286 332 410
#     4  10  23  45  69  94 142 175 221 286 343 402
#
# _framework density 22.816519
#
# number of rings (size 3 to 8) (size 9 to 14) (size 15 to 20)
#    0.000    1.143    2.857    3.429    0.000    3.429 
#   15.429    0.000    0.000    0.000    0.000    0.000 
#    0.000    0.000    0.000    0.000    0.000    0.000 
#
# Total GULP energy -173480.041773 kJ/mol
# GULP energy per Si atom -12391.431555 kJ/mol
# Density = 2.276459 g / cm^3
# Si number density = 22.816519 Si / 1000 Ang^3
#
#
#
# Elastic Constant Matrix: (Units=GPa)
#
#
# Indices 1 2 3 4 5 6 
#
# 1 74.0389 17.9460 1.1038 2.6355 1.9525 1.9509
# 2 17.9460 125.2171 37.6058 -5.6487 -1.3030 -2.5836
# 3 1.1038 37.6058 86.7658 5.3866 1.1883 -6.4522
# 4 2.6355 -5.6487 5.3866 37.4325 -4.9926 -3.8791
# 5 1.9525 -1.3030 1.1883 -4.9926 34.8382 15.4670
# 6 1.9509 -2.5836 -6.4522 -3.8791 15.4670 38.4848
#
#
#
# Elastic Compliance Matrix: (Units=1/GPa)
#
#
# Indices 1 2 3 4 5 6 
#
# 1 0.014174 -0.002410 0.000942 -0.001675 -0.000926 -0.000519
# 2 -0.002410 0.009761 -0.004374 0.002398 0.001054 -0.000138
# 3 0.000942 -0.004374 0.013803 -0.002741 -0.002231 0.002593
# 4 -0.001675 0.002398 -0.002741 0.028214 0.003837 0.001088
# 5 -0.000926 0.001054 -0.002231 0.003837 0.035741 -0.014234
# 6 -0.000519 -0.000138 0.002593 0.001088 -0.014234 0.032266
#
#
# Mechanical properties :
#
#
# Convention : Reuss Voigt Hill
#
# Bulk Modulus (GPa) = 38.38031 44.37033 41.37532
# Shear Modulus (GPa) = 32.39870 37.44220 34.92045
#
# Velocity S-wave (km/s) = 3.77233 4.05534 3.91639
# Velocity P-wave (km/s) = 5.98597 6.43556 6.21483
#
# Compressibility (1/GPa) = 0.02605503
#
# Stress axis : x y z
#
# Youngs Moduli (GPa) = 70.55012 102.44391 72.45060
#
# Poissons Ratio (x) = 0.24693 -0.06828
# Poissons Ratio (y) = 0.17005 0.31688
# Poissons Ratio (z) = -0.06649 0.44806
#
# Static dielectric constant tensor:
#      x y z
#    x 3.764430 -0.630620 -0.041160 
#    y -0.630620 3.525560 0.495900 
#    z -0.041160 0.495900 3.886910 
# 
# 
# High freq. dielectric constant tensor:
#      x y z
#    x 1.910960 0.006480 -0.007220 
#    y 0.006480 1.900420 0.024070 
#    z -0.007220 0.024070 1.902970 
# 
# From -- ./inp_files/243803.got.cif
#   From: 2010.06.25/outbox.cif.g09.slc.cpg/sg2_122_cif.got.tgz:243803.got - 2010.06.27 13:26:56.
