data_PCOD8022716
_publ_section_title
;
Structure prediction by ZEFSAII (Michael W. Deem and Ramdas Pophale) SiO2 
 PCOD8022716
Probable space group: P -1
;
_chemical_formula_sum "Si O2"
_cell_formula_units_Z 14
_cell_length_a 15.070943
_cell_length_b 15.971260
_cell_length_c 14.482507
_cell_angle_alpha 151.128424
_cell_angle_beta 27.584227
_cell_angle_gamma 151.728802
_cell_volume 688.940768
_symmetry_space_group_name_H-M "P -1"
_symmetry_group_IT_number 2
_symmetry_cell_setting 'triclinic'
loop_
_space_group_symop_operation_xyz
x,y,z
-x,-y,-z
loop_
_atom_site_type_symbol
_atom_site_label
_atom_site_fract_x
_atom_site_fract_y
_atom_site_fract_z
Si Si1 0.447335 0.730169 0.313061
Si Si2 0.681710 0.672639 0.875705
Si Si3 0.463593 0.251678 0.108853
Si Si4 0.171492 0.798237 0.347544
Si Si5 0.088826 0.463726 0.977931
Si Si6 0.163826 0.887063 0.643246
Si Si7 0.044520 0.980347 0.333745
O O1 0.336608 0.539864 0.295027
O O2 0.274087 0.813224 0.548662
O O3 0.675411 0.881930 0.296609
O O4 0.498491 0.689007 0.121626
O O5 0.650478 0.692181 0.814826
O O6 0.919824 0.840299 0.851196
O O7 0.648411 0.444886 0.176161
O O8 0.577120 0.127386 0.841288
O O9 0.293170 0.127656 0.224232
O O10 0.140716 0.769133 0.456627
O O11 0.109440 0.963468 0.530775
O O12 0.024723 0.581253 0.228086
O O13 0.991245 0.234609 0.868054
O O14 0.000000 0.500000 0.000000
O O15 0.000000 0.000000 0.500000
#
# Coordination Sequence:
#
# PCOD8022716 Si02
#       7
#     2   2   2   2   2   2   2
#     4  10  23  38  63  91 124 167 208 260 314 372
#     4  11  21  40  63  92 126 163 212 260 311 372
#     4  10  24  42  62  97 130 163 213 266 308 379
#     4  10  23  43  61  95 132 158 217 263 304 390
#     4  10  23  44  63  95 127 162 215 266 309 382
#     4  11  21  41  61  91 127 165 211 256 317 373
#     4  12  23  44  70  90 126 172 208 262 326 375
#
# _framework density 20.321051000000001
#
# number of rings (size 3 to 8) (size 9 to 14) (size 15 to 20)
#    0.857    0.571    4.286    0.857    2.000    2.857 
#    5.143    0.000    0.000    0.000    0.000    0.000 
#    0.000    0.000    0.000    0.000    0.000    0.000 
#
# Total GULP energy -173540.850611 kJ/mol
# GULP energy per Si atom -12395.775044 kJ/mol
# Density = 2.027480 g / cm^3
# Si number density = 20.321051 Si / 1000 Ang^3
#
#
#
# Elastic Constant Matrix: (Units=GPa)
#
#
# Indices 1 2 3 4 5 6 
#
# 1 93.1080 45.6383 12.3664 7.9012 -8.6317 11.2430
# 2 45.6383 112.7564 8.9599 3.1799 -8.8761 4.3072
# 3 12.3664 8.9599 35.4682 6.5396 -10.3483 -9.6962
# 4 7.9012 3.1799 6.5396 43.0802 5.1961 -0.7856
# 5 -8.6317 -8.8761 -10.3483 5.1961 41.0882 -4.0329
# 6 11.2430 4.3072 -9.6962 -0.7856 -4.0329 29.0662
#
#
#
# Elastic Compliance Matrix: (Units=1/GPa)
#
#
# Indices 1 2 3 4 5 6 
#
# 1 0.015068 -0.005344 -0.005412 -0.001696 0.000189 -0.006862
# 2 -0.005344 0.011147 -0.000513 0.000100 0.001184 0.000411
# 3 -0.005412 -0.000513 0.039019 -0.005912 0.010951 0.016545
# 4 -0.001696 0.000100 -0.005912 0.025006 -0.005120 -0.001366
# 5 0.000189 0.001184 0.010951 -0.005120 0.028751 0.007255
# 6 -0.006862 0.000411 0.016545 -0.001366 0.007255 0.043487
#
#
# Mechanical properties :
#
#
# Convention : Reuss Voigt Hill
#
# Bulk Modulus (GPa) = 23.42137 41.69576 32.55857
# Shear Modulus (GPa) = 25.09424 34.27146 29.68285
#
# Velocity S-wave (km/s) = 3.51791 4.11116 3.82605
# Velocity P-wave (km/s) = 5.29638 6.56495 5.96448
#
# Compressibility (1/GPa) = 0.04269605
#
# Stress axis : x y z
#
# Youngs Moduli (GPa) = 66.36366 89.70869 25.62855
#
# Poissons Ratio (x) = 0.47942 0.13870
# Poissons Ratio (y) = 0.35466 0.01316
# Poissons Ratio (z) = 0.35915 0.04605
#
# Static dielectric constant tensor:
#      x y z
#    x 3.644190 0.104270 -0.114680 
#    y 0.104270 3.624500 0.028150 
#    z -0.114680 0.028150 3.673570 
# 
# 
# High freq. dielectric constant tensor:
#      x y z
#    x 1.797250 0.005480 -0.008780 
#    y 0.005480 1.783770 -0.000830 
#    z -0.008780 -0.000830 1.791860 
# 
# From -- ./inp_files/534523.got.cif
#   From: 2010.06.25/outbox.cif.g09.slc.cpg/sg2_268_cif.got.tgz:534523.got - 2010.06.27 13:26:56.
