data_PCOD8022289
_publ_section_title
;
Structure prediction by ZEFSAII (Michael W. Deem and Ramdas Pophale) SiO2 
 PCOD8022289
Probable space group: P -1
;
_chemical_formula_sum "Si O2"
_cell_formula_units_Z 16
_cell_length_a 8.608572
_cell_length_b 8.950582
_cell_length_c 20.749394
_cell_angle_alpha 151.484281
_cell_angle_beta 114.521519
_cell_angle_gamma 67.291165
_cell_volume 693.573803
_symmetry_space_group_name_H-M "P -1"
_symmetry_group_IT_number 2
_symmetry_cell_setting 'triclinic'
loop_
_space_group_symop_operation_xyz
x,y,z
-x,-y,-z
loop_
_atom_site_type_symbol
_atom_site_label
_atom_site_fract_x
_atom_site_fract_y
_atom_site_fract_z
Si Si1 0.364780 0.450436 0.297510
Si Si2 0.005213 0.226802 0.646704
Si Si3 0.294937 0.674866 0.887218
Si Si4 0.915459 0.173250 0.364376
Si Si5 0.352214 0.351280 0.114966
Si Si6 0.655263 0.236700 0.929527
Si Si7 0.832535 0.138005 0.790186
Si Si8 0.607579 0.587719 0.491658
O O1 0.427356 0.436292 0.229767
O O2 0.480547 0.685669 0.447241
O O3 0.164266 0.546877 0.299675
O O4 0.406871 0.115371 0.212034
O O5 0.168810 0.435745 0.743368
O O6 0.018998 0.026324 0.638235
O O7 0.000000 0.000000 0.500000
O O8 0.496040 0.566904 0.877625
O O9 0.240513 0.708120 0.965512
O O10 0.286801 0.000463 0.969776
O O11 0.715021 0.265349 0.368178
O O12 0.000000 0.500000 0.500000
O O13 0.970237 0.985345 0.236208
O O14 0.188460 0.559346 0.144087
O O15 0.789336 0.239660 0.894269
O O16 0.500000 0.500000 0.000000
O O17 0.715408 0.878330 0.640414
O O18 0.500000 0.500000 0.500000
#
# Coordination Sequence:
#
# PCOD8022289 Si02
#       8
#     2   2   2   2   2   2   2   2
#     4  11  25  44  69 107 139 188 245 294 368 433
#     4  12  27  46  74 104 147 188 237 300 374 431
#     4  10  25  45  70 100 145 187 244 291 357 431
#     4  10  25  46  67 106 149 184 235 304 359 431
#     4  10  22  45  70 103 141 186 241 296 354 428
#     4  11  23  41  72  97 141 194 245 289 352 438
#     4  11  22  44  72 101 149 183 245 298 367 421
#     4  11  23  42  75 103 140 188 240 299 358 435
#
# _framework density 23.068922000000001
#
# number of rings (size 3 to 8) (size 9 to 14) (size 15 to 20)
#    0.000    1.250    3.750    0.750    7.000    4.500 
#    0.000    1.875    2.750    0.000    0.000    0.000 
#    0.000    0.000    0.000    0.000    0.000    0.000 
#
# Total GULP energy -198265.417332 kJ/mol
# GULP energy per Si atom -12391.588583 kJ/mol
# Density = 2.301642 g / cm^3
# Si number density = 23.068922 Si / 1000 Ang^3
#
#
#
# Elastic Constant Matrix: (Units=GPa)
#
#
# Indices 1 2 3 4 5 6 
#
# 1 137.9905 52.8205 60.2601 8.1317 -24.2366 3.7747
# 2 52.8205 94.3387 35.2515 10.7416 -4.7840 5.6714
# 3 60.2601 35.2515 114.3349 -3.9165 -2.3395 2.5560
# 4 8.1317 10.7416 -3.9165 37.2477 -3.3900 -13.1571
# 5 -24.2366 -4.7840 -2.3395 -3.3900 43.7954 -4.8373
# 6 3.7747 5.6714 2.5560 -13.1571 -4.8373 36.4540
#
#
#
# Elastic Compliance Matrix: (Units=1/GPa)
#
#
# Indices 1 2 3 4 5 6 
#
# 1 0.012300 -0.004574 -0.004998 -0.001313 0.005950 0.000104
# 2 -0.004574 0.014690 -0.002243 -0.004941 -0.001836 -0.003681
# 3 -0.004998 -0.002243 0.012118 0.003139 -0.002023 0.000881
# 4 -0.001313 -0.004941 0.003139 0.033860 0.002991 0.013302
# 5 0.005950 -0.001836 -0.002023 0.002991 0.026537 0.004412
# 6 0.000104 -0.003681 0.000881 0.013302 0.004412 0.033319
#
#
# Mechanical properties :
#
#
# Convention : Reuss Voigt Hill
#
# Bulk Modulus (GPa) = 64.60627 71.48092 68.04360
# Shear Modulus (GPa) = 30.93797 36.72155 33.82976
#
# Velocity S-wave (km/s) = 3.66609 3.99409 3.83360
# Velocity P-wave (km/s) = 6.78136 7.23349 7.01107
#
# Compressibility (1/GPa) = 0.01547837
#
# Stress axis : x y z
#
# Youngs Moduli (GPa) = 81.30049 68.07271 82.51915
#
# Poissons Ratio (x) = 0.31138 0.41243
# Poissons Ratio (y) = 0.37188 0.18508
# Poissons Ratio (z) = 0.40634 0.15268
#
# Static dielectric constant tensor:
#      x y z
#    x 4.564800 0.073530 -0.403040 
#    y 0.073530 4.437430 0.563670 
#    z -0.403040 0.563670 4.812270 
# 
# 
# High freq. dielectric constant tensor:
#      x y z
#    x 1.916620 0.007340 -0.021290 
#    y 0.007340 1.911820 0.011670 
#    z -0.021290 0.011670 1.914750 
# 
# From -- ./inp_files/588287.got.cif
#   From: 2010.06.25/outbox.cif.g09.slc.cpg/sg2_295_cif.got.tgz:588287.got - 2010.06.27 13:26:56.
