data_PCOD8022360
_publ_section_title
;
Structure prediction by ZEFSAII (Michael W. Deem and Ramdas Pophale) SiO2 
 PCOD8022360
Probable space group: P -1
;
_chemical_formula_sum "Si O2"
_cell_formula_units_Z 16
_cell_length_a 14.903730
_cell_length_b 8.995977
_cell_length_c 14.314379
_cell_angle_alpha 110.886290
_cell_angle_beta 30.809244
_cell_angle_gamma 90.681586
_cell_volume 724.146023
_symmetry_space_group_name_H-M "P -1"
_symmetry_group_IT_number 2
_symmetry_cell_setting 'triclinic'
loop_
_space_group_symop_operation_xyz
x,y,z
-x,-y,-z
loop_
_atom_site_type_symbol
_atom_site_label
_atom_site_fract_x
_atom_site_fract_y
_atom_site_fract_z
Si Si1 0.382301 0.368574 0.001739
Si Si2 0.760129 0.383876 0.633346
Si Si3 0.139474 0.058603 0.935702
Si Si4 0.427307 0.218440 0.597681
Si Si5 0.105353 0.494093 0.794513
Si Si6 0.237902 0.537038 0.977879
Si Si7 0.225983 0.101551 0.073476
Si Si8 0.469251 0.349725 0.284859
O O1 0.285318 0.464286 0.210527
O O2 0.344743 0.204740 0.977813
O O3 0.640154 0.282265 0.742465
O O4 0.247072 0.541436 0.082649
O O5 0.669635 0.511113 0.647727
O O6 0.025634 0.212112 0.352031
O O7 0.380155 0.841830 0.659840
O O8 0.111063 0.104352 0.081237
O O9 0.086403 0.259222 0.976037
O O10 0.000000 0.000000 0.000000
O O11 0.193011 0.398648 0.798441
O O12 0.425990 0.308560 0.718684
O O13 0.500000 0.000000 0.500000
O O14 0.307403 0.444937 0.539935
O O15 0.007503 0.385895 0.813252
O O16 0.310111 0.665412 0.897845
O O17 0.430334 0.879905 0.875814
#
# Coordination Sequence:
#
# PCOD8022360 Si02
#       8
#     2   2   2   2   2   2   2   2
#     4  10  22  45  72  97 133 175 224 277 331 404
#     4  10  23  45  72  98 133 174 219 282 340 385
#     4  12  26  41  67  99 135 178 225 271 331 399
#     4  12  25  42  65  96 131 175 231 269 331 403
#     4  12  24  45  65  95 138 177 223 278 329 393
#     4  11  24  44  66  94 136 177 221 276 335 392
#     4  12  23  44  68  99 136 176 219 274 339 398
#     4  11  25  41  66 101 132 171 224 274 331 405
#
# _framework density 22.094991
#
# number of rings (size 3 to 8) (size 9 to 14) (size 15 to 20)
#    0.000    0.750    5.000    1.500    3.500    2.500 
#    0.000    5.625    0.000    0.000    0.000    0.000 
#    0.000    0.000    0.000    0.000    0.000    0.000 
#
# Total GULP energy -198283.740629 kJ/mol
# GULP energy per Si atom -12392.733789 kJ/mol
# Density = 2.204470 g / cm^3
# Si number density = 22.094991 Si / 1000 Ang^3
#
#
#
# Elastic Constant Matrix: (Units=GPa)
#
#
# Indices 1 2 3 4 5 6 
#
# 1 85.7528 28.1368 13.1807 -5.3133 4.5339 8.5267
# 2 28.1368 92.5773 35.3837 -6.4047 -1.4709 13.3693
# 3 13.1807 35.3837 103.6720 7.7297 -6.2793 -6.6521
# 4 -5.3133 -6.4047 7.7297 36.7281 0.5892 -8.3688
# 5 4.5339 -1.4709 -6.2793 0.5892 32.2214 -7.3612
# 6 8.5267 13.3693 -6.6521 -8.3688 -7.3612 35.0905
#
#
#
# Elastic Compliance Matrix: (Units=1/GPa)
#
#
# Indices 1 2 3 4 5 6 
#
# 1 0.013357 -0.003292 -0.000984 0.001036 -0.002817 -0.002522
# 2 -0.003292 0.014697 -0.005170 0.001925 -0.001181 -0.005568
# 3 -0.000984 -0.005170 0.012232 -0.002621 0.003388 0.004613
# 4 0.001036 0.001925 -0.002621 0.029537 0.000170 0.005598
# 5 -0.002817 -0.001181 0.003388 0.000170 0.034083 0.008967
# 6 -0.002522 -0.005568 0.004613 0.005598 0.008967 0.035323
#
#
# Mechanical properties :
#
#
# Convention : Reuss Voigt Hill
#
# Bulk Modulus (GPa) = 46.74373 48.37829 47.56101
# Shear Modulus (GPa) = 30.25677 34.49473 32.37575
#
# Velocity S-wave (km/s) = 3.70455 3.95549 3.83207
# Velocity P-wave (km/s) = 6.28490 6.54250 6.41499
#
# Compressibility (1/GPa) = 0.02139324
#
# Stress axis : x y z
#
# Youngs Moduli (GPa) = 74.86834 68.04183 81.75228
#
# Poissons Ratio (x) = 0.22401 0.08045
# Poissons Ratio (y) = 0.24649 0.42264
# Poissons Ratio (z) = 0.07368 0.35176
#
# Static dielectric constant tensor:
#      x y z
#    x 3.914400 0.049670 0.038280 
#    y 0.049670 4.131840 -0.305660 
#    z 0.038280 -0.305660 4.092300 
# 
# 
# High freq. dielectric constant tensor:
#      x y z
#    x 1.865470 0.001110 0.003870 
#    y 0.001110 1.873330 -0.024290 
#    z 0.003870 -0.024290 1.882890 
# 
# From -- ./inp_files/315291.got.cif
#   From: 2010.06.25/outbox.cif.g09.slc.cpg/sg2_158_cif.got.tgz:315291.got - 2010.06.27 13:26:56.
