data_PCOD8022598
_publ_section_title
;
Structure prediction by ZEFSAII (Michael W. Deem and Ramdas Pophale) SiO2 
 PCOD8022598
Probable space group: P -1
;
_chemical_formula_sum "Si O2"
_cell_formula_units_Z 14
_cell_length_a 5.217000
_cell_length_b 19.380767
_cell_length_c 5.012906
_cell_angle_alpha 86.892718
_cell_angle_beta 92.433763
_cell_angle_gamma 103.294877
_cell_volume 492.308341
_symmetry_space_group_name_H-M "P -1"
_symmetry_group_IT_number 2
_symmetry_cell_setting 'triclinic'
loop_
_space_group_symop_operation_xyz
x,y,z
-x,-y,-z
loop_
_atom_site_type_symbol
_atom_site_label
_atom_site_fract_x
_atom_site_fract_y
_atom_site_fract_z
Si Si1 0.513538 0.919351 0.508274
Si Si2 0.568780 0.585716 0.572954
Si Si3 0.373340 0.280427 0.191136
Si Si4 0.980285 0.334126 0.770154
Si Si5 0.038831 0.807373 0.426246
Si Si6 0.277014 0.550565 0.070277
Si Si7 0.678307 0.854511 0.009763
O O1 0.726753 0.904592 0.736206
O O2 0.239152 0.866850 0.590479
O O3 0.500000 0.000000 0.500000
O O4 0.553307 0.897125 0.212823
O O5 0.462378 0.658571 0.614531
O O6 0.864164 0.609321 0.460951
O O7 0.517252 0.548105 0.872115
O O8 0.367752 0.532841 0.375429
O O9 0.202602 0.219181 0.382665
O O10 0.510871 0.226616 0.038440
O O11 0.201969 0.322085 0.991003
O O12 0.841799 0.260604 0.634799
O O13 0.765520 0.368140 0.914307
O O14 0.951350 0.841664 0.143731
O O15 0.000000 0.500000 0.000000
#
# Coordination Sequence:
#
# PCOD8022598 Si02
#       7
#     2   2   2   2   2   2   2
#     4  12  28  45  71 107 143 192 235 287 367 436
#     4  11  25  46  70 100 143 181 238 296 356 424
#     4  10  22  48  68 106 128 186 236 300 360 404
#     4  10  25  45  72 104 140 184 243 302 360 422
#     4  10  25  45  72 104 140 184 243 302 360 422
#     4  12  28  45  71 107 143 192 235 287 367 436
#     4  11  25  46  70 100 143 181 238 296 356 424
#
# _framework density 28.437462
#
# number of rings (size 3 to 8) (size 9 to 14) (size 15 to 20)
#    0.000    1.143    2.857    0.857   12.000    2.286 
#    0.000    0.000    0.000    0.000    0.000    0.000 
#    0.000    0.000    0.000    0.000    0.000    0.000 
#
# Total GULP energy -173435.955809 kJ/mol
# GULP energy per Si atom -12388.282558 kJ/mol
# Density = 2.837274 g / cm^3
# Si number density = 28.437462 Si / 1000 Ang^3
#
#
#
# Elastic Constant Matrix: (Units=GPa)
#
#
# Indices 1 2 3 4 5 6 
#
# 1 57.6685 26.0459 37.1886 3.6367 -17.5240 -8.8254
# 2 26.0459 189.1268 68.3820 28.6419 0.4220 -19.7385
# 3 37.1886 68.3820 160.9245 -1.1948 -10.1161 -11.2378
# 4 3.6367 28.6419 -1.1948 60.9337 -15.6339 0.1051
# 5 -17.5240 0.4220 -10.1161 -15.6339 41.1377 0.6549
# 6 -8.8254 -19.7385 -11.2378 0.1051 0.6549 52.9217
#
#
#
# Elastic Compliance Matrix: (Units=1/GPa)
#
#
# Indices 1 2 3 4 5 6 
#
# 1 0.024023 -0.001978 -0.003906 0.001984 0.010010 0.002311
# 2 -0.001978 0.007424 -0.002802 -0.004266 -0.003259 0.001893
# 3 -0.003906 -0.002802 0.008402 0.002022 0.001199 0.000069
# 4 0.001984 -0.004266 0.002022 0.020719 0.009276 -0.000987
# 5 0.010010 -0.003259 0.001199 0.009276 0.032422 0.000289
# 6 0.002311 0.001893 0.000069 -0.000987 0.000289 0.020000
#
#
# Mechanical properties :
#
#
# Convention : Reuss Voigt Hill
#
# Bulk Modulus (GPa) = 44.48702 74.55031 59.51867
# Shear Modulus (GPa) = 36.27026 49.40550 42.83788
#
# Velocity S-wave (km/s) = 3.57520 4.17266 3.88543
# Velocity P-wave (km/s) = 5.72019 7.03472 6.41123
#
# Compressibility (1/GPa) = 0.02247846
#
# Stress axis : x y z
#
# Youngs Moduli (GPa) = 41.62695 134.70265 119.01226
#
# Poissons Ratio (x) = 0.26640 0.46483
# Poissons Ratio (y) = 0.08232 0.33346
# Poissons Ratio (z) = 0.16258 0.37743
#
# Static dielectric constant tensor:
#      x y z
#    x 4.713110 -0.301120 -0.144240 
#    y -0.301120 5.708570 0.324840 
#    z -0.144240 0.324840 5.740320 
# 
# 
# High freq. dielectric constant tensor:
#      x y z
#    x 2.117360 -0.033290 -0.010630 
#    y -0.033290 2.178170 0.011850 
#    z -0.010630 0.011850 2.182480 
# 
# From -- ./inp_files/9518.got.cif
#   From: 2010.06.25/outbox.cif.g09.slc.cpg/sg2_5_cif.got.tgz:9518.got - 2010.06.27 13:26:56.
