data_PCOD8022307
_publ_section_title
;
Structure prediction by ZEFSAII (Michael W. Deem and Ramdas Pophale) SiO2 
 PCOD8022307
Probable space group: P -1
;
_chemical_formula_sum "Si O2"
_cell_formula_units_Z 16
_cell_length_a 8.546443
_cell_length_b 6.783474
_cell_length_c 21.751356
_cell_angle_alpha 42.934993
_cell_angle_beta 123.160457
_cell_angle_gamma 122.668439
_cell_volume 697.290172
_symmetry_space_group_name_H-M "P -1"
_symmetry_group_IT_number 2
_symmetry_cell_setting 'triclinic'
loop_
_space_group_symop_operation_xyz
x,y,z
-x,-y,-z
loop_
_atom_site_type_symbol
_atom_site_label
_atom_site_fract_x
_atom_site_fract_y
_atom_site_fract_z
Si Si1 0.875015 0.802933 0.239862
Si Si2 0.863878 0.310067 0.866690
Si Si3 0.767909 0.381275 0.078444
Si Si4 0.931136 0.635975 0.687692
Si Si5 0.877518 0.721164 0.398706
Si Si6 0.577480 0.751343 0.875675
Si Si7 0.472062 0.298764 0.396768
Si Si8 0.545391 0.580777 0.773813
O O1 0.939334 0.790909 0.326207
O O2 0.655105 0.654929 0.212904
O O3 0.012361 0.637570 0.271191
O O4 0.892480 0.141941 0.142581
O O5 0.942329 0.584746 0.774140
O O6 0.712146 0.404355 0.858183
O O7 0.068270 0.305039 0.944548
O O8 0.751271 0.020484 0.872522
O O9 0.628806 0.254494 0.135889
O O10 0.635792 0.446982 0.978963
O O11 0.710280 0.627337 0.625609
O O12 0.068337 0.962523 0.625071
O O13 0.650510 0.574819 0.388120
O O14 0.000000 0.500000 0.500000
O O15 0.557494 0.787181 0.789844
O O16 0.439598 0.247446 0.327708
O O17 0.500000 0.000000 0.500000
#
# Coordination Sequence:
#
# PCOD8022307 Si02
#       8
#     2   2   2   2   2   2   2   2
#     4  11  24  45  66  99 135 179 224 274 341 407
#     4  11  23  44  68  98 135 178 229 278 340 400
#     4  11  24  46  69  97 141 178 230 284 337 397
#     4  11  24  41  71  97 133 179 216 275 343 395
#     4  11  23  45  70  94 138 172 222 282 331 404
#     4  11  25  46  67 100 135 182 229 286 335 399
#     4  10  22  45  71 101 135 173 225 281 331 405
#     4  10  24  42  70  97 136 178 226 278 344 396
#
# _framework density 22.945972000000001
#
# number of rings (size 3 to 8) (size 9 to 14) (size 15 to 20)
#    0.000    1.250    3.750    1.125    1.750    1.500 
#    2.250    0.625    0.000    0.000    0.000    0.000 
#    0.000    0.000    0.000    0.000    0.000    0.000 
#
# Total GULP energy -198287.419150 kJ/mol
# GULP energy per Si atom -12392.963697 kJ/mol
# Density = 2.289375 g / cm^3
# Si number density = 22.945972 Si / 1000 Ang^3
#
#
#
# Elastic Constant Matrix: (Units=GPa)
#
#
# Indices 1 2 3 4 5 6 
#
# 1 122.7808 63.1512 47.2505 0.6352 14.4769 4.8159
# 2 63.1512 122.9662 41.7344 -4.4641 2.5605 7.6133
# 3 47.2505 41.7344 88.4886 1.9584 10.9247 -6.6414
# 4 0.6352 -4.4641 1.9584 31.3264 3.9122 6.9236
# 5 14.4769 2.5605 10.9247 3.9122 31.2732 -3.2484
# 6 4.8159 7.6133 -6.6414 6.9236 -3.2484 41.0229
#
#
#
# Elastic Compliance Matrix: (Units=1/GPa)
#
#
# Indices 1 2 3 4 5 6 
#
# 1 0.012877 -0.005027 -0.004099 0.000173 -0.004307 -0.001613
# 2 -0.005027 0.012099 -0.003507 0.002337 0.002014 -0.002458
# 3 -0.004099 -0.003507 0.015805 -0.001907 -0.002703 0.003798
# 4 0.000173 0.002337 -0.001907 0.034487 -0.004642 -0.006951
# 5 -0.004307 0.002014 -0.002703 -0.004642 0.035673 0.003302
# 6 -0.001613 -0.002458 0.003798 -0.006951 0.003302 0.027072
#
#
# Mechanical properties :
#
#
# Convention : Reuss Voigt Hill
#
# Bulk Modulus (GPa) = 64.44749 70.94531 67.69640
# Shear Modulus (GPa) = 29.68242 32.86447 31.27344
#
# Velocity S-wave (km/s) = 3.60054 3.78862 3.69577
# Velocity P-wave (km/s) = 6.74038 7.07981 6.91218
#
# Compressibility (1/GPa) = 0.01551651
#
# Stress axis : x y z
#
# Youngs Moduli (GPa) = 77.65520 82.64988 63.27249
#
# Poissons Ratio (x) = 0.41544 0.25933
# Poissons Ratio (y) = 0.39034 0.22191
# Poissons Ratio (z) = 0.31828 0.28987
#
# Static dielectric constant tensor:
#      x y z
#    x 4.402640 0.231250 0.192080 
#    y 0.231250 4.096410 0.040750 
#    z 0.192080 0.040750 4.262350 
# 
# 
# High freq. dielectric constant tensor:
#      x y z
#    x 1.909680 0.025120 0.016400 
#    y 0.025120 1.903440 -0.002830 
#    z 0.016400 -0.002830 1.905620 
# 
# From -- ./inp_files/553265.got.cif
#   From: 2010.06.25/outbox.cif.g09.slc.cpg/sg2_277_cif.got.tgz:553265.got - 2010.06.27 13:26:56.
