data_PCOD8022024
_publ_section_title
;
Structure prediction by ZEFSAII (Michael W. Deem and Ramdas Pophale) SiO2 
 PCOD8022024
Probable space group: P -1
;
_chemical_formula_sum "Si O2"
_cell_formula_units_Z 16
_cell_length_a 13.421537
_cell_length_b 12.026665
_cell_length_c 7.022749
_cell_angle_alpha 64.671703
_cell_angle_beta 91.863958
_cell_angle_gamma 51.919715
_cell_volume 733.213818
_symmetry_space_group_name_H-M "P -1"
_symmetry_group_IT_number 2
_symmetry_cell_setting 'triclinic'
loop_
_space_group_symop_operation_xyz
x,y,z
-x,-y,-z
loop_
_atom_site_type_symbol
_atom_site_label
_atom_site_fract_x
_atom_site_fract_y
_atom_site_fract_z
Si Si1 0.753310 0.993598 0.987270
Si Si2 0.334925 0.768154 0.852230
Si Si3 0.648695 0.526043 0.981711
Si Si4 0.549814 0.004687 0.798251
Si Si5 0.911144 0.676016 0.474184
Si Si6 0.112716 0.987680 0.344278
Si Si7 0.700099 0.736687 0.686516
Si Si8 0.901996 0.263722 0.418006
O O1 0.617163 0.080280 0.788495
O O2 0.868529 0.942304 0.886818
O O3 0.796220 0.828752 0.211676
O O4 0.730358 0.118441 0.047708
O O5 0.344821 0.614394 0.009256
O O6 0.240696 0.884318 0.579493
O O7 0.487951 0.696395 0.890053
O O8 0.743349 0.443808 0.238888
O O9 0.712399 0.577699 0.812444
O O10 0.418661 0.126641 0.567166
O O11 0.664748 0.819072 0.835041
O O12 0.500000 0.000000 0.000000
O O13 0.842212 0.675635 0.659477
O O14 0.000000 0.500000 0.500000
O O15 0.011489 0.701608 0.513159
O O16 0.097941 0.859382 0.361552
O O17 0.969187 0.159274 0.299865
#
# Coordination Sequence:
#
# PCOD8022024 Si02
#       8
#     2   2   2   2   2   2   2   2
#     4  12  24  41  72  94 129 175 223 271 329 397
#     4  10  22  46  67 103 128 165 221 278 330 397
#     4  10  23  41  72  94 135 171 212 275 340 384
#     4  11  23  42  70 100 127 175 224 268 331 396
#     4  12  28  42  60  99 140 176 229 269 320 404
#     4  10  22  44  72  93 126 175 222 273 330 388
#     4  11  25  44  67  96 137 176 217 275 329 394
#     4  10  23  45  65  96 132 172 222 275 329 391
#
# _framework density 21.821739999999998
#
# number of rings (size 3 to 8) (size 9 to 14) (size 15 to 20)
#    0.000    1.250    2.500    2.250    5.250    3.000 
#    0.000   10.000    0.000    0.000    0.000    0.000 
#    0.000    0.000    0.000    0.000    0.000    0.000 
#
# Total GULP energy -198354.861063 kJ/mol
# GULP energy per Si atom -12397.178816 kJ/mol
# Density = 2.177207 g / cm^3
# Si number density = 21.821740 Si / 1000 Ang^3
#
#
#
# Elastic Constant Matrix: (Units=GPa)
#
#
# Indices 1 2 3 4 5 6 
#
# 1 124.9217 20.0287 34.0287 9.4176 -5.1489 11.1820
# 2 20.0287 88.5213 33.2146 8.4957 -5.2881 5.3540
# 3 34.0287 33.2146 64.6750 12.0323 -13.2433 0.4021
# 4 9.4176 8.4957 12.0323 28.8706 -3.6656 2.4163
# 5 -5.1489 -5.2881 -13.2433 -3.6656 46.9875 -0.3200
# 6 11.1820 5.3540 0.4021 2.4163 -0.3200 35.6321
#
#
#
# Elastic Compliance Matrix: (Units=1/GPa)
#
#
# Indices 1 2 3 4 5 6 
#
# 1 0.009678 -0.000098 -0.004949 -0.000877 -0.000434 -0.002911
# 2 -0.000098 0.014183 -0.007127 -0.001074 -0.000520 -0.001952
# 3 -0.004949 -0.007127 0.023800 -0.005815 0.004929 0.002794
# 4 -0.000877 -0.001074 -0.005815 0.037974 0.001092 -0.002063
# 5 -0.000434 -0.000520 0.004929 0.001092 0.022653 0.000288
# 6 -0.002911 -0.001952 0.002794 -0.002063 0.000288 0.029382
#
#
# Mechanical properties :
#
#
# Convention : Reuss Voigt Hill
#
# Bulk Modulus (GPa) = 42.89589 50.29577 46.59583
# Shear Modulus (GPa) = 29.44843 35.02112 32.23477
#
# Velocity S-wave (km/s) = 3.67754 4.01043 3.84759
# Velocity P-wave (km/s) = 6.14268 6.67407 6.41388
#
# Compressibility (1/GPa) = 0.02331226
#
# Stress axis : x y z
#
# Youngs Moduli (GPa) = 103.33078 70.50663 42.01753
#
# Poissons Ratio (x) = 0.00694 0.20794
# Poissons Ratio (y) = 0.01017 0.29944
# Poissons Ratio (z) = 0.51138 0.50248
#
# Static dielectric constant tensor:
#      x y z
#    x 5.803010 1.375360 -0.489940 
#    y 1.375360 5.198930 -0.595820 
#    z -0.489940 -0.595820 4.195520 
# 
# 
# High freq. dielectric constant tensor:
#      x y z
#    x 1.884900 0.004700 0.004410 
#    y 0.004700 1.849830 -0.007470 
#    z 0.004410 -0.007470 1.844280 
# 
# From -- ./inp_files/94806.got.cif
#   From: 2010.06.25/outbox.cif.g09.slc.cpg/sg2_48_cif.got.tgz:94806.got - 2010.06.27 13:26:56.
