data_PCOD8022066
_publ_section_title
;
Structure prediction by ZEFSAII (Michael W. Deem and Ramdas Pophale) SiO2 
 PCOD8022066
Probable space group: P -1
;
_chemical_formula_sum "Si O2"
_cell_formula_units_Z 16
_cell_length_a 5.541158
_cell_length_b 14.256571
_cell_length_c 9.556162
_cell_angle_alpha 71.566981
_cell_angle_beta 75.921192
_cell_angle_gamma 102.917844
_cell_volume 656.595570
_symmetry_space_group_name_H-M "P -1"
_symmetry_group_IT_number 2
_symmetry_cell_setting 'triclinic'
loop_
_space_group_symop_operation_xyz
x,y,z
-x,-y,-z
loop_
_atom_site_type_symbol
_atom_site_label
_atom_site_fract_x
_atom_site_fract_y
_atom_site_fract_z
Si Si1 0.215273 0.417909 0.101012
Si Si2 0.353259 0.235218 0.302007
Si Si3 0.980073 0.883312 0.354903
Si Si4 0.062498 0.438864 0.810230
Si Si5 0.078717 0.689045 0.369165
Si Si6 0.455499 0.623504 0.553752
Si Si7 0.720043 0.935625 0.127798
Si Si8 0.582428 0.914328 0.856465
O O1 0.208464 0.307586 0.214506
O O2 0.072895 0.470985 0.206446
O O3 0.500000 0.500000 0.000000
O O4 0.069994 0.392428 0.984094
O O5 0.577051 0.305801 0.342176
O O6 0.489196 0.185777 0.187362
O O7 0.138483 0.143644 0.461314
O O8 0.173606 0.815319 0.319679
O O9 0.745209 0.854503 0.283065
O O10 0.128449 0.006711 0.263101
O O11 0.903762 0.342191 0.780162
O O12 0.348182 0.500549 0.671076
O O13 0.768808 0.651140 0.474108
O O14 0.272599 0.640553 0.446676
O O15 0.611332 0.020375 0.175467
O O16 0.557825 0.877364 0.040829
O O17 0.000000 0.000000 0.000000
#
# Coordination Sequence:
#
# PCOD8022066 Si02
#       8
#     2   2   2   2   2   2   2   2
#     4  11  25  47  66 102 146 185 246 297 348 439
#     4  11  24  45  71 103 140 189 232 299 360 422
#     4  10  23  43  67 107 139 179 239 294 340 437
#     4  11  24  45  70  99 141 193 235 297 361 419
#     4  11  26  42  76 105 143 189 235 297 365 419
#     4  11  24  46  68 109 142 181 246 296 349 438
#     4   9  21  45  63  99 140 174 241 291 341 427
#     4  10  22  44  73  98 140 187 229 291 363 418
#
# _framework density 24.368120999999999
#
# number of rings (size 3 to 8) (size 9 to 14) (size 15 to 20)
#    0.000    1.500    1.250    2.625    7.000    0.500 
#   20.250    0.000    0.000    0.000    0.000    0.000 
#    0.000    0.000    0.000    0.000    0.000    0.000 
#
# Total GULP energy -198326.251319 kJ/mol
# GULP energy per Si atom -12395.390707 kJ/mol
# Density = 2.431266 g / cm^3
# Si number density = 24.368121 Si / 1000 Ang^3
#
#
#
# Elastic Constant Matrix: (Units=GPa)
#
#
# Indices 1 2 3 4 5 6 
#
# 1 87.5368 15.3278 27.1245 6.7496 18.2509 -10.4493
# 2 15.3278 103.8166 33.7074 34.5733 17.6738 -8.0643
# 3 27.1245 33.7074 105.9016 12.1193 26.9317 -16.3403
# 4 6.7496 34.5733 12.1193 46.7856 2.4465 1.3528
# 5 18.2509 17.6738 26.9317 2.4465 30.9570 -4.0120
# 6 -10.4493 -8.0643 -16.3403 1.3528 -4.0120 31.9659
#
#
#
# Elastic Compliance Matrix: (Units=1/GPa)
#
#
# Indices 1 2 3 4 5 6 
#
# 1 0.013629 0.000290 -0.001240 -0.001606 -0.006589 0.003136
# 2 0.000290 0.014790 -0.001665 -0.010303 -0.006008 0.002657
# 3 -0.001240 -0.001665 0.013669 -0.001785 -0.009413 0.005056
# 4 -0.001606 -0.010303 -0.001785 0.029530 0.005452 -0.004602
# 5 -0.006589 -0.006008 -0.009413 0.005452 0.047012 -0.002812
# 6 0.003136 0.002657 0.005056 -0.004602 -0.002812 0.035405
#
#
# Mechanical properties :
#
#
# Convention : Reuss Voigt Hill
#
# Bulk Modulus (GPa) = 27.13075 49.95269 38.54172
# Shear Modulus (GPa) = 29.14601 36.68138 32.91369
#
# Velocity S-wave (km/s) = 3.46218 3.88403 3.67916
# Velocity P-wave (km/s) = 5.20962 6.37636 5.82229
#
# Compressibility (1/GPa) = 0.03685854
#
# Stress axis : x y z
#
# Youngs Moduli (GPa) = 73.37301 67.61107 73.16034
#
# Poissons Ratio (x) = -0.01963 0.09072
# Poissons Ratio (y) = -0.02131 0.12182
# Poissons Ratio (z) = 0.09099 0.11258
#
# Static dielectric constant tensor:
#      x y z
#    x 5.885000 0.545140 0.760050 
#    y 0.545140 4.561990 0.325260 
#    z 0.760050 0.325260 4.932860 
# 
# 
# High freq. dielectric constant tensor:
#      x y z
#    x 1.966010 -0.000510 0.002590 
#    y -0.000510 1.958050 0.003780 
#    z 0.002590 0.003780 1.982010 
# 
# From -- ./inp_files/134938.got.cif
#   From: 2010.06.25/outbox.cif.g09.slc.cpg/sg2_68_cif.got.tgz:134938.got - 2010.06.27 13:26:56.
