data_PCOD8022197
_publ_section_title
;
Structure prediction by ZEFSAII (Michael W. Deem and Ramdas Pophale) SiO2 
 PCOD8022197
Probable space group: P -1
;
_chemical_formula_sum "Si O2"
_cell_formula_units_Z 16
_cell_length_a 9.582039
_cell_length_b 11.562871
_cell_length_c 18.100748
_cell_angle_alpha 50.634085
_cell_angle_beta 38.137721
_cell_angle_gamma 80.280062
_cell_volume 691.880509
_symmetry_space_group_name_H-M "P -1"
_symmetry_group_IT_number 2
_symmetry_cell_setting 'triclinic'
loop_
_space_group_symop_operation_xyz
x,y,z
-x,-y,-z
loop_
_atom_site_type_symbol
_atom_site_label
_atom_site_fract_x
_atom_site_fract_y
_atom_site_fract_z
Si Si1 0.622561 0.541728 0.512932
Si Si2 0.521434 0.352391 0.092044
Si Si3 0.603489 0.995811 0.377051
Si Si4 0.293435 0.702011 0.337263
Si Si5 0.466400 0.716710 0.724724
Si Si6 0.178205 0.545356 0.764581
Si Si7 0.851596 0.031210 0.696105
Si Si8 0.852914 0.972954 0.878324
O O1 0.500000 0.500000 0.500000
O O2 0.661050 0.384108 0.576711
O O3 0.338258 0.460274 0.717881
O O4 0.936354 0.782324 0.296340
O O5 0.509351 0.379702 0.174600
O O6 0.250500 0.122348 0.266404
O O7 0.500000 0.500000 0.000000
O O8 0.838862 0.404821 0.926663
O O9 0.557082 0.124986 0.295516
O O10 0.953841 0.094417 0.178572
O O11 0.500000 0.000000 0.500000
O O12 0.369667 0.755781 0.551849
O O13 0.220358 0.830558 0.349691
O O14 0.000000 0.500000 0.500000
O O15 0.593198 0.843446 0.101690
O O16 0.180078 0.566485 0.845356
O O17 0.778627 0.828847 0.501221
O O18 0.688804 0.917094 0.888662
#
# Coordination Sequence:
#
# PCOD8022197 Si02
#       8
#     2   2   2   2   2   2   2   2
#     4  11  26  46  73 106 145 189 252 304 359 438
#     4  12  29  41  68 111 150 185 241 312 373 432
#     4   9  18  40  74  99 132 181 244 295 351 428
#     4  12  27  47  76 106 146 201 247 301 374 439
#     4  11  22  46  72  98 142 193 248 290 370 447
#     4  10  22  45  68 103 139 188 241 298 363 438
#     4  12  25  47  71 107 149 193 244 306 375 440
#     4  11  24  46  75 107 147 194 243 304 369 444
#
# _framework density 23.12538
#
# number of rings (size 3 to 8) (size 9 to 14) (size 15 to 20)
#    0.000    1.000    5.000    1.875    5.250    5.500 
#    0.000    0.000    0.000    0.000    0.000    0.000 
#    0.000    0.000    0.000    0.000    0.000    0.000 
#
# Total GULP energy -198308.505594 kJ/mol
# GULP energy per Si atom -12394.281600 kJ/mol
# Density = 2.307275 g / cm^3
# Si number density = 23.125380 Si / 1000 Ang^3
#
#
#
# Elastic Constant Matrix: (Units=GPa)
#
#
# Indices 1 2 3 4 5 6 
#
# 1 148.3565 44.3532 24.3947 -9.8528 15.9942 -13.3772
# 2 44.3532 112.2184 19.5314 -0.8865 5.7523 -29.1099
# 3 24.3947 19.5314 68.5318 4.9320 -0.7240 -14.7872
# 4 -9.8528 -0.8865 4.9320 20.2833 -4.8195 -2.4239
# 5 15.9942 5.7523 -0.7240 -4.8195 35.9473 -0.5135
# 6 -13.3772 -29.1099 -14.7872 -2.4239 -0.5135 47.3511
#
#
#
# Elastic Compliance Matrix: (Units=1/GPa)
#
#
# Indices 1 2 3 4 5 6 
#
# 1 0.008565 -0.002730 -0.002564 0.003992 -0.002889 0.000114
# 2 -0.002730 0.011802 -0.001076 0.000043 -0.000602 0.006144
# 3 -0.002564 -0.001076 0.016956 -0.004721 0.001074 0.003680
# 4 0.003992 0.000043 -0.004721 0.053971 0.005394 0.002501
# 5 -0.002889 -0.000602 0.001074 0.005394 0.029941 -0.000250
# 6 0.000114 0.006144 0.003680 0.002501 -0.000250 0.026203
#
#
# Mechanical properties :
#
#
# Convention : Reuss Voigt Hill
#
# Bulk Modulus (GPa) = 40.67615 56.18503 48.43059
# Shear Modulus (GPa) = 29.69608 36.77151 33.23379
#
# Velocity S-wave (km/s) = 3.58737 3.99192 3.79504
# Velocity P-wave (km/s) = 5.89801 6.75247 6.33965
#
# Compressibility (1/GPa) = 0.02458443
#
# Stress axis : x y z
#
# Youngs Moduli (GPa) = 116.75301 84.72861 58.97608
#
# Poissons Ratio (x) = 0.23130 0.15122
# Poissons Ratio (y) = 0.31872 0.06343
# Poissons Ratio (z) = 0.29937 0.09113
#
# Static dielectric constant tensor:
#      x y z
#    x 4.108310 0.035450 0.060990 
#    y 0.035450 3.360630 -0.032170 
#    z 0.060990 -0.032170 4.173910 
# 
# 
# High freq. dielectric constant tensor:
#      x y z
#    x 1.918320 -0.018890 0.000620 
#    y -0.018890 1.911430 0.007580 
#    z 0.000620 0.007580 1.913060 
# 
# From -- ./inp_files/559748.got.cif
#   From: 2010.06.25/outbox.cif.g09.slc.cpg/sg2_280_cif.got.tgz:559748.got - 2010.06.27 13:26:56.
