data_PCOD8022536
_publ_section_title
;
Structure prediction by ZEFSAII (Michael W. Deem and Ramdas Pophale) SiO2 
 PCOD8022536
Probable space group: P -1
;
_chemical_formula_sum "Si O2"
_cell_formula_units_Z 16
_cell_length_a 6.916480
_cell_length_b 8.399082
_cell_length_c 21.205971
_cell_angle_alpha 45.772946
_cell_angle_beta 109.243908
_cell_angle_gamma 124.708422
_cell_volume 720.888976
_symmetry_space_group_name_H-M "P -1"
_symmetry_group_IT_number 2
_symmetry_cell_setting 'triclinic'
loop_
_space_group_symop_operation_xyz
x,y,z
-x,-y,-z
loop_
_atom_site_type_symbol
_atom_site_label
_atom_site_fract_x
_atom_site_fract_y
_atom_site_fract_z
Si Si1 0.555304 0.209698 0.132981
Si Si2 0.706593 0.475116 0.299766
Si Si3 0.850967 0.072335 0.418021
Si Si4 0.027992 0.842999 0.411232
Si Si5 0.676768 0.837614 0.754375
Si Si6 0.363821 0.684066 0.528635
Si Si7 0.090095 0.933747 0.846665
Si Si8 0.141478 0.198895 0.015411
O O1 0.459597 0.098484 0.223391
O O2 0.339626 0.143736 0.080824
O O3 0.686928 0.068755 0.158015
O O4 0.734309 0.512934 0.076869
O O5 0.879739 0.354802 0.343947
O O6 0.510143 0.388319 0.248089
O O7 0.568422 0.380824 0.378057
O O8 0.868990 0.779362 0.230224
O O9 0.578301 0.864453 0.456850
O O10 0.000000 0.000000 0.500000
O O11 0.943842 0.042896 0.367283
O O12 0.211297 0.828613 0.485075
O O13 0.793451 0.568142 0.459106
O O14 0.157058 0.910798 0.338609
O O15 0.849904 0.753041 0.830740
O O16 0.045567 0.832499 0.941650
O O17 0.000000 0.000000 0.000000
#
# Coordination Sequence:
#
# PCOD8022536 Si02
#       8
#     2   2   2   2   2   2   2   2
#     4  10  24  45  72 101 138 174 211 268 331 397
#     4  12  24  43  63  94 138 170 233 283 326 400
#     4  12  24  41  65  92 125 183 234 286 343 391
#     4  11  23  43  66  90 131 179 228 289 341 390
#     4  11  24  43  63  97 137 169 222 279 327 399
#     4  11  23  44  62  92 129 175 239 285 332 406
#     4  11  25  45  66 104 136 177 214 270 336 395
#     4  10  22  46  75 104 136 169 218 262 320 411
#
# _framework density 22.194818999999999
#
# number of rings (size 3 to 8) (size 9 to 14) (size 15 to 20)
#    0.000    1.000    3.750    2.625    1.750    1.500 
#   15.750    0.000    0.000    0.000    0.000    0.000 
#    0.000    0.000    0.000    0.000    0.000    0.000 
#
# Total GULP energy -198367.019874 kJ/mol
# GULP energy per Si atom -12397.938742 kJ/mol
# Density = 2.214430 g / cm^3
# Si number density = 22.194819 Si / 1000 Ang^3
#
#
#
# Elastic Constant Matrix: (Units=GPa)
#
#
# Indices 1 2 3 4 5 6 
#
# 1 156.0722 53.3196 45.6810 -1.5045 -6.3086 -14.4936
# 2 53.3196 101.8534 45.7442 6.5367 2.7330 9.9799
# 3 45.6810 45.7442 88.4849 6.1358 -12.9290 -6.6927
# 4 -1.5045 6.5367 6.1358 39.9428 -1.5038 5.1995
# 5 -6.3086 2.7330 -12.9290 -1.5038 36.4658 2.2801
# 6 -14.4936 9.9799 -6.6927 5.1995 2.2801 23.2227
#
#
#
# Elastic Compliance Matrix: (Units=1/GPa)
#
#
# Indices 1 2 3 4 5 6 
#
# 1 0.009262 -0.004897 -0.001596 0.000492 0.000972 0.007219
# 2 -0.004897 0.017276 -0.007920 -0.000356 -0.004197 -0.012271
# 3 -0.001596 -0.007920 0.017827 -0.002244 0.006080 0.007451
# 4 0.000492 -0.000356 -0.002244 0.026287 0.000785 -0.006149
# 5 0.000972 -0.004197 0.006080 0.000785 0.030029 0.001039
# 6 0.007219 -0.012271 0.007451 -0.006149 0.001039 0.056263
#
#
# Mechanical properties :
#
#
# Convention : Reuss Voigt Hill
#
# Bulk Modulus (GPa) = 64.35209 70.65557 67.50383
# Shear Modulus (GPa) = 26.18489 33.37065 29.77777
#
# Velocity S-wave (km/s) = 3.43851 3.88175 3.66683
# Velocity P-wave (km/s) = 6.69490 7.21069 6.95757
#
# Compressibility (1/GPa) = 0.01553951
#
# Stress axis : x y z
#
# Youngs Moduli (GPa) = 107.97090 57.88250 56.09362
#
# Poissons Ratio (x) = 0.28343 0.08953
# Poissons Ratio (y) = 0.52870 0.44428
# Poissons Ratio (z) = 0.17233 0.45844
#
# Static dielectric constant tensor:
#      x y z
#    x 4.291340 0.011330 -0.069580 
#    y 0.011330 3.968970 0.183700 
#    z -0.069580 0.183700 4.056870 
# 
# 
# High freq. dielectric constant tensor:
#      x y z
#    x 1.876590 0.008790 -0.012340 
#    y 0.008790 1.874610 0.014260 
#    z -0.012340 0.014260 1.870690 
# 
# From -- ./inp_files/582284.got.cif
#   From: 2010.06.25/outbox.cif.g09.slc.cpg/sg2_292_cif.got.tgz:582284.got - 2010.06.27 13:26:56.
