data_PCOD8022412
_publ_section_title
;
Structure prediction by ZEFSAII (Michael W. Deem and Ramdas Pophale) SiO2 
 PCOD8022412
Probable space group: P -1
;
_chemical_formula_sum "Si O2"
_cell_formula_units_Z 16
_cell_length_a 20.935655
_cell_length_b 11.830807
_cell_length_c 18.106479
_cell_angle_alpha 40.270339
_cell_angle_beta 159.754487
_cell_angle_gamma 150.299650
_cell_volume 732.753293
_symmetry_space_group_name_H-M "P -1"
_symmetry_group_IT_number 2
_symmetry_cell_setting 'triclinic'
loop_
_space_group_symop_operation_xyz
x,y,z
-x,-y,-z
loop_
_atom_site_type_symbol
_atom_site_label
_atom_site_fract_x
_atom_site_fract_y
_atom_site_fract_z
Si Si1 0.678833 0.741736 0.667234
Si Si2 0.314017 0.868410 0.794081
Si Si3 0.579089 0.410861 0.031805
Si Si4 0.349653 0.194798 0.560779
Si Si5 0.213006 0.949388 0.139215
Si Si6 0.347113 0.674236 0.466984
Si Si7 0.125596 0.260856 0.529055
Si Si8 0.204287 0.117726 0.898026
O O1 0.557412 0.471646 0.668494
O O2 0.652503 0.829930 0.517834
O O3 0.538710 0.765905 0.562895
O O4 0.972858 0.909063 0.925531
O O5 0.036521 0.742593 0.583462
O O6 0.415681 0.060719 0.743499
O O7 0.290686 0.658473 0.839800
O O8 0.500000 0.000000 0.000000
O O9 0.401735 0.407759 0.787526
O O10 0.418015 0.222679 0.017049
O O11 0.781922 0.678783 0.151190
O O12 0.069580 0.076433 0.340762
O O13 0.167047 0.718299 0.226944
O O14 0.480561 0.179505 0.347745
O O15 0.234760 0.983434 0.057617
O O16 0.158353 0.394865 0.422816
O O17 0.000000 0.000000 0.500000
#
# Coordination Sequence:
#
# PCOD8022412 Si02
#       8
#     2   2   2   2   2   2   2   2
#     4  10  23  43  67  90 132 172 210 276 322 386
#     4  12  26  41  68 101 127 173 222 273 332 392
#     4  11  24  42  68  94 135 177 216 277 326 398
#     4  10  23  44  63  97 129 166 224 265 328 394
#     4  10  23  43  65  99 128 171 222 267 320 400
#     4  11  24  41  68  97 129 174 218 267 327 390
#     4  12  24  44  67  99 137 169 219 277 330 390
#     4  10  22  46  65  93 138 176 217 271 338 380
#
# _framework density 21.835453999999999
#
# number of rings (size 3 to 8) (size 9 to 14) (size 15 to 20)
#    0.000    1.250    3.750    1.125    3.500    0.500 
#    9.000    1.875    0.000    0.000    0.000    0.000 
#    0.000    0.000    0.000    0.000    0.000    0.000 
#
# Total GULP energy -198408.416543 kJ/mol
# GULP energy per Si atom -12400.526034 kJ/mol
# Density = 2.178576 g / cm^3
# Si number density = 21.835454 Si / 1000 Ang^3
#
#
#
# Elastic Constant Matrix: (Units=GPa)
#
#
# Indices 1 2 3 4 5 6 
#
# 1 98.1000 35.1843 31.3629 -23.2694 12.6640 6.0842
# 2 35.1843 99.6909 28.7722 -22.2099 -3.6887 22.9346
# 3 31.3629 28.7722 72.1273 -24.6970 -6.0483 10.2357
# 4 -23.2694 -22.2099 -24.6970 28.5345 5.4093 2.1198
# 5 12.6640 -3.6887 -6.0483 5.4093 37.5797 -8.1394
# 6 6.0842 22.9346 10.2357 2.1198 -8.1394 34.2611
#
#
#
# Elastic Compliance Matrix: (Units=1/GPa)
#
#
# Indices 1 2 3 4 5 6 
#
# 1 0.015466 -0.001870 -0.002493 0.010777 -0.008070 -0.003334
# 2 -0.001870 0.016004 0.000122 0.012299 -0.002078 -0.011672
# 3 -0.002493 0.000122 0.021956 0.017545 0.000298 -0.007213
# 4 0.010777 0.012299 0.017545 0.073230 -0.015240 -0.023540
# 5 -0.008070 -0.002078 0.000298 -0.015240 0.033909 0.011734
# 6 -0.003334 -0.011672 -0.007213 -0.023540 0.011734 0.043993
#
#
# Mechanical properties :
#
#
# Convention : Reuss Voigt Hill
#
# Bulk Modulus (GPa) = 22.24888 51.17301 36.71095
# Shear Modulus (GPa) = 21.92800 31.71498 26.82149
#
# Velocity S-wave (km/s) = 3.17241 3.81524 3.50858
# Velocity P-wave (km/s) = 4.86111 6.54941 5.76737
#
# Compressibility (1/GPa) = 0.04494608
#
# Stress axis : x y z
#
# Youngs Moduli (GPa) = 64.65762 62.48417 45.54645
#
# Poissons Ratio (x) = 0.11682 0.11353
# Poissons Ratio (y) = 0.12088 -0.00557
# Poissons Ratio (z) = 0.16116 -0.00764
#
# Static dielectric constant tensor:
#      x y z
#    x 4.137430 0.072240 -0.228920 
#    y 0.072240 4.047990 0.019660 
#    z -0.228920 0.019660 4.009870 
# 
# 
# High freq. dielectric constant tensor:
#      x y z
#    x 1.857110 0.019470 -0.011330 
#    y 0.019470 1.861230 -0.001830 
#    z -0.011330 -0.001830 1.858470 
# 
# From -- ./inp_files/278896.got.cif
#   From: 2010.06.25/outbox.cif.g09.slc.cpg/sg2_140_cif.got.tgz:278896.got - 2010.06.27 13:26:56.
