data_PCOD8022860
_publ_section_title
;
Structure prediction by ZEFSAII (Michael W. Deem and Ramdas Pophale) SiO2 
 PCOD8022860
Probable space group: P -1
;
_chemical_formula_sum "Si O2"
_cell_formula_units_Z 16
_cell_length_a 14.366686
_cell_length_b 12.497634
_cell_length_c 11.485180
_cell_angle_alpha 79.539645
_cell_angle_beta 31.448742
_cell_angle_gamma 58.508455
_cell_volume 738.324758
_symmetry_space_group_name_H-M "P -1"
_symmetry_group_IT_number 2
_symmetry_cell_setting 'triclinic'
loop_
_space_group_symop_operation_xyz
x,y,z
-x,-y,-z
loop_
_atom_site_type_symbol
_atom_site_label
_atom_site_fract_x
_atom_site_fract_y
_atom_site_fract_z
Si Si1 0.466001 0.768478 0.176496
Si Si2 0.573370 0.589483 0.881023
Si Si3 0.600692 0.714448 0.424268
Si Si4 0.649342 0.147181 0.096610
Si Si5 0.825342 0.165171 0.306367
Si Si6 0.071731 0.635249 0.851895
Si Si7 0.030509 0.326496 0.306919
Si Si8 0.298743 0.012406 0.148132
O O1 0.341562 0.753213 0.414346
O O2 0.249785 0.932854 0.304197
O O3 0.601283 0.631389 0.967939
O O4 0.686164 0.749692 0.996563
O O5 0.367409 0.734632 0.984504
O O6 0.857021 0.474206 0.547168
O O7 0.500000 0.500000 0.000000
O O8 0.563843 0.752280 0.593974
O O9 0.327320 0.838905 0.626015
O O10 0.721937 0.544368 0.290610
O O11 0.787884 0.728296 0.178999
O O12 0.597742 0.072097 0.073350
O O13 0.920011 0.012647 0.898134
O O14 0.873816 0.265192 0.183267
O O15 0.102995 0.620006 0.684262
O O16 0.043564 0.195252 0.365616
O O17 0.500000 0.000000 0.000000
#
# Coordination Sequence:
#
# PCOD8022860 Si02
#       8
#     2   2   2   2   2   2   2   2
#     4  10  23  39  66  97 130 169 215 272 333 395
#     4  11  24  39  64  98 133 169 217 272 325 397
#     4  11  25  46  66  98 133 173 225 279 327 388
#     4  11  24  41  67  96 135 173 220 275 326 394
#     4  12  24  43  69  96 135 176 223 270 335 392
#     4  11  23  44  71  93 132 175 222 277 331 391
#     4  11  19  43  66  94 131 171 216 270 334 394
#     4   9  21  40  66  98 128 170 215 269 331 401
#
# _framework density 21.670680999999998
#
# number of rings (size 3 to 8) (size 9 to 14) (size 15 to 20)
#    0.000    1.250    3.750    1.875    1.750    1.500 
#    0.000    1.250    2.750    0.000    0.000    0.000 
#    0.000    0.000    0.000    0.000    0.000    0.000 
#
# Total GULP energy -198324.273429 kJ/mol
# GULP energy per Si atom -12395.267089 kJ/mol
# Density = 2.162136 g / cm^3
# Si number density = 21.670681 Si / 1000 Ang^3
#
#
#
# Elastic Constant Matrix: (Units=GPa)
#
#
# Indices 1 2 3 4 5 6 
#
# 1 102.3747 26.5372 29.6796 -2.8409 7.8533 -0.8027
# 2 26.5372 114.9102 32.5401 -0.8485 -7.2008 -0.7180
# 3 29.6796 32.5401 74.9895 -1.0556 -2.7593 1.2014
# 4 -2.8409 -0.8485 -1.0556 33.1128 -0.2588 1.2060
# 5 7.8533 -7.2008 -2.7593 -0.2588 32.0262 1.9278
# 6 -0.8027 -0.7180 1.2014 1.2060 1.9278 25.4608
#
#
#
# Elastic Compliance Matrix: (Units=1/GPa)
#
#
# Indices 1 2 3 4 5 6 
#
# 1 0.011696 -0.001790 -0.003988 0.000775 -0.003653 0.000746
# 2 -0.001790 0.010312 -0.003680 0.000004 0.002427 0.000224
# 3 -0.003988 -0.003680 0.016591 0.000147 0.001650 -0.001144
# 4 0.000775 0.000004 0.000147 0.030324 0.000155 -0.001430
# 5 -0.003653 0.002427 0.001650 0.000155 0.032967 -0.002628
# 6 0.000746 0.000224 -0.001144 -0.001430 -0.002628 0.039627
#
#
# Mechanical properties :
#
#
# Convention : Reuss Voigt Hill
#
# Bulk Modulus (GPa) = 50.80607 52.19870 51.50238
# Shear Modulus (GPa) = 29.94118 31.68778 30.81448
#
# Velocity S-wave (km/s) = 3.72108 3.82808 3.77496
# Velocity P-wave (km/s) = 6.47746 6.60897 6.54354
#
# Compressibility (1/GPa) = 0.01968269
#
# Stress axis : x y z
#
# Youngs Moduli (GPa) = 85.50140 96.97858 60.27205
#
# Poissons Ratio (x) = 0.17362 0.24034
# Poissons Ratio (y) = 0.15307 0.22181
# Poissons Ratio (z) = 0.34094 0.35689
#
# Static dielectric constant tensor:
#      x y z
#    x 4.575130 0.663990 0.128300 
#    y 0.663990 5.449790 0.260940 
#    z 0.128300 0.260940 3.857350 
# 
# 
# High freq. dielectric constant tensor:
#      x y z
#    x 1.853270 -0.010000 0.006500 
#    y -0.010000 1.859860 0.005760 
#    z 0.006500 0.005760 1.839960 
# 
# From -- ./inp_files/223707.got.cif
#   From: 2010.06.25/outbox.cif.g09.slc.cpg/sg2_112_cif.got.tgz:223707.got - 2010.06.27 13:26:56.
