data_PCOD8022150
_publ_section_title
;
Structure prediction by ZEFSAII (Michael W. Deem and Ramdas Pophale) SiO2 
 PCOD8022150
Probable space group: P -1
;
_chemical_formula_sum "Si O2"
_cell_formula_units_Z 14
_cell_length_a 19.964467
_cell_length_b 8.916829
_cell_length_c 6.730344
_cell_angle_alpha 129.587417
_cell_angle_beta 128.640636
_cell_angle_gamma 50.731588
_cell_volume 663.957036
_symmetry_space_group_name_H-M "P -1"
_symmetry_group_IT_number 2
_symmetry_cell_setting 'triclinic'
loop_
_space_group_symop_operation_xyz
x,y,z
-x,-y,-z
loop_
_atom_site_type_symbol
_atom_site_label
_atom_site_fract_x
_atom_site_fract_y
_atom_site_fract_z
Si Si1 0.012205 0.595814 0.397163
Si Si2 0.715650 0.372999 0.716361
Si Si3 0.685520 0.753478 0.691349
Si Si4 0.606322 0.086050 0.155064
Si Si5 0.391516 0.279080 0.889681
Si Si6 0.095649 0.882701 0.957131
Si Si7 0.875568 0.783650 0.984459
O O1 0.086031 0.700683 0.652279
O O2 0.000000 0.500000 0.500000
O O3 0.914330 0.765540 0.268560
O O4 0.053201 0.412332 0.163792
O O5 0.717272 0.546469 0.710108
O O6 0.662899 0.234435 0.411000
O O7 0.668443 0.492320 0.932784
O O8 0.821721 0.214940 0.814615
O O9 0.624304 0.716421 0.370748
O O10 0.773596 0.785471 0.791732
O O11 0.625445 0.966950 0.878315
O O12 0.636033 0.907016 0.229331
O O13 0.498178 0.235237 0.096848
O O14 0.124349 0.014410 0.959177
O O15 0.000000 0.000000 0.000000
#
# Coordination Sequence:
#
# PCOD8022150 Si02
#       7
#     2   2   2   2   2   2   2
#     4  11  23  43  63  88 124 165 217 265 313 372
#     4  11  25  41  64  97 132 169 217 269 319 382
#     4  11  24  40  66  97 132 165 215 264 324 387
#     4  10  23  42  70  95 130 168 212 265 322 392
#     4  10  22  45  66  96 130 170 211 263 328 385
#     4  12  25  42  65  91 127 172 216 264 317 379
#     4  11  25  41  65  91 124 173 210 265 322 375
#
# _framework density 21.085701
#
# number of rings (size 3 to 8) (size 9 to 14) (size 15 to 20)
#    0.000    1.143    1.429    3.857    4.000    6.286 
#    0.000    0.000    0.000    0.000    0.000    0.000 
#    0.000    0.000    0.000    0.000    0.000    0.000 
#
# Total GULP energy -173621.127873 kJ/mol
# GULP energy per Si atom -12401.509134 kJ/mol
# Density = 2.103771 g / cm^3
# Si number density = 21.085701 Si / 1000 Ang^3
#
#
#
# Elastic Constant Matrix: (Units=GPa)
#
#
# Indices 1 2 3 4 5 6 
#
# 1 76.3779 54.1903 40.6140 -0.9941 7.2998 0.9161
# 2 54.1903 110.6724 50.9475 0.3263 1.0485 8.2424
# 3 40.6140 50.9475 123.5028 0.8105 1.2535 13.2851
# 4 -0.9941 0.3263 0.8105 31.2287 6.3700 5.0775
# 5 7.2998 1.0485 1.2535 6.3700 44.0988 4.8777
# 6 0.9161 8.2424 13.2851 5.0775 4.8777 35.9886
#
#
#
# Elastic Compliance Matrix: (Units=1/GPa)
#
#
# Indices 1 2 3 4 5 6 
#
# 1 0.021993 -0.009262 -0.003735 0.001141 -0.003844 0.003300
# 2 -0.009262 0.015083 -0.002943 -0.000320 0.001559 -0.002298
# 3 -0.003735 -0.002943 0.010892 0.000023 0.000747 -0.003356
# 4 0.001141 -0.000320 0.000023 0.033663 -0.004592 -0.004091
# 5 -0.003844 0.001559 0.000747 -0.004592 0.024269 -0.003176
# 6 0.003300 -0.002298 -0.003356 -0.004091 -0.003176 0.030476
#
#
# Mechanical properties :
#
#
# Convention : Reuss Voigt Hill
#
# Bulk Modulus (GPa) = 62.15537 66.89518 64.52527
# Shear Modulus (GPa) = 28.79883 33.25000 31.02441
#
# Velocity S-wave (km/s) = 3.69968 3.97533 3.83998
# Velocity P-wave (km/s) = 6.91315 7.27085 7.09425
#
# Compressibility (1/GPa) = 0.01608872
#
# Stress axis : x y z
#
# Youngs Moduli (GPa) = 45.46879 66.30068 91.80666
#
# Poissons Ratio (x) = 0.61409 0.34291
# Poissons Ratio (y) = 0.42114 0.27015
# Poissons Ratio (z) = 0.16983 0.19510
#
# Static dielectric constant tensor:
#      x y z
#    x 3.760550 0.038430 0.103460 
#    y 0.038430 4.041340 0.092300 
#    z 0.103460 0.092300 3.917560 
# 
# 
# High freq. dielectric constant tensor:
#      x y z
#    x 1.829860 0.002410 0.002310 
#    y 0.002410 1.835660 -0.000730 
#    z 0.002310 -0.000730 1.839920 
# 
# From -- ./inp_files/38317.got.cif
#   From: 2010.06.25/outbox.cif.g09.slc.cpg/sg2_20_cif.got.tgz:38317.got - 2010.06.27 13:26:56.
