data_PCOD8022797
_publ_section_title
;
Structure prediction by ZEFSAII (Michael W. Deem and Ramdas Pophale) SiO2 
 PCOD8022797
Probable space group: P -1
;
_chemical_formula_sum "Si O2"
_cell_formula_units_Z 12
_cell_length_a 13.866775
_cell_length_b 9.237165
_cell_length_c 8.970590
_cell_angle_alpha 109.656904
_cell_angle_beta 138.777346
_cell_angle_gamma 43.672101
_cell_volume 465.258842
_symmetry_space_group_name_H-M "P -1"
_symmetry_group_IT_number 2
_symmetry_cell_setting 'triclinic'
loop_
_space_group_symop_operation_xyz
x,y,z
-x,-y,-z
loop_
_atom_site_type_symbol
_atom_site_label
_atom_site_fract_x
_atom_site_fract_y
_atom_site_fract_z
Si Si1 0.857279 0.275440 0.580463
Si Si2 0.185822 0.898660 0.062813
Si Si3 0.764756 0.820412 0.691679
Si Si4 0.806702 0.575809 0.396346
Si Si5 0.287800 0.395342 0.228369
Si Si6 0.527014 0.627554 0.851209
O O1 0.909071 0.353477 0.535107
O O2 0.694890 0.483764 0.586901
O O3 0.726998 0.225069 0.356949
O O4 0.088413 0.042971 0.845187
O O5 0.328377 0.641056 0.091726
O O6 0.320607 0.933517 0.311029
O O7 0.000000 0.000000 0.000000
O O8 0.698659 0.793207 0.449852
O O9 0.654328 0.815909 0.701452
O O10 0.034812 0.595290 0.938931
O O11 0.000000 0.500000 0.500000
O O12 0.609345 0.667093 0.095676
O O13 0.461924 0.285266 0.258837
#
# Coordination Sequence:
#
# PCOD8022797 Si02
#       6
#     2   2   2   2   2   2
#     4  10  23  39  62  94 128 156 209 259 303 366
#     4  11  21  38  66  94 120 160 212 258 302 362
#     4   9  18  36  59  90 122 159 209 249 301 369
#     4  11  21  39  64  91 124 174 200 242 322 378
#     4   9  17  34  61  85 117 164 200 246 304 358
#     4  12  22  38  68  93 122 163 209 253 311 363
#
# _framework density 25.792096999999998
#
# number of rings (size 3 to 8) (size 9 to 14) (size 15 to 20)
#    0.000    1.667    5.000    2.000    0.000    0.667 
#    0.000    3.333    3.667    9.000    0.000    0.000 
#    0.000    0.000    0.000    0.000    0.000    0.000 
#
# Total GULP energy -148828.496411 kJ/mol
# GULP energy per Si atom -12402.374701 kJ/mol
# Density = 2.573339 g / cm^3
# Si number density = 25.792097 Si / 1000 Ang^3
#
#
#
# Elastic Constant Matrix: (Units=GPa)
#
#
# Indices 1 2 3 4 5 6 
#
# 1 161.6127 22.9867 54.0171 12.0274 -5.5341 34.8842
# 2 22.9867 108.9041 44.3115 27.1239 -7.0327 19.2135
# 3 54.0171 44.3115 140.3745 49.9927 -7.9670 16.8131
# 4 12.0274 27.1239 49.9927 45.3673 11.3527 0.1222
# 5 -5.5341 -7.0327 -7.9670 11.3527 46.5383 0.8622
# 6 34.8842 19.2135 16.8131 0.1222 0.8622 33.4628
#
#
#
# Elastic Compliance Matrix: (Units=1/GPa)
#
#
# Indices 1 2 3 4 5 6 
#
# 1 0.008757 0.000758 -0.002448 -0.000296 0.000964 -0.008358
# 2 0.000758 0.013052 0.000167 -0.009296 0.004516 -0.008451
# 3 -0.002448 0.000167 0.015625 -0.018407 0.007001 -0.005508
# 4 -0.000296 -0.009296 -0.018407 0.052335 -0.017639 0.015158
# 5 0.000964 0.004516 0.007001 -0.017639 0.027930 -0.007771
# 6 -0.008358 -0.008451 -0.005508 0.015158 -0.007771 0.046362
#
#
# Mechanical properties :
#
#
# Convention : Reuss Voigt Hill
#
# Bulk Modulus (GPa) = 29.07803 72.61353 50.84578
# Shear Modulus (GPa) = 28.00015 44.37873 36.18944
#
# Velocity S-wave (km/s) = 3.29843 4.15255 3.74989
# Velocity P-wave (km/s) = 5.07983 7.15584 6.20527
#
# Compressibility (1/GPa) = 0.03439022
#
# Stress axis : x y z
#
# Youngs Moduli (GPa) = 114.19218 76.61549 63.99838
#
# Poissons Ratio (x) = -0.05810 0.15666
# Poissons Ratio (y) = -0.08659 -0.01071
# Poissons Ratio (z) = 0.27952 -0.01282
#
# Static dielectric constant tensor:
#      x y z
#    x 5.521660 0.062150 0.905440 
#    y 0.062150 4.749240 -0.148610 
#    z 0.905440 -0.148610 6.007930 
# 
# 
# High freq. dielectric constant tensor:
#      x y z
#    x 2.037680 0.021510 0.009470 
#    y 0.021510 2.021520 0.004970 
#    z 0.009470 0.004970 2.056670 
# 
# From -- ./inp_files/156121.got.cif
#   From: 2010.06.25/outbox.cif.g09.slc.cpg/sg2_79_cif.got.tgz:156121.got - 2010.06.27 13:26:56.
