data_PCOD8022014
_publ_section_title
;
Structure prediction by ZEFSAII (Michael W. Deem and Ramdas Pophale) SiO2 
 PCOD8022014
Probable space group: P -1
;
_chemical_formula_sum "Si O2"
_cell_formula_units_Z 16
_cell_length_a 9.500694
_cell_length_b 15.045980
_cell_length_c 8.645248
_cell_angle_alpha 70.413114
_cell_angle_beta 69.019307
_cell_angle_gamma 38.197332
_cell_volume 710.417866
_symmetry_space_group_name_H-M "P -1"
_symmetry_group_IT_number 2
_symmetry_cell_setting 'triclinic'
loop_
_space_group_symop_operation_xyz
x,y,z
-x,-y,-z
loop_
_atom_site_type_symbol
_atom_site_label
_atom_site_fract_x
_atom_site_fract_y
_atom_site_fract_z
Si Si1 0.810069 0.826350 0.080762
Si Si2 0.948418 0.128424 0.205874
Si Si3 0.253283 0.454335 0.584311
Si Si4 0.549142 0.245495 0.090352
Si Si5 0.724361 0.192359 0.709839
Si Si6 0.928739 0.261828 0.425621
Si Si7 0.879180 0.481019 0.752628
Si Si8 0.622938 0.878871 0.798595
O O1 0.990141 0.679909 0.192342
O O2 0.579492 0.948278 0.202063
O O3 0.751203 0.801949 0.957116
O O4 0.917599 0.878131 0.976790
O O5 0.733905 0.176624 0.190274
O O6 0.858484 0.242336 0.306142
O O7 0.124224 0.969756 0.303759
O O8 0.501137 0.297098 0.627199
O O9 0.229228 0.571068 0.592067
O O10 0.235817 0.458138 0.405031
O O11 0.054006 0.483565 0.718009
O O12 0.325111 0.417755 0.100224
O O13 0.476020 0.172687 0.189247
O O14 0.655587 0.217894 0.899821
O O15 0.875862 0.215667 0.614459
O O16 0.198430 0.164054 0.373149
#
# Coordination Sequence:
#
# PCOD8022014 Si02
#       8
#     2   2   2   2   2   2   2   2
#     4  10  23  44  72 105 140 185 237 290 345 415
#     4  11  26  46  72 106 143 182 237 289 352 416
#     4  11  26  48  69 104 144 189 234 288 353 420
#     4  12  25  45  73 106 141 186 235 290 349 411
#     4  12  26  45  75 102 148 185 230 290 354 418
#     4  11  25  47  70 104 140 190 232 280 356 422
#     4  11  26  45  73 104 145 182 238 294 347 412
#     4  10  22  44  72 104 142 183 237 287 347 420
#
# _framework density 22.521955999999999
#
# number of rings (size 3 to 8) (size 9 to 14) (size 15 to 20)
#    0.000    1.000    2.500    2.625    8.750    1.500 
#    2.250    1.250    0.000    0.000    0.000    0.000 
#    0.000    0.000    0.000    0.000    0.000    0.000 
#
# Total GULP energy -198497.072752 kJ/mol
# GULP energy per Si atom -12406.067047 kJ/mol
# Density = 2.247070 g / cm^3
# Si number density = 22.521956 Si / 1000 Ang^3
#
#
#
# Elastic Constant Matrix: (Units=GPa)
#
#
# Indices 1 2 3 4 5 6 
#
# 1 164.8782 54.9630 53.3596 -6.2526 -14.9656 -2.5360
# 2 54.9630 116.6093 43.2043 -18.5447 -2.2115 -2.7503
# 3 53.3596 43.2043 85.8589 1.0302 -22.2336 -2.4528
# 4 -6.2526 -18.5447 1.0302 38.4108 -1.6308 -5.3765
# 5 -14.9656 -2.2115 -22.2336 -1.6308 28.4637 2.1269
# 6 -2.5360 -2.7503 -2.4528 -5.3765 2.1269 27.7579
#
#
#
# Elastic Compliance Matrix: (Units=1/GPa)
#
#
# Indices 1 2 3 4 5 6 
#
# 1 0.008152 -0.002486 -0.003451 0.000299 0.001403 0.000144
# 2 -0.002486 0.013019 -0.006326 0.006127 -0.005041 0.002077
# 3 -0.003451 -0.006326 0.020507 -0.003714 0.013566 -0.000889
# 4 0.000299 0.006127 -0.003714 0.029964 -0.001014 0.006188
# 5 0.001403 -0.005041 0.013566 -0.001014 0.046235 -0.002912
# 6 0.000144 0.002077 -0.000889 0.006188 -0.002912 0.037588
#
#
# Mechanical properties :
#
#
# Convention : Reuss Voigt Hill
#
# Bulk Modulus (GPa) = 58.30227 74.48887 66.39557
# Shear Modulus (GPa) = 26.92408 33.31444 30.11926
#
# Velocity S-wave (km/s) = 3.46129 3.85021 3.66092
# Velocity P-wave (km/s) = 6.47434 7.27401 6.88579
#
# Compressibility (1/GPa) = 0.01715199
#
# Stress axis : x y z
#
# Youngs Moduli (GPa) = 122.67466 76.81146 48.76350
#
# Poissons Ratio (x) = 0.19095 0.16829
# Poissons Ratio (y) = 0.30497 0.30846
# Poissons Ratio (z) = 0.42337 0.48588
#
# Static dielectric constant tensor:
#      x y z
#    x 4.152070 -0.065320 -0.271300 
#    y -0.065320 4.102910 0.174720 
#    z -0.271300 0.174720 4.014340 
# 
# 
# High freq. dielectric constant tensor:
#      x y z
#    x 1.897850 -0.001190 -0.012910 
#    y -0.001190 1.896930 0.012160 
#    z -0.012910 0.012160 1.879340 
# 
# From -- ./inp_files/206250.got.cif
#   From: 2010.06.25/outbox.cif.g09.slc.cpg/sg2_104_cif.got.tgz:206250.got - 2010.06.27 13:26:56.
