data_PCOD8022983
_publ_section_title
;
Structure prediction by ZEFSAII (Michael W. Deem and Ramdas Pophale) SiO2 
 PCOD8022983
Probable space group: P -1
;
_chemical_formula_sum "Si O2"
_cell_formula_units_Z 12
_cell_length_a 20.498870
_cell_length_b 17.977418
_cell_length_c 12.736326
_cell_angle_alpha 20.244234
_cell_angle_beta 148.581664
_cell_angle_gamma 159.379071
_cell_volume 560.070297
_symmetry_space_group_name_H-M "P -1"
_symmetry_group_IT_number 2
_symmetry_cell_setting 'triclinic'
loop_
_space_group_symop_operation_xyz
x,y,z
-x,-y,-z
loop_
_atom_site_type_symbol
_atom_site_label
_atom_site_fract_x
_atom_site_fract_y
_atom_site_fract_z
Si Si1 0.780462 0.482796 0.474354
Si Si2 0.349395 0.908308 0.705809
Si Si3 0.301171 0.167573 0.125990
Si Si4 0.912104 0.801459 0.749857
Si Si5 0.860463 0.236204 0.748019
Si Si6 0.908614 0.215941 0.328432
O O1 0.772782 0.325826 0.568675
O O2 0.940300 0.610127 0.602543
O O3 0.575241 0.209796 0.610049
O O4 0.832629 0.794785 0.099746
O O5 0.285386 0.934343 0.692995
O O6 0.236627 0.892123 0.479301
O O7 0.280515 0.573170 0.047089
O O8 0.308205 0.096352 0.109080
O O9 0.500000 0.500000 0.000000
O O10 0.859133 0.929085 0.584238
O O11 0.000000 0.000000 0.500000
O O12 0.057117 0.829710 0.969838
O O13 0.000000 0.500000 0.500000
O O14 0.000000 0.500000 0.000000
#
# Coordination Sequence:
#
# PCOD8022983 Si02
#       6
#     2   2   2   2   2   2
#     4  11  25  43  68 100 139 173 226 280 333 403
#     4  11  25  43  66 102 132 178 226 274 343 395
#     4  10  23  40  64 102 135 170 224 273 336 395
#     4  12  24  45  68  98 137 177 227 281 336 404
#     4  12  23  42  70 100 136 182 221 276 344 393
#     4  12  24  45  69  92 135 178 228 278 333 405
#
# _framework density 21.425882000000001
#
# number of rings (size 3 to 8) (size 9 to 14) (size 15 to 20)
#    0.000    0.667    6.667    0.000    2.333    7.333 
#    0.000    1.667    0.000    0.000    0.000    0.000 
#    0.000    0.000    0.000    0.000    0.000    0.000 
#
# Total GULP energy -148772.203820 kJ/mol
# GULP energy per Si atom -12397.683652 kJ/mol
# Density = 2.137712 g / cm^3
# Si number density = 21.425882 Si / 1000 Ang^3
#
#
#
# Elastic Constant Matrix: (Units=GPa)
#
#
# Indices 1 2 3 4 5 6 
#
# 1 188.4991 43.7827 45.1929 -13.7289 24.7397 -2.3966
# 2 43.7827 70.1288 15.9372 -7.9363 -0.4775 -5.0173
# 3 45.1929 15.9372 116.2388 -5.9403 7.3155 -4.3120
# 4 -13.7289 -7.9363 -5.9403 30.8000 -10.3918 0.6147
# 5 24.7397 -0.4775 7.3155 -10.3918 49.1118 -9.2575
# 6 -2.3966 -5.0173 -4.3120 0.6147 -9.2575 40.3185
#
#
#
# Elastic Compliance Matrix: (Units=1/GPa)
#
#
# Indices 1 2 3 4 5 6 
#
# 1 0.007227 -0.004078 -0.002042 0.000635 -0.003448 -0.001098
# 2 -0.004078 0.017618 -0.000769 0.003746 0.003631 0.002644
# 3 -0.002042 -0.000769 0.009573 0.000684 -0.000115 0.000770
# 4 0.000635 0.003746 0.000684 0.036394 0.007651 0.001779
# 5 -0.003448 0.003631 -0.000115 0.007651 0.024869 0.005828
# 6 -0.001098 0.002644 0.000770 0.001779 0.005828 0.026460
#
#
# Mechanical properties :
#
#
# Convention : Reuss Voigt Hill
#
# Bulk Modulus (GPa) = 48.44936 64.96582 56.70759
# Shear Modulus (GPa) = 35.01469 42.04297 38.52883
#
# Velocity S-wave (km/s) = 4.04694 4.43454 4.24516
# Velocity P-wave (km/s) = 6.67073 7.52377 7.11005
#
# Compressibility (1/GPa) = 0.02064011
#
# Stress axis : x y z
#
# Youngs Moduli (GPa) = 138.37682 56.76018 104.46025
#
# Poissons Ratio (x) = 0.23146 0.21329
# Poissons Ratio (y) = 0.56428 0.08034
# Poissons Ratio (z) = 0.28254 0.04365
#
# Static dielectric constant tensor:
#      x y z
#    x 4.389920 -0.373890 0.371580 
#    y -0.373890 3.811190 -0.097390 
#    z 0.371580 -0.097390 4.654570 
# 
# 
# High freq. dielectric constant tensor:
#      x y z
#    x 1.850150 -0.016560 0.009730 
#    y -0.016560 1.831870 -0.004160 
#    z 0.009730 -0.004160 1.861550 
# 
# From -- ./inp_files/191124.got.cif
#   From: 2010.06.25/outbox.cif.g09.slc.cpg/sg2_96_cif.got.tgz:191124.got - 2010.06.27 13:26:56.
