data_PCOD8022790
_publ_section_title
;
Structure prediction by ZEFSAII (Michael W. Deem and Ramdas Pophale) SiO2 
 PCOD8022790
Probable space group: P -1
;
_chemical_formula_sum "Si O2"
_cell_formula_units_Z 16
_cell_length_a 22.002694
_cell_length_b 22.244817
_cell_length_c 5.215146
_cell_angle_alpha 77.188412
_cell_angle_beta 84.403014
_cell_angle_gamma 18.786714
_cell_volume 748.461922
_symmetry_space_group_name_H-M "P -1"
_symmetry_group_IT_number 2
_symmetry_cell_setting 'triclinic'
loop_
_space_group_symop_operation_xyz
x,y,z
-x,-y,-z
loop_
_atom_site_type_symbol
_atom_site_label
_atom_site_fract_x
_atom_site_fract_y
_atom_site_fract_z
Si Si1 0.081542 0.490310 0.008783
Si Si2 0.002404 0.229493 0.817686
Si Si3 0.271636 0.743939 0.364125
Si Si4 0.504143 0.037932 0.211479
Si Si5 0.082887 0.292658 0.627779
Si Si6 0.045561 0.032885 0.579159
Si Si7 0.199726 0.622524 0.759485
Si Si8 0.321736 0.825900 0.009809
O O1 0.983997 0.628853 0.708474
O O2 0.000000 0.500000 0.000000
O O3 0.048783 0.544842 0.260257
O O4 0.318355 0.263301 0.075910
O O5 0.872471 0.329205 0.537805
O O6 0.074451 0.228457 0.731917
O O7 0.863310 0.363633 0.002244
O O8 0.203697 0.996322 0.027941
O O9 0.500000 0.500000 0.500000
O O10 0.182482 0.845462 0.587273
O O11 0.257811 0.820593 0.147490
O O12 0.107686 0.848782 0.248573
O O13 0.690263 0.904154 0.247549
O O14 0.500000 0.000000 0.500000
O O15 0.500000 0.000000 0.000000
O O16 0.213540 0.923179 0.687197
O O17 0.890585 0.222360 0.285601
O O18 0.442035 0.390873 0.881515
#
# Coordination Sequence:
#
# PCOD8022790 Si02
#       8
#     2   2   2   2   2   2   2   2
#     4  12  23  42  72 101 138 171 214 270 337 387
#     4  11  27  45  67  94 135 179 230 271 325 394
#     4  11  21  39  64 100 129 169 221 280 345 404
#     4  12  23  40  69 103 133 173 213 264 334 395
#     4  12  25  44  66 102 137 176 221 275 324 401
#     4  10  23  39  62 100 131 167 221 281 342 402
#     4  11  24  45  69  94 129 181 231 273 333 394
#     4  11  24  42  68  90 137 177 221 281 339 388
#
# _framework density 21.377174
#
# number of rings (size 3 to 8) (size 9 to 14) (size 15 to 20)
#    0.000    0.750    5.000    2.250    1.750    2.500 
#    0.000    0.000    0.000    0.000    0.000    0.000 
#    0.000    0.000    0.000    0.000    0.000    0.000 
#
# Total GULP energy -198231.859079 kJ/mol
# GULP energy per Si atom -12389.491192 kJ/mol
# Density = 2.132852 g / cm^3
# Si number density = 21.377174 Si / 1000 Ang^3
#
#
#
# Elastic Constant Matrix: (Units=GPa)
#
#
# Indices 1 2 3 4 5 6 
#
# 1 119.2244 52.2014 37.9451 -14.5348 -14.0326 -20.7271
# 2 52.2014 150.6207 41.7126 -22.7041 11.7414 -25.0558
# 3 37.9451 41.7126 94.6251 -3.1850 -4.7061 -17.8592
# 4 -14.5348 -22.7041 -3.1850 43.3582 -5.1965 4.9113
# 5 -14.0326 11.7414 -4.7061 -5.1965 37.9131 0.6123
# 6 -20.7271 -25.0558 -17.8592 4.9113 0.6123 36.9736
#
#
#
# Elastic Compliance Matrix: (Units=1/GPa)
#
#
# Indices 1 2 3 4 5 6 
#
# 1 0.011970 -0.002960 -0.002571 0.002569 0.005331 0.003033
# 2 -0.002960 0.009704 -0.002559 0.003036 -0.004056 0.003344
# 3 -0.002571 -0.002559 0.013394 -0.001461 0.001247 0.003468
# 4 0.002569 0.003036 -0.001461 0.025893 0.003390 -0.000704
# 5 0.005331 -0.004056 0.001247 0.003390 0.030227 -0.000109
# 6 0.003033 0.003344 0.003468 -0.000704 -0.000109 0.032783
#
#
# Mechanical properties :
#
#
# Convention : Reuss Voigt Hill
#
# Bulk Modulus (GPa) = 52.94439 69.79871 61.37155
# Shear Modulus (GPa) = 34.14179 39.15638 36.64909
#
# Velocity S-wave (km/s) = 4.00073 4.28447 4.14503
# Velocity P-wave (km/s) = 6.79424 7.56290 7.18885
#
# Compressibility (1/GPa) = 0.01888774
#
# Stress axis : x y z
#
# Youngs Moduli (GPa) = 83.54322 103.04983 74.65798
#
# Poissons Ratio (x) = 0.30506 0.19195
# Poissons Ratio (y) = 0.24731 0.19105
# Poissons Ratio (z) = 0.21479 0.26370
#
# Static dielectric constant tensor:
#      x y z
#    x 3.919930 -0.029560 0.010940 
#    y -0.029560 4.051710 -0.008350 
#    z 0.010940 -0.008350 3.974820 
# 
# 
# High freq. dielectric constant tensor:
#      x y z
#    x 1.839590 -0.009360 -0.005080 
#    y -0.009360 1.851500 -0.007610 
#    z -0.005080 -0.007610 1.839920 
# 
# From -- ./inp_files/120375.got.cif
#   From: 2010.06.25/outbox.cif.g09.slc.cpg/sg2_61_cif.got.tgz:120375.got - 2010.06.27 13:26:56.
