data_PCOD8022254
_publ_section_title
;
Structure prediction by ZEFSAII (Michael W. Deem and Ramdas Pophale) SiO2 
 PCOD8022254
Probable space group: P -1
;
_chemical_formula_sum "Si O2"
_cell_formula_units_Z 14
_cell_length_a 24.905328
_cell_length_b 16.984826
_cell_length_c 5.209322
_cell_angle_alpha 69.604417
_cell_angle_beta 104.404853
_cell_angle_gamma 163.135325
_cell_volume 569.377135
_symmetry_space_group_name_H-M "P -1"
_symmetry_group_IT_number 2
_symmetry_cell_setting 'triclinic'
loop_
_space_group_symop_operation_xyz
x,y,z
-x,-y,-z
loop_
_atom_site_type_symbol
_atom_site_label
_atom_site_fract_x
_atom_site_fract_y
_atom_site_fract_z
Si Si1 0.241675 0.372366 0.243808
Si Si2 0.222554 0.163756 0.593053
Si Si3 0.311724 0.929623 0.487121
Si Si4 0.054049 0.838669 0.272607
Si Si5 0.407631 0.206927 0.667470
Si Si6 0.728745 0.485779 0.365623
Si Si7 0.066715 0.693288 0.173894
O O1 0.126835 0.118773 0.473974
O O2 0.469893 0.676313 0.124798
O O3 0.234953 0.429239 0.401594
O O4 0.170725 0.307304 0.963150
O O5 0.455079 0.511768 0.532786
O O6 0.195179 0.067080 0.416854
O O7 0.120975 0.979356 0.929829
O O8 0.178197 0.766249 0.274555
O O9 0.154416 0.648518 0.793866
O O10 0.386702 0.125557 0.473058
O O11 0.498306 0.141397 0.414703
O O12 0.056968 0.742400 0.350475
O O13 0.833066 0.546967 0.401639
O O14 0.196792 0.928093 0.843110
#
# Coordination Sequence:
#
# PCOD8022254 Si02
#       7
#     2   2   2   2   2   2   2
#     4   9  20  39  66  91 123 174 211 256 299 392
#     4  10  24  43  65  99 135 170 211 262 326 388
#     4  10  22  45  69  91 119 179 225 269 304 388
#     4  12  27  40  62 105 135 170 200 273 332 385
#     4   9  21  41  68  95 120 171 221 268 305 387
#     4  11  21  42  66  96 131 164 223 258 324 373
#     4  11  24  42  68  92 131 167 223 267 325 377
#
# _framework density 24.588272
#
# number of rings (size 3 to 8) (size 9 to 14) (size 15 to 20)
#    0.857    0.857    1.429    2.143    4.000    5.143 
#    0.000    0.000    0.000    4.286    0.000    0.000 
#    0.000    0.000    0.000    0.000    0.000    0.000 
#
# Total GULP energy -173448.125812 kJ/mol
# GULP energy per Si atom -12389.151844 kJ/mol
# Density = 2.453231 g / cm^3
# Si number density = 24.588272 Si / 1000 Ang^3
#
#
#
# Elastic Constant Matrix: (Units=GPa)
#
#
# Indices 1 2 3 4 5 6 
#
# 1 82.1772 21.0324 35.0376 -16.4659 -9.4322 3.9222
# 2 21.0324 102.3007 37.3114 -19.1760 -10.7615 4.7558
# 3 35.0376 37.3114 74.8199 2.8749 -29.7802 8.4738
# 4 -16.4659 -19.1760 2.8749 38.7396 3.6894 -14.2329
# 5 -9.4322 -10.7615 -29.7802 3.6894 21.4378 1.9949
# 6 3.9222 4.7558 8.4738 -14.2329 1.9949 33.0906
#
#
#
# Elastic Compliance Matrix: (Units=1/GPa)
#
#
# Indices 1 2 3 4 5 6 
#
# 1 0.025081 0.007615 -0.034644 0.027843 -0.039845 0.019182
# 2 0.007615 0.018930 -0.028622 0.023637 -0.032448 0.015829
# 3 -0.034644 -0.028622 0.108757 -0.071892 0.139326 -0.058952
# 4 0.027843 0.023637 -0.071892 0.083308 -0.095047 0.053275
# 5 -0.039845 -0.032448 0.139326 -0.095047 0.230271 -0.081056
# 6 0.019182 0.015829 -0.058952 0.053275 -0.081056 0.068569
#
#
# Mechanical properties :
#
#
# Convention : Reuss Voigt Hill
#
# Bulk Modulus (GPa) = 24.11697 49.56230 36.83963
# Shear Modulus (GPa) = 7.57527 29.71469 18.64498
#
# Velocity S-wave (km/s) = 1.75714 3.48011 2.75669
# Velocity P-wave (km/s) = 3.73448 6.02900 5.01474
#
# Compressibility (1/GPa) = 0.04146458
#
# Stress axis : x y z
#
# Youngs Moduli (GPa) = 39.87066 52.82580 9.19482
#
# Poissons Ratio (x) = -0.40226 0.31855
# Poissons Ratio (y) = -0.30361 0.26318
# Poissons Ratio (z) = 1.38129 1.51200
#
# Static dielectric constant tensor:
#      x y z
#    x 4.469010 0.264900 -0.179630 
#    y 0.264900 4.501120 -0.310310 
#    z -0.179630 -0.310310 4.212450 
# 
# 
# High freq. dielectric constant tensor:
#      x y z
#    x 1.973920 0.018780 -0.016280 
#    y 0.018780 1.974650 -0.008330 
#    z -0.016280 -0.008330 1.965350 
# 
# From -- ./inp_files/124193.got.cif
#   From: 2010.06.25/outbox.cif.g09.slc.cpg/sg2_63_cif.got.tgz:124193.got - 2010.06.27 13:26:56.
