data_PCOD8022090
_publ_section_title
;
Structure prediction by ZEFSAII (Michael W. Deem and Ramdas Pophale) SiO2 
 PCOD8022090
Probable space group: P -1
;
_chemical_formula_sum "Si O2"
_cell_formula_units_Z 12
_cell_length_a 10.543903
_cell_length_b 9.894524
_cell_length_c 8.794602
_cell_angle_alpha 48.531166
_cell_angle_beta 125.202334
_cell_angle_gamma 96.240366
_cell_volume 502.825044
_symmetry_space_group_name_H-M "P -1"
_symmetry_group_IT_number 2
_symmetry_cell_setting 'triclinic'
loop_
_space_group_symop_operation_xyz
x,y,z
-x,-y,-z
loop_
_atom_site_type_symbol
_atom_site_label
_atom_site_fract_x
_atom_site_fract_y
_atom_site_fract_z
Si Si1 0.070294 0.471957 0.738712
Si Si2 0.141724 0.906288 0.797582
Si Si3 0.321088 0.633056 0.700486
Si Si4 0.482978 0.384137 0.716702
Si Si5 0.758731 0.779972 0.439353
Si Si6 0.166106 0.102186 0.269332
O O1 0.180336 0.599049 0.728520
O O2 0.000000 0.500000 0.500000
O O3 0.918173 0.558436 0.695125
O O4 0.182201 0.237484 0.041164
O O5 0.039430 0.848127 0.899907
O O6 0.200410 0.077983 0.757176
O O7 0.321485 0.723336 0.997579
O O8 0.000000 0.000000 0.500000
O O9 0.338843 0.539505 0.613936
O O10 0.278440 0.866789 0.483745
O O11 0.500000 0.500000 0.000000
O O12 0.500000 0.500000 0.500000
O O13 0.420269 0.220456 0.735832
O O14 0.753299 0.851826 0.556087
#
# Coordination Sequence:
#
# PCOD8022090 Si02
#       6
#     2   2   2   2   2   2
#     4  12  26  47  73 111 151 195 248 305 370 440
#     4  10  22  44  75 104 141 194 245 296 367 439
#     4  12  28  49  73 108 150 191 249 311 366 441
#     4  12  27  46  72 109 149 190 247 307 369 437
#     4  11  23  47  75 108 145 195 246 307 365 443
#     4  11  26  48  80 105 148 200 246 301 374 442
#
# _framework density 23.865161000000001
#
# number of rings (size 3 to 8) (size 9 to 14) (size 15 to 20)
#    0.000    0.667    3.333    4.000    4.667    2.667 
#    3.000    0.000    0.000    0.000    0.000    0.000 
#    0.000    0.000    0.000    0.000    0.000    0.000 
#
# Total GULP energy -148712.935145 kJ/mol
# GULP energy per Si atom -12392.744595 kJ/mol
# Density = 2.381084 g / cm^3
# Si number density = 23.865161 Si / 1000 Ang^3
#
#
#
# Elastic Constant Matrix: (Units=GPa)
#
#
# Indices 1 2 3 4 5 6 
#
# 1 87.7649 43.8507 35.4663 3.8316 7.7273 -2.6865
# 2 43.8507 147.6024 59.7905 -5.1088 -0.7411 4.8652
# 3 35.4663 59.7905 120.0767 -16.2145 1.1313 -10.3823
# 4 3.8316 -5.1088 -16.2145 42.1242 4.2982 6.6263
# 5 7.7273 -0.7411 1.1313 4.2982 51.0685 -3.4720
# 6 -2.6865 4.8652 -10.3823 6.6263 -3.4720 25.6850
#
#
#
# Elastic Compliance Matrix: (Units=1/GPa)
#
#
# Indices 1 2 3 4 5 6 
#
# 1 0.014550 -0.003307 -0.002895 -0.002883 -0.001843 0.001473
# 2 -0.003307 0.009543 -0.004050 0.000462 0.000428 -0.003852
# 3 -0.002895 -0.004050 0.012082 0.003720 0.000098 0.004401
# 4 -0.002883 0.000462 0.003720 0.026680 -0.002298 -0.006079
# 5 -0.001843 0.000428 0.000098 -0.002298 0.020269 0.003099
# 6 0.001473 -0.003852 0.004401 -0.006079 0.003099 0.043583
#
#
# Mechanical properties :
#
#
# Convention : Reuss Voigt Hill
#
# Bulk Modulus (GPa) = 63.81628 70.40654 67.11141
# Shear Modulus (GPa) = 32.80112 38.19798 35.49955
#
# Velocity S-wave (km/s) = 3.71136 4.00506 3.86100
# Velocity P-wave (km/s) = 6.72042 7.13815 6.93243
#
# Compressibility (1/GPa) = 0.01566998
#
# Stress axis : x y z
#
# Youngs Moduli (GPa) = 68.73027 104.78839 82.77023
#
# Poissons Ratio (x) = 0.34657 0.23963
# Poissons Ratio (y) = 0.22731 0.33520
# Poissons Ratio (z) = 0.19899 0.42436
#
# Static dielectric constant tensor:
#      x y z
#    x 4.025910 0.142550 -1.096630 
#    y 0.142550 4.239710 0.043820 
#    z -1.096630 0.043820 2.978540 
# 
# 
# High freq. dielectric constant tensor:
#      x y z
#    x 1.946790 0.017110 0.006790 
#    y 0.017110 1.949700 -0.010050 
#    z 0.006790 -0.010050 1.947410 
# 
# From -- ./inp_files/208651.got.cif
#   From: 2010.06.25/outbox.cif.g09.slc.cpg/sg2_105_cif.got.tgz:208651.got - 2010.06.27 13:26:56.
