data_PCOD8022707
_publ_section_title
;
Structure prediction by ZEFSAII (Michael W. Deem and Ramdas Pophale) SiO2 
 PCOD8022707
Probable space group: P -1
;
_chemical_formula_sum "Si O2"
_cell_formula_units_Z 12
_cell_length_a 8.958116
_cell_length_b 12.441182
_cell_length_c 14.312772
_cell_angle_alpha 21.157608
_cell_angle_beta 108.521100
_cell_angle_gamma 108.489489
_cell_volume 544.908020
_symmetry_space_group_name_H-M "P -1"
_symmetry_group_IT_number 2
_symmetry_cell_setting 'triclinic'
loop_
_space_group_symop_operation_xyz
x,y,z
-x,-y,-z
loop_
_atom_site_type_symbol
_atom_site_label
_atom_site_fract_x
_atom_site_fract_y
_atom_site_fract_z
Si Si1 0.058706 0.257179 0.075968
Si Si2 0.139621 0.233689 0.316465
Si Si3 0.809564 0.214232 0.771119
Si Si4 0.890808 0.841798 0.245484
Si Si5 0.516547 0.880913 0.496500
Si Si6 0.655028 0.732791 0.998304
O O1 0.161688 0.230641 0.211466
O O2 0.184347 0.381556 0.922450
O O3 0.981283 0.942750 0.277162
O O4 0.911172 0.454807 0.905090
O O5 0.299640 0.148895 0.466468
O O6 0.000000 0.000000 0.500000
O O7 0.767261 0.561813 0.472447
O O8 0.987994 0.234343 0.750918
O O9 0.691408 0.992269 0.870142
O O10 0.799824 0.111746 0.961167
O O11 0.500000 0.000000 0.500000
O O12 0.455094 0.125440 0.215800
O O13 0.427603 0.554198 0.734299
#
# Coordination Sequence:
#
# PCOD8022707 Si02
#       6
#     2   2   2   2   2   2
#     4  10  23  38  62  91 123 160 203 251 302 358
#     4  11  25  40  60  89 126 163 204 245 303 366
#     4   9  18  34  57  89 118 147 199 249 299 346
#     4   9  18  33  58  88 116 152 196 250 296 347
#     4  12  24  40  63  90 125 162 203 245 306 361
#     4  11  23  40  65  93 123 159 199 256 303 355
#
# _framework density 22.022067
#
# number of rings (size 3 to 8) (size 9 to 14) (size 15 to 20)
#    0.000    1.667    1.667    2.500    7.000    2.667 
#    0.000    0.000    0.000    6.000    0.000    0.000 
#    0.000    0.000    0.000    0.000    0.000    0.000 
#
# Total GULP energy -148742.433115 kJ/mol
# GULP energy per Si atom -12395.202760 kJ/mol
# Density = 2.197194 g / cm^3
# Si number density = 22.022067 Si / 1000 Ang^3
#
#
#
# Elastic Constant Matrix: (Units=GPa)
#
#
# Indices 1 2 3 4 5 6 
#
# 1 72.0603 20.3641 12.6718 -9.8707 -4.0503 8.6879
# 2 20.3641 78.1816 27.0000 -6.9177 4.5522 8.3080
# 3 12.6718 27.0000 114.9401 -4.1993 -19.7127 0.7321
# 4 -9.8707 -6.9177 -4.1993 35.8771 14.3340 -2.0687
# 5 -4.0503 4.5522 -19.7127 14.3340 32.1819 -3.2685
# 6 8.6879 8.3080 0.7321 -2.0687 -3.2685 19.5564
#
#
#
# Elastic Compliance Matrix: (Units=1/GPa)
#
#
# Indices 1 2 3 4 5 6 
#
# 1 0.016003 -0.002921 -0.000965 0.003527 -0.000294 -0.005508
# 2 -0.002921 0.016888 -0.004903 0.004948 -0.008635 -0.006613
# 3 -0.000965 -0.004903 0.011432 -0.003458 0.009450 0.003297
# 4 0.003527 0.004948 -0.003458 0.036850 -0.019075 -0.002829
# 5 -0.000294 -0.008635 0.009450 -0.019075 0.047493 0.009365
# 6 -0.005508 -0.006613 0.003297 -0.002829 0.009365 0.057533
#
#
# Mechanical properties :
#
#
# Convention : Reuss Voigt Hill
#
# Bulk Modulus (GPa) = 37.38929 42.80596 40.09762
# Shear Modulus (GPa) = 23.50821 31.19949 27.35385
#
# Velocity S-wave (km/s) = 3.27078 3.76804 3.52818
# Velocity P-wave (km/s) = 5.59276 6.19764 5.90296
#
# Compressibility (1/GPa) = 0.02674563
#
# Stress axis : x y z
#
# Youngs Moduli (GPa) = 62.48858 59.21331 87.47664
#
# Poissons Ratio (x) = 0.17294 0.08439
# Poissons Ratio (y) = 0.18251 0.42891
# Poissons Ratio (z) = 0.06028 0.29033
#
# Static dielectric constant tensor:
#      x y z
#    x 3.631240 0.390590 -0.099000 
#    y 0.390590 3.686230 0.407870 
#    z -0.099000 0.407870 4.255980 
# 
# 
# High freq. dielectric constant tensor:
#      x y z
#    x 1.827290 0.010020 -0.008540 
#    y 0.010020 1.868960 -0.003840 
#    z -0.008540 -0.003840 1.875800 
# 
# From -- ./inp_files/24159.got.cif
#   From: 2010.06.25/outbox.cif.g09.slc.cpg/sg2_13_cif.got.tgz:24159.got - 2010.06.27 13:26:56.
