data_PCOD8022987
_publ_section_title
;
Structure prediction by ZEFSAII (Michael W. Deem and Ramdas Pophale) SiO2 
 PCOD8022987
Probable space group: P -1
;
_chemical_formula_sum "Si O2"
_cell_formula_units_Z 16
_cell_length_a 11.451932
_cell_length_b 10.162380
_cell_length_c 14.438951
_cell_angle_alpha 152.710566
_cell_angle_beta 98.072770
_cell_angle_gamma 94.811999
_cell_volume 677.413841
_symmetry_space_group_name_H-M "P -1"
_symmetry_group_IT_number 2
_symmetry_cell_setting 'triclinic'
loop_
_space_group_symop_operation_xyz
x,y,z
-x,-y,-z
loop_
_atom_site_type_symbol
_atom_site_label
_atom_site_fract_x
_atom_site_fract_y
_atom_site_fract_z
Si Si1 0.214931 0.805004 0.404323
Si Si2 0.727300 0.749664 0.989564
Si Si3 0.817524 0.236705 0.159613
Si Si4 0.819002 0.744666 0.581703
Si Si5 0.119899 0.610589 0.477333
Si Si6 0.450739 0.496164 0.889820
Si Si7 0.998119 0.777736 0.232380
Si Si8 0.244964 0.726268 0.027469
O O1 0.178767 0.664364 0.414994
O O2 0.096539 0.864125 0.385592
O O3 0.348792 0.138117 0.623329
O O4 0.235657 0.543985 0.180228
O O5 0.748460 0.871358 0.961251
O O6 0.820826 0.039601 0.248747
O O7 0.573093 0.627317 0.916266
O O8 0.735694 0.422867 0.308498
O O9 0.825450 0.243521 0.054961
O O10 0.961276 0.423263 0.340880
O O11 0.840336 0.637732 0.619139
O O12 0.956500 0.922858 0.645981
O O13 0.746537 0.974857 0.721666
O O14 0.387535 0.746839 0.037706
O O15 0.500000 0.500000 0.000000
O O16 0.846326 0.631078 0.161594
O O17 0.000000 0.500000 0.000000
#
# Coordination Sequence:
#
# PCOD8022987 Si02
#       8
#     2   2   2   2   2   2   2   2
#     4  12  25  46  77 103 137 188 234 295 356 412
#     4  11  26  46  70 102 143 186 237 287 346 422
#     4  11  24  42  74 107 141 178 234 291 355 420
#     4  10  23  40  64 106 140 179 221 285 353 413
#     4  11  24  42  75 109 141 180 233 291 357 417
#     4  12  28  48  70  97 141 193 244 284 340 424
#     4  10  24  39  71 105 141 176 226 291 361 409
#     4  11  25  44  68 101 142 182 232 291 350 413
#
# _framework density 23.619240000000001
#
# number of rings (size 3 to 8) (size 9 to 14) (size 15 to 20)
#    0.000    1.000    2.500    3.375   12.250    2.500 
#    2.250    2.500    0.000    0.000    0.000    0.000 
#    0.000    0.000    0.000    0.000    0.000    0.000 
#
# Total GULP energy -198313.032770 kJ/mol
# GULP energy per Si atom -12394.564548 kJ/mol
# Density = 2.356548 g / cm^3
# Si number density = 23.619240 Si / 1000 Ang^3
#
#
#
# Elastic Constant Matrix: (Units=GPa)
#
#
# Indices 1 2 3 4 5 6 
#
# 1 103.0379 9.3646 32.0152 13.4339 0.0602 10.8741
# 2 9.3646 79.6286 -0.4709 14.3221 8.9518 12.8145
# 3 32.0152 -0.4709 90.6245 11.4240 -8.9384 -4.7431
# 4 13.4339 14.3221 11.4240 36.3317 0.2552 1.3009
# 5 0.0602 8.9518 -8.9384 0.2552 36.0206 6.5069
# 6 10.8741 12.8145 -4.7431 1.3009 6.5069 32.3125
#
#
#
# Elastic Compliance Matrix: (Units=1/GPa)
#
#
# Indices 1 2 3 4 5 6 
#
# 1 0.011815 -0.000178 -0.004059 -0.002865 -0.000176 -0.004350
# 2 -0.000178 0.014688 0.000330 -0.005632 -0.002632 -0.004960
# 3 -0.004059 0.000330 0.013251 -0.002914 0.002738 0.002746
# 4 -0.002865 -0.005632 -0.002914 0.031666 0.000194 0.001456
# 5 -0.000176 -0.002632 0.002738 0.000194 0.029912 -0.004526
# 6 -0.004350 -0.004960 0.002746 0.001456 -0.004526 0.035635
#
#
# Mechanical properties :
#
#
# Convention : Reuss Voigt Hill
#
# Bulk Modulus (GPa) = 31.30811 39.45654 35.38233
# Shear Modulus (GPa) = 32.16909 36.42510 34.29709
#
# Velocity S-wave (km/s) = 3.69451 3.93132 3.81475
# Velocity P-wave (km/s) = 5.61100 6.11135 5.86651
#
# Compressibility (1/GPa) = 0.03194061
#
# Stress axis : x y z
#
# Youngs Moduli (GPa) = 84.63602 68.08150 75.46512
#
# Poissons Ratio (x) = 0.01213 0.30630
# Poissons Ratio (y) = 0.01509 -0.02491
# Poissons Ratio (z) = 0.34353 -0.02247
#
# Static dielectric constant tensor:
#      x y z
#    x 4.324170 0.204220 0.049750 
#    y 0.204220 4.097090 0.055550 
#    z 0.049750 0.055550 4.373480 
# 
# 
# High freq. dielectric constant tensor:
#      x y z
#    x 1.910620 0.011270 -0.020400 
#    y 0.011270 1.953590 0.009030 
#    z -0.020400 0.009030 1.945150 
# 
# From -- ./inp_files/516482.got.cif
#   From: 2010.06.25/outbox.cif.g09.slc.cpg/sg2_259_cif.got.tgz:516482.got - 2010.06.27 13:26:56.
