data_PCOD8022879
_publ_section_title
;
Structure prediction by ZEFSAII (Michael W. Deem and Ramdas Pophale) SiO2 
 PCOD8022879
Probable space group: P -1
;
_chemical_formula_sum "Si O2"
_cell_formula_units_Z 12
_cell_length_a 12.012599
_cell_length_b 9.249395
_cell_length_c 7.942265
_cell_angle_alpha 115.401903
_cell_angle_beta 69.252779
_cell_angle_gamma 132.531965
_cell_volume 584.671768
_symmetry_space_group_name_H-M "P -1"
_symmetry_group_IT_number 2
_symmetry_cell_setting 'triclinic'
loop_
_space_group_symop_operation_xyz
x,y,z
-x,-y,-z
loop_
_atom_site_type_symbol
_atom_site_label
_atom_site_fract_x
_atom_site_fract_y
_atom_site_fract_z
Si Si1 0.972146 0.335365 0.805171
Si Si2 0.231324 0.116417 0.249254
Si Si3 0.451993 0.279320 0.910569
Si Si4 0.299296 0.752759 0.307577
Si Si5 0.580252 0.813485 0.496310
Si Si6 0.239680 0.476627 0.494561
O O1 0.131161 0.428036 0.681309
O O2 0.842753 0.292424 0.732462
O O3 0.915545 0.120177 0.807919
O O4 0.000000 0.500000 0.000000
O O5 0.187626 0.266907 0.327641
O O6 0.303760 0.164658 0.421270
O O7 0.339797 0.145995 0.056707
O O8 0.602782 0.298347 0.869584
O O9 0.376061 0.190759 0.722961
O O10 0.500000 0.500000 0.000000
O O11 0.418491 0.993392 0.400711
O O12 0.228404 0.614217 0.441490
O O13 0.586424 0.392882 0.470820
#
# Coordination Sequence:
#
# PCOD8022879 Si02
#       6
#     2   2   2   2   2   2
#     4  11  27  40  61  91 126 169 207 250 308 371
#     4  11  24  42  65  93 126 164 203 261 306 368
#     4  11  21  38  68  99 120 153 215 256 310 360
#     4  10  23  42  64  91 124 164 202 262 307 363
#     4  10  23  39  68  95 124 161 201 264 309 358
#     4  11  21  43  63  89 128 163 204 249 315 368
#
# _framework density 20.524336000000002
#
# number of rings (size 3 to 8) (size 9 to 14) (size 15 to 20)
#    0.000    1.333    3.333    3.500    7.000    1.333 
#    0.000    0.833    0.000    0.000    0.000    0.000 
#    0.000    0.000    0.000    0.000    0.000    0.000 
#
# Total GULP energy -148748.700288 kJ/mol
# GULP energy per Si atom -12395.725024 kJ/mol
# Density = 2.047762 g / cm^3
# Si number density = 20.524336 Si / 1000 Ang^3
#
#
#
# Elastic Constant Matrix: (Units=GPa)
#
#
# Indices 1 2 3 4 5 6 
#
# 1 25.7397 12.9561 30.8830 -3.5015 -3.5948 -1.3294
# 2 12.9561 157.3394 47.6774 12.8314 -13.8224 -2.3398
# 3 30.8830 47.6774 106.7416 1.2968 -10.8051 9.2633
# 4 -3.5015 12.8314 1.2968 46.7164 -2.7401 -4.8036
# 5 -3.5948 -13.8224 -10.8051 -2.7401 32.6654 2.5432
# 6 -1.3294 -2.3398 9.2633 -4.8036 2.5432 25.5654
#
#
#
# Elastic Compliance Matrix: (Units=1/GPa)
#
#
# Indices 1 2 3 4 5 6 
#
# 1 0.063806 0.000389 -0.019694 0.006440 0.000303 0.011670
# 2 0.000389 0.007704 -0.003468 -0.001728 0.001896 0.001469
# 3 -0.019694 -0.003468 0.017632 -0.001710 0.002702 -0.008320
# 4 0.006440 -0.001728 -0.001710 0.022982 0.000949 0.005020
# 5 0.000303 0.001896 0.002702 0.000949 0.032724 -0.003867
# 6 0.011670 0.001469 -0.008320 0.005020 -0.003867 0.044199
#
#
# Mechanical properties :
#
#
# Convention : Reuss Voigt Hill
#
# Bulk Modulus (GPa) = 22.93888 52.53930 37.73909
# Shear Modulus (GPa) = 20.07019 34.20971 27.13995
#
# Velocity S-wave (km/s) = 3.13049 4.08706 3.64033
# Velocity P-wave (km/s) = 4.92619 6.92287 6.00806
#
# Compressibility (1/GPa) = 0.04359411
#
# Stress axis : x y z
#
# Youngs Moduli (GPa) = 15.67259 129.80359 56.71544
#
# Poissons Ratio (x) = -0.05047 1.11698
# Poissons Ratio (y) = -0.00609 0.19669
# Poissons Ratio (z) = 0.30866 0.45016
#
# Static dielectric constant tensor:
#      x y z
#    x 3.488890 -0.140830 -0.349900 
#    y -0.140830 4.141970 -0.372600 
#    z -0.349900 -0.372600 2.856450 
# 
# 
# High freq. dielectric constant tensor:
#      x y z
#    x 1.787000 -0.013360 -0.009470 
#    y -0.013360 1.828680 0.006670 
#    z -0.009470 0.006670 1.803630 
# 
# From -- ./inp_files/293177.got.cif
#   From: 2010.06.25/outbox.cif.g09.slc.cpg/sg2_147_cif.got.tgz:293177.got - 2010.06.27 13:26:56.
