data_PCOD8022265
_publ_section_title
;
Structure prediction by ZEFSAII (Michael W. Deem and Ramdas Pophale) SiO2 
 PCOD8022265
Probable space group: P -1
;
_chemical_formula_sum "Si O2"
_cell_formula_units_Z 12
_cell_length_a 8.945152
_cell_length_b 12.586905
_cell_length_c 12.287238
_cell_angle_alpha 35.482189
_cell_angle_beta 41.168730
_cell_angle_gamma 55.687653
_cell_volume 524.195808
_symmetry_space_group_name_H-M "P -1"
_symmetry_group_IT_number 2
_symmetry_cell_setting 'triclinic'
loop_
_space_group_symop_operation_xyz
x,y,z
-x,-y,-z
loop_
_atom_site_type_symbol
_atom_site_label
_atom_site_fract_x
_atom_site_fract_y
_atom_site_fract_z
Si Si1 0.388280 0.368253 0.764776
Si Si2 0.874840 0.913309 0.534167
Si Si3 0.390853 0.448979 0.932704
Si Si4 0.139155 0.656806 0.189589
Si Si5 0.874040 0.227768 0.119869
Si Si6 0.853046 0.287535 0.623214
O O1 0.500000 0.500000 0.500000
O O2 0.579119 0.236400 0.800490
O O3 0.344716 0.481268 0.803686
O O4 0.148333 0.251191 0.964133
O O5 0.682418 0.758912 0.811798
O O6 0.039144 0.829707 0.428586
O O7 0.763908 0.069753 0.395142
O O8 0.000000 0.000000 0.500000
O O9 0.659401 0.474961 0.793136
O O10 0.242916 0.586917 0.957301
O O11 0.086941 0.759953 0.244562
O O12 0.927260 0.509289 0.385762
O O13 0.180903 0.816062 0.941110
#
# Coordination Sequence:
#
# PCOD8022265 Si02
#       6
#     2   2   2   2   2   2
#     4  11  21  39  69  96 128 181 219 270 324 391
#     4  12  26  43  67 103 135 174 220 279 329 391
#     4  11  24  45  66  98 140 169 226 274 327 397
#     4  10  22  45  69  96 132 184 212 276 332 387
#     4  12  24  41  72  99 132 178 221 267 339 392
#     4  10  23  43  67  95 140 168 225 272 328 393
#
# _framework density 22.892209999999999
#
# number of rings (size 3 to 8) (size 9 to 14) (size 15 to 20)
#    0.000    1.000    5.000    1.000    2.333    2.000 
#    0.000    0.000    0.000    0.000    0.000    0.000 
#    0.000    0.000    0.000    0.000    0.000    0.000 
#
# Total GULP energy -148681.995448 kJ/mol
# GULP energy per Si atom -12390.166287 kJ/mol
# Density = 2.284011 g / cm^3
# Si number density = 22.892210 Si / 1000 Ang^3
#
#
#
# Elastic Constant Matrix: (Units=GPa)
#
#
# Indices 1 2 3 4 5 6 
#
# 1 106.1108 51.3496 31.9560 13.7953 32.4622 19.4540
# 2 51.3496 91.0469 29.7636 16.2792 4.7369 23.5450
# 3 31.9560 29.7636 103.1903 6.6002 33.0001 6.3098
# 4 13.7953 16.2792 6.6002 33.4301 -2.8772 8.5593
# 5 32.4622 4.7369 33.0001 -2.8772 57.4760 17.4236
# 6 19.4540 23.5450 6.3098 8.5593 17.4236 32.8953
#
#
#
# Elastic Compliance Matrix: (Units=1/GPa)
#
#
# Indices 1 2 3 4 5 6 
#
# 1 0.016812 -0.009277 0.000880 -0.004299 -0.010410 0.003161
# 2 -0.009277 0.021474 -0.005988 -0.000763 0.011267 -0.014504
# 3 0.000880 -0.005988 0.014283 -0.003089 -0.010619 0.007454
# 4 -0.004299 -0.000763 -0.003089 0.036202 0.009312 -0.010670
# 5 -0.010410 0.011267 -0.010619 0.009312 0.035271 -0.020976
# 6 0.003161 -0.014504 0.007454 -0.010670 -0.020976 0.051369
#
#
# Mechanical properties :
#
#
# Convention : Reuss Voigt Hill
#
# Bulk Modulus (GPa) = 42.01783 58.49851 50.25817
# Shear Modulus (GPa) = 23.57207 37.24554 30.40880
#
# Velocity S-wave (km/s) = 3.21237 4.03798 3.64860
# Velocity P-wave (km/s) = 5.67041 6.88112 6.30489
#
# Compressibility (1/GPa) = 0.02379942
#
# Stress axis : x y z
#
# Youngs Moduli (GPa) = 59.47975 46.56752 70.01242
#
# Poissons Ratio (x) = 0.43200 -0.06161
# Poissons Ratio (y) = 0.55178 0.41926
# Poissons Ratio (z) = -0.05234 0.27886
#
# Static dielectric constant tensor:
#      x y z
#    x 4.563330 0.155940 0.157500 
#    y 0.155940 3.854870 0.314070 
#    z 0.157500 0.314070 4.397130 
# 
# 
# High freq. dielectric constant tensor:
#      x y z
#    x 1.923370 0.014280 0.013920 
#    y 0.014280 1.877930 0.034070 
#    z 0.013920 0.034070 1.905300 
# 
# From -- ./inp_files/189101.got.cif
#   From: 2010.06.25/outbox.cif.g09.slc.cpg/sg2_95_cif.got.tgz:189101.got - 2010.06.27 13:26:56.
