data_PCOD8022318
_publ_section_title
;
Structure prediction by ZEFSAII (Michael W. Deem and Ramdas Pophale) SiO2 
 PCOD8022318
Probable space group: P -1
;
_chemical_formula_sum "Si O2"
_cell_formula_units_Z 12
_cell_length_a 7.759155
_cell_length_b 14.477432
_cell_length_c 15.215366
_cell_angle_alpha 26.695629
_cell_angle_beta 140.659127
_cell_angle_gamma 125.668860
_cell_volume 450.513164
_symmetry_space_group_name_H-M "P -1"
_symmetry_group_IT_number 2
_symmetry_cell_setting 'triclinic'
loop_
_space_group_symop_operation_xyz
x,y,z
-x,-y,-z
loop_
_atom_site_type_symbol
_atom_site_label
_atom_site_fract_x
_atom_site_fract_y
_atom_site_fract_z
Si Si1 0.032290 0.610030 0.554446
Si Si2 0.735840 0.829649 0.076973
Si Si3 0.624291 0.698161 0.478409
Si Si4 0.786924 0.267969 0.990625
Si Si5 0.670032 0.070578 0.581916
Si Si6 0.112704 0.189761 0.359854
O O1 0.169830 0.343399 0.820156
O O2 0.278664 0.699068 0.613552
O O3 0.951408 0.738690 0.320587
O O4 0.746959 0.666955 0.454451
O O5 0.397394 0.874587 0.929758
O O6 0.685417 0.087172 0.816258
O O7 0.554947 0.487770 0.664757
O O8 0.906247 0.675608 0.671843
O O9 0.943969 0.323571 0.092800
O O10 0.011588 0.130328 0.120358
O O11 0.470008 0.091325 0.570992
O O12 0.500000 0.000000 0.500000
O O13 0.000000 0.000000 0.500000
#
# Coordination Sequence:
#
# PCOD8022318 Si02
#       6
#     2   2   2   2   2   2
#     4  11  25  48  74 103 148 189 240 299 351 428
#     4  11  25  49  71 106 148 188 243 292 354 429
#     4  12  24  42  74 104 143 196 230 299 357 419
#     4  11  24  43  71 106 145 185 241 293 355 430
#     4  10  22  45  71 105 139 190 240 290 358 425
#     4  11  22  44  70 100 145 184 240 297 349 420
#
# _framework density 26.636291
#
# number of rings (size 3 to 8) (size 9 to 14) (size 15 to 20)
#    0.000    1.000    3.333    3.000    2.333    2.000 
#    0.000    7.500    0.000    0.000    0.000    0.000 
#    0.000    0.000    0.000    0.000    0.000    0.000 
#
# Total GULP energy -148692.703560 kJ/mol
# GULP energy per Si atom -12391.058630 kJ/mol
# Density = 2.657567 g / cm^3
# Si number density = 26.636291 Si / 1000 Ang^3
#
#
#
# Elastic Constant Matrix: (Units=GPa)
#
#
# Indices 1 2 3 4 5 6 
#
# 1 44.3700 -16.3488 10.3103 -0.6729 17.4669 -33.1301
# 2 -16.3488 78.4986 9.2693 -9.2206 2.5443 -25.8549
# 3 10.3103 9.2693 144.0020 -30.5269 5.8591 -26.4105
# 4 -0.6729 -9.2206 -30.5269 34.0565 -3.1532 10.6108
# 5 17.4669 2.5443 5.8591 -3.1532 37.8218 4.1961
# 6 -33.1301 -25.8549 -26.4105 10.6108 4.1961 16.8277
#
#
#
# Elastic Compliance Matrix: (Units=1/GPa)
#
#
# Indices 1 2 3 4 5 6 
#
# 1 -0.002217 -0.008774 -0.003821 0.003133 0.005483 -0.027185
# 2 -0.008774 0.007246 -0.001345 0.005118 0.005629 -0.012882
# 3 -0.003821 -0.001345 0.008692 0.007853 0.001299 -0.001224
# 4 0.003133 0.005118 0.007853 0.036822 -0.000294 0.003211
# 5 0.005483 0.005629 0.001299 -0.000294 0.021494 0.016308
# 6 -0.027185 -0.012882 -0.001224 0.003211 0.016308 -0.021899
#
#
# Mechanical properties :
#
#
# Convention : Reuss Voigt Hill
#
# Bulk Modulus (GPa) = -70.62845 30.37024 -20.12911
# Shear Modulus (GPa) = 68.21367 35.31720 51.76543
#
# Velocity S-wave (km/s) = 5.06605 3.64525 4.41320
# Velocity P-wave (km/s) = 2.76522 5.39849 4.28895
#
# Compressibility (1/GPa) = -0.01415860
#
# Stress axis : x y z
#
# Youngs Moduli (GPa) = -451.12728 137.99863 115.04811
#
# Poissons Ratio (x) = 1.21080 0.43963
# Poissons Ratio (y) = -3.95820 0.15473
# Poissons Ratio (z) = -1.72388 0.18560
#
# Static dielectric constant tensor:
#      x y z
#    x 5.563450 -0.335010 0.139710 
#    y -0.335010 5.196430 -0.178180 
#    z 0.139710 -0.178180 4.564300 
# 
# 
# High freq. dielectric constant tensor:
#      x y z
#    x 2.067070 -0.001300 -0.001090 
#    y -0.001300 2.087600 -0.009510 
#    z -0.001090 -0.009510 2.052140 
# 
# From -- ./inp_files/505139.got.cif
#   From: 2010.06.25/outbox.cif.g09.slc.cpg/sg2_253_cif.got.tgz:505139.got - 2010.06.27 13:26:56.
