data_PCOD8022938
_publ_section_title
;
Structure prediction by ZEFSAII (Michael W. Deem and Ramdas Pophale) SiO2 
 PCOD8022938
Probable space group: P -1
;
_chemical_formula_sum "Si O2"
_cell_formula_units_Z 16
_cell_length_a 17.029851
_cell_length_b 8.124275
_cell_length_c 16.496835
_cell_angle_alpha 75.746975
_cell_angle_beta 153.623564
_cell_angle_gamma 86.691253
_cell_volume 749.954700
_symmetry_space_group_name_H-M "P -1"
_symmetry_group_IT_number 2
_symmetry_cell_setting 'triclinic'
loop_
_space_group_symop_operation_xyz
x,y,z
-x,-y,-z
loop_
_atom_site_type_symbol
_atom_site_label
_atom_site_fract_x
_atom_site_fract_y
_atom_site_fract_z
Si Si1 0.726910 0.569750 0.995889
Si Si2 0.771754 0.354017 0.679276
Si Si3 0.499777 0.756971 0.485963
Si Si4 0.999904 0.077436 0.344941
Si Si5 0.485157 0.772364 0.080496
Si Si6 0.514980 0.132384 0.110271
Si Si7 0.727150 0.338601 0.458242
Si Si8 0.771518 0.761437 0.864086
O O1 0.932706 0.304528 0.221702
O O2 0.665593 0.679985 0.014710
O O3 0.499822 0.630830 0.738472
O O4 0.807876 0.667838 0.999422
O O5 0.559745 0.600147 0.484716
O O6 0.715874 0.193559 0.670574
O O7 0.808117 0.359164 0.616686
O O8 0.000040 0.277727 0.945216
O O9 0.715138 0.648349 0.760653
O O10 0.440134 0.974870 0.365098
O O11 0.223390 0.962538 0.622881
O O12 0.066987 0.906548 0.355929
O O13 0.776540 0.137734 0.176011
O O14 0.665683 0.529131 0.316667
O O15 0.500181 0.937801 0.124527
O O16 0.569392 0.749055 0.069422
#
# Coordination Sequence:
#
# PCOD8022938 Si02
#       8
#     2   2   2   2   2   2   2   2
#     4  10  23  41  62  93 126 162 205 253 300 364
#     4  11  23  41  65  92 120 162 200 247 310 364
#     4  10  24  44  62  90 126 152 202 258 300 364
#     4  10  23  40  62  88 126 170 202 248 306 354
#     4  10  23  41  63  92 124 161 208 254 300 359
#     4  10  23  41  63  92 124 161 208 254 300 359
#     4  10  23  41  62  93 126 162 205 253 300 364
#     4  11  23  41  65  92 120 162 200 247 310 364
#
# _framework density 21.334620999999999
#
# number of rings (size 3 to 8) (size 9 to 14) (size 15 to 20)
#    0.000    1.750    1.250    1.125    5.250    7.500 
#    2.250    2.500    0.000    0.000    0.000    0.000 
#    0.000    0.000    0.000    0.000    0.000    0.000 
#
# Total GULP energy -198407.718028 kJ/mol
# GULP energy per Si atom -12400.482377 kJ/mol
# Density = 2.128606 g / cm^3
# Si number density = 21.334621 Si / 1000 Ang^3
#
#
#
# Elastic Constant Matrix: (Units=GPa)
#
#
# Indices 1 2 3 4 5 6 
#
# 1 99.9719 65.2298 46.0499 -11.6386 -20.8618 -5.2342
# 2 65.2298 133.9092 46.8948 -6.6493 -8.4400 -2.3785
# 3 46.0499 46.8948 65.1914 -2.6192 4.6590 0.0362
# 4 -11.6386 -6.6493 -2.6192 46.4378 5.9565 7.3908
# 5 -20.8618 -8.4400 4.6590 5.9565 16.6890 1.4349
# 6 -5.2342 -2.3785 0.0362 7.3908 1.4349 31.1876
#
#
#
# Elastic Compliance Matrix: (Units=1/GPa)
#
#
# Indices 1 2 3 4 5 6 
#
# 1 0.034309 -0.005450 -0.023636 0.000014 0.046448 0.003230
# 2 -0.005450 0.011781 -0.004656 0.000006 0.000446 -0.000033
# 3 -0.023636 -0.004656 0.038518 0.001531 -0.042963 -0.002753
# 4 0.000014 0.000006 0.001531 0.023523 -0.008357 -0.005189
# 5 0.046448 0.000446 -0.042963 -0.008357 0.132861 0.003747
# 6 0.003230 -0.000033 -0.002753 -0.005189 0.003747 0.033664
#
#
# Mechanical properties :
#
#
# Convention : Reuss Voigt Hill
#
# Bulk Modulus (GPa) = 58.39619 68.38016 63.38817
# Shear Modulus (GPa) = 14.37408 28.25608 21.31508
#
# Velocity S-wave (km/s) = 2.59847 3.64321 3.16426
# Velocity P-wave (km/s) = 6.03604 7.05820 6.56704
#
# Compressibility (1/GPa) = 0.01712441
#
# Stress axis : x y z
#
# Youngs Moduli (GPa) = 29.14655 84.88215 25.96168
#
# Poissons Ratio (x) = 0.46261 0.61362
# Poissons Ratio (y) = 0.15885 0.12089
# Poissons Ratio (z) = 0.68890 0.39524
#
# Static dielectric constant tensor:
#      x y z
#    x 3.608820 0.064110 0.050260 
#    y 0.064110 4.037520 0.138540 
#    z 0.050260 0.138540 3.706530 
# 
# 
# High freq. dielectric constant tensor:
#      x y z
#    x 1.830320 0.004530 0.000120 
#    y 0.004530 1.851430 0.010340 
#    z 0.000120 0.010340 1.829740 
# 
# From -- ./inp_files/340550.got.cif
#   From: 2010.06.25/outbox.cif.g09.slc.cpg/sg2_171_cif.got.tgz:340550.got - 2010.06.27 13:26:56.
