data_PCOD8022336
_publ_section_title
;
Structure prediction by ZEFSAII (Michael W. Deem and Ramdas Pophale) SiO2 
 PCOD8022336
Probable space group: P -1
;
_chemical_formula_sum "Si O2"
_cell_formula_units_Z 12
_cell_length_a 10.943720
_cell_length_b 11.941217
_cell_length_c 15.491135
_cell_angle_alpha 29.282418
_cell_angle_beta 32.109738
_cell_angle_gamma 39.680811
_cell_volume 522.604626
_symmetry_space_group_name_H-M "P -1"
_symmetry_group_IT_number 2
_symmetry_cell_setting 'triclinic'
loop_
_space_group_symop_operation_xyz
x,y,z
-x,-y,-z
loop_
_atom_site_type_symbol
_atom_site_label
_atom_site_fract_x
_atom_site_fract_y
_atom_site_fract_z
Si Si1 0.191315 0.852736 0.323529
Si Si2 0.114096 0.368294 0.707652
Si Si3 0.616164 0.489998 0.694311
Si Si4 0.361404 0.683929 0.018060
Si Si5 0.560472 0.119907 0.669265
Si Si6 0.150413 0.707697 0.768717
O O1 0.051802 0.642240 0.581002
O O2 0.366816 0.751380 0.209746
O O3 0.339414 0.938001 0.256889
O O4 0.006614 0.061367 0.260416
O O5 0.227196 0.338722 0.563389
O O6 0.308456 0.270110 0.727082
O O7 0.885068 0.236585 0.935446
O O8 0.707309 0.434501 0.772493
O O9 0.358793 0.625961 0.764438
O O10 0.500000 0.500000 0.000000
O O11 0.517806 0.886530 0.802848
O O12 0.742153 0.250820 0.417997
O O13 0.000000 0.500000 0.000000
#
# Coordination Sequence:
#
# PCOD8022336 Si02
#       6
#     2   2   2   2   2   2
#     4  10  22  45  71  97 140 169 224 282 335 393
#     4   9  22  44  69  98 133 183 218 273 341 399
#     4   9  24  45  67 100 136 175 227 270 341 396
#     4  12  24  44  68  99 139 179 228 276 334 403
#     4  11  23  43  68 104 136 173 232 275 337 402
#     4  11  23  40  65 103 136 177 217 277 340 397
#
# _framework density 22.96191
#
# number of rings (size 3 to 8) (size 9 to 14) (size 15 to 20)
#    1.000    0.667    0.000    4.000    0.000    4.000 
#    6.000    2.500    0.000    0.000    0.000    0.000 
#    0.000    0.000    0.000    0.000    0.000    0.000 
#
# Total GULP energy -148698.366301 kJ/mol
# GULP energy per Si atom -12391.530525 kJ/mol
# Density = 2.290965 g / cm^3
# Si number density = 22.961910 Si / 1000 Ang^3
#
#
#
# Elastic Constant Matrix: (Units=GPa)
#
#
# Indices 1 2 3 4 5 6 
#
# 1 74.0624 60.4461 36.8732 5.4321 -19.1283 -13.6566
# 2 60.4461 156.3581 34.2947 -11.5801 -11.0010 -22.1919
# 3 36.8732 34.2947 80.1782 7.9261 -22.6566 6.2939
# 4 5.4321 -11.5801 7.9261 34.0676 -3.7391 -5.3237
# 5 -19.1283 -11.0010 -22.6566 -3.7391 27.2629 -1.7540
# 6 -13.6566 -22.1919 6.2939 -5.3237 -1.7540 39.5626
#
#
#
# Elastic Compliance Matrix: (Units=1/GPa)
#
#
# Indices 1 2 3 4 5 6 
#
# 1 0.027003 -0.007719 -0.006277 -0.003374 0.010539 0.006003
# 2 -0.007719 0.010921 -0.002677 0.006055 -0.002107 0.004609
# 3 -0.006277 -0.002677 0.020466 -0.004633 0.010433 -0.007085
# 4 -0.003374 0.006055 -0.004633 0.034382 0.001434 0.007659
# 5 0.010539 -0.002107 0.010433 0.001434 0.052304 0.003308
# 6 0.006003 0.004609 -0.007085 0.007659 0.003308 0.032238
#
#
# Mechanical properties :
#
#
# Convention : Reuss Voigt Hill
#
# Bulk Modulus (GPa) = 39.92771 63.75852 51.84312
# Shear Modulus (GPa) = 22.83032 32.11093 27.47062
#
# Velocity S-wave (km/s) = 3.15662 3.74363 3.46259
# Velocity P-wave (km/s) = 5.54185 6.82010 6.21393
#
# Compressibility (1/GPa) = 0.02504526
#
# Stress axis : x y z
#
# Youngs Moduli (GPa) = 37.03302 91.56611 48.86120
#
# Poissons Ratio (x) = 0.70678 0.30668
# Poissons Ratio (y) = 0.28585 0.13081
# Poissons Ratio (z) = 0.23244 0.24514
#
# Static dielectric constant tensor:
#      x y z
#    x 4.097650 -0.393150 -0.089380 
#    y -0.393150 4.157530 0.039230 
#    z -0.089380 0.039230 4.116670 
# 
# 
# High freq. dielectric constant tensor:
#      x y z
#    x 1.894250 -0.022000 -0.005020 
#    y -0.022000 1.904090 -0.000270 
#    z -0.005020 -0.000270 1.901320 
# 
# From -- ./inp_files/567721.got.cif
#   From: 2010.06.25/outbox.cif.g09.slc.cpg/sg2_284_cif.got.tgz:567721.got - 2010.06.27 13:26:56.
