data_PCOD8022219
_publ_section_title
;
Structure prediction by ZEFSAII (Michael W. Deem and Ramdas Pophale) SiO2 
 PCOD8022219
Probable space group: P -1
;
_chemical_formula_sum "Si O2"
_cell_formula_units_Z 10
_cell_length_a 11.057303
_cell_length_b 8.154052
_cell_length_c 7.495045
_cell_angle_alpha 122.309860
_cell_angle_beta 124.439972
_cell_angle_gamma 89.869778
_cell_volume 425.165711
_symmetry_space_group_name_H-M "P -1"
_symmetry_group_IT_number 2
_symmetry_cell_setting 'triclinic'
loop_
_space_group_symop_operation_xyz
x,y,z
-x,-y,-z
loop_
_atom_site_type_symbol
_atom_site_label
_atom_site_fract_x
_atom_site_fract_y
_atom_site_fract_z
Si Si1 0.116181 0.317553 0.165251
Si Si2 0.217896 0.121916 0.826074
Si Si3 0.803416 0.937681 0.620362
Si Si4 0.159996 0.672220 0.641898
Si Si5 0.496090 0.720173 0.068881
O O1 0.164014 0.568722 0.389804
O O2 0.195427 0.241756 0.348593
O O3 0.186318 0.294109 0.019189
O O4 0.920004 0.175947 0.926217
O O5 0.413275 0.211239 0.009192
O O6 0.130792 0.093494 0.541612
O O7 0.152075 0.897624 0.747385
O O8 0.615743 0.900047 0.416250
O O9 0.000000 0.500000 0.500000
O O10 0.318405 0.709696 0.912995
O O11 0.500000 0.500000 0.000000
#
# Coordination Sequence:
#
# PCOD8022219 Si02
#       5
#     2   2   2   2   2
#     4  11  21  43  70  97 130 182 217 268 338 392
#     4  10  24  42  69  97 136 171 221 277 325 393
#     4   9  21  40  66  96 136 171 217 271 328 390
#     4  12  24  42  71 100 134 174 223 275 329 393
#     4  10  22  45  68  95 139 177 212 281 331 382
#
# _framework density 23.520243000000001
#
# number of rings (size 3 to 8) (size 9 to 14) (size 15 to 20)
#    1.200    0.400    2.000    3.600    0.000    1.600 
#    0.000    8.000    0.000    0.000    0.000    0.000 
#    0.000    0.000    0.000    0.000    0.000    0.000 
#
# Total GULP energy -123890.363791 kJ/mol
# GULP energy per Si atom -12389.036379 kJ/mol
# Density = 2.346671 g / cm^3
# Si number density = 23.520243 Si / 1000 Ang^3
#
#
#
# Elastic Constant Matrix: (Units=GPa)
#
#
# Indices 1 2 3 4 5 6 
#
# 1 71.4564 25.0653 35.9046 -5.5552 20.8475 3.0615
# 2 25.0653 51.2831 11.2209 -2.7907 6.5023 9.6600
# 3 35.9046 11.2209 132.4918 -21.4847 19.7305 -16.2645
# 4 -5.5552 -2.7907 -21.4847 35.6643 -2.9087 0.9556
# 5 20.8475 6.5023 19.7305 -2.9087 51.7948 -1.2094
# 6 3.0615 9.6600 -16.2645 0.9556 -1.2094 35.9216
#
#
#
# Elastic Compliance Matrix: (Units=1/GPa)
#
#
# Indices 1 2 3 4 5 6 
#
# 1 0.020766 -0.008165 -0.004369 -0.000458 -0.005735 -0.001733
# 2 -0.008165 0.024794 -0.000620 0.000486 0.000291 -0.006255
# 3 -0.004369 -0.000620 0.010539 0.005340 -0.001759 0.005110
# 4 -0.000458 0.000486 0.005340 0.031172 -0.000126 0.001492
# 5 -0.005735 0.000291 -0.001759 -0.000126 0.022251 0.000366
# 6 -0.001733 -0.006255 0.005110 0.001492 0.000366 0.031954
#
#
# Mechanical properties :
#
#
# Convention : Reuss Voigt Hill
#
# Bulk Modulus (GPa) = 33.56586 44.40141 38.98363
# Shear Modulus (GPa) = 28.13527 36.87884 32.50705
#
# Velocity S-wave (km/s) = 3.46239 3.96405 3.72168
# Velocity P-wave (km/s) = 5.50329 6.31431 5.92270
#
# Compressibility (1/GPa) = 0.02979218
#
# Stress axis : x y z
#
# Youngs Moduli (GPa) = 48.15637 40.33287 94.88460
#
# Poissons Ratio (x) = 0.32931 0.41453
# Poissons Ratio (y) = 0.39319 0.05878
# Poissons Ratio (z) = 0.21038 0.02499
#
# Static dielectric constant tensor:
#      x y z
#    x 4.118300 0.115100 0.123110 
#    y 0.115100 3.874760 0.027600 
#    z 0.123110 0.027600 4.849880 
# 
# 
# High freq. dielectric constant tensor:
#      x y z
#    x 1.915300 0.012560 0.015290 
#    y 0.012560 1.907220 -0.004390 
#    z 0.015290 -0.004390 1.948740 
# 
# From -- ./inp_files/144288.got.cif
#   From: 2010.06.25/outbox.cif.g09.slc.cpg/sg2_73_cif.got.tgz:144288.got - 2010.06.27 13:26:56.
