data_PCOD8022006
_publ_section_title
;
Structure prediction by ZEFSAII (Michael W. Deem and Ramdas Pophale) SiO2 
 PCOD8022006
Probable space group: P -1
;
_chemical_formula_sum "Si O2"
_cell_formula_units_Z 16
_cell_length_a 18.283454
_cell_length_b 8.149550
_cell_length_c 6.705627
_cell_angle_alpha 59.285650
_cell_angle_beta 51.173459
_cell_angle_gamma 72.563936
_cell_volume 668.881635
_symmetry_space_group_name_H-M "P -1"
_symmetry_group_IT_number 2
_symmetry_cell_setting 'triclinic'
loop_
_space_group_symop_operation_xyz
x,y,z
-x,-y,-z
loop_
_atom_site_type_symbol
_atom_site_label
_atom_site_fract_x
_atom_site_fract_y
_atom_site_fract_z
Si Si1 0.865757 0.749670 0.505775
Si Si2 0.097425 0.535109 0.704400
Si Si3 0.607437 0.687545 0.230458
Si Si4 0.391362 0.960261 0.757529
Si Si5 0.443419 0.561448 0.868204
Si Si6 0.952511 0.117258 0.680383
Si Si7 0.230427 0.962487 0.735559
Si Si8 0.222992 0.543453 0.851826
O O1 0.868572 0.652232 0.346117
O O2 0.969276 0.838927 0.313219
O O3 0.786197 0.911472 0.515486
O O4 0.839664 0.605453 0.818248
O O5 0.089797 0.692171 0.450911
O O6 0.173629 0.597902 0.698202
O O7 0.000000 0.500000 0.000000
O O8 0.507016 0.649993 0.527792
O O9 0.609411 0.623467 0.031245
O O10 0.680018 0.555707 0.304346
O O11 0.632443 0.914853 0.079918
O O12 0.374653 0.730127 0.955281
O O13 0.323306 0.034444 0.652096
O O14 0.500000 0.000000 0.500000
O O15 0.500000 0.500000 0.000000
O O16 0.864414 0.002092 0.997254
O O17 0.000000 0.000000 0.500000
O O18 0.242931 0.740020 0.810086
#
# Coordination Sequence:
#
# PCOD8022006 Si02
#       8
#     2   2   2   2   2   2   2   2
#     4  12  26  46  69 101 145 186 236 298 359 423
#     4  12  23  43  71  96 139 187 230 294 356 420
#     4  10  23  43  69  99 141 181 229 292 356 426
#     4  10  23  45  71 100 141 182 232 298 355 423
#     4  10  22  44  72 101 137 179 233 295 356 426
#     4  12  25  44  70 103 142 190 241 293 360 428
#     4  12  25  46  72 103 145 186 242 300 355 433
#     4  12  25  45  71 105 142 187 239 290 360 433
#
# _framework density 23.920525000000001
#
# number of rings (size 3 to 8) (size 9 to 14) (size 15 to 20)
#    0.000    0.750    3.750    3.750    1.750    4.500 
#    2.250    0.000    0.000    0.000    0.000    0.000 
#    0.000    0.000    0.000    0.000    0.000    0.000 
#
# Total GULP energy -198341.046680 kJ/mol
# GULP energy per Si atom -12396.315417 kJ/mol
# Density = 2.386608 g / cm^3
# Si number density = 23.920525 Si / 1000 Ang^3
#
#
#
# Elastic Constant Matrix: (Units=GPa)
#
#
# Indices 1 2 3 4 5 6 
#
# 1 181.5528 54.4927 14.5267 -4.4700 20.4115 3.5097
# 2 54.4927 187.4048 20.5958 6.8911 18.8349 10.8323
# 3 14.5267 20.5958 30.2644 -3.4752 8.4027 4.2548
# 4 -4.4700 6.8911 -3.4752 30.4272 -8.1271 8.6383
# 5 20.4115 18.8349 8.4027 -8.1271 38.4580 2.6223
# 6 3.5097 10.8323 4.2548 8.6383 2.6223 44.7102
#
#
#
# Elastic Compliance Matrix: (Units=1/GPa)
#
#
# Indices 1 2 3 4 5 6 
#
# 1 0.006325 -0.001487 -0.001350 0.000510 -0.002228 0.000024
# 2 -0.001487 0.006469 -0.003303 -0.002483 -0.002146 -0.000531
# 3 -0.001350 -0.003303 0.038275 0.004578 -0.004833 -0.003337
# 4 0.000510 -0.002483 0.004578 0.038552 0.008626 -0.007828
# 5 -0.002228 -0.002146 -0.004833 0.008626 0.031275 -0.002346
# 6 0.000024 -0.000531 -0.003337 -0.007828 -0.002346 0.024461
#
#
# Mechanical properties :
#
#
# Convention : Reuss Voigt Hill
#
# Bulk Modulus (GPa) = 25.78149 64.27247 45.02698
# Shear Modulus (GPa) = 29.31398 43.35955 36.33676
#
# Velocity S-wave (km/s) = 3.50447 4.26214 3.90174
# Velocity P-wave (km/s) = 5.21311 7.15183 6.25800
#
# Compressibility (1/GPa) = 0.03878752
#
# Stress axis : x y z
#
# Youngs Moduli (GPa) = 158.10451 154.58016 26.12661
#
# Poissons Ratio (x) = 0.22986 0.03528
# Poissons Ratio (y) = 0.23510 0.08631
# Poissons Ratio (z) = 0.21350 0.51065
#
# Static dielectric constant tensor:
#      x y z
#    x 3.904130 0.320290 -0.561290 
#    y 0.320290 5.215330 0.113400 
#    z -0.561290 0.113400 3.466250 
# 
# 
# High freq. dielectric constant tensor:
#      x y z
#    x 1.963320 -0.000980 0.003400 
#    y -0.000980 1.974000 0.003210 
#    z 0.003400 0.003210 1.916540 
# 
# From -- ./inp_files/106205.got.cif
#   From: 2010.06.25/outbox.cif.g09.slc.cpg/sg2_54_cif.got.tgz:106205.got - 2010.06.27 13:26:56.
