data_PCOD8022002
_publ_section_title
;
Structure prediction by ZEFSAII (Michael W. Deem and Ramdas Pophale) SiO2 
 PCOD8022002
Probable space group: P -1
;
_chemical_formula_sum "Si O2"
_cell_formula_units_Z 16
_cell_length_a 14.965222
_cell_length_b 9.922388
_cell_length_c 11.541090
_cell_angle_alpha 75.954915
_cell_angle_beta 86.121787
_cell_angle_gamma 27.454062
_cell_volume 723.468284
_symmetry_space_group_name_H-M "P -1"
_symmetry_group_IT_number 2
_symmetry_cell_setting 'triclinic'
loop_
_space_group_symop_operation_xyz
x,y,z
-x,-y,-z
loop_
_atom_site_type_symbol
_atom_site_label
_atom_site_fract_x
_atom_site_fract_y
_atom_site_fract_z
Si Si1 0.620899 0.907360 0.734375
Si Si2 0.959513 0.983235 0.883689
Si Si3 0.421045 0.766024 0.953735
Si Si4 0.368658 0.868416 0.483717
Si Si5 0.785238 0.211116 0.466390
Si Si6 0.353168 0.455806 0.804334
Si Si7 0.565819 0.685918 0.724325
Si Si8 0.013617 0.342982 0.958031
O O1 0.564199 0.854058 0.672828
O O2 0.793778 0.614231 0.868831
O O3 0.713316 0.896451 0.643103
O O4 0.424076 0.232494 0.758716
O O5 0.158374 0.691304 0.848332
O O6 0.786629 0.306321 0.757766
O O7 0.896970 0.910400 0.922077
O O8 0.000000 0.000000 0.000000
O O9 0.526606 0.706647 0.857399
O O10 0.176978 0.125896 0.883649
O O11 0.500000 0.500000 0.000000
O O12 0.463010 0.766563 0.078586
O O13 0.608233 0.513876 0.503282
O O14 0.207918 0.963742 0.467236
O O15 0.384920 0.886084 0.613948
O O16 0.703992 0.333599 0.315902
O O17 0.000000 0.000000 0.500000
O O18 0.000000 0.500000 0.000000
#
# Coordination Sequence:
#
# PCOD8022002 Si02
#       8
#     2   2   2   2   2   2   2   2
#     4  11  25  45  66  97 142 185 229 284 345 412
#     4  12  23  41  67  98 134 178 228 279 346 412
#     4  12  23  40  65 100 134 173 230 285 346 407
#     4  10  24  45  70  98 138 184 228 287 347 409
#     4  10  22  44  72 101 132 180 235 287 343 415
#     4  11  23  41  68  98 132 174 229 280 345 411
#     4  12  24  44  70  97 140 184 231 284 345 415
#     4  12  25  40  65 100 138 176 227 290 344 409
#
# _framework density 22.115691000000002
#
# number of rings (size 3 to 8) (size 9 to 14) (size 15 to 20)
#    0.000    0.750    5.000    1.875    1.750    3.000 
#    4.500    0.625    0.000    0.000    0.000    0.000 
#    0.000    0.000    0.000    0.000    0.000    0.000 
#
# Total GULP energy -198290.560983 kJ/mol
# GULP energy per Si atom -12393.160061 kJ/mol
# Density = 2.206535 g / cm^3
# Si number density = 22.115691 Si / 1000 Ang^3
#
#
#
# Elastic Constant Matrix: (Units=GPa)
#
#
# Indices 1 2 3 4 5 6 
#
# 1 144.4411 50.3790 29.4981 3.4439 -16.8667 12.9361
# 2 50.3790 114.5758 20.4559 -5.8361 -7.4334 -1.2803
# 3 29.4981 20.4559 93.5771 10.8984 -8.1471 6.1100
# 4 3.4439 -5.8361 10.8984 16.2823 6.1000 -4.2954
# 5 -16.8667 -7.4334 -8.1471 6.1000 31.5214 -2.4568
# 6 12.9361 -1.2803 6.1100 -4.2954 -2.4568 45.2628
#
#
#
# Elastic Compliance Matrix: (Units=1/GPa)
#
#
# Indices 1 2 3 4 5 6 
#
# 1 0.009435 -0.003995 -0.000874 -0.005378 0.004692 -0.002947
# 2 -0.003995 0.011231 -0.002361 0.007608 -0.001383 0.002425
# 3 -0.000874 -0.002361 0.013445 -0.012044 0.004585 -0.002526
# 4 -0.005378 0.007608 -0.012044 0.083358 -0.019531 0.010229
# 5 0.004692 -0.001383 0.004585 -0.019531 0.038737 -0.001750
# 6 -0.002947 0.002425 -0.002526 0.010229 -0.001750 0.024221
#
#
# Mechanical properties :
#
#
# Convention : Reuss Voigt Hill
#
# Bulk Modulus (GPa) = 50.88512 61.47336 56.17924
# Shear Modulus (GPa) = 24.82175 35.43070 30.12622
#
# Velocity S-wave (km/s) = 3.35380 4.00692 3.69482
# Velocity P-wave (km/s) = 6.16894 7.01882 6.60756
#
# Compressibility (1/GPa) = 0.01965211
#
# Stress axis : x y z
#
# Youngs Moduli (GPa) = 105.98653 89.04011 74.37920
#
# Poissons Ratio (x) = 0.35573 0.06498
# Poissons Ratio (y) = 0.42343 0.17557
# Poissons Ratio (z) = 0.09259 0.21018
#
# Static dielectric constant tensor:
#      x y z
#    x 3.957940 -0.023610 0.204210 
#    y -0.023610 4.108340 0.219240 
#    z 0.204210 0.219240 3.508350 
# 
# 
# High freq. dielectric constant tensor:
#      x y z
#    x 1.869490 0.002650 -0.008180 
#    y 0.002650 1.872380 0.004290 
#    z -0.008180 0.004290 1.870560 
# 
# From -- ./inp_files/447354.got.cif
#   From: 2010.06.25/outbox.cif.g09.slc.cpg/sg2_224_cif.got.tgz:447354.got - 2010.06.27 13:26:56.
