data_PCOD8022710
_publ_section_title
;
Structure prediction by ZEFSAII (Michael W. Deem and Ramdas Pophale) SiO2 
 PCOD8022710
Probable space group: P -1
;
_chemical_formula_sum "Si O2"
_cell_formula_units_Z 16
_cell_length_a 11.921603
_cell_length_b 26.699004
_cell_length_c 27.346128
_cell_angle_alpha 169.616336
_cell_angle_beta 152.010663
_cell_angle_gamma 28.664740
_cell_volume 732.201974
_symmetry_space_group_name_H-M "P -1"
_symmetry_group_IT_number 2
_symmetry_cell_setting 'triclinic'
loop_
_space_group_symop_operation_xyz
x,y,z
-x,-y,-z
loop_
_atom_site_type_symbol
_atom_site_label
_atom_site_fract_x
_atom_site_fract_y
_atom_site_fract_z
Si Si1 0.548003 0.630520 0.443801
Si Si2 0.947195 0.305927 0.464476
Si Si3 0.261970 0.766607 0.048701
Si Si4 0.113370 0.543414 0.251948
Si Si5 0.423114 0.226539 0.729495
Si Si6 0.719090 0.049374 0.218398
Si Si7 0.231934 0.247885 0.253162
Si Si8 0.701844 0.176695 0.988399
O O1 0.272279 0.573601 0.293501
O O2 0.702457 0.631735 0.553666
O O3 0.550737 0.922357 0.697492
O O4 0.664462 0.394879 0.226917
O O5 0.775874 0.129893 0.262297
O O6 0.794464 0.494220 0.547221
O O7 0.108730 0.063763 0.265599
O O8 0.105516 0.507081 0.751366
O O9 0.443355 0.830474 0.222585
O O10 0.390134 0.695668 0.977251
O O11 0.243170 0.673065 0.471123
O O12 0.858075 0.722011 0.317106
O O13 0.105796 0.217016 0.950229
O O14 0.500000 0.000000 0.500000
O O15 0.500000 0.500000 0.000000
O O16 0.437700 0.013568 0.085556
O O17 0.990102 0.096235 0.018829
#
# Coordination Sequence:
#
# PCOD8022710 Si02
#       8
#     2   2   2   2   2   2   2   2
#     4  11  23  41  62  87 122 165 209 259 302 348
#     4  11  22  39  60  90 131 165 198 252 311 369
#     4  11  24  41  62  93 123 159 209 254 305 371
#     4  11  24  41  62  93 123 159 208 252 304 371
#     4  12  24  42  70  96 122 158 198 250 311 372
#     4  11  22  39  60  90 131 165 197 250 310 369
#     4  10  23  38  62  94 122 166 215 250 298 370
#     4  11  23  41  62  87 122 165 209 259 302 348
#
# _framework density 21.851894999999999
#
# number of rings (size 3 to 8) (size 9 to 14) (size 15 to 20)
#    0.000    1.000    0.000    8.625    0.000    8.000 
#    0.000    7.500    0.000    0.000    0.000    0.000 
#    0.000    0.000    0.000    0.000    0.000    0.000 
#
# Total GULP energy -198320.287441 kJ/mol
# GULP energy per Si atom -12395.017965 kJ/mol
# Density = 2.180216 g / cm^3
# Si number density = 21.851895 Si / 1000 Ang^3
#
#
#
# Elastic Constant Matrix: (Units=GPa)
#
#
# Indices 1 2 3 4 5 6 
#
# 1 143.9383 62.9047 40.7846 -3.9701 1.4275 8.0078
# 2 62.9047 97.0802 21.9463 2.3576 -11.4045 -4.1504
# 3 40.7846 21.9463 108.1183 13.0640 -0.8308 4.4749
# 4 -3.9701 2.3576 13.0640 30.5679 0.8869 -3.2760
# 5 1.4275 -11.4045 -0.8308 0.8869 39.6816 -6.4917
# 6 8.0078 -4.1504 4.4749 -3.2760 -6.4917 40.8402
#
#
#
# Elastic Compliance Matrix: (Units=1/GPa)
#
#
# Indices 1 2 3 4 5 6 
#
# 1 0.011197 -0.007117 -0.003060 0.003097 -0.003043 -0.002819
# 2 -0.007117 0.015857 -0.000442 -0.001711 0.005462 0.003786
# 3 -0.003060 -0.000442 0.011174 -0.005258 0.000160 -0.001066
# 4 0.003097 -0.001711 -0.005258 0.035794 -0.001106 0.002490
# 5 -0.003043 0.005462 0.000160 -0.001106 0.027802 0.005465
# 6 -0.002819 0.003786 -0.001066 0.002490 0.005465 0.026608
#
#
# Mechanical properties :
#
#
# Convention : Reuss Voigt Hill
#
# Bulk Modulus (GPa) = 58.85805 66.71200 62.78502
# Shear Modulus (GPa) = 32.18874 37.11801 34.65337
#
# Velocity S-wave (km/s) = 3.84219 4.12590 3.98657
# Velocity P-wave (km/s) = 6.83203 7.30019 7.06999
#
# Compressibility (1/GPa) = 0.01699003
#
# Stress axis : x y z
#
# Youngs Moduli (GPa) = 89.30888 63.06305 89.49457
#
# Poissons Ratio (x) = 0.44880 0.27387
# Poissons Ratio (y) = 0.63558 0.03957
# Poissons Ratio (z) = 0.27330 0.02789
#
# Static dielectric constant tensor:
#      x y z
#    x 4.299310 -0.099720 -0.038380 
#    y -0.099720 3.259350 -0.031800 
#    z -0.038380 -0.031800 3.916360 
# 
# 
# High freq. dielectric constant tensor:
#      x y z
#    x 1.876480 -0.000030 -0.005020 
#    y -0.000030 1.831460 0.004390 
#    z -0.005020 0.004390 1.872640 
# 
# From -- ./inp_files/618876.got.cif
#   From: 2010.06.25/outbox.cif.g09.slc.cpg/sg2_310_cif.got.tgz:618876.got - 2010.06.27 13:26:56.
