data_PCOD8022502
_publ_section_title
;
Structure prediction by ZEFSAII (Michael W. Deem and Ramdas Pophale) SiO2 
 PCOD8022502
Probable space group: P -1
;
_chemical_formula_sum "Si O2"
_cell_formula_units_Z 16
_cell_length_a 6.497986
_cell_length_b 17.733389
_cell_length_c 9.113445
_cell_angle_alpha 57.111709
_cell_angle_beta 110.628215
_cell_angle_gamma 124.850859
_cell_volume 722.335028
_symmetry_space_group_name_H-M "P -1"
_symmetry_group_IT_number 2
_symmetry_cell_setting 'triclinic'
loop_
_space_group_symop_operation_xyz
x,y,z
-x,-y,-z
loop_
_atom_site_type_symbol
_atom_site_label
_atom_site_fract_x
_atom_site_fract_y
_atom_site_fract_z
Si Si1 0.904301 0.409230 0.876805
Si Si2 0.071976 0.910792 0.605138
Si Si3 0.266448 0.068871 0.921847
Si Si4 0.505855 0.959425 0.255180
Si Si5 0.261813 0.626185 0.801067
Si Si6 0.940594 0.225455 0.518642
Si Si7 0.806085 0.718913 0.932449
Si Si8 0.369420 0.289927 0.773999
O O1 0.665409 0.374583 0.743450
O O2 0.114134 0.525894 0.766152
O O3 0.798438 0.408011 0.011397
O O4 0.025633 0.335405 0.989630
O O5 0.003760 0.841737 0.514860
O O6 0.957945 0.837242 0.796520
O O7 0.374067 0.978524 0.629758
O O8 0.000000 0.000000 0.500000
O O9 0.286502 0.061337 0.757526
O O10 0.365533 0.183800 0.870824
O O11 0.462831 0.038480 0.066351
O O12 0.000000 0.000000 0.000000
O O13 0.253896 0.852860 0.329963
O O14 0.179112 0.710730 0.651828
O O15 0.560871 0.669618 0.815655
O O16 0.198928 0.300720 0.590570
O O17 0.740550 0.706915 0.099308
#
# Coordination Sequence:
#
# PCOD8022502 Si02
#       8
#     2   2   2   2   2   2   2   2
#     4  10  22  46  71  95 129 178 231 274 334 406
#     4  12  25  41  66  97 137 180 221 271 334 396
#     4  11  22  42  65  95 131 183 219 266 319 402
#     4  11  25  39  66  92 134 177 227 265 322 394
#     4  10  23  44  71  98 130 174 225 286 336 393
#     4  12  25  44  63 105 142 172 220 287 339 392
#     4  11  23  44  70  98 127 181 229 270 332 410
#     4  11  25  39  69  98 138 170 226 273 337 402
#
# _framework density 22.150388
#
# number of rings (size 3 to 8) (size 9 to 14) (size 15 to 20)
#    0.000    1.000    2.500    3.750    7.000    0.500 
#    0.000    0.625    0.000    0.000    0.000    0.000 
#    0.000    0.000    0.000    0.000    0.000    0.000 
#
# Total GULP energy -198269.370344 kJ/mol
# GULP energy per Si atom -12391.835646 kJ/mol
# Density = 2.209997 g / cm^3
# Si number density = 22.150388 Si / 1000 Ang^3
#
#
#
# Elastic Constant Matrix: (Units=GPa)
#
#
# Indices 1 2 3 4 5 6 
#
# 1 97.7850 34.6968 20.0955 15.8125 11.6072 8.7015
# 2 34.6968 115.4983 22.5254 17.4928 12.5498 16.4682
# 3 20.0955 22.5254 55.7694 12.0092 12.8456 5.1615
# 4 15.8125 17.4928 12.0092 38.0864 2.1461 13.5902
# 5 11.6072 12.5498 12.8456 2.1461 31.5702 7.4122
# 6 8.7015 16.4682 5.1615 13.5902 7.4122 34.8033
#
#
#
# Elastic Compliance Matrix: (Units=1/GPa)
#
#
# Indices 1 2 3 4 5 6 
#
# 1 0.012380 -0.002570 -0.002181 -0.003213 -0.002477 0.000227
# 2 -0.002570 0.010789 -0.002373 -0.001979 -0.001537 -0.003010
# 3 -0.002181 -0.002373 0.022361 -0.005361 -0.007467 0.002035
# 4 -0.003213 -0.001979 -0.005361 0.034131 0.004593 -0.011771
# 5 -0.002477 -0.001537 -0.007467 0.004593 0.037651 -0.007358
# 6 0.000227 -0.003010 0.002035 -0.011771 -0.007358 0.035962
#
#
# Mechanical properties :
#
#
# Convention : Reuss Voigt Hill
#
# Bulk Modulus (GPa) = 31.96742 47.07646 39.52194
# Shear Modulus (GPa) = 28.09773 33.67432 30.88602
#
# Velocity S-wave (km/s) = 3.56546 3.90328 3.73819
# Velocity P-wave (km/s) = 5.60476 6.45084 6.04263
#
# Compressibility (1/GPa) = 0.03128185
#
# Stress axis : x y z
#
# Youngs Moduli (GPa) = 80.77401 92.68673 44.72020
#
# Poissons Ratio (x) = 0.23823 0.09755
# Poissons Ratio (y) = 0.20761 0.10611
# Poissons Ratio (z) = 0.17620 0.21992
#
# Static dielectric constant tensor:
#      x y z
#    x 4.277270 0.754500 0.438950 
#    y 0.754500 6.112460 0.642220 
#    z 0.438950 0.642220 3.833760 
# 
# 
# High freq. dielectric constant tensor:
#      x y z
#    x 1.881140 0.004840 0.013580 
#    y 0.004840 1.881580 0.006750 
#    z 0.013580 0.006750 1.860430 
# 
# From -- ./inp_files/124659.got.cif
#   From: 2010.06.25/outbox.cif.g09.slc.cpg/sg2_63_cif.got.tgz:124659.got - 2010.06.27 13:26:56.
