data_PCOD8022381
_publ_section_title
;
Structure prediction by ZEFSAII (Michael W. Deem and Ramdas Pophale) SiO2 
 PCOD8022381
Probable space group: P -1
;
_chemical_formula_sum "Si O2"
_cell_formula_units_Z 14
_cell_length_a 9.283690
_cell_length_b 17.980463
_cell_length_c 8.128973
_cell_angle_alpha 77.220653
_cell_angle_beta 67.168954
_cell_angle_gamma 30.102870
_cell_volume 607.711010
_symmetry_space_group_name_H-M "P -1"
_symmetry_group_IT_number 2
_symmetry_cell_setting 'triclinic'
loop_
_space_group_symop_operation_xyz
x,y,z
-x,-y,-z
loop_
_atom_site_type_symbol
_atom_site_label
_atom_site_fract_x
_atom_site_fract_y
_atom_site_fract_z
Si Si1 0.465040 0.333997 0.583070
Si Si2 0.321460 0.145038 0.932456
Si Si3 0.215707 0.930257 0.288774
Si Si4 0.788511 0.332527 0.528409
Si Si5 0.273154 0.663735 0.068941
Si Si6 0.145516 0.309987 0.245342
Si Si7 0.365259 0.784133 0.786090
O O1 0.534737 0.245048 0.744822
O O2 0.769922 0.261779 0.466836
O O3 0.440001 0.307245 0.426132
O O4 0.143921 0.510403 0.690837
O O5 0.164078 0.269585 0.072513
O O6 0.584244 0.080050 0.748190
O O7 0.072066 0.215586 0.886091
O O8 0.500000 0.000000 0.000000
O O9 0.000000 0.000000 0.500000
O O10 0.996146 0.036120 0.173352
O O11 0.500000 0.500000 0.500000
O O12 0.723705 0.330912 0.740418
O O13 0.098160 0.254002 0.409047
O O14 0.500000 0.500000 0.000000
O O15 0.373701 0.701360 0.923830
O O16 0.466393 0.218548 0.188355
#
# Coordination Sequence:
#
# PCOD8022381 Si02
#       7
#     2   2   2   2   2   2   2
#     4  10  22  45  73  99 145 188 235 297 353 420
#     4  12  27  49  70 102 150 192 233 296 359 427
#     4  10  25  44  72  97 147 188 238 281 362 415
#     4  10  23  44  67 102 139 180 234 292 354 417
#     4  12  25  43  75 104 144 191 238 291 357 422
#     4  11  25  43  73 106 140 182 247 295 351 421
#     4  11  24  45  70 108 146 186 236 297 352 421
#
# _framework density 23.037268000000001
#
# number of rings (size 3 to 8) (size 9 to 14) (size 15 to 20)
#    0.000    1.143    1.429    4.714   10.000    2.286 
#    0.000    1.429    0.000    0.000    0.000    0.000 
#    0.000    0.000    0.000    0.000    0.000    0.000 
#
# Total GULP energy -173466.852997 kJ/mol
# GULP energy per Si atom -12390.489500 kJ/mol
# Density = 2.298483 g / cm^3
# Si number density = 23.037268 Si / 1000 Ang^3
#
#
#
# Elastic Constant Matrix: (Units=GPa)
#
#
# Indices 1 2 3 4 5 6 
#
# 1 121.1618 18.4666 24.1609 -13.0257 -33.3567 -14.2718
# 2 18.4666 100.0739 25.8542 -21.5081 -15.5981 -8.1950
# 3 24.1609 25.8542 97.6324 -15.0469 -19.0377 -2.1539
# 4 -13.0257 -21.5081 -15.0469 40.9706 5.5707 -4.5939
# 5 -33.3567 -15.5981 -19.0377 5.5707 58.3253 0.0985
# 6 -14.2718 -8.1950 -2.1539 -4.5939 0.0985 33.1697
#
#
#
# Elastic Compliance Matrix: (Units=1/GPa)
#
#
# Indices 1 2 3 4 5 6 
#
# 1 0.010911 0.000202 -0.001081 0.002978 0.005648 0.005070
# 2 0.000202 0.012398 -0.001886 0.006008 0.002235 0.003853
# 3 -0.001081 -0.001886 0.011924 0.002728 0.002508 0.000213
# 4 0.002978 0.006008 0.002728 0.030130 0.001311 0.007112
# 5 0.005648 0.002235 0.002508 0.001311 0.021661 0.003262
# 6 0.005070 0.003853 0.000213 0.007112 0.003262 0.034270
#
#
# Mechanical properties :
#
#
# Convention : Reuss Voigt Hill
#
# Bulk Modulus (GPa) = 33.66996 50.64794 42.15895
# Shear Modulus (GPa) = 36.56976 43.18554 39.87765
#
# Velocity S-wave (km/s) = 3.98856 4.33436 4.16505
# Velocity P-wave (km/s) = 5.98821 6.86162 6.43974
#
# Compressibility (1/GPa) = 0.02970006
#
# Stress axis : x y z
#
# Youngs Moduli (GPa) = 91.65461 80.65954 83.86564
#
# Poissons Ratio (x) = -0.01625 0.09068
# Poissons Ratio (y) = -0.01847 0.15819
# Poissons Ratio (z) = 0.09911 0.15215
#
# Static dielectric constant tensor:
#      x y z
#    x 4.624380 0.285170 -0.558810 
#    y 0.285170 4.768330 -0.314910 
#    z -0.558810 -0.314910 4.367590 
# 
# 
# High freq. dielectric constant tensor:
#      x y z
#    x 1.925570 0.007730 -0.017660 
#    y 0.007730 1.916200 -0.008120 
#    z -0.017660 -0.008120 1.908820 
# 
# From -- ./inp_files/217269.got.cif
#   From: 2010.06.25/outbox.cif.g09.slc.cpg/sg2_109_cif.got.tgz:217269.got - 2010.06.27 13:26:56.
