data_PCOD8022152
_publ_section_title
;
Structure prediction by ZEFSAII (Michael W. Deem and Ramdas Pophale) SiO2 
 PCOD8022152
Probable space group: P -1
;
_chemical_formula_sum "Si O2"
_cell_formula_units_Z 14
_cell_length_a 9.045475
_cell_length_b 14.226681
_cell_length_c 6.893006
_cell_angle_alpha 94.885033
_cell_angle_beta 47.097896
_cell_angle_gamma 96.638219
_cell_volume 645.391695
_symmetry_space_group_name_H-M "P -1"
_symmetry_group_IT_number 2
_symmetry_cell_setting 'triclinic'
loop_
_space_group_symop_operation_xyz
x,y,z
-x,-y,-z
loop_
_atom_site_type_symbol
_atom_site_label
_atom_site_fract_x
_atom_site_fract_y
_atom_site_fract_z
Si Si1 0.729478 0.496802 0.359504
Si Si2 0.544518 0.785260 0.827269
Si Si3 0.351119 0.408953 0.179220
Si Si4 0.950980 0.627749 0.899322
Si Si5 0.854533 0.815720 0.227374
Si Si6 0.282833 0.893849 0.820737
Si Si7 0.540410 0.901214 0.240979
O O1 0.500000 0.500000 0.500000
O O2 0.769781 0.565822 0.517439
O O3 0.809613 0.394393 0.334647
O O4 0.851058 0.534054 0.071560
O O5 0.510910 0.677382 0.912762
O O6 0.759758 0.802930 0.524978
O O7 0.366585 0.804013 0.839573
O O8 0.527089 0.854760 0.035606
O O9 0.173039 0.367839 0.188186
O O10 0.500000 0.500000 0.000000
O O11 0.934543 0.719627 0.058730
O O12 0.697418 0.851867 0.224487
O O13 0.044835 0.893483 0.075815
O O14 0.326841 0.889406 0.547962
O O15 0.395390 0.988347 0.826971
#
# Coordination Sequence:
#
# PCOD8022152 Si02
#       7
#     2   2   2   2   2   2   2
#     4  11  24  42  65  89 125 167 219 266 317 374
#     4  11  24  41  65  95 136 166 219 271 317 387
#     4  12  24  42  65  93 128 174 215 263 322 380
#     4  11  24  41  63  90 127 170 212 268 317 381
#     4  11  23  40  66  96 132 169 214 266 328 383
#     4  10  24  41  69  97 128 172 215 265 330 385
#     4  10  22  45  66  96 132 167 216 270 320 392
#
# _framework density 21.692254999999999
#
# number of rings (size 3 to 8) (size 9 to 14) (size 15 to 20)
#    0.000    1.143    4.286    1.286    2.000    2.857 
#    2.571    0.000    0.000    0.000    0.000    0.000 
#    0.000    0.000    0.000    0.000    0.000    0.000 
#
# Total GULP energy -173515.580445 kJ/mol
# GULP energy per Si atom -12393.970032 kJ/mol
# Density = 2.164288 g / cm^3
# Si number density = 21.692255 Si / 1000 Ang^3
#
#
#
# Elastic Constant Matrix: (Units=GPa)
#
#
# Indices 1 2 3 4 5 6 
#
# 1 43.0388 1.7176 24.6771 -4.4151 3.6925 3.5176
# 2 1.7176 71.7547 11.5268 8.2384 7.8471 -4.4370
# 3 24.6771 11.5268 98.0010 13.4719 13.9415 22.1153
# 4 -4.4151 8.2384 13.4719 40.4118 6.6309 -0.0993
# 5 3.6925 7.8471 13.9415 6.6309 40.5546 3.6431
# 6 3.5176 -4.4370 22.1153 -0.0993 3.6431 25.7985
#
#
#
# Elastic Compliance Matrix: (Units=1/GPa)
#
#
# Indices 1 2 3 4 5 6 
#
# 1 0.028703 0.000378 -0.008863 0.006188 -0.001003 0.003915
# 2 0.000378 0.015077 -0.002401 -0.001848 -0.002265 0.004912
# 3 -0.008863 -0.002401 0.016857 -0.005740 -0.002387 -0.013340
# 4 0.006188 -0.001848 -0.005740 0.028254 -0.003241 0.004325
# 5 -0.001003 -0.002265 -0.002387 -0.003241 0.026717 -0.001992
# 6 0.003915 0.004912 -0.013340 0.004325 -0.001992 0.050806
#
#
# Mechanical properties :
#
#
# Convention : Reuss Voigt Hill
#
# Bulk Modulus (GPa) = 25.73043 32.07084 28.90064
# Shear Modulus (GPa) = 24.85832 33.01118 28.93475
#
# Velocity S-wave (km/s) = 3.38887 3.90525 3.65619
# Velocity P-wave (km/s) = 5.21535 5.92885 5.58351
#
# Compressibility (1/GPa) = 0.03886449
#
# Stress axis : x y z
#
# Youngs Moduli (GPa) = 34.84017 66.32773 59.32260
#
# Poissons Ratio (x) = -0.02508 0.52579
# Poissons Ratio (y) = -0.01317 0.14241
# Poissons Ratio (z) = 0.30880 0.15923
#
# Static dielectric constant tensor:
#      x y z
#    x 20.464370 -6.534260 -17.671240 
#    y -6.534260 6.349440 6.773730 
#    z -17.671240 6.773730 23.203260 
# 
# 
# High freq. dielectric constant tensor:
#      x y z
#    x 1.845940 -0.020260 0.006230 
#    y -0.020260 1.859030 0.010500 
#    z 0.006230 0.010500 1.859230 
# 
# From -- ./inp_files/38289.got.cif
#   From: 2010.06.25/outbox.cif.g09.slc.cpg/sg2_20_cif.got.tgz:38289.got - 2010.06.27 13:26:56.
