data_PCOD8022396
_publ_section_title
;
Structure prediction by ZEFSAII (Michael W. Deem and Ramdas Pophale) SiO2 
 PCOD8022396
Probable space group: P -1
;
_chemical_formula_sum "Si O2"
_cell_formula_units_Z 16
_cell_length_a 7.910213
_cell_length_b 7.456822
_cell_length_c 19.251784
_cell_angle_alpha 135.128981
_cell_angle_beta 62.534273
_cell_angle_gamma 121.178840
_cell_volume 677.015374
_symmetry_space_group_name_H-M "P -1"
_symmetry_group_IT_number 2
_symmetry_cell_setting 'triclinic'
loop_
_space_group_symop_operation_xyz
x,y,z
-x,-y,-z
loop_
_atom_site_type_symbol
_atom_site_label
_atom_site_fract_x
_atom_site_fract_y
_atom_site_fract_z
Si Si1 0.777156 0.113727 0.858502
Si Si2 0.433951 0.331117 0.397555
Si Si3 0.012682 0.942624 0.561036
Si Si4 0.356196 0.730464 0.421924
Si Si5 0.359018 0.916426 0.805039
Si Si6 0.386147 0.474643 0.941702
Si Si7 0.958103 0.588212 0.229843
Si Si8 0.294602 0.446628 0.214439
O O1 0.969896 0.269651 0.818480
O O2 0.577330 0.026652 0.827097
O O3 0.806420 0.848961 0.815147
O O4 0.755633 0.334146 0.979392
O O5 0.500000 0.500000 0.500000
O O6 0.427044 0.501840 0.378742
O O7 0.601403 0.188557 0.308051
O O8 0.210664 0.137603 0.390317
O O9 0.131064 0.723786 0.485628
O O10 0.129985 0.213216 0.653877
O O11 0.000000 0.000000 0.500000
O O12 0.365585 0.680896 0.323689
O O13 0.500000 0.000000 0.500000
O O14 0.219222 0.691326 0.820388
O O15 0.263722 0.156959 0.874544
O O16 0.523524 0.559362 0.871016
O O17 0.500000 0.500000 0.000000
O O18 0.135427 0.521729 0.217875
#
# Coordination Sequence:
#
# PCOD8022396 Si02
#       8
#     2   2   2   2   2   2   2   2
#     4  11  24  48  71 101 138 184 235 293 351 415
#     4  12  25  44  67 100 141 186 237 287 350 422
#     4  12  23  42  66  98 142 185 230 288 349 417
#     4  12  26  41  66 105 137 187 235 281 352 425
#     4  11  23  45  70 102 140 187 228 290 355 416
#     4  10  22  45  75 101 138 188 227 292 361 411
#     4  12  24  45  70 101 146 182 231 292 351 422
#     4  12  23  46  74 101 144 182 235 291 352 420
#
# _framework density 23.633140000000001
#
# number of rings (size 3 to 8) (size 9 to 14) (size 15 to 20)
#    0.000    0.500    6.250    3.000    1.750    0.500 
#    2.250    0.625    0.000    0.000    0.000    0.000 
#    0.000    0.000    0.000    0.000    0.000    0.000 
#
# Total GULP energy -198289.056514 kJ/mol
# GULP energy per Si atom -12393.066032 kJ/mol
# Density = 2.357935 g / cm^3
# Si number density = 23.633140 Si / 1000 Ang^3
#
#
#
# Elastic Constant Matrix: (Units=GPa)
#
#
# Indices 1 2 3 4 5 6 
#
# 1 32.6518 7.0208 20.3531 -2.0824 -7.2453 -3.6961
# 2 7.0208 161.8501 60.1398 -3.7053 3.2046 5.1173
# 3 20.3531 60.1398 160.1035 -0.8664 -29.6831 -2.4516
# 4 -2.0824 -3.7053 -0.8664 40.5270 -1.6335 -2.1213
# 5 -7.2453 3.2046 -29.6831 -1.6335 22.9339 3.4757
# 6 -3.6961 5.1173 -2.4516 -2.1213 3.4757 34.8763
#
#
#
# Elastic Compliance Matrix: (Units=1/GPa)
#
#
# Indices 1 2 3 4 5 6 
#
# 1 0.034544 -0.000657 -0.002767 0.002099 0.007121 0.002981
# 2 -0.000657 0.007887 -0.004086 0.000295 -0.006447 -0.000854
# 3 -0.002767 -0.004086 0.010637 0.000242 0.013523 -0.000279
# 4 0.002099 0.000295 0.000242 0.024992 0.002493 0.001468
# 5 0.007121 -0.006447 0.013523 0.002493 0.064991 -0.003674
# 6 0.002981 -0.000854 -0.000279 0.001468 -0.003674 0.029550
#
#
# Mechanical properties :
#
#
# Convention : Reuss Voigt Hill
#
# Bulk Modulus (GPa) = 26.28358 58.84809 42.56584
# Shear Modulus (GPa) = 24.96214 37.47355 31.21784
#
# Velocity S-wave (km/s) = 3.25350 3.98632 3.63841
# Velocity P-wave (km/s) = 5.02587 6.79282 5.97502
#
# Compressibility (1/GPa) = 0.03804656
#
# Stress axis : x y z
#
# Youngs Moduli (GPa) = 28.94871 126.79684 94.01449
#
# Poissons Ratio (x) = 0.08336 0.26015
# Poissons Ratio (y) = 0.01903 0.38411
# Poissons Ratio (z) = 0.08011 0.51805
#
# Static dielectric constant tensor:
#      x y z
#    x 4.369870 -0.074390 -0.822650 
#    y -0.074390 4.520060 -0.257900 
#    z -0.822650 -0.257900 5.413440 
# 
# 
# High freq. dielectric constant tensor:
#      x y z
#    x 1.915080 -0.007740 -0.015640 
#    y -0.007740 1.940400 0.005790 
#    z -0.015640 0.005790 1.960130 
# 
# From -- ./inp_files/588208.got.cif
#   From: 2010.06.25/outbox.cif.g09.slc.cpg/sg2_295_cif.got.tgz:588208.got - 2010.06.27 13:26:56.
