data_PCOD8022456
_publ_section_title
;
Structure prediction by ZEFSAII (Michael W. Deem and Ramdas Pophale) SiO2 
 PCOD8022456
Probable space group: P -1
;
_chemical_formula_sum "Si O2"
_cell_formula_units_Z 12
_cell_length_a 5.185951
_cell_length_b 21.774966
_cell_length_c 13.070636
_cell_angle_alpha 19.527944
_cell_angle_beta 87.644876
_cell_angle_gamma 90.576223
_cell_volume 487.668884
_symmetry_space_group_name_H-M "P -1"
_symmetry_group_IT_number 2
_symmetry_cell_setting 'triclinic'
loop_
_space_group_symop_operation_xyz
x,y,z
-x,-y,-z
loop_
_atom_site_type_symbol
_atom_site_label
_atom_site_fract_x
_atom_site_fract_y
_atom_site_fract_z
Si Si1 0.554068 0.385434 0.777197
Si Si2 0.938706 0.524462 0.240006
Si Si3 0.542244 0.939010 0.851536
Si Si4 0.530803 0.208178 0.709217
Si Si5 0.867392 0.301890 0.245753
Si Si6 0.354172 0.288718 0.376711
O O1 0.500000 0.500000 0.500000
O O2 0.318151 0.390266 0.852809
O O3 0.834645 0.463077 0.698985
O O4 0.560595 0.174139 0.070485
O O5 0.833094 0.308397 0.552943
O O6 0.047505 0.642105 0.956471
O O7 0.806277 0.076733 0.603332
O O8 0.332967 0.068289 0.694082
O O9 0.592014 0.794155 0.170532
O O10 0.386095 0.319485 0.451052
O O11 0.500000 0.000000 0.000000
O O12 0.607196 0.388718 0.149091
O O13 0.088734 0.363195 0.231651
#
# Coordination Sequence:
#
# PCOD8022456 Si02
#       6
#     2   2   2   2   2   2
#     4  12  26  44  70  97 136 170 221 275 319 395
#     4  12  27  44  68 102 129 176 220 267 334 386
#     4   9  23  43  66 100 132 175 218 268 328 381
#     4  10  22  46  68  98 130 177 220 274 321 392
#     4  10  23  43  66 100 135 170 218 267 330 391
#     4   9  22  42  67  97 131 176 216 267 325 385
#
# _framework density 24.606859
#
# number of rings (size 3 to 8) (size 9 to 14) (size 15 to 20)
#    1.000    0.667    1.667    1.500    2.333    6.000 
#    0.000    0.000    0.000    0.000    0.000    0.000 
#    0.000    0.000    0.000    0.000    0.000    0.000 
#
# Total GULP energy -148721.945907 kJ/mol
# GULP energy per Si atom -12393.495492 kJ/mol
# Density = 2.455085 g / cm^3
# Si number density = 24.606859 Si / 1000 Ang^3
#
#
#
# Elastic Constant Matrix: (Units=GPa)
#
#
# Indices 1 2 3 4 5 6 
#
# 1 148.0941 75.4894 59.2676 -5.7925 -3.8946 25.4802
# 2 75.4894 165.3729 74.0366 -4.6815 -11.0934 28.2348
# 3 59.2676 74.0366 143.7131 18.6444 -39.2575 17.2852
# 4 -5.7925 -4.6815 18.6444 47.9734 -0.4699 -8.2551
# 5 -3.8946 -11.0934 -39.2575 -0.4699 34.4372 -1.6409
# 6 25.4802 28.2348 17.2852 -8.2551 -1.6409 53.5057
#
#
#
# Elastic Compliance Matrix: (Units=1/GPa)
#
#
# Indices 1 2 3 4 5 6 
#
# 1 0.010008 -0.002705 -0.003965 0.002123 -0.004319 -0.001863
# 2 -0.002705 0.009520 -0.004440 0.001948 -0.002373 -0.002073
# 3 -0.003965 -0.004440 0.016722 -0.007557 0.016994 -0.001815
# 4 0.002123 0.001948 -0.007557 0.024848 -0.007217 0.004015
# 5 -0.004319 -0.002373 0.016994 -0.007217 0.046972 -0.001853
# 6 -0.001863 -0.002073 -0.001815 0.004015 -0.001853 0.021820
#
#
# Mechanical properties :
#
#
# Convention : Reuss Voigt Hill
#
# Bulk Modulus (GPa) = 71.28224 97.19636 84.23930
# Shear Modulus (GPa) = 31.89059 43.74237 37.81648
#
# Velocity S-wave (km/s) = 3.60391 4.22079 3.92449
# Velocity P-wave (km/s) = 6.80800 7.95857 7.40567
#
# Compressibility (1/GPa) = 0.01402874
#
# Stress axis : x y z
#
# Youngs Moduli (GPa) = 99.91978 105.04742 59.80139
#
# Poissons Ratio (x) = 0.28415 0.23712
# Poissons Ratio (y) = 0.27028 0.26554
# Poissons Ratio (z) = 0.39619 0.46645
#
# Static dielectric constant tensor:
#      x y z
#    x 4.378550 -0.055930 -0.039440 
#    y -0.055930 5.109620 -0.050570 
#    z -0.039440 -0.050570 4.890830 
# 
# 
# High freq. dielectric constant tensor:
#      x y z
#    x 1.960600 0.003160 -0.008200 
#    y 0.003160 1.995450 -0.012980 
#    z -0.008200 -0.012980 2.008550 
# 
# From -- ./inp_files/369757.got.cif
#   From: 2010.06.25/outbox.cif.g09.slc.cpg/sg2_185_cif.got.tgz:369757.got - 2010.06.27 13:26:56.
