data_PCOD8022715
_publ_section_title
;
Structure prediction by ZEFSAII (Michael W. Deem and Ramdas Pophale) SiO2 
 PCOD8022715
Probable space group: P -1
;
_chemical_formula_sum "Si O2"
_cell_formula_units_Z 16
_cell_length_a 10.779988
_cell_length_b 19.135881
_cell_length_c 9.111219
_cell_angle_alpha 135.992602
_cell_angle_beta 55.924138
_cell_angle_gamma 147.287112
_cell_volume 700.626944
_symmetry_space_group_name_H-M "P -1"
_symmetry_group_IT_number 2
_symmetry_cell_setting 'triclinic'
loop_
_space_group_symop_operation_xyz
x,y,z
-x,-y,-z
loop_
_atom_site_type_symbol
_atom_site_label
_atom_site_fract_x
_atom_site_fract_y
_atom_site_fract_z
Si Si1 0.427725 0.620081 0.982795
Si Si2 0.593940 0.171864 0.720857
Si Si3 0.907175 0.651669 0.404539
Si Si4 0.807423 0.818564 0.826734
Si Si5 0.646706 0.479549 0.817138
Si Si6 0.624602 0.363148 0.360335
Si Si7 0.496053 0.972696 0.718067
Si Si8 0.189449 0.763298 0.870597
O O1 0.361271 0.691076 0.055608
O O2 0.392989 0.620700 0.178379
O O3 0.261905 0.447113 0.772340
O O4 0.691360 0.730428 0.927983
O O5 0.461763 0.093899 0.532435
O O6 0.837856 0.241883 0.654780
O O7 0.446541 0.046217 0.760898
O O8 0.913029 0.770864 0.623211
O O9 0.819218 0.531947 0.409691
O O10 0.609535 0.763133 0.768690
O O11 0.000000 0.000000 0.000000
O O12 0.548117 0.379459 0.585163
O O13 0.917279 0.639371 0.861178
O O14 0.500000 0.500000 0.000000
O O15 0.731926 0.308353 0.241061
O O16 0.275901 0.832750 0.753391
O O17 0.713211 0.103912 0.878924
#
# Coordination Sequence:
#
# PCOD8022715 Si02
#       8
#     2   2   2   2   2   2   2   2
#     4  11  23  43  65 101 132 175 233 282 332 402
#     4  11  22  38  69  99 133 174 234 279 338 390
#     4  11  22  41  71  96 133 178 226 285 332 396
#     4  11  26  44  67  99 142 179 224 276 348 409
#     4  12  24  43  67 101 134 176 225 284 341 394
#     4  11  23  44  70  98 131 181 235 271 338 406
#     4  10  23  38  63 101 139 175 220 279 345 395
#     4  11  23  43  68  95 138 180 231 272 338 412
#
# _framework density 22.836687999999999
#
# number of rings (size 3 to 8) (size 9 to 14) (size 15 to 20)
#    0.000    1.000    0.000    8.250    5.250    0.000 
#    2.250    0.625    0.000    0.000    0.000    0.000 
#    0.000    0.000    0.000    0.000    0.000    0.000 
#
# Total GULP energy -198299.248193 kJ/mol
# GULP energy per Si atom -12393.703012 kJ/mol
# Density = 2.278471 g / cm^3
# Si number density = 22.836688 Si / 1000 Ang^3
#
#
#
# Elastic Constant Matrix: (Units=GPa)
#
#
# Indices 1 2 3 4 5 6 
#
# 1 86.9728 60.5319 35.0326 -2.2254 -10.2143 -1.8089
# 2 60.5319 87.9227 47.6665 5.3885 6.3715 -2.9289
# 3 35.0326 47.6665 117.7082 10.5114 1.7790 4.8486
# 4 -2.2254 5.3885 10.5114 43.7525 -7.6882 5.4693
# 5 -10.2143 6.3715 1.7790 -7.6882 52.0460 -9.8128
# 6 -1.8089 -2.9289 4.8486 5.4693 -9.8128 41.1083
#
#
#
# Elastic Compliance Matrix: (Units=1/GPa)
#
#
# Indices 1 2 3 4 5 6 
#
# 1 0.025408 -0.017827 -0.000964 0.005000 0.008176 0.001248
# 2 -0.017827 0.027323 -0.005289 -0.004344 -0.007182 0.000650
# 3 -0.000964 -0.005289 0.011174 -0.001973 -0.000516 -0.001598
# 4 0.005000 -0.004344 -0.001973 0.025240 0.004924 -0.002039
# 5 0.008176 -0.007182 -0.000516 0.004924 0.023353 0.004828
# 6 0.001248 0.000650 -0.001598 -0.002039 0.004828 0.026040
#
#
# Mechanical properties :
#
#
# Convention : Reuss Voigt Hill
#
# Bulk Modulus (GPa) = 63.51587 64.34065 63.92826
# Shear Modulus (GPa) = 26.04915 37.33953 31.69434
#
# Velocity S-wave (km/s) = 3.38105 4.04798 3.72945
# Velocity P-wave (km/s) = 6.56623 7.07698 6.82639
#
# Compressibility (1/GPa) = 0.01574410
#
# Stress axis : x y z
#
# Youngs Moduli (GPa) = 39.35830 36.59971 89.49174
#
# Poissons Ratio (x) = 0.65246 0.08629
# Poissons Ratio (y) = 0.70164 0.47332
# Poissons Ratio (z) = 0.03795 0.19358
#
# Static dielectric constant tensor:
#      x y z
#    x 4.104810 -0.313140 0.206530 
#    y -0.313140 4.369740 -0.163300 
#    z 0.206530 -0.163300 4.853130 
# 
# 
# High freq. dielectric constant tensor:
#      x y z
#    x 1.884470 -0.013520 0.007720 
#    y -0.013520 1.911530 -0.003370 
#    z 0.007720 -0.003370 1.926510 
# 
# From -- ./inp_files/283334.got.cif
#   From: 2010.06.25/outbox.cif.g09.slc.cpg/sg2_142_cif.got.tgz:283334.got - 2010.06.27 13:26:56.
