data_PCOD8022694
_publ_section_title
;
Structure prediction by ZEFSAII (Michael W. Deem and Ramdas Pophale) SiO2 
 PCOD8022694
Probable space group: P -1
;
_chemical_formula_sum "Si O2"
_cell_formula_units_Z 16
_cell_length_a 12.309349
_cell_length_b 8.657908
_cell_length_c 8.258750
_cell_angle_alpha 61.260030
_cell_angle_beta 94.780164
_cell_angle_gamma 95.699500
_cell_volume 767.281289
_symmetry_space_group_name_H-M "P -1"
_symmetry_group_IT_number 2
_symmetry_cell_setting 'triclinic'
loop_
_space_group_symop_operation_xyz
x,y,z
-x,-y,-z
loop_
_atom_site_type_symbol
_atom_site_label
_atom_site_fract_x
_atom_site_fract_y
_atom_site_fract_z
Si Si1 0.622718 0.557902 0.550083
Si Si2 0.072064 0.923421 0.411090
Si Si3 0.253364 0.067540 0.151047
Si Si4 0.250489 0.400219 0.781317
Si Si5 0.241485 0.761590 0.733739
Si Si6 0.005217 0.349297 0.702276
Si Si7 0.614498 0.929877 0.528921
Si Si8 0.779037 0.288946 0.867859
O O1 0.500000 0.500000 0.500000
O O2 0.704233 0.615320 0.385704
O O3 0.614904 0.727472 0.577227
O O4 0.680732 0.407542 0.736303
O O5 0.142542 0.782720 0.584119
O O6 0.997060 0.832723 0.307252
O O7 0.145528 0.076083 0.248270
O O8 0.000000 0.000000 0.500000
O O9 0.348837 0.038270 0.299963
O O10 0.242684 0.905737 0.107632
O O11 0.292073 0.245028 0.973255
O O12 0.297602 0.589038 0.761558
O O13 0.119147 0.372084 0.799073
O O14 0.317874 0.941703 0.652421
O O15 0.209241 0.721850 0.933266
O O16 0.000000 0.500000 0.500000
O O17 0.899611 0.365050 0.793864
O O18 0.500000 0.000000 0.500000
#
# Coordination Sequence:
#
# PCOD8022694 Si02
#       8
#     2   2   2   2   2   2   2   2
#     4  12  25  44  71  96 127 167 212 271 327 385
#     4  10  23  38  60  90 131 168 217 260 316 374
#     4  10  24  41  63  96 129 169 214 266 312 384
#     4  12  24  42  65  97 134 171 220 260 325 377
#     4  11  24  41  63  95 129 171 213 268 312 383
#     4  11  22  40  64  91 134 177 211 268 311 384
#     4  11  24  46  70  93 128 168 214 268 326 381
#     4  11  24  43  64  98 133 169 221 260 324 379
#
# _framework density 20.852847000000001
#
# number of rings (size 3 to 8) (size 9 to 14) (size 15 to 20)
#    0.000    1.000    2.500    4.500    7.000    3.500 
#    0.000    5.000    0.000    0.000    0.000    0.000 
#    0.000    0.000    0.000    0.000    0.000    0.000 
#
# Total GULP energy -198287.018192 kJ/mol
# GULP energy per Si atom -12392.938637 kJ/mol
# Density = 2.080538 g / cm^3
# Si number density = 20.852847 Si / 1000 Ang^3
#
#
#
# Elastic Constant Matrix: (Units=GPa)
#
#
# Indices 1 2 3 4 5 6 
#
# 1 87.4289 18.4416 13.2614 -2.4227 4.6144 1.6144
# 2 18.4416 82.1126 13.7495 -3.3753 -4.4624 -9.8055
# 3 13.2614 13.7495 109.0811 -4.6671 -17.4962 -2.7000
# 4 -2.4227 -3.3753 -4.6671 38.7765 -3.9712 0.5728
# 5 4.6144 -4.4624 -17.4962 -3.9712 12.0800 3.3545
# 6 1.6144 -9.8055 -2.7000 0.5728 3.3545 37.3787
#
#
#
# Elastic Compliance Matrix: (Units=1/GPa)
#
#
# Indices 1 2 3 4 5 6 
#
# 1 0.013087 -0.003132 -0.002937 -0.000876 -0.010519 -0.000641
# 2 -0.003132 0.013671 -0.000345 0.001452 0.005336 0.003195
# 3 -0.002937 -0.000345 0.013143 0.003583 0.021485 -0.000997
# 4 -0.000876 0.001452 0.003583 0.027901 0.015552 -0.001146
# 5 -0.010519 0.005336 0.021485 0.015552 0.127294 -0.008256
# 6 -0.000641 0.003195 -0.000997 -0.001146 -0.008256 0.028306
#
#
# Mechanical properties :
#
#
# Convention : Reuss Voigt Hill
#
# Bulk Modulus (GPa) = 36.93784 41.05861 38.99822
# Shear Modulus (GPa) = 20.38706 33.19170 26.78938
#
# Velocity S-wave (km/s) = 3.13015 3.99395 3.58814
# Velocity P-wave (km/s) = 5.55120 6.40323 5.99238
#
# Compressibility (1/GPa) = 0.02707251
#
# Stress axis : x y z
#
# Youngs Moduli (GPa) = 76.41359 73.14852 76.08731
#
# Poissons Ratio (x) = 0.22907 0.22346
# Poissons Ratio (y) = 0.23930 0.02628
# Poissons Ratio (z) = 0.22442 0.02526
#
# Static dielectric constant tensor:
#      x y z
#    x 2.915100 0.806460 -0.239840 
#    y 0.806460 3.049230 -0.003000 
#    z -0.239840 -0.003000 3.896230 
# 
# 
# High freq. dielectric constant tensor:
#      x y z
#    x 1.812260 0.002100 -0.002150 
#    y 0.002100 1.826800 -0.000270 
#    z -0.002150 -0.000270 1.829370 
# 
# From -- ./inp_files/186452.got.cif
#   From: 2010.06.25/outbox.cif.g09.slc.cpg/sg2_94_cif.got.tgz:186452.got - 2010.06.27 13:26:56.
