data_PCOD8022944
_publ_section_title
;
Structure prediction by ZEFSAII (Michael W. Deem and Ramdas Pophale) SiO2 
 PCOD8022944
Probable space group: P -1
;
_chemical_formula_sum "Si O2"
_cell_formula_units_Z 14
_cell_length_a 9.676718
_cell_length_b 23.332885
_cell_length_c 9.569293
_cell_angle_alpha 33.432794
_cell_angle_beta 44.706669
_cell_angle_gamma 35.594125
_cell_volume 689.381796
_symmetry_space_group_name_H-M "P -1"
_symmetry_group_IT_number 2
_symmetry_cell_setting 'triclinic'
loop_
_space_group_symop_operation_xyz
x,y,z
-x,-y,-z
loop_
_atom_site_type_symbol
_atom_site_label
_atom_site_fract_x
_atom_site_fract_y
_atom_site_fract_z
Si Si1 0.175724 0.539031 0.759154
Si Si2 0.979987 0.719958 0.764290
Si Si3 0.040184 0.870236 0.203800
Si Si4 0.117630 0.225482 0.708155
Si Si5 0.368946 0.879341 0.545188
Si Si6 0.994756 0.830581 0.807320
Si Si7 0.475179 0.276571 0.971828
O O1 0.195282 0.599280 0.767400
O O2 0.065985 0.640981 0.506320
O O3 0.420322 0.410242 0.796774
O O4 0.000000 0.500000 0.000000
O O5 0.059350 0.732926 0.833398
O O6 0.753233 0.711342 0.955826
O O7 0.914431 0.842143 0.473621
O O8 0.912283 0.878184 0.133573
O O9 0.325677 0.765687 0.203340
O O10 0.000000 0.000000 0.000000
O O11 0.386397 0.184900 0.585302
O O12 0.050338 0.232810 0.902302
O O13 0.417043 0.827679 0.772372
O O14 0.215930 0.840560 0.650804
O O15 0.239997 0.030029 0.338386
#
# Coordination Sequence:
#
# PCOD8022944 Si02
#       7
#     2   2   2   2   2   2   2
#     4   9  19  42  69  88 119 163 221 253 302 368
#     4  10  23  40  62  93 124 158 211 264 295 368
#     4  11  23  36  64  97 120 156 217 253 301 378
#     4  11  22  41  64  90 125 170 201 256 317 371
#     4  11  22  40  63  86 130 170 200 254 312 379
#     4  11  25  39  59  95 129 165 205 249 326 369
#     4  11  21  42  70  88 121 170 207 259 309 358
#
# _framework density 20.308050999999999
#
# number of rings (size 3 to 8) (size 9 to 14) (size 15 to 20)
#    0.000    1.429    5.714    1.286    4.000    4.571 
#    0.000    3.571    0.000    0.000    0.000    0.000 
#    0.000    0.000    0.000    0.000    0.000    0.000 
#
# Total GULP energy -173554.304463 kJ/mol
# GULP energy per Si atom -12396.736033 kJ/mol
# Density = 2.026183 g / cm^3
# Si number density = 20.308051 Si / 1000 Ang^3
#
#
#
# Elastic Constant Matrix: (Units=GPa)
#
#
# Indices 1 2 3 4 5 6 
#
# 1 85.1022 42.3504 31.3903 4.3312 -3.9025 18.9725
# 2 42.3504 118.1164 46.9047 2.0988 0.6136 8.7493
# 3 31.3903 46.9047 94.5287 -3.0962 4.6637 12.7844
# 4 4.3312 2.0988 -3.0962 32.9879 -2.3903 -4.7051
# 5 -3.9025 0.6136 4.6637 -2.3903 32.0095 7.3232
# 6 18.9725 8.7493 12.7844 -4.7051 7.3232 40.1662
#
#
#
# Elastic Compliance Matrix: (Units=1/GPa)
#
#
# Indices 1 2 3 4 5 6 
#
# 1 0.016893 -0.004402 -0.002742 -0.002937 0.003975 -0.007217
# 2 -0.004402 0.011774 -0.004508 -0.000484 -0.000361 0.000959
# 3 -0.002742 -0.004508 0.014096 0.001598 -0.001794 -0.001695
# 4 -0.002937 -0.000484 0.001598 0.031583 0.000736 0.004549
# 5 0.003975 -0.000361 -0.001794 0.000736 0.033716 -0.007289
# 6 -0.007217 0.000959 -0.001695 0.004549 -0.007289 0.030498
#
#
# Mechanical properties :
#
#
# Convention : Reuss Voigt Hill
#
# Bulk Modulus (GPa) = 51.38833 59.89312 55.64072
# Shear Modulus (GPa) = 29.69977 32.83952 31.26964
#
# Velocity S-wave (km/s) = 3.82836 4.02564 3.92824
# Velocity P-wave (km/s) = 6.70083 7.15291 6.93056
#
# Compressibility (1/GPa) = 0.01945967
#
# Stress axis : x y z
#
# Youngs Moduli (GPa) = 59.19538 84.93069 70.94045
#
# Poissons Ratio (x) = 0.37388 0.19450
# Poissons Ratio (y) = 0.26059 0.31981
# Poissons Ratio (z) = 0.16230 0.38288
#
# Static dielectric constant tensor:
#      x y z
#    x 3.616360 -0.050360 -0.188350 
#    y -0.050360 4.154780 -0.330920 
#    z -0.188350 -0.330920 4.125120 
# 
# 
# High freq. dielectric constant tensor:
#      x y z
#    x 1.776480 0.004170 -0.019640 
#    y 0.004170 1.792140 0.007090 
#    z -0.019640 0.007090 1.806190 
# 
# From -- ./inp_files/178451.got.cif
#   From: 2010.06.25/outbox.cif.g09.slc.cpg/sg2_90_cif.got.tgz:178451.got - 2010.06.27 13:26:56.
