data_PCOD8022290
_publ_section_title
;
Structure prediction by ZEFSAII (Michael W. Deem and Ramdas Pophale) SiO2 
 PCOD8022290
Probable space group: P -1
;
_chemical_formula_sum "Si O2"
_cell_formula_units_Z 14
_cell_length_a 17.338445
_cell_length_b 8.828240
_cell_length_c 11.135038
_cell_angle_alpha 40.497055
_cell_angle_beta 33.016032
_cell_angle_gamma 50.825015
_cell_volume 603.015751
_symmetry_space_group_name_H-M "P -1"
_symmetry_group_IT_number 2
_symmetry_cell_setting 'triclinic'
loop_
_space_group_symop_operation_xyz
x,y,z
-x,-y,-z
loop_
_atom_site_type_symbol
_atom_site_label
_atom_site_fract_x
_atom_site_fract_y
_atom_site_fract_z
Si Si1 0.631469 0.901120 0.252346
Si Si2 0.098676 0.839973 0.194593
Si Si3 0.014594 0.696264 0.959337
Si Si4 0.490508 0.450307 0.742108
Si Si5 0.432007 0.266976 0.176811
Si Si6 0.887164 0.634161 0.409623
Si Si7 0.701756 0.499225 0.242096
O O1 0.555271 0.701230 0.555877
O O2 0.721031 0.760993 0.116710
O O3 0.503735 0.043298 0.275247
O O4 0.738510 0.065403 0.090683
O O5 0.102959 0.640688 0.409429
O O6 0.024832 0.756538 0.217547
O O7 0.002533 0.055208 0.233827
O O8 0.164844 0.664923 0.842590
O O9 0.000000 0.500000 0.000000
O O10 0.894603 0.670521 0.234853
O O11 0.589946 0.356895 0.559574
O O12 0.340725 0.488389 0.849569
O O13 0.471351 0.266324 0.984165
O O14 0.261483 0.261681 0.415308
O O15 0.500000 0.500000 0.000000
#
# Coordination Sequence:
#
# PCOD8022290 Si02
#       7
#     2   2   2   2   2   2   2
#     4  10  22  45  70 104 129 186 227 285 343 405
#     4  11  25  47  69 102 145 183 228 288 342 411
#     4  12  25  46  74  97 142 187 230 287 345 415
#     4   9  23  45  66 100 140 168 230 286 338 411
#     4  12  26  42  71  98 135 180 229 283 343 404
#     4  11  29  46  65 109 141 183 237 275 353 416
#     4   9  22  45  69 103 135 180 230 282 351 409
#
# _framework density 23.216642
#
# number of rings (size 3 to 8) (size 9 to 14) (size 15 to 20)
#    0.857    0.571    2.857    0.429   10.000    2.857 
#    2.571    0.000    0.000    0.000    0.000    0.000 
#    0.000    0.000    0.000    0.000    0.000    0.000 
#
# Total GULP energy -173455.406066 kJ/mol
# GULP energy per Si atom -12389.671862 kJ/mol
# Density = 2.316380 g / cm^3
# Si number density = 23.216642 Si / 1000 Ang^3
#
#
#
# Elastic Constant Matrix: (Units=GPa)
#
#
# Indices 1 2 3 4 5 6 
#
# 1 78.3646 25.5572 43.0409 7.7726 -19.8205 -8.4826
# 2 25.5572 117.9565 36.7664 -7.3069 -0.1643 -32.2199
# 3 43.0409 36.7664 85.5050 3.0277 -11.5083 -5.3843
# 4 7.7726 -7.3069 3.0277 30.9174 4.2191 -4.7380
# 5 -19.8205 -0.1643 -11.5083 4.2191 39.9955 2.9476
# 6 -8.4826 -32.2199 -5.3843 -4.7380 2.9476 48.0794
#
#
#
# Elastic Compliance Matrix: (Units=1/GPa)
#
#
# Indices 1 2 3 4 5 6 
#
# 1 0.020735 -0.002333 -0.008057 -0.006138 0.008591 0.000061
# 2 -0.002333 0.013184 -0.004659 0.006003 -0.003718 0.008721
# 3 -0.008057 -0.004659 0.017829 -0.001449 0.001476 -0.002780
# 4 -0.006138 0.006003 -0.001449 0.037596 -0.007914 0.006967
# 5 0.008591 -0.003718 0.001476 -0.007914 0.030761 -0.003477
# 6 0.000061 0.008721 -0.002780 0.006967 -0.003477 0.027243
#
#
# Mechanical properties :
#
#
# Convention : Reuss Voigt Hill
#
# Bulk Modulus (GPa) = 46.18641 54.72834 50.45738
# Shear Modulus (GPa) = 27.07669 35.56258 31.31963
#
# Velocity S-wave (km/s) = 3.41876 3.91803 3.67688
# Velocity P-wave (km/s) = 5.95993 6.64018 6.30923
#
# Compressibility (1/GPa) = 0.02165139
#
# Stress axis : x y z
#
# Youngs Moduli (GPa) = 48.22735 75.84897 56.08881
#
# Poissons Ratio (x) = 0.17695 0.45190
# Poissons Ratio (y) = 0.11251 0.26129
# Poissons Ratio (z) = 0.38856 0.35335
#
# Static dielectric constant tensor:
#      x y z
#    x 4.671660 -0.815290 -0.659200 
#    y -0.815290 4.923750 0.465120 
#    z -0.659200 0.465120 4.514620 
# 
# 
# High freq. dielectric constant tensor:
#      x y z
#    x 1.929750 -0.015910 -0.017160 
#    y -0.015910 1.917240 -0.004680 
#    z -0.017160 -0.004680 1.897890 
# 
# From -- ./inp_files/461773.got.cif
#   From: 2010.06.25/outbox.cif.g09.slc.cpg/sg2_231_cif.got.tgz:461773.got - 2010.06.27 13:26:56.
