data_PCOD8022638
_publ_section_title
;
Structure prediction by ZEFSAII (Michael W. Deem and Ramdas Pophale) SiO2 
 PCOD8022638
Probable space group: P -1
;
_chemical_formula_sum "Si O2"
_cell_formula_units_Z 16
_cell_length_a 11.486313
_cell_length_b 23.307954
_cell_length_c 16.993955
_cell_angle_alpha 20.884779
_cell_angle_beta 30.696907
_cell_angle_gamma 31.819101
_cell_volume 800.696133
_symmetry_space_group_name_H-M "P -1"
_symmetry_group_IT_number 2
_symmetry_cell_setting 'triclinic'
loop_
_space_group_symop_operation_xyz
x,y,z
-x,-y,-z
loop_
_atom_site_type_symbol
_atom_site_label
_atom_site_fract_x
_atom_site_fract_y
_atom_site_fract_z
Si Si1 0.457784 0.553449 0.590147
Si Si2 0.946971 0.660219 0.680602
Si Si3 0.256269 0.990713 0.689622
Si Si4 0.582747 0.771782 0.889143
Si Si5 0.542975 0.153080 0.684532
Si Si6 0.110447 0.099715 0.091708
Si Si7 0.146975 0.358621 0.853525
Si Si8 0.239785 0.053703 0.302860
O O1 0.495908 0.653119 0.519488
O O2 0.647480 0.562643 0.400815
O O3 0.202541 0.640591 0.593633
O O4 0.474179 0.363894 0.845427
O O5 0.755804 0.680796 0.835533
O O6 0.946347 0.499949 0.832665
O O7 0.893760 0.820754 0.448074
O O8 0.325039 0.875414 0.874515
O O9 0.121076 0.911015 0.805611
O O10 0.500000 0.000000 0.500000
O O11 0.704624 0.901191 0.697992
O O12 0.790588 0.048935 0.713431
O O13 0.565848 0.110045 0.633141
O O14 0.322076 0.088536 0.922655
O O15 0.032648 0.278247 0.951895
O O16 0.256469 0.214176 0.036912
O O17 0.000000 0.000000 0.500000
#
# Coordination Sequence:
#
# PCOD8022638 Si02
#       8
#     2   2   2   2   2   2   2   2
#     4  11  20  39  64  94 121 151 217 254 303 359
#     4  11  21  39  62  87 125 166 203 249 305 365
#     4  10  23  40  60  85 128 171 199 242 313 375
#     4  11  25  39  59  94 126 161 203 255 309 362
#     4   9  19  34  64  90 113 161 200 256 301 348
#     4   9  18  39  60  87 120 157 209 243 300 365
#     4  10  23  36  65  94 117 158 204 263 305 350
#     4  11  23  36  59  95 129 149 208 258 306 354
#
# _framework density 19.982613000000001
#
# number of rings (size 3 to 8) (size 9 to 14) (size 15 to 20)
#    0.000    1.750    2.500    2.250    7.000    0.000 
#    0.000    8.750    0.000    0.000    0.000    0.000 
#    0.000    0.000    0.000    0.000    0.000    0.000 
#
# Total GULP energy -198258.533926 kJ/mol
# GULP energy per Si atom -12391.158370 kJ/mol
# Density = 1.993713 g / cm^3
# Si number density = 19.982613 Si / 1000 Ang^3
#
#
#
# Elastic Constant Matrix: (Units=GPa)
#
#
# Indices 1 2 3 4 5 6 
#
# 1 100.3303 53.7389 42.3100 -1.1748 -19.3881 -4.2260
# 2 53.7389 80.2921 26.9728 -10.3797 -0.4988 18.8181
# 3 42.3100 26.9728 86.3741 -2.8338 -6.2857 -3.1349
# 4 -1.1748 -10.3797 -2.8338 28.0636 2.8692 -2.1732
# 5 -19.3881 -0.4988 -6.2857 2.8692 31.8738 -6.7991
# 6 -4.2260 18.8181 -3.1349 -2.1732 -6.7991 42.9891
#
#
#
# Elastic Compliance Matrix: (Units=1/GPa)
#
#
# Indices 1 2 3 4 5 6 
#
# 1 0.027627 -0.020908 -0.005361 -0.007983 0.019147 0.014102
# 2 -0.020908 0.032716 -0.001554 0.011413 -0.017525 -0.018684
# 3 -0.005361 -0.001554 0.014747 0.000805 -0.000185 0.001240
# 4 -0.007983 0.011413 0.000805 0.040147 -0.009232 -0.005153
# 5 0.019147 -0.017525 -0.000185 -0.009232 0.047064 0.016517
# 6 0.014102 -0.018684 0.001240 -0.005153 0.016517 0.035269
#
#
# Mechanical properties :
#
#
# Convention : Reuss Voigt Hill
#
# Bulk Modulus (GPa) = 51.42810 57.00445 54.21627
# Shear Modulus (GPa) = 19.25334 30.18362 24.71848
#
# Velocity S-wave (km/s) = 3.10740 3.89072 3.52092
# Velocity P-wave (km/s) = 6.21827 6.98374 6.61209
#
# Compressibility (1/GPa) = 0.01944462
#
# Stress axis : x y z
#
# Youngs Moduli (GPa) = 36.19658 30.56646 67.81242
#
# Poissons Ratio (x) = 0.63908 0.36351
# Poissons Ratio (y) = 0.75679 0.10537
# Poissons Ratio (z) = 0.19403 0.04749
#
# Static dielectric constant tensor:
#      x y z
#    x 4.329100 -0.156880 0.183380 
#    y -0.156880 4.065570 -0.347060 
#    z 0.183380 -0.347060 3.810060 
# 
# 
# High freq. dielectric constant tensor:
#      x y z
#    x 1.759770 0.023270 -0.017380 
#    y 0.023270 1.775360 -0.002200 
#    z -0.017380 -0.002200 1.783270 
# 
# From -- ./inp_files/257404.got.cif
#   From: 2010.06.25/outbox.cif.g09.slc.cpg/sg2_129_cif.got.tgz:257404.got - 2010.06.27 13:26:56.
