data_PCOD8022630
_publ_section_title
;
Structure prediction by ZEFSAII (Michael W. Deem and Ramdas Pophale) SiO2 
 PCOD8022630
Probable space group: P -1
;
_chemical_formula_sum "Si O2"
_cell_formula_units_Z 16
_cell_length_a 11.829553
_cell_length_b 13.778700
_cell_length_c 16.610009
_cell_angle_alpha 154.078790
_cell_angle_beta 134.075325
_cell_angle_gamma 50.679139
_cell_volume 849.965769
_symmetry_space_group_name_H-M "P -1"
_symmetry_group_IT_number 2
_symmetry_cell_setting 'triclinic'
loop_
_space_group_symop_operation_xyz
x,y,z
-x,-y,-z
loop_
_atom_site_type_symbol
_atom_site_label
_atom_site_fract_x
_atom_site_fract_y
_atom_site_fract_z
Si Si1 0.532609 0.443640 0.102145
Si Si2 0.688692 0.774974 0.919934
Si Si3 0.661748 0.192863 0.638122
Si Si4 0.968828 0.129105 0.499602
Si Si5 0.702122 0.704176 0.255441
Si Si6 0.002840 0.712023 0.102180
Si Si7 0.475777 0.946670 0.080836
Si Si8 0.346711 0.699918 0.471494
O O1 0.483766 0.665659 0.293140
O O2 0.670769 0.505182 0.154410
O O3 0.385785 0.342026 0.906267
O O4 0.595431 0.257048 0.056342
O O5 0.591193 0.556094 0.683649
O O6 0.661361 0.963267 0.979470
O O7 0.872524 0.690802 0.951404
O O8 0.626734 0.861770 0.040759
O O9 0.695497 0.244254 0.599979
O O10 0.817327 0.258563 0.815787
O O11 0.632881 0.929890 0.431540
O O12 0.811526 0.278490 0.537906
O O13 0.113473 0.285992 0.665515
O O14 0.943539 0.942607 0.282537
O O15 0.000000 0.000000 0.500000
O O16 0.000000 0.500000 0.000000
O O17 0.521888 0.139090 0.309368
#
# Coordination Sequence:
#
# PCOD8022630 Si02
#       8
#     2   2   2   2   2   2   2   2
#     4  11  21  38  58  79 115 153 185 226 272 338
#     4  11  23  35  54  88 112 154 181 229 284 327
#     4  11  21  32  58  85 115 143 179 233 283 326
#     4  11  19  32  54  83 118 139 176 236 281 331
#     4  10  23  36  54  87 113 149 184 226 286 323
#     4  11  19  31  53  85 113 141 179 227 283 325
#     4  11  22  38  56  80 119 148 192 222 274 340
#     4  12  20  34  57  85 115 147 177 234 286 324
#
# _framework density 18.824287000000002
#
# number of rings (size 3 to 8) (size 9 to 14) (size 15 to 20)
#    0.000    1.000    7.500    0.750    3.500    0.000 
#    0.000    0.000    0.000    3.750    0.000    0.000 
#    0.000    0.000    0.000    0.000    0.000    0.000 
#
# Total GULP energy -198338.884478 kJ/mol
# GULP energy per Si atom -12396.180280 kJ/mol
# Density = 1.878144 g / cm^3
# Si number density = 18.824287 Si / 1000 Ang^3
#
#
#
# Elastic Constant Matrix: (Units=GPa)
#
#
# Indices 1 2 3 4 5 6 
#
# 1 57.0348 26.3195 14.3413 0.5254 10.6615 7.8401
# 2 26.3195 103.0198 17.0544 11.4344 14.4903 11.2579
# 3 14.3413 17.0544 76.6320 7.5423 2.2915 6.0063
# 4 0.5254 11.4344 7.5423 22.9865 1.2455 3.6169
# 5 10.6615 14.4903 2.2915 1.2455 22.7623 4.6451
# 6 7.8401 11.2579 6.0063 3.6169 4.6451 22.6114
#
#
#
# Elastic Compliance Matrix: (Units=1/GPa)
#
#
# Indices 1 2 3 4 5 6 
#
# 1 0.021968 -0.004123 -0.003031 0.003528 -0.006749 -0.003937
# 2 -0.004123 0.012520 -0.001157 -0.005062 -0.005107 -0.002638
# 3 -0.003031 -0.001157 0.014358 -0.003847 0.001296 -0.001838
# 4 0.003528 -0.005062 -0.003847 0.048038 0.000442 -0.005456
# 5 -0.006749 -0.005107 0.001296 0.000442 0.051435 -0.006098
# 6 -0.003937 -0.002638 -0.001838 -0.005456 -0.006098 0.049518
#
#
# Mechanical properties :
#
#
# Convention : Reuss Voigt Hill
#
# Bulk Modulus (GPa) = 31.03130 39.12413 35.07771
# Shear Modulus (GPa) = 22.20249 25.60345 23.90297
#
# Velocity S-wave (km/s) = 3.43805 3.69199 3.56728
# Velocity P-wave (km/s) = 5.68162 6.24527 5.97010
#
# Compressibility (1/GPa) = 0.03222553
#
# Stress axis : x y z
#
# Youngs Moduli (GPa) = 45.52058 79.87069 69.64762
#
# Poissons Ratio (x) = 0.32929 0.21107
# Poissons Ratio (y) = 0.18767 0.08059
# Poissons Ratio (z) = 0.13795 0.09242
#
# Static dielectric constant tensor:
#      x y z
#    x 3.265950 0.007440 -0.191280 
#    y 0.007440 3.258120 0.081140 
#    z -0.191280 0.081140 3.759330 
# 
# 
# High freq. dielectric constant tensor:
#      x y z
#    x 1.704750 -0.000320 -0.015630 
#    y -0.000320 1.705590 0.010420 
#    z -0.015630 0.010420 1.753960 
# 
# From -- ./inp_files/423722.got.cif
#   From: 2010.06.25/outbox.cif.g09.slc.cpg/sg2_212_cif.got.tgz:423722.got - 2010.06.27 13:26:56.
