data_PCOD8022423
_publ_section_title
;
Structure prediction by ZEFSAII (Michael W. Deem and Ramdas Pophale) SiO2 
 PCOD8022423
Probable space group: P -1
;
_chemical_formula_sum "Si O2"
_cell_formula_units_Z 16
_cell_length_a 9.336167
_cell_length_b 11.963841
_cell_length_c 18.547304
_cell_angle_alpha 49.549578
_cell_angle_beta 29.591577
_cell_angle_gamma 49.764416
_cell_volume 759.831604
_symmetry_space_group_name_H-M "P -1"
_symmetry_group_IT_number 2
_symmetry_cell_setting 'triclinic'
loop_
_space_group_symop_operation_xyz
x,y,z
-x,-y,-z
loop_
_atom_site_type_symbol
_atom_site_label
_atom_site_fract_x
_atom_site_fract_y
_atom_site_fract_z
Si Si1 0.263514 0.329118 0.805545
Si Si2 0.755865 0.823551 0.683732
Si Si3 0.831956 0.943227 0.350773
Si Si4 0.312059 0.522489 0.827410
Si Si5 0.846472 0.493577 0.353236
Si Si6 0.799416 0.196685 0.153326
Si Si7 0.944567 0.399997 0.633590
Si Si8 0.174882 0.929846 0.346920
O O1 0.331080 0.478858 0.752700
O O2 0.085892 0.387253 0.785761
O O3 0.575934 0.221971 0.694434
O O4 0.082317 0.240299 0.973780
O O5 0.445352 0.791765 0.806469
O O6 0.972629 0.671094 0.678437
O O7 0.890326 0.904054 0.526156
O O8 0.700017 0.933292 0.731435
O O9 0.878852 0.768970 0.383903
O O10 0.070231 0.970263 0.294389
O O11 0.500000 0.000000 0.500000
O O12 0.890774 0.030037 0.216078
O O13 0.327500 0.693358 0.769466
O O14 0.589987 0.411113 0.791684
O O15 0.000000 0.500000 0.000000
O O16 0.500000 0.500000 0.500000
O O17 0.940358 0.535576 0.372578
O O18 0.000000 0.500000 0.500000
#
# Coordination Sequence:
#
# PCOD8022423 Si02
#       8
#     2   2   2   2   2   2   2   2
#     4  11  25  45  66  98 137 176 223 283 340 403
#     4  11  24  44  66  97 136 170 222 283 336 405
#     4  12  25  41  70  99 130 180 224 274 347 398
#     4  10  22  46  66  92 138 172 220 287 333 392
#     4  12  25  41  70  99 130 180 224 274 347 398
#     4  11  25  45  66  98 137 176 223 283 340 403
#     4  12  24  44  73  99 129 175 236 281 328 410
#     4  11  24  44  66  97 136 170 222 283 336 405
#
# _framework density 21.057297999999999
#
# number of rings (size 3 to 8) (size 9 to 14) (size 15 to 20)
#    0.000    0.750    5.000    2.250    5.250    1.500 
#    0.000    0.000    0.000    0.000    0.000    0.000 
#    0.000    0.000    0.000    0.000    0.000    0.000 
#
# Total GULP energy -198423.541122 kJ/mol
# GULP energy per Si atom -12401.471320 kJ/mol
# Density = 2.100937 g / cm^3
# Si number density = 21.057298 Si / 1000 Ang^3
#
#
#
# Elastic Constant Matrix: (Units=GPa)
#
#
# Indices 1 2 3 4 5 6 
#
# 1 137.6778 45.9116 26.4753 -0.8384 -1.7987 2.0065
# 2 45.9116 135.9694 19.8405 1.4119 5.8337 4.6861
# 3 26.4753 19.8405 62.6799 -3.7099 1.2951 -4.6913
# 4 -0.8384 1.4119 -3.7099 31.5591 -8.1823 4.1645
# 5 -1.7987 5.8337 1.2951 -8.1823 37.0264 -3.9198
# 6 2.0065 4.6861 -4.6913 4.1645 -3.9198 47.8608
#
#
#
# Elastic Compliance Matrix: (Units=1/GPa)
#
#
# Indices 1 2 3 4 5 6 
#
# 1 0.008687 -0.002543 -0.002892 0.000297 0.000953 -0.000347
# 2 -0.002543 0.008584 -0.001737 -0.000978 -0.001733 -0.000961
# 3 -0.002892 -0.001737 0.017977 0.001896 0.000124 0.001899
# 4 0.000297 -0.000978 0.001896 0.034164 0.007430 -0.002095
# 5 0.000953 -0.001733 0.000124 0.007430 0.029164 0.001884
# 6 -0.000347 -0.000961 0.001899 -0.002095 0.001884 0.021525
#
#
# Mechanical properties :
#
#
# Convention : Reuss Voigt Hill
#
# Bulk Modulus (GPa) = 47.83871 57.86466 52.85168
# Shear Modulus (GPa) = 35.35686 39.56256 37.45971
#
# Velocity S-wave (km/s) = 4.10210 4.33922 4.22233
# Velocity P-wave (km/s) = 6.72339 7.25565 6.99458
#
# Compressibility (1/GPa) = 0.02090357
#
# Stress axis : x y z
#
# Youngs Moduli (GPa) = 115.11562 116.48958 55.62550
#
# Poissons Ratio (x) = 0.29626 0.16088
# Poissons Ratio (y) = 0.29276 0.09663
# Poissons Ratio (z) = 0.33294 0.20235
#
# Static dielectric constant tensor:
#      x y z
#    x 2.974160 1.226100 -1.030580 
#    y 1.226100 3.177160 1.031430 
#    z -1.030580 1.031430 2.821380 
# 
# 
# High freq. dielectric constant tensor:
#      x y z
#    x 1.838970 0.005250 -0.009650 
#    y 0.005250 1.836690 0.009720 
#    z -0.009650 0.009720 1.811900 
# 
# From -- ./inp_files/271470.got.cif
#   From: 2010.06.25/outbox.cif.g09.slc.cpg/sg2_136_cif.got.tgz:271470.got - 2010.06.27 13:26:56.
