data_PCOD8022046
_publ_section_title
;
Structure prediction by ZEFSAII (Michael W. Deem and Ramdas Pophale) SiO2 
 PCOD8022046
Probable space group: P -1
;
_chemical_formula_sum "Si O2"
_cell_formula_units_Z 16
_cell_length_a 8.762978
_cell_length_b 19.871498
_cell_length_c 23.293235
_cell_angle_alpha 157.860308
_cell_angle_beta 31.212308
_cell_angle_gamma 149.665216
_cell_volume 738.108225
_symmetry_space_group_name_H-M "P -1"
_symmetry_group_IT_number 2
_symmetry_cell_setting 'triclinic'
loop_
_space_group_symop_operation_xyz
x,y,z
-x,-y,-z
loop_
_atom_site_type_symbol
_atom_site_label
_atom_site_fract_x
_atom_site_fract_y
_atom_site_fract_z
Si Si1 0.412798 0.316569 0.922863
Si Si2 0.643799 0.993549 0.117612
Si Si3 0.390578 0.661116 0.395563
Si Si4 0.721999 0.013524 0.886491
Si Si5 0.631891 0.393048 0.038083
Si Si6 0.189154 0.941041 0.442311
Si Si7 0.443032 0.278085 0.478399
Si Si8 0.295354 0.403845 0.436729
O O1 0.648463 0.203514 0.746601
O O2 0.051294 0.188661 0.925353
O O3 0.500000 0.500000 0.000000
O O4 0.453654 0.391386 0.034277
O O5 0.462940 0.963774 0.092230
O O6 0.636577 0.183514 0.301213
O O7 0.448077 0.823856 0.088634
O O8 0.000000 0.000000 0.000000
O O9 0.530450 0.503559 0.208251
O O10 0.436626 0.710218 0.486596
O O11 0.024491 0.559661 0.421539
O O12 0.545898 0.857833 0.463587
O O13 0.795226 0.821527 0.712321
O O14 0.500000 0.000000 0.000000
O O15 0.000000 0.500000 0.000000
O O16 0.938010 0.839091 0.493162
O O17 0.000000 0.000000 0.500000
O O18 0.522947 0.493085 0.598163
O O19 0.500000 0.500000 0.500000
#
# Coordination Sequence:
#
# PCOD8022046 Si02
#       8
#     2   2   2   2   2   2   2   2
#     4  12  27  49  74 109 149 190 241 303 366 423
#     4  12  26  47  72 104 141 188 239 293 364 439
#     4  11  24  44  72 103 138 186 237 294 352 423
#     4  12  29  46  72 104 145 190 236 303 365 424
#     4  12  25  45  74 106 144 185 239 292 356 437
#     4  10  22  44  73 102 139 186 237 290 355 430
#     4  11  24  44  74 101 137 188 237 291 358 431
#     4  12  26  46  66 102 144 181 243 287 355 423
#
# _framework density 21.677036999999999
#
# number of rings (size 3 to 8) (size 9 to 14) (size 15 to 20)
#    0.000    0.500    2.500    6.375    7.000    0.000 
#    0.000    1.875    0.000    0.000    0.000    0.000 
#    0.000    0.000    0.000    0.000    0.000    0.000 
#
# Total GULP energy -198419.745041 kJ/mol
# GULP energy per Si atom -12401.234065 kJ/mol
# Density = 2.162770 g / cm^3
# Si number density = 21.677037 Si / 1000 Ang^3
#
#
#
# Elastic Constant Matrix: (Units=GPa)
#
#
# Indices 1 2 3 4 5 6 
#
# 1 143.6116 70.7507 45.3136 -2.9626 2.6646 7.7749
# 2 70.7507 184.0096 34.4825 4.3850 -11.1152 7.1199
# 3 45.3136 34.4825 90.7178 -8.2717 4.6854 7.0738
# 4 -2.9626 4.3850 -8.2717 46.7507 -2.0828 -7.5209
# 5 2.6646 -11.1152 4.6854 -2.0828 34.2064 6.9041
# 6 7.7749 7.1199 7.0738 -7.5209 6.9041 37.3823
#
#
#
# Elastic Compliance Matrix: (Units=1/GPa)
#
#
# Indices 1 2 3 4 5 6 
#
# 1 0.009660 -0.003107 -0.003531 0.000146 -0.001168 -0.000504
# 2 -0.003107 0.007128 -0.001318 -0.001168 0.002917 -0.001236
# 3 -0.003531 -0.001318 0.013635 0.002098 -0.001721 -0.000855
# 4 0.000146 -0.001168 0.002098 0.022575 -0.000186 0.004371
# 5 -0.001168 0.002917 -0.001721 -0.000186 0.031684 -0.005876
# 6 -0.000504 -0.001236 -0.000855 0.004371 -0.005876 0.029217
#
#
# Mechanical properties :
#
#
# Convention : Reuss Voigt Hill
#
# Bulk Modulus (GPa) = 68.91807 79.93695 74.42751
# Shear Modulus (GPa) = 37.13368 41.52068 39.32718
#
# Velocity S-wave (km/s) = 4.14338 4.38130 4.26400
# Velocity P-wave (km/s) = 7.39948 7.90891 7.65843
#
# Compressibility (1/GPa) = 0.01450998
#
# Stress axis : x y z
#
# Youngs Moduli (GPa) = 103.51859 140.29195 73.34070
#
# Poissons Ratio (x) = 0.43589 0.25899
# Poissons Ratio (y) = 0.32163 0.09668
# Poissons Ratio (z) = 0.36556 0.18494
#
# Static dielectric constant tensor:
#      x y z
#    x 4.343930 -0.132680 -0.685230 
#    y -0.132680 4.713030 0.171770 
#    z -0.685230 0.171770 4.752420 
# 
# 
# High freq. dielectric constant tensor:
#      x y z
#    x 1.847160 0.002290 -0.004470 
#    y 0.002290 1.883280 0.004330 
#    z -0.004470 0.004330 1.859280 
# 
# From -- ./inp_files/494997.got.cif
#   From: 2010.06.25/outbox.cif.g09.slc.cpg/sg2_248_cif.got.tgz:494997.got - 2010.06.27 13:26:56.
