data_PCOD8022978
_publ_section_title
;
Structure prediction by ZEFSAII (Michael W. Deem and Ramdas Pophale) SiO2 
 PCOD8022978
Probable space group: P -1
;
_chemical_formula_sum "Si O2"
_cell_formula_units_Z 16
_cell_length_a 8.915174
_cell_length_b 14.437656
_cell_length_c 11.608918
_cell_angle_alpha 93.061696
_cell_angle_beta 99.297645
_cell_angle_gamma 29.994769
_cell_volume 725.761417
_symmetry_space_group_name_H-M "P -1"
_symmetry_group_IT_number 2
_symmetry_cell_setting 'triclinic'
loop_
_space_group_symop_operation_xyz
x,y,z
-x,-y,-z
loop_
_atom_site_type_symbol
_atom_site_label
_atom_site_fract_x
_atom_site_fract_y
_atom_site_fract_z
Si Si1 0.581091 0.866270 0.106351
Si Si2 0.368574 0.966626 0.467126
Si Si3 0.738547 0.792485 0.870336
Si Si4 0.394932 0.466917 0.818579
Si Si5 0.924838 0.141754 0.036648
Si Si6 0.579259 0.730808 0.671041
Si Si7 0.256438 0.351491 0.688352
Si Si8 0.250238 0.727429 0.719916
O O1 0.723656 0.712348 0.192600
O O2 0.548732 0.983586 0.173561
O O3 0.791737 0.753713 0.011265
O O4 0.224819 0.041581 0.035922
O O5 0.357136 0.917184 0.583263
O O6 0.575806 0.794688 0.397788
O O7 0.500000 0.000000 0.500000
O O8 0.029529 0.156239 0.387335
O O9 0.645678 0.742672 0.803224
O O10 0.053668 0.661363 0.842733
O O11 0.414711 0.367777 0.729676
O O12 0.461085 0.524291 0.755287
O O13 0.633852 0.335663 0.944198
O O14 0.867294 0.168967 0.167687
O O15 0.000000 0.000000 0.000000
O O16 0.438493 0.704525 0.671624
O O17 0.896524 0.552277 0.626083
#
# Coordination Sequence:
#
# PCOD8022978 Si02
#       8
#     2   2   2   2   2   2   2   2
#     4  11  21  38  64  95 137 170 225 268 328 390
#     4  12  24  49  74  92 129 175 225 276 331 388
#     4  10  23  40  63  98 132 177 222 268 325 400
#     4  11  23  41  67  97 138 177 216 267 338 394
#     4  12  22  39  64  98 136 180 213 274 333 390
#     4  11  26  41  68  97 134 173 223 272 332 379
#     4  11  23  43  67  97 127 171 228 265 332 394
#     4  12  25  43  64 100 134 172 224 270 330 394
#
# _framework density 22.045812000000002
#
# number of rings (size 3 to 8) (size 9 to 14) (size 15 to 20)
#    0.000    0.750    3.750    4.125    1.750    2.000 
#    0.000    5.000    0.000    0.000    0.000    0.000 
#    0.000    0.000    0.000    0.000    0.000    0.000 
#
# Total GULP energy -198409.197725 kJ/mol
# GULP energy per Si atom -12400.574858 kJ/mol
# Density = 2.199563 g / cm^3
# Si number density = 22.045812 Si / 1000 Ang^3
#
#
#
# Elastic Constant Matrix: (Units=GPa)
#
#
# Indices 1 2 3 4 5 6 
#
# 1 118.7187 7.6070 33.2269 -4.5846 -11.6008 18.0774
# 2 7.6070 57.6373 20.0216 0.4129 0.7093 18.1156
# 3 33.2269 20.0216 81.8747 -18.1562 -6.7277 5.6756
# 4 -4.5846 0.4129 -18.1562 46.0092 5.6296 1.6256
# 5 -11.6008 0.7093 -6.7277 5.6296 35.2775 -9.6447
# 6 18.0774 18.1156 5.6756 1.6256 -9.6447 38.2817
#
#
#
# Elastic Compliance Matrix: (Units=1/GPa)
#
#
# Indices 1 2 3 4 5 6 
#
# 1 0.010336 0.001562 -0.004295 -0.000688 0.001400 -0.004601
# 2 0.001562 0.023002 -0.006129 -0.001561 -0.004059 -0.011670
# 3 -0.004295 -0.006129 0.016727 0.005931 0.001670 0.002618
# 4 -0.000688 -0.001561 0.005931 0.024503 -0.003445 -0.001725
# 5 0.001400 -0.004059 0.001670 -0.003445 0.032299 0.009296
# 6 -0.004601 -0.011670 0.002618 -0.001725 0.009296 0.035845
#
#
# Mechanical properties :
#
#
# Convention : Reuss Voigt Hill
#
# Bulk Modulus (GPa) = 30.92199 42.21574 36.56887
# Shear Modulus (GPa) = 29.20280 37.07202 33.13741
#
# Velocity S-wave (km/s) = 3.64351 4.10517 3.88121
# Velocity P-wave (km/s) = 5.63533 6.45450 6.05877
#
# Compressibility (1/GPa) = 0.03233945
#
# Stress axis : x y z
#
# Youngs Moduli (GPa) = 96.74716 43.47446 59.78473
#
# Poissons Ratio (x) = -0.06789 0.25678
# Poissons Ratio (y) = -0.15109 0.36644
# Poissons Ratio (z) = 0.41554 0.26647
#
# Static dielectric constant tensor:
#      x y z
#    x 3.978160 0.151220 0.033480 
#    y 0.151220 3.996600 -0.179060 
#    z 0.033480 -0.179060 4.038670 
# 
# 
# High freq. dielectric constant tensor:
#      x y z
#    x 1.875630 0.023160 0.002630 
#    y 0.023160 1.868000 -0.004650 
#    z 0.002630 -0.004650 1.866630 
# 
# From -- ./inp_files/399120.got.cif
#   From: 2010.06.25/outbox.cif.g09.slc.cpg/sg2_200_cif.got.tgz:399120.got - 2010.06.27 13:26:56.
