data_PCOD8022771
_publ_section_title
;
Structure prediction by ZEFSAII (Michael W. Deem and Ramdas Pophale) SiO2 
 PCOD8022771
Probable space group: P -1
;
_chemical_formula_sum "Si O2"
_cell_formula_units_Z 16
_cell_length_a 13.920121
_cell_length_b 11.630779
_cell_length_c 14.829039
_cell_angle_alpha 74.251782
_cell_angle_beta 52.483507
_cell_angle_gamma 30.768450
_cell_volume 763.806185
_symmetry_space_group_name_H-M "P -1"
_symmetry_group_IT_number 2
_symmetry_cell_setting 'triclinic'
loop_
_space_group_symop_operation_xyz
x,y,z
-x,-y,-z
loop_
_atom_site_type_symbol
_atom_site_label
_atom_site_fract_x
_atom_site_fract_y
_atom_site_fract_z
Si Si1 0.064244 0.456886 0.142889
Si Si2 0.158190 0.523809 0.416015
Si Si3 0.756000 0.201097 0.863026
Si Si4 0.200207 0.754825 0.365504
Si Si5 0.732500 0.934778 0.117419
Si Si6 0.174258 0.296541 0.585171
Si Si7 0.129399 0.800288 0.892952
Si Si8 0.643895 0.028653 0.947709
O O1 0.063685 0.311464 0.171254
O O2 0.837846 0.713889 0.145524
O O3 0.014008 0.552850 0.250609
O O4 0.389750 0.211179 0.987605
O O5 0.147566 0.663775 0.435148
O O6 0.094149 0.493153 0.541859
O O7 0.916173 0.724242 0.431950
O O8 0.487250 0.209940 0.262313
O O9 0.874002 0.162183 0.715521
O O10 0.660718 0.154555 0.896908
O O11 0.500000 0.500000 0.000000
O O12 0.033214 0.941241 0.823170
O O13 0.525801 0.511201 0.240733
O O14 0.000000 0.000000 0.500000
O O15 0.583202 0.048901 0.082355
O O16 0.006338 0.778098 0.984715
O O17 0.500000 0.000000 0.500000
O O18 0.000000 0.000000 0.000000
#
# Coordination Sequence:
#
# PCOD8022771 Si02
#       8
#     2   2   2   2   2   2   2   2
#     4  11  22  37  65  89 127 168 206 267 338 373
#     4  11  24  43  65  93 130 170 227 270 316 408
#     4  11  23  42  71  96 131 177 229 271 330 408
#     4  12  27  45  66 102 141 178 218 287 346 385
#     4  11  20  40  67  94 125 166 221 269 318 394
#     4  11  24  43  64  92 124 176 216 263 325 396
#     4  11  22  41  70 101 129 174 232 273 326 413
#     4  10  23  39  58  98 128 155 214 273 321 385
#
# _framework density 20.947721999999999
#
# number of rings (size 3 to 8) (size 9 to 14) (size 15 to 20)
#    0.000    1.000    5.000    1.875    1.750    1.500 
#    4.500    0.000    0.000    0.000    0.000    0.000 
#    0.000    0.000    0.000    0.000    0.000    0.000 
#
# Total GULP energy -198301.114548 kJ/mol
# GULP energy per Si atom -12393.819659 kJ/mol
# Density = 2.090004 g / cm^3
# Si number density = 20.947722 Si / 1000 Ang^3
#
#
#
# Elastic Constant Matrix: (Units=GPa)
#
#
# Indices 1 2 3 4 5 6 
#
# 1 77.8133 30.3810 14.4081 14.0593 -9.5922 15.9097
# 2 30.3810 95.8289 23.6316 7.2580 -1.7455 5.7709
# 3 14.4081 23.6316 77.5804 9.3595 4.7929 -0.0011
# 4 14.0593 7.2580 9.3595 37.6870 -2.5112 5.9414
# 5 -9.5922 -1.7455 4.7929 -2.5112 34.3792 4.4062
# 6 15.9097 5.7709 -0.0011 5.9414 4.4062 39.8027
#
#
#
# Elastic Compliance Matrix: (Units=1/GPa)
#
#
# Indices 1 2 3 4 5 6 
#
# 1 0.017573 -0.004344 -0.001809 -0.003893 0.005473 -0.006419
# 2 -0.004344 0.012558 -0.003003 -0.000053 -0.000152 -0.000060
# 3 -0.001809 -0.003003 0.014687 -0.002912 -0.003167 0.001944
# 4 -0.003893 -0.000053 -0.002912 0.029319 0.001845 -0.003017
# 5 0.005473 -0.000152 -0.003167 0.001845 0.031949 -0.005978
# 6 -0.006419 -0.000060 0.001944 -0.003017 -0.005978 0.028811
#
#
# Mechanical properties :
#
#
# Convention : Reuss Voigt Hill
#
# Bulk Modulus (GPa) = 37.72611 43.11822 40.42216
# Shear Modulus (GPa) = 30.85604 34.56058 32.70831
#
# Velocity S-wave (km/s) = 3.84213 4.06624 3.95577
# Velocity P-wave (km/s) = 6.14259 6.53255 6.34057
#
# Compressibility (1/GPa) = 0.02650684
#
# Stress axis : x y z
#
# Youngs Moduli (GPa) = 56.90627 79.63207 68.08549
#
# Poissons Ratio (x) = 0.34592 0.12316
# Poissons Ratio (y) = 0.24720 0.20444
# Poissons Ratio (z) = 0.10294 0.23911
#
# Static dielectric constant tensor:
#      x y z
#    x 3.692570 0.094780 0.434150 
#    y 0.094780 4.010210 -0.135080 
#    z 0.434150 -0.135080 3.290380 
# 
# 
# High freq. dielectric constant tensor:
#      x y z
#    x 1.826670 -0.005720 0.005750 
#    y -0.005720 1.832890 -0.004670 
#    z 0.005750 -0.004670 1.804090 
# 
# From -- ./inp_files/531793.got.cif
#   From: 2010.06.25/outbox.cif.g09.slc.cpg/sg2_266_cif.got.tgz:531793.got - 2010.06.27 13:26:56.
