data_PCOD8022392
_publ_section_title
;
Structure prediction by ZEFSAII (Michael W. Deem and Ramdas Pophale) SiO2 
 PCOD8022392
Probable space group: P -1
;
_chemical_formula_sum "Si O2"
_cell_formula_units_Z 14
_cell_length_a 9.119471
_cell_length_b 17.734609
_cell_length_c 5.422651
_cell_angle_alpha 73.069155
_cell_angle_beta 65.588945
_cell_angle_gamma 117.845497
_cell_volume 564.146230
_symmetry_space_group_name_H-M "P -1"
_symmetry_group_IT_number 2
_symmetry_cell_setting 'triclinic'
loop_
_space_group_symop_operation_xyz
x,y,z
-x,-y,-z
loop_
_atom_site_type_symbol
_atom_site_label
_atom_site_fract_x
_atom_site_fract_y
_atom_site_fract_z
Si Si1 0.329416 0.286132 0.777683
Si Si2 0.623979 0.150976 0.355977
Si Si3 0.651423 0.002751 0.711479
Si Si4 0.299979 0.373451 0.225191
Si Si5 0.192534 0.559621 0.617511
Si Si6 0.805449 0.930786 0.002184
Si Si7 0.969886 0.364233 0.676156
O O1 0.254771 0.307654 0.566713
O O2 0.583028 0.356051 0.476741
O O3 0.202106 0.160903 0.005300
O O4 0.309950 0.325611 0.014569
O O5 0.736326 0.102144 0.383758
O O6 0.438692 0.123897 0.692531
O O7 0.504471 0.108446 0.217853
O O8 0.828753 0.275416 0.070019
O O9 0.500000 0.000000 0.000000
O O10 0.845377 0.011344 0.684368
O O11 0.071138 0.345346 0.402500
O O12 0.500000 0.500000 0.000000
O O13 0.185045 0.622659 0.350965
O O14 0.176244 0.470346 0.574941
O O15 0.000000 0.500000 0.000000
O O16 0.000000 0.000000 0.000000
#
# Coordination Sequence:
#
# PCOD8022392 Si02
#       7
#     2   2   2   2   2   2   2
#     4  12  28  49  78 110 155 203 252 313 383 450
#     4  10  22  45  74 106 143 190 255 315 381 444
#     4   9  21  44  73 100 142 191 249 316 374 447
#     4  12  27  51  75 111 157 201 251 308 384 459
#     4  11  24  43  76 109 147 198 250 309 379 453
#     4  11  26  48  73 108 150 201 253 316 379 457
#     4  11  25  43  74 110 145 195 250 313 375 459
#
# _framework density 24.816261999999998
#
# number of rings (size 3 to 8) (size 9 to 14) (size 15 to 20)
#    0.000    1.143    1.429    3.000    8.000    5.143 
#    5.143    0.000    0.000    0.000    0.000    0.000 
#    0.000    0.000    0.000    0.000    0.000    0.000 
#
# Total GULP energy -173458.561655 kJ/mol
# GULP energy per Si atom -12389.897261 kJ/mol
# Density = 2.475978 g / cm^3
# Si number density = 24.816262 Si / 1000 Ang^3
#
#
#
# Elastic Constant Matrix: (Units=GPa)
#
#
# Indices 1 2 3 4 5 6 
#
# 1 127.0822 56.4572 40.7003 -17.4337 25.8747 -5.9962
# 2 56.4572 153.3816 42.5460 2.7307 16.3733 -13.1376
# 3 40.7003 42.5460 105.2163 -9.2946 12.7647 -10.2398
# 4 -17.4337 2.7307 -9.2946 45.1437 -2.5965 4.7330
# 5 25.8747 16.3733 12.7647 -2.5965 42.3028 5.3786
# 6 -5.9962 -13.1376 -10.2398 4.7330 5.3786 33.2047
#
#
#
# Elastic Compliance Matrix: (Units=1/GPa)
#
#
# Indices 1 2 3 4 5 6 
#
# 1 0.011533 -0.003133 -0.002207 0.003858 -0.004993 0.000421
# 2 -0.003133 0.008678 -0.002088 -0.002534 -0.001324 0.002800
# 3 -0.002207 -0.002088 0.011758 0.001342 -0.001622 0.002473
# 4 0.003858 -0.002534 0.001342 0.024436 0.000148 -0.003399
# 5 -0.004993 -0.001324 -0.001622 0.000148 0.028539 -0.006570
# 6 0.000421 0.002800 0.002473 -0.003399 -0.006570 0.033611
#
#
# Mechanical properties :
#
#
# Convention : Reuss Voigt Hill
#
# Bulk Modulus (GPa) = 58.43154 73.89855 66.16505
# Shear Modulus (GPa) = 35.94116 40.52868 38.23492
#
# Velocity S-wave (km/s) = 3.80977 4.04561 3.92946
# Velocity P-wave (km/s) = 6.55357 7.18787 6.87804
#
# Compressibility (1/GPa) = 0.01711404
#
# Stress axis : x y z
#
# Youngs Moduli (GPa) = 86.70740 115.23062 85.04577
#
# Poissons Ratio (x) = 0.36096 0.18770
# Poissons Ratio (y) = 0.27161 0.17759
# Poissons Ratio (z) = 0.19137 0.24063
#
# Static dielectric constant tensor:
#      x y z
#    x 5.082600 -0.312220 0.457900 
#    y -0.312220 4.660850 -0.066150 
#    z 0.457900 -0.066150 4.507000 
# 
# 
# High freq. dielectric constant tensor:
#      x y z
#    x 1.998590 -0.012540 0.008100 
#    y -0.012540 1.992000 0.003340 
#    z 0.008100 0.003340 1.992960 
# 
# From -- ./inp_files/47037.got.cif
#   From: 2010.06.25/outbox.cif.g09.slc.cpg/sg2_24_cif.got.tgz:47037.got - 2010.06.27 13:26:56.
