data_PCOD8022579
_publ_section_title
;
Structure prediction by ZEFSAII (Michael W. Deem and Ramdas Pophale) SiO2 
 PCOD8022579
Probable space group: P -1
;
_chemical_formula_sum "Si O2"
_cell_formula_units_Z 14
_cell_length_a 18.033672
_cell_length_b 22.139074
_cell_length_c 9.558526
_cell_angle_alpha 148.231304
_cell_angle_beta 140.186468
_cell_angle_gamma 17.476151
_cell_volume 580.850439
_symmetry_space_group_name_H-M "P -1"
_symmetry_group_IT_number 2
_symmetry_cell_setting 'triclinic'
loop_
_space_group_symop_operation_xyz
x,y,z
-x,-y,-z
loop_
_atom_site_type_symbol
_atom_site_label
_atom_site_fract_x
_atom_site_fract_y
_atom_site_fract_z
Si Si1 0.561639 0.330118 0.671713
Si Si2 0.560167 0.087032 0.892783
Si Si3 0.759427 0.223202 0.266632
Si Si4 0.161390 0.615516 0.420782
Si Si5 0.353878 0.035170 0.532455
Si Si6 0.512888 0.672627 0.155023
Si Si7 0.950077 0.918413 0.203280
O O1 0.323025 0.507210 0.578921
O O2 0.586713 0.217852 0.614134
O O3 0.827973 0.106803 0.524081
O O4 0.500000 0.500000 0.000000
O O5 0.445925 0.080472 0.802183
O O6 0.682149 0.933171 0.623921
O O7 0.341037 0.375998 0.113073
O O8 0.783846 0.948743 0.034855
O O9 0.500000 0.500000 0.500000
O O10 0.920557 0.195296 0.405633
O O11 0.914176 0.005162 0.167785
O O12 0.706528 0.194988 0.995657
O O13 0.914743 0.758968 0.381505
O O14 0.565003 0.753662 0.329529
O O15 0.760099 0.372244 0.915708
#
# Coordination Sequence:
#
# PCOD8022579 Si02
#       7
#     2   2   2   2   2   2   2
#     4  11  23  42  66 103 143 182 229 284 351 417
#     4  10  22  47  72  99 135 184 239 289 343 408
#     4  12  22  45  71 101 140 187 226 279 360 414
#     4  11  23  44  69 103 142 179 232 293 346 413
#     4  11  24  43  73 101 134 187 240 283 343 417
#     4  12  26  43  65 110 139 185 232 282 354 418
#     4  11  25  47  69 103 148 181 229 294 347 417
#
# _framework density 24.102588999999998
#
# number of rings (size 3 to 8) (size 9 to 14) (size 15 to 20)
#    0.000    0.857    5.714    1.286    0.000    6.857 
#    2.571    2.857    0.000    0.000    0.000    0.000 
#    0.000    0.000    0.000    0.000    0.000    0.000 
#
# Total GULP energy -173587.078759 kJ/mol
# GULP energy per Si atom -12399.077054 kJ/mol
# Density = 2.404773 g / cm^3
# Si number density = 24.102589 Si / 1000 Ang^3
#
#
#
# Elastic Constant Matrix: (Units=GPa)
#
#
# Indices 1 2 3 4 5 6 
#
# 1 142.4551 43.6489 38.6969 -9.2627 16.0322 -9.3367
# 2 43.6489 114.8780 32.0655 3.2864 4.9038 -2.3683
# 3 38.6969 32.0655 98.0817 -1.3739 8.1352 -0.5858
# 4 -9.2627 3.2864 -1.3739 29.9974 -0.2022 -0.5667
# 5 16.0322 4.9038 8.1352 -0.2022 56.7961 4.0878
# 6 -9.3367 -2.3683 -0.5858 -0.5667 4.0878 35.0347
#
#
#
# Elastic Compliance Matrix: (Units=1/GPa)
#
#
# Indices 1 2 3 4 5 6 
#
# 1 0.009131 -0.002721 -0.002476 0.003037 -0.002158 0.002509
# 2 -0.002721 0.010455 -0.002392 -0.002096 0.000209 -0.000117
# 3 -0.002476 -0.002392 0.012016 0.000032 -0.000777 -0.000529
# 4 0.003037 -0.002096 0.000032 0.034525 -0.000652 0.001303
# 5 -0.002158 0.000209 -0.000777 -0.000652 0.018504 -0.002743
# 6 0.002509 -0.000117 -0.000529 0.001303 -0.002743 0.029536
#
#
# Mechanical properties :
#
#
# Convention : Reuss Voigt Hill
#
# Bulk Modulus (GPa) = 60.88820 64.91527 62.90173
# Shear Modulus (GPa) = 37.08604 40.43254 38.75929
#
# Velocity S-wave (km/s) = 3.92685 4.10020 4.01446
# Velocity P-wave (km/s) = 6.77327 7.02900 6.90232
#
# Compressibility (1/GPa) = 0.01642354
#
# Stress axis : x y z
#
# Youngs Moduli (GPa) = 109.51733 95.64717 83.22006
#
# Poissons Ratio (x) = 0.26028 0.20609
# Poissons Ratio (y) = 0.29802 0.19905
# Poissons Ratio (z) = 0.27121 0.22877
#
# Static dielectric constant tensor:
#      x y z
#    x 5.621060 0.161460 -0.327390 
#    y 0.161460 4.391660 -0.129530 
#    z -0.327390 -0.129530 4.904570 
# 
# 
# High freq. dielectric constant tensor:
#      x y z
#    x 1.971230 -0.009680 -0.003760 
#    y -0.009680 1.950790 0.003780 
#    z -0.003760 0.003780 1.962040 
# 
# From -- ./inp_files/337941.got.cif
#   From: 2010.06.25/outbox.cif.g09.slc.cpg/sg2_169_cif.got.tgz:337941.got - 2010.06.27 13:26:56.
