data_PCOD8022493
_publ_section_title
;
Structure prediction by ZEFSAII (Michael W. Deem and Ramdas Pophale) SiO2 
 PCOD8022493
Probable space group: P -1
;
_chemical_formula_sum "Si O2"
_cell_formula_units_Z 16
_cell_length_a 6.762906
_cell_length_b 19.551387
_cell_length_c 8.405648
_cell_angle_alpha 124.003325
_cell_angle_beta 131.305613
_cell_angle_gamma 78.345371
_cell_volume 666.749743
_symmetry_space_group_name_H-M "P -1"
_symmetry_group_IT_number 2
_symmetry_cell_setting 'triclinic'
loop_
_space_group_symop_operation_xyz
x,y,z
-x,-y,-z
loop_
_atom_site_type_symbol
_atom_site_label
_atom_site_fract_x
_atom_site_fract_y
_atom_site_fract_z
Si Si1 0.743893 0.034136 0.800843
Si Si2 0.575632 0.862233 0.634247
Si Si3 0.103607 0.609040 0.540446
Si Si4 0.468041 0.080749 0.990447
Si Si5 0.114893 0.581241 0.879572
Si Si6 0.691904 0.699595 0.321766
Si Si7 0.729325 0.681072 0.948454
Si Si8 0.996630 0.862169 0.199818
O O1 0.992336 0.102717 0.933763
O O2 0.500000 0.000000 0.500000
O O3 0.802147 0.949778 0.809450
O O4 0.685217 0.098253 0.988277
O O5 0.519373 0.845229 0.772626
O O6 0.634759 0.783466 0.474269
O O7 0.293381 0.882138 0.456403
O O8 0.058394 0.601074 0.694090
O O9 0.416660 0.632950 0.679092
O O10 0.953050 0.520210 0.258334
O O11 0.968020 0.683410 0.513927
O O12 0.183813 0.078585 0.741814
O O13 0.500000 0.000000 0.000000
O O14 0.922189 0.617873 0.942719
O O15 0.435309 0.621443 0.135637
O O16 0.733951 0.713028 0.173486
O O17 0.842946 0.761791 0.998652
#
# Coordination Sequence:
#
# PCOD8022493 Si02
#       8
#     2   2   2   2   2   2   2   2
#     4   9  22  43  67  93 129 179 222 273 332 391
#     4  10  23  44  65  98 134 176 228 279 336 404
#     4  10  24  43  71 100 135 181 223 284 341 407
#     4  10  24  43  65  99 127 175 230 277 338 403
#     4  10  22  46  70  99 138 177 228 277 344 412
#     4  11  24  43  67 104 137 178 229 279 337 410
#     4  11  25  41  66 100 138 177 229 278 342 407
#     4  11  24  44  65  92 137 178 219 289 331 396
#
# _framework density 23.997011000000001
#
# number of rings (size 3 to 8) (size 9 to 14) (size 15 to 20)
#    0.000    1.750    1.250    0.750    5.250    9.000 
#    4.500    0.000    0.000    0.000    0.000    0.000 
#    0.000    0.000    0.000    0.000    0.000    0.000 
#
# Total GULP energy -198247.531342 kJ/mol
# GULP energy per Si atom -12390.470709 kJ/mol
# Density = 2.394239 g / cm^3
# Si number density = 23.997011 Si / 1000 Ang^3
#
#
#
# Elastic Constant Matrix: (Units=GPa)
#
#
# Indices 1 2 3 4 5 6 
#
# 1 126.3431 18.8823 37.6989 6.3704 -8.9303 -2.5729
# 2 18.8823 84.2807 12.9695 -1.7956 2.9569 -7.5028
# 3 37.6989 12.9695 68.2005 16.8413 -11.7893 10.3732
# 4 6.3704 -1.7956 16.8413 26.5591 0.1132 6.2682
# 5 -8.9303 2.9569 -11.7893 0.1132 43.2725 4.9216
# 6 -2.5729 -7.5028 10.3732 6.2682 4.9216 48.5172
#
#
#
# Elastic Compliance Matrix: (Units=1/GPa)
#
#
# Indices 1 2 3 4 5 6 
#
# 1 0.009751 -0.001224 -0.005464 0.000721 0.000451 0.001357
# 2 -0.001224 0.012999 -0.003231 0.002634 -0.002316 0.002531
# 3 -0.005464 -0.003231 0.023131 -0.012485 0.005965 -0.004727
# 4 0.000721 0.002634 -0.012485 0.046183 -0.003267 -0.002520
# 5 0.000451 -0.002316 0.005965 -0.003267 0.025423 -0.003766
# 6 0.001357 0.002531 -0.004727 -0.002520 -0.003766 0.022793
#
#
# Mechanical properties :
#
#
# Convention : Reuss Voigt Hill
#
# Bulk Modulus (GPa) = 38.39751 46.43619 42.41685
# Shear Modulus (GPa) = 29.62112 37.62134 33.62123
#
# Velocity S-wave (km/s) = 3.51717 3.96378 3.74713
# Velocity P-wave (km/s) = 5.70348 6.35150 6.03619
#
# Compressibility (1/GPa) = 0.02604335
#
# Stress axis : x y z
#
# Youngs Moduli (GPa) = 102.54966 76.92809 43.23268
#
# Poissons Ratio (x) = 0.09412 0.23622
# Poissons Ratio (y) = 0.12547 0.13970
# Poissons Ratio (z) = 0.56033 0.24858
#
# Static dielectric constant tensor:
#      x y z
#    x 4.812840 0.025700 0.009180 
#    y 0.025700 4.443430 -0.136390 
#    z 0.009180 -0.136390 4.453200 
# 
# 
# High freq. dielectric constant tensor:
#      x y z
#    x 1.974990 -0.010140 0.009240 
#    y -0.010140 1.960760 -0.014330 
#    z 0.009240 -0.014330 1.948880 
# 
# From -- ./inp_files/141664.got.cif
#   From: 2010.06.25/outbox.cif.g09.slc.cpg/sg2_71_cif.got.tgz:141664.got - 2010.06.27 13:26:56.
