data_PCOD8022728
_publ_section_title
;
Structure prediction by ZEFSAII (Michael W. Deem and Ramdas Pophale) SiO2 
 PCOD8022728
Probable space group: P -1
;
_chemical_formula_sum "Si O2"
_cell_formula_units_Z 16
_cell_length_a 11.709905
_cell_length_b 13.702873
_cell_length_c 8.876655
_cell_angle_alpha 83.247928
_cell_angle_beta 82.461410
_cell_angle_gamma 146.054312
_cell_volume 719.526628
_symmetry_space_group_name_H-M "P -1"
_symmetry_group_IT_number 2
_symmetry_cell_setting 'triclinic'
loop_
_space_group_symop_operation_xyz
x,y,z
-x,-y,-z
loop_
_atom_site_type_symbol
_atom_site_label
_atom_site_fract_x
_atom_site_fract_y
_atom_site_fract_z
Si Si1 0.297777 0.274732 0.370141
Si Si2 0.077871 0.911474 0.001529
Si Si3 0.355388 0.939195 0.667677
Si Si4 0.260123 0.693370 0.937608
Si Si5 0.055931 0.043440 0.731007
Si Si6 0.845299 0.622327 0.727129
Si Si7 0.285492 0.495654 0.902041
Si Si8 0.565558 0.237789 0.801899
O O1 0.277737 0.222209 0.556346
O O2 0.192974 0.307530 0.375485
O O3 0.552936 0.452878 0.238583
O O4 0.156268 0.099494 0.316606
O O5 0.943464 0.877153 0.151171
O O6 0.970882 0.723343 0.060416
O O7 0.047167 0.929784 0.831453
O O8 0.340773 0.106278 0.954992
O O9 0.357476 0.859206 0.810978
O O10 0.108454 0.790873 0.680750
O O11 0.500000 0.000000 0.500000
O O12 0.493175 0.130634 0.680543
O O13 0.342886 0.652874 0.849062
O O14 0.309867 0.737265 0.099366
O O15 0.000000 0.500000 0.000000
O O16 0.729144 0.447170 0.687513
O O17 0.697006 0.521702 0.922822
#
# Coordination Sequence:
#
# PCOD8022728 Si02
#       8
#     2   2   2   2   2   2   2   2
#     4  11  23  42  65 102 139 183 223 287 342 400
#     4  11  22  41  63  99 133 188 229 268 345 414
#     4  12  26  46  72 104 138 177 230 299 345 402
#     4  11  22  46  71  99 133 181 239 278 339 416
#     4  10  23  38  64  93 144 178 232 272 333 413
#     4  11  23  44  69 101 141 182 234 278 349 417
#     4  11  22  39  71  95 140 181 227 286 335 407
#     4  11  23  43  75  96 133 187 228 281 348 411
#
# _framework density 22.236840999999998
#
# number of rings (size 3 to 8) (size 9 to 14) (size 15 to 20)
#    0.000    1.000    5.000    2.250    3.500    5.000 
#    2.250    0.000    0.000    0.000    0.000    0.000 
#    0.000    0.000    0.000    0.000    0.000    0.000 
#
# Total GULP energy -198306.325780 kJ/mol
# GULP energy per Si atom -12394.145361 kJ/mol
# Density = 2.218623 g / cm^3
# Si number density = 22.236841 Si / 1000 Ang^3
#
#
#
# Elastic Constant Matrix: (Units=GPa)
#
#
# Indices 1 2 3 4 5 6 
#
# 1 91.4143 38.3441 38.0716 -1.3122 -10.1131 -3.6113
# 2 38.3441 138.1801 35.5893 1.5104 -10.1840 -7.4832
# 3 38.0716 35.5893 124.9339 -0.7401 -17.7167 1.4310
# 4 -1.3122 1.5104 -0.7401 22.2184 0.9066 0.3059
# 5 -10.1131 -10.1840 -17.7167 0.9066 29.8295 -4.9562
# 6 -3.6113 -7.4832 1.4310 0.3059 -4.9562 39.6536
#
#
#
# Elastic Compliance Matrix: (Units=1/GPa)
#
#
# Indices 1 2 3 4 5 6 
#
# 1 0.013678 -0.002802 -0.003094 0.000799 0.001997 0.001072
# 2 -0.002802 0.008580 -0.001410 -0.000876 0.001434 0.001601
# 3 -0.003094 -0.001410 0.009967 0.000074 0.004326 -0.000368
# 4 0.000799 -0.000876 0.000074 0.045185 -0.001462 -0.000627
# 5 0.001997 0.001434 0.004326 -0.001462 0.038147 0.005076
# 6 0.001072 0.001601 -0.000368 -0.000627 0.005076 0.026271
#
#
# Mechanical properties :
#
#
# Convention : Reuss Voigt Hill
#
# Bulk Modulus (GPa) = 56.78209 64.28203 60.53206
# Shear Modulus (GPa) = 30.80492 34.50854 32.65673
#
# Velocity S-wave (km/s) = 3.72601 3.94364 3.83637
# Velocity P-wave (km/s) = 6.64089 7.05033 6.84867
#
# Compressibility (1/GPa) = 0.01761119
#
# Stress axis : x y z
#
# Youngs Moduli (GPa) = 73.11031 116.55411 100.33098
#
# Poissons Ratio (x) = 0.32660 0.31046
# Poissons Ratio (y) = 0.20486 0.14150
# Poissons Ratio (z) = 0.22623 0.16438
#
# Static dielectric constant tensor:
#      x y z
#    x 3.995560 -0.260350 -0.056790 
#    y -0.260350 4.497520 -0.031270 
#    z -0.056790 -0.031270 3.808660 
# 
# 
# High freq. dielectric constant tensor:
#      x y z
#    x 1.867010 -0.010520 0.000300 
#    y -0.010520 1.890840 -0.003580 
#    z 0.000300 -0.003580 1.860300 
# 
# From -- ./inp_files/272932.got.cif
#   From: 2010.06.25/outbox.cif.g09.slc.cpg/sg2_137_cif.got.tgz:272932.got - 2010.06.27 13:26:56.
