data_PCOD8022777
_publ_section_title
;
Structure prediction by ZEFSAII (Michael W. Deem and Ramdas Pophale) SiO2 
 PCOD8022777
Probable space group: P -1
;
_chemical_formula_sum "Si O2"
_cell_formula_units_Z 16
_cell_length_a 17.510019
_cell_length_b 7.981220
_cell_length_c 9.002879
_cell_angle_alpha 104.349956
_cell_angle_beta 48.014280
_cell_angle_gamma 125.574483
_cell_volume 739.587358
_symmetry_space_group_name_H-M "P -1"
_symmetry_group_IT_number 2
_symmetry_cell_setting 'triclinic'
loop_
_space_group_symop_operation_xyz
x,y,z
-x,-y,-z
loop_
_atom_site_type_symbol
_atom_site_label
_atom_site_fract_x
_atom_site_fract_y
_atom_site_fract_z
Si Si1 0.704287 0.274993 0.651804
Si Si2 0.144521 0.492809 0.754392
Si Si3 0.121700 0.794975 0.041085
Si Si4 0.537419 0.033637 0.284550
Si Si5 0.379505 0.567007 0.607046
Si Si6 0.260656 0.943484 0.168126
Si Si7 0.354644 0.247309 0.784185
Si Si8 0.356642 0.391341 0.124290
O O1 0.821204 0.364142 0.407478
O O2 0.731009 0.195464 0.749799
O O3 0.690341 0.466134 0.737861
O O4 0.580838 0.073104 0.693940
O O5 0.125811 0.599981 0.941966
O O6 0.261604 0.480802 0.632128
O O7 0.014994 0.261446 0.841287
O O8 0.235282 0.006752 0.860179
O O9 0.131123 0.808149 0.212782
O O10 0.613342 0.290158 0.232884
O O11 0.500000 0.000000 0.500000
O O12 0.633474 0.979386 0.086039
O O13 0.365559 0.361478 0.641218
O O14 0.507182 0.711676 0.370079
O O15 0.280811 0.157902 0.252280
O O16 0.329919 0.351560 0.975158
O O17 0.500000 0.500000 0.000000
#
# Coordination Sequence:
#
# PCOD8022777 Si02
#       8
#     2   2   2   2   2   2   2   2
#     4  12  24  39  64  96 128 172 211 265 325 384
#     4  11  23  42  67  93 122 172 218 262 321 388
#     4  10  23  45  66  89 127 168 216 269 322 377
#     4  12  20  37  63  93 129 164 209 266 323 372
#     4  11  21  37  67  94 127 160 217 264 323 379
#     4  11  23  40  63  91 132 169 212 265 321 380
#     4  10  23  39  60  97 129 163 206 275 319 375
#     4  11  22  37  57  91 134 166 206 256 319 390
#
# _framework density 21.633686000000001
#
# number of rings (size 3 to 8) (size 9 to 14) (size 15 to 20)
#    0.000    1.000    3.750    4.125    1.750    1.000 
#    2.250    2.500    0.000    0.000    0.000    0.000 
#    0.000    0.000    0.000    0.000    0.000    0.000 
#
# Total GULP energy -198276.571531 kJ/mol
# GULP energy per Si atom -12392.285721 kJ/mol
# Density = 2.158445 g / cm^3
# Si number density = 21.633686 Si / 1000 Ang^3
#
#
#
# Elastic Constant Matrix: (Units=GPa)
#
#
# Indices 1 2 3 4 5 6 
#
# 1 121.1043 80.9533 41.4112 -10.2511 -7.1409 16.5170
# 2 80.9533 120.9567 24.4318 -7.0505 -3.7726 15.3274
# 3 41.4112 24.4318 51.6084 -9.0642 -0.8467 5.9272
# 4 -10.2511 -7.0505 -9.0642 34.4116 10.0367 -9.3213
# 5 -7.1409 -3.7726 -0.8467 10.0367 30.3361 -7.4216
# 6 16.5170 15.3274 5.9272 -9.3213 -7.4216 42.4709
#
#
#
# Elastic Compliance Matrix: (Units=1/GPa)
#
#
# Indices 1 2 3 4 5 6 
#
# 1 0.019079 -0.010416 -0.010190 -0.000396 0.002584 -0.001874
# 2 -0.010416 0.015157 0.001401 0.000195 -0.001021 -0.001750
# 3 -0.010190 0.001401 0.027790 0.005580 -0.003237 0.000238
# 4 -0.000396 0.000195 0.005580 0.034818 -0.010168 0.005170
# 5 0.002584 -0.001021 -0.003237 -0.010168 0.037741 0.004179
# 6 -0.001874 -0.001750 0.000238 0.005170 0.004179 0.026738
#
#
# Mechanical properties :
#
#
# Convention : Reuss Voigt Hill
#
# Bulk Modulus (GPa) = 42.34506 65.25134 53.79820
# Shear Modulus (GPa) = 24.08445 31.23527 27.65986
#
# Velocity S-wave (km/s) = 3.34021 3.80389 3.57957
# Velocity P-wave (km/s) = 5.87300 7.03706 6.48122
#
# Compressibility (1/GPa) = 0.02361550
#
# Stress axis : x y z
#
# Youngs Moduli (GPa) = 52.41469 65.97746 35.98461
#
# Poissons Ratio (x) = 0.68719 0.36668
# Poissons Ratio (y) = 0.54593 -0.05041
# Poissons Ratio (z) = 0.53411 -0.09243
#
# Static dielectric constant tensor:
#      x y z
#    x 3.904810 0.014230 -0.042770 
#    y 0.014230 4.703170 0.214770 
#    z -0.042770 0.214770 3.872410 
# 
# 
# High freq. dielectric constant tensor:
#      x y z
#    x 1.846840 0.003910 0.009020 
#    y 0.003910 1.860800 0.007750 
#    z 0.009020 0.007750 1.831260 
# 
# From -- ./inp_files/327713.got.cif
#   From: 2010.06.25/outbox.cif.g09.slc.cpg/sg2_164_cif.got.tgz:327713.got - 2010.06.27 13:26:56.
