data_PCOD8022118
_publ_section_title
;
Structure prediction by ZEFSAII (Michael W. Deem and Ramdas Pophale) SiO2 
 PCOD8022118
Probable space group: P -1
;
_chemical_formula_sum "Si O2"
_cell_formula_units_Z 14
_cell_length_a 17.027559
_cell_length_b 8.995318
_cell_length_c 11.394952
_cell_angle_alpha 40.847342
_cell_angle_beta 139.120739
_cell_angle_gamma 109.869163
_cell_volume 627.765120
_symmetry_space_group_name_H-M "P -1"
_symmetry_group_IT_number 2
_symmetry_cell_setting 'triclinic'
loop_
_space_group_symop_operation_xyz
x,y,z
-x,-y,-z
loop_
_atom_site_type_symbol
_atom_site_label
_atom_site_fract_x
_atom_site_fract_y
_atom_site_fract_z
Si Si1 0.626787 0.413284 0.283245
Si Si2 0.643469 0.355937 0.821918
Si Si3 0.919521 0.932126 0.855996
Si Si4 0.541676 0.166790 0.526316
Si Si5 0.003047 0.375141 0.335181
Si Si6 0.956998 0.127922 0.216729
Si Si7 0.305767 0.158295 0.875912
O O1 0.626560 0.263191 0.488884
O O2 0.617577 0.682621 0.156154
O O3 0.769054 0.206154 0.494974
O O4 0.500000 0.500000 0.000000
O O5 0.500000 0.500000 0.500000
O O6 0.609919 0.563822 0.765589
O O7 0.786481 0.286886 0.955663
O O8 0.660026 0.072137 0.045772
O O9 0.017853 0.820146 0.918211
O O10 0.890765 0.699713 0.005820
O O11 0.000000 0.000000 0.000000
O O12 0.500000 0.000000 0.500000
O O13 0.647481 0.983792 0.858907
O O14 0.029520 0.240274 0.316314
O O15 0.136917 0.366944 0.550436
O O16 0.963346 0.198496 0.477492
#
# Coordination Sequence:
#
# PCOD8022118 Si02
#       7
#     2   2   2   2   2   2   2
#     4  12  27  44  68 105 141 182 234 293 361 417
#     4   9  22  41  70  99 133 188 233 283 352 413
#     4  12  27  43  71 106 142 187 237 294 358 418
#     4  11  24  44  71 101 142 181 231 296 358 422
#     4  10  23  44  69  99 138 188 239 286 351 420
#     4  10  24  46  69 100 144 186 241 289 353 420
#     4  10  22  45  65 102 135 185 242 282 356 421
#
# _framework density 22.301334000000001
#
# number of rings (size 3 to 8) (size 9 to 14) (size 15 to 20)
#    0.000    1.429    2.857    0.429    8.000    5.714 
#    0.000    4.286    0.000    0.000    0.000    0.000 
#    0.000    0.000    0.000    0.000    0.000    0.000 
#
# Total GULP energy -173455.069001 kJ/mol
# GULP energy per Si atom -12389.647786 kJ/mol
# Density = 2.225058 g / cm^3
# Si number density = 22.301334 Si / 1000 Ang^3
#
#
#
# Elastic Constant Matrix: (Units=GPa)
#
#
# Indices 1 2 3 4 5 6 
#
# 1 98.3460 46.4234 40.3235 -6.3942 -1.0815 2.5464
# 2 46.4234 163.4444 59.7413 -13.9398 -5.3196 14.1043
# 3 40.3235 59.7413 115.7048 -3.4137 4.4717 5.4699
# 4 -6.3942 -13.9398 -3.4137 48.2481 2.1811 -5.7295
# 5 -1.0815 -5.3196 4.4717 2.1811 39.1995 -5.0582
# 6 2.5464 14.1043 5.4699 -5.7295 -5.0582 32.6563
#
#
#
# Elastic Compliance Matrix: (Units=1/GPa)
#
#
# Indices 1 2 3 4 5 6 
#
# 1 0.012654 -0.002410 -0.003196 0.000830 0.000444 0.000804
# 2 -0.002410 0.008417 -0.003386 0.001534 0.001061 -0.002447
# 3 -0.003196 -0.003386 0.011592 -0.000569 -0.001919 -0.000627
# 4 0.000830 0.001534 -0.000569 0.021628 -0.000509 0.003084
# 5 0.000444 0.001061 -0.001919 -0.000509 0.026408 0.003830
# 6 0.000804 -0.002447 -0.000627 0.003084 0.003830 0.032855
#
#
# Mechanical properties :
#
#
# Convention : Reuss Voigt Hill
#
# Bulk Modulus (GPa) = 68.12764 74.49686 71.31225
# Shear Modulus (GPa) = 36.64795 39.42124 38.03459
#
# Velocity S-wave (km/s) = 4.05817 4.20892 4.13423
# Velocity P-wave (km/s) = 7.25075 7.55627 7.40508
#
# Compressibility (1/GPa) = 0.01467833
#
# Stress axis : x y z
#
# Youngs Moduli (GPa) = 79.02354 118.80711 86.26655
#
# Poissons Ratio (x) = 0.28633 0.27574
# Poissons Ratio (y) = 0.19045 0.29210
# Poissons Ratio (z) = 0.25259 0.40229
#
# Static dielectric constant tensor:
#      x y z
#    x 4.186790 -0.276930 0.353660 
#    y -0.276930 4.889980 -0.593310 
#    z 0.353660 -0.593310 4.774970 
# 
# 
# High freq. dielectric constant tensor:
#      x y z
#    x 1.837960 0.010400 -0.006150 
#    y 0.010400 1.907000 -0.006720 
#    z -0.006150 -0.006720 1.893340 
# 
# From -- ./inp_files/461814.got.cif
#   From: 2010.06.25/outbox.cif.g09.slc.cpg/sg2_231_cif.got.tgz:461814.got - 2010.06.27 13:26:56.
