data_PCOD8022040
_publ_section_title
;
Structure prediction by ZEFSAII (Michael W. Deem and Ramdas Pophale) SiO2 
 PCOD8022040
Probable space group: P -1
;
_chemical_formula_sum "Si O2"
_cell_formula_units_Z 12
_cell_length_a 8.441190
_cell_length_b 10.810227
_cell_length_c 9.011201
_cell_angle_alpha 122.379162
_cell_angle_beta 79.232069
_cell_angle_gamma 136.216476
_cell_volume 451.548062
_symmetry_space_group_name_H-M "P -1"
_symmetry_group_IT_number 2
_symmetry_cell_setting 'triclinic'
loop_
_space_group_symop_operation_xyz
x,y,z
-x,-y,-z
loop_
_atom_site_type_symbol
_atom_site_label
_atom_site_fract_x
_atom_site_fract_y
_atom_site_fract_z
Si Si1 0.048177 0.875639 0.478844
Si Si2 0.832294 0.647114 0.840852
Si Si3 0.476820 0.804681 0.554751
Si Si4 0.625566 0.004809 0.113998
Si Si5 0.198707 0.508730 0.942744
Si Si6 0.707242 0.740504 0.679787
O O1 0.879633 0.636157 0.280738
O O2 0.966060 0.844642 0.644154
O O3 0.000000 0.000000 0.500000
O O4 0.333056 0.030822 0.506825
O O5 0.733279 0.443536 0.629846
O O6 0.710495 0.716237 0.842925
O O7 0.778137 0.587108 0.984394
O O8 0.116653 0.868445 0.912882
O O9 0.639562 0.854916 0.700565
O O10 0.347619 0.866060 0.667774
O O11 0.463437 0.755780 0.028196
O O12 0.500000 0.000000 0.000000
O O13 0.000000 0.500000 0.000000
O O14 0.500000 0.500000 0.500000
#
# Coordination Sequence:
#
# PCOD8022040 Si02
#       6
#     2   2   2   2   2   2
#     4  10  22  46  73  97 140 194 231 289 358 419
#     4  11  25  44  71 110 138 187 240 293 351 425
#     4  10  22  44  73 100 143 186 238 291 356 418
#     4  12  25  43  71 104 147 189 232 296 353 419
#     4  12  25  45  71 104 147 185 236 297 358 415
#     4   9  22  43  71  97 138 185 234 287 346 422
#
# _framework density 26.575243
#
# number of rings (size 3 to 8) (size 9 to 14) (size 15 to 20)
#    0.000    1.333    3.333    0.500    7.000    2.000 
#    0.000   15.000    0.000    0.000    0.000    0.000 
#    0.000    0.000    0.000    0.000    0.000    0.000 
#
# Total GULP energy -148687.564922 kJ/mol
# GULP energy per Si atom -12390.630410 kJ/mol
# Density = 2.651476 g / cm^3
# Si number density = 26.575243 Si / 1000 Ang^3
#
#
#
# Elastic Constant Matrix: (Units=GPa)
#
#
# Indices 1 2 3 4 5 6 
#
# 1 37.9552 11.4315 -0.8202 -9.2679 3.2726 -2.1419
# 2 11.4315 162.0131 14.8352 14.4222 15.7171 -0.7555
# 3 -0.8202 14.8352 69.8101 15.0302 0.3596 -18.8922
# 4 -9.2679 14.4222 15.0302 55.0714 -10.1104 13.6146
# 5 3.2726 15.7171 0.3596 -10.1104 51.2888 -4.0656
# 6 -2.1419 -0.7555 -18.8922 13.6146 -4.0656 31.2720
#
#
#
# Elastic Compliance Matrix: (Units=1/GPa)
#
#
# Indices 1 2 3 4 5 6 
#
# 1 0.028456 -0.002476 -0.000713 0.005912 0.000025 -0.001112
# 2 -0.002476 0.006884 -0.000885 -0.002478 -0.002416 0.000227
# 3 -0.000713 -0.000885 0.021284 -0.010003 -0.000450 0.017084
# 4 0.005912 -0.002478 -0.010003 0.027598 0.004535 -0.017124
# 5 0.000025 -0.002416 -0.000450 0.004535 0.021169 0.000449
# 6 -0.001112 0.000227 0.017084 -0.017124 0.000449 0.049741
#
#
# Mechanical properties :
#
#
# Convention : Reuss Voigt Hill
#
# Bulk Modulus (GPa) = 20.62931 35.63016 28.12974
# Shear Modulus (GPa) = 27.86466 43.81522 35.83994
#
# Velocity S-wave (km/s) = 3.24160 4.06485 3.67634
# Velocity P-wave (km/s) = 4.66798 5.95542 5.35057
#
# Compressibility (1/GPa) = 0.04847473
#
# Stress axis : x y z
#
# Youngs Moduli (GPa) = 35.14214 145.26301 46.98445
#
# Poissons Ratio (x) = 0.35973 0.03351
# Poissons Ratio (y) = 0.08703 0.04157
# Poissons Ratio (z) = 0.02507 0.12852
#
# Static dielectric constant tensor:
#      x y z
#    x 5.690000 0.021310 -0.323340 
#    y 0.021310 7.679310 -0.863430 
#    z -0.323340 -0.863430 4.700640 
# 
# 
# High freq. dielectric constant tensor:
#      x y z
#    x 2.061800 -0.004130 0.000260 
#    y -0.004130 2.088500 0.002540 
#    z 0.000260 0.002540 2.065410 
# 
# From -- ./inp_files/185181.got.cif
#   From: 2010.06.25/outbox.cif.g09.slc.cpg/sg2_93_cif.got.tgz:185181.got - 2010.06.27 13:26:56.
