data_PCOD8022110
_publ_section_title
;
Structure prediction by ZEFSAII (Michael W. Deem and Ramdas Pophale) SiO2 
 PCOD8022110
Probable space group: P -1
;
_chemical_formula_sum "Si O2"
_cell_formula_units_Z 14
_cell_length_a 11.757763
_cell_length_b 5.557191
_cell_length_c 11.199280
_cell_angle_alpha 120.103383
_cell_angle_beta 53.454005
_cell_angle_gamma 113.983739
_cell_volume 502.433754
_symmetry_space_group_name_H-M "P -1"
_symmetry_group_IT_number 2
_symmetry_cell_setting 'triclinic'
loop_
_space_group_symop_operation_xyz
x,y,z
-x,-y,-z
loop_
_atom_site_type_symbol
_atom_site_label
_atom_site_fract_x
_atom_site_fract_y
_atom_site_fract_z
Si Si1 0.345242 0.361474 0.432211
Si Si2 0.353696 0.406969 0.003742
Si Si3 0.389269 0.211226 0.622206
Si Si4 0.119100 0.046335 0.330311
Si Si5 0.736307 0.209185 0.037091
Si Si6 0.182661 0.780432 0.755537
Si Si7 0.058148 0.465485 0.305256
O O1 0.321480 0.193675 0.529014
O O2 0.516050 0.476343 0.332691
O O3 0.256116 0.619122 0.565094
O O4 0.274020 0.159049 0.320689
O O5 0.227943 0.498695 0.185454
O O6 0.500000 0.500000 0.000000
O O7 0.351655 0.564926 0.915026
O O8 0.354363 0.070724 0.917504
O O9 0.500000 0.000000 0.500000
O O10 0.261212 0.108109 0.773682
O O11 0.018659 0.790706 0.404903
O O12 0.033168 0.301942 0.407568
O O13 0.148812 0.883737 0.149298
O O14 0.808768 0.352929 0.149952
O O15 0.016785 0.730908 0.805073
#
# Coordination Sequence:
#
# PCOD8022110 Si02
#       7
#     2   2   2   2   2   2   2
#     4  10  23  45  69  96 139 183 235 286 345 419
#     4  10  22  45  64 100 142 184 226 280 347 415
#     4   9  22  45  66  99 134 188 230 286 349 412
#     4  10  24  45  69  99 138 185 228 284 347 411
#     4  10  24  43  69 103 133 180 228 290 345 404
#     4  11  25  42  70 102 141 178 236 287 348 415
#     4  10  25  43  68 104 140 185 228 289 346 409
#
# _framework density 27.864370999999998
#
# number of rings (size 3 to 8) (size 9 to 14) (size 15 to 20)
#    0.000    2.000    0.000    0.429    8.000    8.000 
#   23.143    0.000    0.000    0.000    0.000    0.000 
#    0.000    0.000    0.000    0.000    0.000    0.000 
#
# Total GULP energy -173465.803663 kJ/mol
# GULP energy per Si atom -12390.414547 kJ/mol
# Density = 2.780095 g / cm^3
# Si number density = 27.864371 Si / 1000 Ang^3
#
#
#
# Elastic Constant Matrix: (Units=GPa)
#
#
# Indices 1 2 3 4 5 6 
#
# 1 193.3285 103.1300 38.7933 -24.6364 40.5210 -14.6126
# 2 103.1300 211.0608 49.2688 -15.1181 29.4769 -28.5723
# 3 38.7933 49.2688 106.6648 -19.1165 26.2563 -1.9972
# 4 -24.6364 -15.1181 -19.1165 41.1747 -11.0540 5.4952
# 5 40.5210 29.4769 26.2563 -11.0540 42.8713 -4.9482
# 6 -14.6126 -28.5723 -1.9972 5.4952 -4.9482 48.0179
#
#
#
# Elastic Compliance Matrix: (Units=1/GPa)
#
#
# Indices 1 2 3 4 5 6 
#
# 1 0.008199 -0.003192 0.000176 0.002488 -0.005045 -0.000201
# 2 -0.003192 0.007257 -0.002157 -0.000817 -0.000481 0.003301
# 3 0.000176 -0.002157 0.012292 0.003791 -0.005432 -0.001712
# 4 0.002488 -0.000817 0.003791 0.028352 0.002908 -0.002516
# 5 -0.005045 -0.000481 -0.005432 0.002908 0.032614 0.000981
# 6 -0.000201 0.003301 -0.001712 -0.002516 0.000981 0.023046
#
#
# Mechanical properties :
#
#
# Convention : Reuss Voigt Hill
#
# Bulk Modulus (GPa) = 57.46448 99.27093 78.36770
# Shear Modulus (GPa) = 39.09120 47.73693 43.41407
#
# Velocity S-wave (km/s) = 3.74961 4.14356 3.95150
# Velocity P-wave (km/s) = 6.27804 7.65480 7.00035
#
# Compressibility (1/GPa) = 0.01740206
#
# Stress axis : x y z
#
# Youngs Moduli (GPa) = 121.96489 137.80307 81.35516
#
# Poissons Ratio (x) = 0.43986 -0.01435
# Poissons Ratio (y) = 0.38931 0.17550
# Poissons Ratio (z) = -0.02151 0.29726
#
# Static dielectric constant tensor:
#      x y z
#    x 5.173420 -0.561560 0.023250 
#    y -0.561560 8.029330 0.392990 
#    z 0.023250 0.392990 5.371060 
# 
# 
# High freq. dielectric constant tensor:
#      x y z
#    x 2.119530 -0.021980 0.015580 
#    y -0.021980 2.150630 -0.006700 
#    z 0.015580 -0.006700 2.144330 
# 
# From -- ./inp_files/369349.got.cif
#   From: 2010.06.25/outbox.cif.g09.slc.cpg/sg2_185_cif.got.tgz:369349.got - 2010.06.27 13:26:56.
