data_PCOD8022741
_publ_section_title
;
Structure prediction by ZEFSAII (Michael W. Deem and Ramdas Pophale) SiO2 
 PCOD8022741
Probable space group: P -1
;
_chemical_formula_sum "Si O2"
_cell_formula_units_Z 12
_cell_length_a 10.679665
_cell_length_b 20.329212
_cell_length_c 5.116780
_cell_angle_alpha 88.705568
_cell_angle_beta 89.363568
_cell_angle_gamma 22.054011
_cell_volume 416.871752
_symmetry_space_group_name_H-M "P -1"
_symmetry_group_IT_number 2
_symmetry_cell_setting 'triclinic'
loop_
_space_group_symop_operation_xyz
x,y,z
-x,-y,-z
loop_
_atom_site_type_symbol
_atom_site_label
_atom_site_fract_x
_atom_site_fract_y
_atom_site_fract_z
Si Si1 0.846506 0.009362 0.676059
Si Si2 0.835461 0.609368 0.243579
Si Si3 0.097398 0.590689 0.925110
Si Si4 0.335630 0.148215 0.552254
Si Si5 0.234843 0.789678 0.185292
Si Si6 0.281982 0.618000 0.235162
O O1 0.570303 0.201076 0.740769
O O2 0.628786 0.049569 0.673074
O O3 0.036413 0.928371 0.402434
O O4 0.127453 0.869148 0.900349
O O5 0.000000 0.500000 0.500000
O O6 0.934236 0.639156 0.194055
O O7 0.000000 0.500000 0.000000
O O8 0.355133 0.530595 0.967676
O O9 0.353118 0.411908 0.800685
O O10 0.804804 0.748009 0.715673
O O11 0.041428 0.272591 0.751086
O O12 0.500000 0.000000 0.500000
O O13 0.121935 0.768662 0.215881
O O14 0.500000 0.500000 0.500000
#
# Coordination Sequence:
#
# PCOD8022741 Si02
#       6
#     2   2   2   2   2   2
#     4  12  25  45  70 106 140 182 237 296 346 419
#     4  12  27  49  76 101 134 184 247 304 355 409
#     4  11  26  45  70 104 146 195 233 293 355 421
#     4  12  23  40  71 105 149 189 238 275 350 430
#     4  11  26  43  71 107 152 183 225 283 360 433
#     4  10  23  38  66 103 150 186 226 268 355 424
#
# _framework density 28.785831000000002
#
# number of rings (size 3 to 8) (size 9 to 14) (size 15 to 20)
#    0.000    0.667    3.333    4.000    4.667    2.667 
#    0.000    5.000    0.000    0.000    0.000    0.000 
#    0.000    0.000    0.000    0.000    0.000    0.000 
#
# Total GULP energy -148814.051806 kJ/mol
# GULP energy per Si atom -12401.170984 kJ/mol
# Density = 2.872031 g / cm^3
# Si number density = 28.785831 Si / 1000 Ang^3
#
#
#
# Elastic Constant Matrix: (Units=GPa)
#
#
# Indices 1 2 3 4 5 6 
#
# 1 123.1730 64.6010 56.1461 19.0823 -8.0583 -16.5792
# 2 64.6010 210.9503 93.9632 3.3158 -1.3673 11.3367
# 3 56.1461 93.9632 229.1936 -4.4623 -16.8199 -0.7577
# 4 19.0823 3.3158 -4.4623 72.0740 -1.8008 -3.3427
# 5 -8.0583 -1.3673 -16.8199 -1.8008 50.9097 4.5633
# 6 -16.5792 11.3367 -0.7577 -3.3427 4.5633 47.7732
#
#
#
# Elastic Compliance Matrix: (Units=1/GPa)
#
#
# Indices 1 2 3 4 5 6 
#
# 1 0.011480 -0.003007 -0.001566 -0.002776 0.000726 0.004409
# 2 -0.003007 0.006716 -0.002076 0.000220 -0.000742 -0.002584
# 3 -0.001566 -0.002076 0.005735 0.000903 0.001628 -0.000052
# 4 -0.002776 0.000220 0.000903 0.014664 0.000385 -0.000012
# 5 0.000726 -0.000742 0.001628 0.000385 0.020421 -0.001470
# 6 0.004409 -0.002584 -0.000052 -0.000012 -0.001470 0.023214
#
#
# Mechanical properties :
#
#
# Convention : Reuss Voigt Hill
#
# Bulk Modulus (GPa) = 94.03263 110.30418 102.16840
# Shear Modulus (GPa) = 50.46808 57.39181 53.92994
#
# Velocity S-wave (km/s) = 4.19170 4.46999 4.33308
# Velocity P-wave (km/s) = 7.49428 8.06493 7.78484
#
# Compressibility (1/GPa) = 0.01063461
#
# Stress axis : x y z
#
# Youngs Moduli (GPa) = 87.10459 148.88853 174.38204
#
# Poissons Ratio (x) = 0.44770 0.27305
# Poissons Ratio (y) = 0.26192 0.36196
# Poissons Ratio (z) = 0.13639 0.30904
#
# Static dielectric constant tensor:
#      x y z
#    x 8.844860 0.460220 -0.918640 
#    y 0.460220 6.066230 0.802610 
#    z -0.918640 0.802610 5.362510 
# 
# 
# High freq. dielectric constant tensor:
#      x y z
#    x 2.282910 0.012720 -0.018640 
#    y 0.012720 2.205560 0.047710 
#    z -0.018640 0.047710 2.171430 
# 
# From -- ./inp_files/83169.got.cif
#   From: 2010.06.25/outbox.cif.g09.slc.cpg/sg2_42_cif.got.tgz:83169.got - 2010.06.27 13:26:56.
