data_PCOD8022903
_publ_section_title
;
Structure prediction by ZEFSAII (Michael W. Deem and Ramdas Pophale) SiO2 
 PCOD8022903
Probable space group: P -1
;
_chemical_formula_sum "Si O2"
_cell_formula_units_Z 12
_cell_length_a 22.536595
_cell_length_b 5.183540
_cell_length_c 13.474837
_cell_angle_alpha 105.013154
_cell_angle_beta 18.958760
_cell_angle_gamma 104.848530
_cell_volume 493.637070
_symmetry_space_group_name_H-M "P -1"
_symmetry_group_IT_number 2
_symmetry_cell_setting 'triclinic'
loop_
_space_group_symop_operation_xyz
x,y,z
-x,-y,-z
loop_
_atom_site_type_symbol
_atom_site_label
_atom_site_fract_x
_atom_site_fract_y
_atom_site_fract_z
Si Si1 0.582830 0.550029 0.691360
Si Si2 0.292938 0.978100 0.787015
Si Si3 0.183451 0.914684 0.645610
Si Si4 0.205061 0.607709 0.380068
Si Si5 0.034441 0.023339 0.562249
Si Si6 0.610872 0.558576 0.431851
O O1 0.694758 0.279668 0.499718
O O2 0.497791 0.556551 0.713579
O O3 0.711094 0.813107 0.527996
O O4 0.420900 0.550028 0.028313
O O5 0.241771 0.671250 0.810720
O O6 0.500000 0.000000 0.500000
O O7 0.277310 0.160041 0.730756
O O8 0.156803 0.072400 0.095115
O O9 0.140580 0.754169 0.595821
O O10 0.000000 0.000000 0.000000
O O11 0.175109 0.804667 0.353859
O O12 0.095762 0.325274 0.520720
O O13 0.000000 0.000000 0.500000
O O14 0.500000 0.500000 0.500000
#
# Coordination Sequence:
#
# PCOD8022903 Si02
#       6
#     2   2   2   2   2   2
#     4  12  26  48  79 102 148 198 239 301 374 433
#     4  10  23  41  67  96 150 186 236 282 356 424
#     4  12  28  50  75 110 143 188 257 307 362 425
#     4  12  28  49  76 106 150 193 248 302 365 438
#     4  12  28  45  74 110 152 190 240 301 369 437
#     4  10  23  39  71 104 141 179 242 284 356 432
#
# _framework density 24.309355
#
# number of rings (size 3 to 8) (size 9 to 14) (size 15 to 20)
#    0.000    0.667    0.000    6.000   16.333    0.000 
#    0.000    0.000    0.000    0.000    0.000    0.000 
#    0.000    0.000    0.000    0.000    0.000    0.000 
#
# Total GULP energy -148696.205233 kJ/mol
# GULP energy per Si atom -12391.350436 kJ/mol
# Density = 2.425403 g / cm^3
# Si number density = 24.309355 Si / 1000 Ang^3
#
#
#
# Elastic Constant Matrix: (Units=GPa)
#
#
# Indices 1 2 3 4 5 6 
#
# 1 112.0629 34.4006 41.3777 5.8607 11.0790 -16.3935
# 2 34.4006 199.3646 52.8087 4.7693 -5.8707 -27.3880
# 3 41.3777 52.8087 169.2938 13.5981 13.4127 3.0036
# 4 5.8607 4.7693 13.5981 38.9602 0.7614 -0.9327
# 5 11.0790 -5.8707 13.4127 0.7614 28.1985 -6.8743
# 6 -16.3935 -27.3880 3.0036 -0.9327 -6.8743 39.8272
#
#
#
# Elastic Compliance Matrix: (Units=1/GPa)
#
#
# Indices 1 2 3 4 5 6 
#
# 1 0.010795 -0.000849 -0.002190 -0.000621 -0.002486 0.003581
# 2 -0.000849 0.006566 -0.002259 0.000155 0.003997 0.005029
# 3 -0.002190 -0.002259 0.007711 -0.002095 -0.004148 -0.003801
# 4 -0.000621 0.000155 -0.002095 0.026477 0.000743 0.000757
# 5 -0.002486 0.003997 -0.004148 0.000743 0.041471 0.009213
# 6 0.003581 0.005029 -0.003801 0.000757 0.009213 0.031936
#
#
# Mechanical properties :
#
#
# Convention : Reuss Voigt Hill
#
# Bulk Modulus (GPa) = 69.08107 81.98838 75.53472
# Shear Modulus (GPa) = 35.61842 44.87279 40.24560
#
# Velocity S-wave (km/s) = 3.83196 4.30106 4.07327
# Velocity P-wave (km/s) = 6.93237 7.64629 7.29807
#
# Compressibility (1/GPa) = 0.01447575
#
# Stress axis : x y z
#
# Youngs Moduli (GPa) = 92.63481 152.30702 129.68097
#
# Poissons Ratio (x) = 0.12930 0.28404
# Poissons Ratio (y) = 0.07864 0.29294
# Poissons Ratio (z) = 0.20290 0.34405
#
# Static dielectric constant tensor:
#      x y z
#    x 4.553010 -0.595130 0.102490 
#    y -0.595130 3.745250 0.158520 
#    z 0.102490 0.158520 4.428720 
# 
# 
# High freq. dielectric constant tensor:
#      x y z
#    x 1.966250 -0.012960 0.016950 
#    y -0.012960 2.002880 0.004070 
#    z 0.016950 0.004070 1.960170 
# 
# From -- ./inp_files/468386.got.cif
#   From: 2010.06.25/outbox.cif.g09.slc.cpg/sg2_235_cif.got.tgz:468386.got - 2010.06.27 13:26:56.
