data_PCOD8022548
_publ_section_title
;
Structure prediction by ZEFSAII (Michael W. Deem and Ramdas Pophale) SiO2 
 PCOD8022548
Probable space group: P -1
;
_chemical_formula_sum "Si O2"
_cell_formula_units_Z 14
_cell_length_a 11.378062
_cell_length_b 12.545022
_cell_length_c 14.296446
_cell_angle_alpha 153.028535
_cell_angle_beta 41.479596
_cell_angle_gamma 134.646611
_cell_volume 608.845270
_symmetry_space_group_name_H-M "P -1"
_symmetry_group_IT_number 2
_symmetry_cell_setting 'triclinic'
loop_
_space_group_symop_operation_xyz
x,y,z
-x,-y,-z
loop_
_atom_site_type_symbol
_atom_site_label
_atom_site_fract_x
_atom_site_fract_y
_atom_site_fract_z
Si Si1 0.731771 0.395432 0.709993
Si Si2 0.642385 0.723841 0.867573
Si Si3 0.811061 0.097994 0.191810
Si Si4 0.121468 0.372019 0.503046
Si Si5 0.646703 0.816891 0.225624
Si Si6 0.740709 0.548347 0.129234
Si Si7 0.066382 0.274168 0.667408
O O1 0.736139 0.515620 0.699375
O O2 0.569678 0.179584 0.643995
O O3 0.914698 0.287021 0.537151
O O4 0.697126 0.593766 0.961379
O O5 0.749703 0.783383 0.753289
O O6 0.434187 0.642891 0.911425
O O7 0.664150 0.955171 0.100481
O O8 0.827694 0.360941 0.351336
O O9 0.739656 0.061031 0.313364
O O10 0.000000 0.000000 0.000000
O O11 0.159895 0.336321 0.560871
O O12 0.715143 0.772919 0.254692
O O13 0.782727 0.650671 0.287042
O O14 0.900279 0.420403 0.892658
O O15 0.000000 0.000000 0.500000
#
# Coordination Sequence:
#
# PCOD8022548 Si02
#       7
#     2   2   2   2   2   2   2
#     4   9  17  35  61  94 131 164 199 258 317 385
#     4  10  23  39  65  99 135 163 206 265 327 383
#     4  11  21  36  64  99 133 168 199 258 335 377
#     4  12  23  41  65  96 134 165 215 266 315 384
#     4   9  17  36  65  94 128 166 206 256 323 387
#     4  10  22  47  66  92 129 172 217 264 314 377
#     4  11  26  45  69  89 123 177 225 266 307 377
#
# _framework density 22.994347000000001
#
# number of rings (size 3 to 8) (size 9 to 14) (size 15 to 20)
#    0.000    1.714    4.286    1.286    0.000    5.143 
#    0.000    2.857    0.000    0.000    0.000    0.000 
#    0.000    0.000    0.000    0.000    0.000    0.000 
#
# Total GULP energy -173643.499454 kJ/mol
# GULP energy per Si atom -12403.107104 kJ/mol
# Density = 2.294201 g / cm^3
# Si number density = 22.994347 Si / 1000 Ang^3
#
#
#
# Elastic Constant Matrix: (Units=GPa)
#
#
# Indices 1 2 3 4 5 6 
#
# 1 161.2086 70.2485 24.6136 -11.5945 5.0196 -4.0929
# 2 70.2485 149.1889 30.9349 -11.8078 -0.5320 -13.9607
# 3 24.6136 30.9349 35.6949 -7.1190 -3.0120 -6.6287
# 4 -11.5945 -11.8078 -7.1190 49.9271 -0.2173 7.4728
# 5 5.0196 -0.5320 -3.0120 -0.2173 19.8930 -1.8738
# 6 -4.0929 -13.9607 -6.6287 7.4728 -1.8738 46.8759
#
#
#
# Elastic Compliance Matrix: (Units=1/GPa)
#
#
# Indices 1 2 3 4 5 6 
#
# 1 0.008214 -0.003261 -0.003073 0.000825 -0.002703 -0.000928
# 2 -0.003261 0.009605 -0.005631 0.000455 0.000394 0.001723
# 3 -0.003073 -0.005631 0.036681 0.002755 0.006497 0.003062
# 4 0.000825 0.000455 0.002755 0.021136 0.000192 -0.002765
# 5 -0.002703 0.000394 0.006497 0.000192 0.052217 0.002857
# 6 -0.000928 0.001723 0.003062 -0.002765 0.002857 0.022753
#
#
# Mechanical properties :
#
#
# Convention : Reuss Voigt Hill
#
# Bulk Modulus (GPa) = 32.71413 66.40959 49.56186
# Shear Modulus (GPa) = 27.06722 38.02557 32.54640
#
# Velocity S-wave (km/s) = 3.43465 4.07097 3.76627
# Velocity P-wave (km/s) = 5.47604 7.14427 6.36505
#
# Compressibility (1/GPa) = 0.03056783
#
# Stress axis : x y z
#
# Youngs Moduli (GPa) = 121.75032 104.11340 27.26221
#
# Poissons Ratio (x) = 0.33956 0.08378
# Poissons Ratio (y) = 0.39709 0.15352
# Poissons Ratio (z) = 0.37415 0.58627
#
# Static dielectric constant tensor:
#      x y z
#    x 4.340120 -0.069380 0.409590 
#    y -0.069380 4.494610 -0.479620 
#    z 0.409590 -0.479620 4.939100 
# 
# 
# High freq. dielectric constant tensor:
#      x y z
#    x 1.906890 0.005780 0.023950 
#    y 0.005780 1.918320 -0.014340 
#    z 0.023950 -0.014340 1.912840 
# 
# From -- ./inp_files/519318.got.cif
#   From: 2010.06.25/outbox.cif.g09.slc.cpg/sg2_260_cif.got.tgz:519318.got - 2010.06.27 13:26:56.
