data_PCOD8022261
_publ_section_title
;
Structure prediction by ZEFSAII (Michael W. Deem and Ramdas Pophale) SiO2 
 PCOD8022261
Probable space group: P -1
;
_chemical_formula_sum "Si O2"
_cell_formula_units_Z 16
_cell_length_a 12.956016
_cell_length_b 14.700090
_cell_length_c 14.412298
_cell_angle_alpha 29.199932
_cell_angle_beta 35.683065
_cell_angle_gamma 52.012411
_cell_volume 737.698164
_symmetry_space_group_name_H-M "P -1"
_symmetry_group_IT_number 2
_symmetry_cell_setting 'triclinic'
loop_
_space_group_symop_operation_xyz
x,y,z
-x,-y,-z
loop_
_atom_site_type_symbol
_atom_site_label
_atom_site_fract_x
_atom_site_fract_y
_atom_site_fract_z
Si Si1 0.147483 0.611944 0.579411
Si Si2 0.172913 0.045478 0.902900
Si Si3 0.786932 0.361715 0.780650
Si Si4 0.998505 0.817156 0.919747
Si Si5 0.895145 0.003465 0.666417
Si Si6 0.538050 0.620796 0.268718
Si Si7 0.521622 0.569873 0.705667
Si Si8 0.775797 0.390130 0.972632
O O1 0.352553 0.674834 0.328777
O O2 0.981665 0.563503 0.665925
O O3 0.137803 0.787305 0.496254
O O4 0.111238 0.402793 0.847720
O O5 0.355453 0.200826 0.585677
O O6 0.224216 0.851016 0.060842
O O7 0.000000 0.000000 0.000000
O O8 0.129345 0.138947 0.945839
O O9 0.655980 0.442334 0.741174
O O10 0.704770 0.345002 0.960219
O O11 0.000000 0.500000 0.500000
O O12 0.031377 0.982655 0.669244
O O13 0.195253 0.808120 0.826744
O O14 0.702313 0.826734 0.975760
O O15 0.000000 0.000000 0.500000
O O16 0.500000 0.500000 0.500000
O O17 0.576190 0.494418 0.266540
O O18 0.363977 0.534878 0.930648
#
# Coordination Sequence:
#
# PCOD8022261 Si02
#       8
#     2   2   2   2   2   2   2   2
#     4  10  22  45  69  94 135 177 229 274 335 404
#     4  12  22  44  71  97 128 181 226 268 337 412
#     4  12  24  43  70  99 134 177 224 274 334 411
#     4  10  23  45  68  97 137 178 223 276 339 404
#     4  12  26  42  70 105 134 179 229 286 348 391
#     4  12  23  48  69  97 135 183 234 279 332 406
#     4  12  25  43  66 101 137 173 225 282 338 397
#     4  10  23  46  65 100 143 172 212 287 344 394
#
# _framework density 21.689086
#
# number of rings (size 3 to 8) (size 9 to 14) (size 15 to 20)
#    0.750    0.000    5.000    2.250    3.500    2.000 
#    6.750    0.000    0.000    0.000    0.000    0.000 
#    0.000    0.000    0.000    0.000    0.000    0.000 
#
# Total GULP energy -198318.056471 kJ/mol
# GULP energy per Si atom -12394.878529 kJ/mol
# Density = 2.163972 g / cm^3
# Si number density = 21.689086 Si / 1000 Ang^3
#
#
#
# Elastic Constant Matrix: (Units=GPa)
#
#
# Indices 1 2 3 4 5 6 
#
# 1 83.5129 36.8701 34.7309 4.1389 12.0184 5.1215
# 2 36.8701 152.3405 52.7509 -12.4244 13.4022 2.0721
# 3 34.7309 52.7509 78.2541 -12.9992 9.2926 -1.8587
# 4 4.1389 -12.4244 -12.9992 39.7713 4.8532 3.0193
# 5 12.0184 13.4022 9.2926 4.8532 30.6007 4.1957
# 6 5.1215 2.0721 -1.8587 3.0193 4.1957 36.7768
#
#
#
# Elastic Compliance Matrix: (Units=1/GPa)
#
#
# Indices 1 2 3 4 5 6 
#
# 1 0.016064 -0.001748 -0.006295 -0.003798 -0.002779 -0.001828
# 2 -0.001748 0.008952 -0.004747 0.001703 -0.002006 -0.000412
# 3 -0.006295 -0.004747 0.020137 0.005942 -0.002779 0.001991
# 4 -0.003798 0.001703 0.005942 0.028758 -0.005482 -0.001002
# 5 -0.002779 -0.002006 -0.002779 -0.005482 0.036827 -0.003392
# 6 -0.001828 -0.000412 0.001991 -0.001002 -0.003392 0.028039
#
#
# Mechanical properties :
#
#
# Convention : Reuss Voigt Hill
#
# Bulk Modulus (GPa) = 51.09430 62.53460 56.81445
# Shear Modulus (GPa) = 29.25950 34.08014 31.66982
#
# Velocity S-wave (km/s) = 3.67692 3.96827 3.82537
# Velocity P-wave (km/s) = 6.45252 7.06336 6.76484
#
# Compressibility (1/GPa) = 0.01957165
#
# Stress axis : x y z
#
# Youngs Moduli (GPa) = 62.24923 111.70370 49.65887
#
# Poissons Ratio (x) = 0.19531 0.31262
# Poissons Ratio (y) = 0.10884 0.23575
# Poissons Ratio (z) = 0.39188 0.53029
#
# Static dielectric constant tensor:
#      x y z
#    x 3.977940 -0.088670 -0.005520 
#    y -0.088670 3.984490 -0.125610 
#    z -0.005520 -0.125610 3.868590 
# 
# 
# High freq. dielectric constant tensor:
#      x y z
#    x 1.849820 -0.000010 -0.000360 
#    y -0.000010 1.862910 -0.001720 
#    z -0.000360 -0.001720 1.837530 
# 
# From -- ./inp_files/534091.got.cif
#   From: 2010.06.25/outbox.cif.g09.slc.cpg/sg2_268_cif.got.tgz:534091.got - 2010.06.27 13:26:56.
