data_PCOD8022755
_publ_section_title
;
Structure prediction by ZEFSAII (Michael W. Deem and Ramdas Pophale) SiO2 
 PCOD8022755
Probable space group: P -1
;
_chemical_formula_sum "Si O2"
_cell_formula_units_Z 14
_cell_length_a 5.158093
_cell_length_b 15.017205
_cell_length_c 20.464907
_cell_angle_alpha 156.424267
_cell_angle_beta 92.626053
_cell_angle_gamma 87.150546
_cell_volume 633.239778
_symmetry_space_group_name_H-M "P -1"
_symmetry_group_IT_number 2
_symmetry_cell_setting 'triclinic'
loop_
_space_group_symop_operation_xyz
x,y,z
-x,-y,-z
loop_
_atom_site_type_symbol
_atom_site_label
_atom_site_fract_x
_atom_site_fract_y
_atom_site_fract_z
Si Si1 0.585137 0.967318 0.054066
Si Si2 0.744428 0.669502 0.411366
Si Si3 0.252193 0.357769 0.887341
Si Si4 0.081518 0.806474 0.921958
Si Si5 0.749965 0.347739 0.400318
Si Si6 0.758196 0.125181 0.388965
Si Si7 0.752411 0.846473 0.392052
O O1 0.713288 0.189885 0.231684
O O2 0.312187 0.888789 0.029629
O O3 0.809407 0.772630 0.934667
O O4 0.500000 0.000000 0.000000
O O5 0.822706 0.417993 0.264520
O O6 0.463286 0.736273 0.481400
O O7 0.749746 0.674134 0.336080
O O8 0.958493 0.835530 0.551938
O O9 0.245074 0.295129 0.769062
O O10 0.284675 0.137106 0.783304
O O11 0.500000 0.500000 0.000000
O O12 0.000000 0.500000 0.000000
O O13 0.000000 0.000000 0.000000
O O14 0.500000 0.500000 0.500000
O O15 0.760042 0.193119 0.359591
O O16 0.000000 0.500000 0.500000
O O17 0.500000 0.000000 0.500000
O O18 0.000000 0.000000 0.500000
#
# Coordination Sequence:
#
# PCOD8022755 Si02
#       7
#     2   2   2   2   2   2   2
#     4  10  23  42  64  94 137 177 240 288 353 412
#     4  12  24  44  75 107 142 195 241 306 350 446
#     4  12  26  46  75 110 154 186 233 321 382 428
#     4  10  23  38  67  98 139 176 236 290 355 401
#     4  12  28  45  72 103 146 196 240 299 365 434
#     4  12  27  45  73 107 146 190 251 288 378 442
#     4  12  23  46  74 109 143 189 251 293 367 448
#
# _framework density 22.108526999999999
#
# number of rings (size 3 to 8) (size 9 to 14) (size 15 to 20)
#    0.000    0.571    2.857    4.286   12.000    2.286 
#    0.000    0.000    0.000    0.000    0.000    0.000 
#    0.000    0.000    0.000    0.000    0.000    0.000 
#
# Total GULP energy -173518.625678 kJ/mol
# GULP energy per Si atom -12394.187548 kJ/mol
# Density = 2.205821 g / cm^3
# Si number density = 22.108527 Si / 1000 Ang^3
#
#
#
# Elastic Constant Matrix: (Units=GPa)
#
#
# Indices 1 2 3 4 5 6 
#
# 1 195.4036 31.2707 62.6026 -9.0342 1.6068 -12.4161
# 2 31.2707 147.1771 55.9979 -1.4669 3.5013 6.1199
# 3 62.6026 55.9979 152.6931 -4.5611 1.7336 -5.5389
# 4 -9.0342 -1.4669 -4.5611 48.7564 -6.7847 0.8513
# 5 1.6068 3.5013 1.7336 -6.7847 58.0327 -0.8964
# 6 -12.4161 6.1199 -5.5389 0.8513 -0.8964 28.2629
#
#
#
# Elastic Compliance Matrix: (Units=1/GPa)
#
#
# Indices 1 2 3 4 5 6 
#
# 1 0.006095 -0.000554 -0.002185 0.000877 0.000069 0.002345
# 2 -0.000554 0.008108 -0.002839 -0.000141 -0.000445 -0.002565
# 3 -0.002185 -0.002839 0.008542 0.000290 0.000031 0.001321
# 4 0.000877 -0.000141 0.000290 0.021036 0.002434 -0.000084
# 5 0.000069 -0.000445 0.000031 0.002434 0.017550 0.000616
# 6 0.002345 -0.002565 0.001321 -0.000084 0.000616 0.037249
#
#
# Mechanical properties :
#
#
# Convention : Reuss Voigt Hill
#
# Bulk Modulus (GPa) = 86.28260 88.33515 87.30888
# Shear Modulus (GPa) = 44.01438 50.03725 47.02581
#
# Velocity S-wave (km/s) = 4.46672 4.76253 4.61699
# Velocity P-wave (km/s) = 8.10639 8.38357 8.24615
#
# Compressibility (1/GPa) = 0.01158982
#
# Stress axis : x y z
#
# Youngs Moduli (GPa) = 164.05776 123.33300 117.06410
#
# Poissons Ratio (x) = 0.06833 0.25583
# Poissons Ratio (y) = 0.09089 0.33230
# Poissons Ratio (z) = 0.35853 0.35010
#
# Static dielectric constant tensor:
#      x y z
#    x -0.292300 -0.608310 -0.059500 
#    y -0.608310 4.155640 -0.033670 
#    z -0.059500 -0.033670 4.056090 
# 
# 
# High freq. dielectric constant tensor:
#      x y z
#    x 1.911860 -0.006530 0.000720 
#    y -0.006530 1.857170 0.002940 
#    z 0.000720 0.002940 1.874130 
# 
# From -- ./inp_files/583709.got.cif
#   From: 2010.06.25/outbox.cif.g09.slc.cpg/sg2_292_cif.got.tgz:583709.got - 2010.06.27 13:26:56.
