data_PCOD8022356
_publ_section_title
;
Structure prediction by ZEFSAII (Michael W. Deem and Ramdas Pophale) SiO2 
 PCOD8022356
Probable space group: P -1
;
_chemical_formula_sum "Si O2"
_cell_formula_units_Z 16
_cell_length_a 11.549496
_cell_length_b 14.287456
_cell_length_c 16.717682
_cell_angle_alpha 35.550465
_cell_angle_beta 54.864177
_cell_angle_gamma 30.445755
_cell_volume 734.799401
_symmetry_space_group_name_H-M "P -1"
_symmetry_group_IT_number 2
_symmetry_cell_setting 'triclinic'
loop_
_space_group_symop_operation_xyz
x,y,z
-x,-y,-z
loop_
_atom_site_type_symbol
_atom_site_label
_atom_site_fract_x
_atom_site_fract_y
_atom_site_fract_z
Si Si1 0.105556 0.292039 0.533028
Si Si2 0.910085 0.055390 0.622603
Si Si3 0.076296 0.207515 0.971893
Si Si4 0.318615 0.156010 0.773994
Si Si5 0.668729 0.177789 0.473381
Si Si6 0.854502 0.209871 0.707854
Si Si7 0.594381 0.875878 0.700274
Si Si8 0.818153 0.808146 0.887776
O O1 0.000000 0.500000 0.500000
O O2 0.938674 0.495667 0.379220
O O3 0.079057 0.128052 0.677701
O O4 0.406118 0.048192 0.577960
O O5 0.743206 0.205682 0.504497
O O6 0.771610 0.263036 0.610644
O O7 0.973946 0.814468 0.790317
O O8 0.168436 0.909462 0.604713
O O9 0.254669 0.071670 0.918879
O O10 0.806259 0.544026 0.831428
O O11 0.208333 0.167102 0.023344
O O12 0.049258 0.042078 0.111527
O O13 0.429502 0.976777 0.772952
O O14 0.533965 0.069960 0.784547
O O15 0.376514 0.495777 0.355068
O O16 0.706555 0.949030 0.621083
O O17 0.000000 0.500000 0.000000
#
# Coordination Sequence:
#
# PCOD8022356 Si02
#       8
#     2   2   2   2   2   2   2   2
#     4  10  22  45  72  87 129 178 221 271 315 378
#     4  10  23  37  61  97 128 169 217 269 320 378
#     4  11  26  38  66 101 132 166 217 267 333 384
#     4  11  22  42  67  94 127 177 219 258 320 389
#     4  11  21  40  65  91 132 173 215 263 323 386
#     4  11  23  42  62  99 128 165 217 274 321 378
#     4  11  23  45  67  93 133 173 220 265 321 386
#     4  11  20  41  62  92 140 174 203 265 333 394
#
# _framework density 21.774650000000001
#
# number of rings (size 3 to 8) (size 9 to 14) (size 15 to 20)
#    0.000    1.250    5.000    0.750    3.500    2.000 
#    4.500    2.500    0.000    0.000    0.000    0.000 
#    0.000    0.000    0.000    0.000    0.000    0.000 
#
# Total GULP energy -198304.656545 kJ/mol
# GULP energy per Si atom -12394.041034 kJ/mol
# Density = 2.172509 g / cm^3
# Si number density = 21.774650 Si / 1000 Ang^3
#
#
#
# Elastic Constant Matrix: (Units=GPa)
#
#
# Indices 1 2 3 4 5 6 
#
# 1 84.3176 15.0843 40.6477 5.7837 -2.6893 -18.1110
# 2 15.0843 90.2108 42.3415 22.2675 0.3149 1.8330
# 3 40.6477 42.3415 110.8123 7.3411 -8.5222 1.0551
# 4 5.7837 22.2675 7.3411 40.6817 -8.2386 -1.1999
# 5 -2.6893 0.3149 -8.5222 -8.2386 41.4826 -10.6855
# 6 -18.1110 1.8330 1.0551 -1.1999 -10.6855 19.0151
#
#
#
# Elastic Compliance Matrix: (Units=1/GPa)
#
#
# Indices 1 2 3 4 5 6 
#
# 1 0.020619 -0.000816 -0.007054 0.000722 0.006114 0.023589
# 2 -0.000816 0.016101 -0.005561 -0.008720 -0.004340 -0.005010
# 3 -0.007054 -0.005561 0.013777 0.001608 0.001136 -0.006207
# 4 0.000722 -0.008720 0.001608 0.030975 0.008733 0.008301
# 5 0.006114 -0.004340 0.001136 0.008733 0.033016 0.025283
# 6 0.023589 -0.005010 -0.006207 0.008301 0.025283 0.090616
#
#
# Mechanical properties :
#
#
# Convention : Reuss Voigt Hill
#
# Bulk Modulus (GPa) = 42.31080 53.49863 47.90471
# Shear Modulus (GPa) = 20.84683 32.72036 26.78359
#
# Velocity S-wave (km/s) = 3.09753 3.88065 3.51099
# Velocity P-wave (km/s) = 5.68034 6.68594 6.20355
#
# Compressibility (1/GPa) = 0.02363463
#
# Stress axis : x y z
#
# Youngs Moduli (GPa) = 48.49967 62.10656 72.58635
#
# Poissons Ratio (x) = 0.05066 0.51201
# Poissons Ratio (y) = 0.03956 0.40369
# Poissons Ratio (z) = 0.34211 0.34541
#
# Static dielectric constant tensor:
#      x y z
#    x 2.262020 0.219040 -0.069270 
#    y 0.219040 3.908900 0.158580 
#    z -0.069270 0.158580 3.952240 
# 
# 
# High freq. dielectric constant tensor:
#      x y z
#    x 1.851270 -0.002550 -0.001360 
#    y -0.002550 1.854990 0.007420 
#    z -0.001360 0.007420 1.848450 
# 
# From -- ./inp_files/569935.got.cif
#   From: 2010.06.25/outbox.cif.g09.slc.cpg/sg2_285_cif.got.tgz:569935.got - 2010.06.27 13:26:56.
