data_PCOD8022514
_publ_section_title
;
Structure prediction by ZEFSAII (Michael W. Deem and Ramdas Pophale) SiO2 
 PCOD8022514
Probable space group: P -1
;
_chemical_formula_sum "Si O2"
_cell_formula_units_Z 16
_cell_length_a 9.586260
_cell_length_b 14.050644
_cell_length_c 12.015643
_cell_angle_alpha 151.234773
_cell_angle_beta 115.386115
_cell_angle_gamma 67.977576
_cell_volume 703.616187
_symmetry_space_group_name_H-M "P -1"
_symmetry_group_IT_number 2
_symmetry_cell_setting 'triclinic'
loop_
_space_group_symop_operation_xyz
x,y,z
-x,-y,-z
loop_
_atom_site_type_symbol
_atom_site_label
_atom_site_fract_x
_atom_site_fract_y
_atom_site_fract_z
Si Si1 0.919761 0.129513 0.846059
Si Si2 0.363044 0.964588 0.496308
Si Si3 0.917506 0.700307 0.480965
Si Si4 0.932829 0.562548 0.922566
Si Si5 0.426255 0.968466 0.061120
Si Si6 0.571174 0.692596 0.426944
Si Si7 0.388106 0.315809 0.018161
Si Si8 0.099320 0.805604 0.845375
O O1 0.767243 0.128135 0.719074
O O2 0.976276 0.914664 0.680740
O O3 0.890768 0.255379 0.081569
O O4 0.042862 0.213799 0.885224
O O5 0.422312 0.798257 0.431088
O O6 0.500000 0.000000 0.500000
O O7 0.321359 0.180093 0.755281
O O8 0.731198 0.701165 0.421949
O O9 0.974795 0.554950 0.258331
O O10 0.003844 0.647804 0.574229
O O11 0.748031 0.539533 0.836833
O O12 0.000000 0.500000 0.000000
O O13 0.396708 0.187673 0.325469
O O14 0.556789 0.843594 0.038538
O O15 0.267497 0.843498 0.887027
O O16 0.500000 0.000000 0.000000
O O17 0.531043 0.461179 0.188780
O O18 0.000000 0.000000 0.000000
#
# Coordination Sequence:
#
# PCOD8022514 Si02
#       8
#     2   2   2   2   2   2   2   2
#     4  11  23  46  74  98 143 187 243 295 350 430
#     4  11  22  42  72 102 136 185 234 295 365 417
#     4  11  25  44  75 103 143 188 240 297 354 429
#     4  12  29  46  68 110 146 192 239 296 364 421
#     4  11  25  46  72 104 147 189 240 299 363 426
#     4  11  24  45  71 107 143 183 242 297 360 435
#     4  11  28  45  67 107 146 182 239 294 367 426
#     4  10  22  46  72 105 135 186 246 286 353 428
#
# _framework density 22.739671999999999
#
# number of rings (size 3 to 8) (size 9 to 14) (size 15 to 20)
#    0.000    1.000    3.750    2.250    8.750    4.500 
#    0.000    0.000    0.000    0.000    0.000    0.000 
#    0.000    0.000    0.000    0.000    0.000    0.000 
#
# Total GULP energy -198223.464753 kJ/mol
# GULP energy per Si atom -12388.966547 kJ/mol
# Density = 2.268792 g / cm^3
# Si number density = 22.739672 Si / 1000 Ang^3
#
#
#
# Elastic Constant Matrix: (Units=GPa)
#
#
# Indices 1 2 3 4 5 6 
#
# 1 120.6489 37.2108 27.2026 -6.0803 -9.3342 -0.0886
# 2 37.2108 104.6283 43.3321 -7.5851 0.7874 15.8437
# 3 27.2026 43.3321 97.1382 -15.0239 -3.3728 -3.0827
# 4 -6.0803 -7.5851 -15.0239 36.9078 0.8784 7.1540
# 5 -9.3342 0.7874 -3.3728 0.8784 39.1562 1.0368
# 6 -0.0886 15.8437 -3.0827 7.1540 1.0368 41.4104
#
#
#
# Elastic Compliance Matrix: (Units=1/GPa)
#
#
# Indices 1 2 3 4 5 6 
#
# 1 0.009702 -0.003118 -0.001181 0.000224 0.002241 0.001031
# 2 -0.003118 0.013885 -0.005348 0.001342 -0.001357 -0.005915
# 3 -0.001181 -0.005348 0.013704 0.003802 0.000858 0.002385
# 4 0.000224 0.001342 0.003802 0.030008 -0.000176 -0.005409
# 5 0.002241 -0.001357 0.000858 -0.000176 0.026179 -0.000037
# 6 0.001031 -0.005915 0.002385 -0.005409 -0.000037 0.027527
#
#
# Mechanical properties :
#
#
# Convention : Reuss Voigt Hill
#
# Bulk Modulus (GPa) = 55.56397 59.76737 57.66567
# Shear Modulus (GPa) = 34.17699 37.80622 35.99160
#
# Velocity S-wave (km/s) = 3.88102 4.08188 3.98272
# Velocity P-wave (km/s) = 6.67615 6.96822 6.82374
#
# Compressibility (1/GPa) = 0.01799727
#
# Stress axis : x y z
#
# Youngs Moduli (GPa) = 103.07235 72.02222 72.96908
#
# Poissons Ratio (x) = 0.22458 0.08616
# Poissons Ratio (y) = 0.32140 0.39023
# Poissons Ratio (z) = 0.12171 0.38516
#
# Static dielectric constant tensor:
#      x y z
#    x 3.414320 1.984630 -1.537020 
#    y 1.984630 -1.984610 5.204500 
#    z -1.537020 5.204500 -0.320530 
# 
# 
# High freq. dielectric constant tensor:
#      x y z
#    x 1.900300 -0.000850 0.003070 
#    y -0.000850 1.908330 -0.003820 
#    z 0.003070 -0.003820 1.897510 
# 
# From -- ./inp_files/400144.got.cif
#   From: 2010.06.25/outbox.cif.g09.slc.cpg/sg2_201_cif.got.tgz:400144.got - 2010.06.27 13:26:56.
