data_PCOD8022800
_publ_section_title
;
Structure prediction by ZEFSAII (Michael W. Deem and Ramdas Pophale) SiO2 
 PCOD8022800
Probable space group: P -1
;
_chemical_formula_sum "Si O2"
_cell_formula_units_Z 16
_cell_length_a 8.992820
_cell_length_b 11.908789
_cell_length_c 12.410393
_cell_angle_alpha 46.310939
_cell_angle_beta 53.453074
_cell_angle_gamma 75.508306
_cell_volume 741.802256
_symmetry_space_group_name_H-M "P -1"
_symmetry_group_IT_number 2
_symmetry_cell_setting 'triclinic'
loop_
_space_group_symop_operation_xyz
x,y,z
-x,-y,-z
loop_
_atom_site_type_symbol
_atom_site_label
_atom_site_fract_x
_atom_site_fract_y
_atom_site_fract_z
Si Si1 0.485010 0.834369 0.429858
Si Si2 0.511679 0.964994 0.895844
Si Si3 0.923927 0.152564 0.406861
Si Si4 0.924660 0.937096 0.191370
Si Si5 0.154213 0.694429 0.255574
Si Si6 0.929643 0.408325 0.414593
Si Si7 0.353598 0.483790 0.670572
Si Si8 0.174362 0.184386 0.088695
O O1 0.301987 0.898894 0.501879
O O2 0.698278 0.920521 0.325546
O O3 0.431497 0.644240 0.602981
O O4 0.490186 0.872084 0.274209
O O5 0.703989 0.910151 0.829232
O O6 0.325991 0.821847 0.035934
O O7 0.500000 0.000000 0.000000
O O8 0.969052 0.266089 0.418625
O O9 0.043908 0.246946 0.189719
O O10 0.000000 0.000000 0.500000
O O11 0.965500 0.762370 0.300932
O O12 0.042882 0.061921 0.143479
O O13 0.000000 0.000000 0.000000
O O14 0.211212 0.666346 0.373928
O O15 0.115665 0.529757 0.311413
O O16 0.847639 0.519861 0.296106
O O17 0.500000 0.500000 0.500000
O O18 0.321260 0.330599 0.864220
#
# Coordination Sequence:
#
# PCOD8022800 Si02
#       8
#     2   2   2   2   2   2   2   2
#     4  11  24  39  66  92 136 176 219 275 332 393
#     4  12  20  38  66 100 123 175 227 274 332 406
#     4  11  23  46  67  93 134 186 232 265 327 418
#     4  12  22  39  66 104 131 166 225 292 339 390
#     4  11  21  37  67  98 135 170 226 279 352 383
#     4  10  23  39  62  96 135 177 215 287 331 402
#     4  11  22  40  63  99 136 167 219 286 339 393
#     4  12  25  40  72  96 135 183 224 269 343 405
#
# _framework density 21.569092000000001
#
# number of rings (size 3 to 8) (size 9 to 14) (size 15 to 20)
#    0.000    0.750    3.750    6.000    0.000    3.500 
#    0.000    0.625    2.750    0.000    0.000    0.000 
#    0.000    0.000    0.000    0.000    0.000    0.000 
#
# Total GULP energy -198227.671391 kJ/mol
# GULP energy per Si atom -12389.229462 kJ/mol
# Density = 2.152000 g / cm^3
# Si number density = 21.569092 Si / 1000 Ang^3
#
#
#
# Elastic Constant Matrix: (Units=GPa)
#
#
# Indices 1 2 3 4 5 6 
#
# 1 96.5922 37.9931 27.8569 -5.0871 -22.2025 -7.3276
# 2 37.9931 114.8359 33.9667 -2.2043 -15.4098 9.0620
# 3 27.8569 33.9667 90.0235 -1.0260 -18.3363 6.8789
# 4 -5.0871 -2.2043 -1.0260 36.9193 -7.0142 0.0763
# 5 -22.2025 -15.4098 -18.3363 -7.0142 36.2076 6.1482
# 6 -7.3276 9.0620 6.8789 0.0763 6.1482 30.8766
#
#
#
# Elastic Compliance Matrix: (Units=1/GPa)
#
#
# Indices 1 2 3 4 5 6 
#
# 1 0.014139 -0.003482 -0.002069 0.002829 0.006073 0.003622
# 2 -0.003482 0.011189 -0.002380 0.000550 0.002211 -0.004022
# 3 -0.002069 -0.002380 0.014151 0.001074 0.005789 -0.004101
# 4 0.002829 0.000550 0.001074 0.029139 0.008409 -0.001476
# 5 0.006073 0.002211 0.005789 0.008409 0.038225 -0.008129
# 6 0.003622 -0.004022 -0.004101 -0.001476 -0.008129 0.036963
#
#
# Mechanical properties :
#
#
# Convention : Reuss Voigt Hill
#
# Bulk Modulus (GPa) = 42.34387 55.67611 49.00999
# Shear Modulus (GPa) = 29.84355 34.24303 32.04329
#
# Velocity S-wave (km/s) = 3.72375 3.98879 3.85854
# Velocity P-wave (km/s) = 6.17760 6.86170 6.52861
#
# Compressibility (1/GPa) = 0.02361617
#
# Stress axis : x y z
#
# Youngs Moduli (GPa) = 70.72657 89.37496 70.66537
#
# Poissons Ratio (x) = 0.31125 0.14619
# Poissons Ratio (y) = 0.24630 0.16820
# Poissons Ratio (z) = 0.14631 0.21273
#
# Static dielectric constant tensor:
#      x y z
#    x 3.912670 -0.166930 0.188910 
#    y -0.166930 3.857940 -0.165890 
#    z 0.188910 -0.165890 3.958260 
# 
# 
# High freq. dielectric constant tensor:
#      x y z
#    x 1.850760 -0.008860 0.000330 
#    y -0.008860 1.826480 -0.013230 
#    z 0.000330 -0.013230 1.855280 
# 
# From -- ./inp_files/392019.got.cif
#   From: 2010.06.25/outbox.cif.g09.slc.cpg/sg2_197_cif.got.tgz:392019.got - 2010.06.27 13:26:56.
