data_PCOD8022708
_publ_section_title
;
Structure prediction by ZEFSAII (Michael W. Deem and Ramdas Pophale) SiO2 
 PCOD8022708
Probable space group: P -1
;
_chemical_formula_sum "Si O2"
_cell_formula_units_Z 16
_cell_length_a 15.853244
_cell_length_b 11.323276
_cell_length_c 12.104495
_cell_angle_alpha 73.595451
_cell_angle_beta 45.090522
_cell_angle_gamma 37.438854
_cell_volume 714.091094
_symmetry_space_group_name_H-M "P -1"
_symmetry_group_IT_number 2
_symmetry_cell_setting 'triclinic'
loop_
_space_group_symop_operation_xyz
x,y,z
-x,-y,-z
loop_
_atom_site_type_symbol
_atom_site_label
_atom_site_fract_x
_atom_site_fract_y
_atom_site_fract_z
Si Si1 0.776488 0.103624 0.281650
Si Si2 0.736776 0.203133 0.840555
Si Si3 0.615838 0.082756 0.626451
Si Si4 0.047250 0.111494 0.473709
Si Si5 0.700784 0.798001 0.458344
Si Si6 0.087923 0.615593 0.045701
Si Si7 0.030830 0.813222 0.840469
Si Si8 0.342211 0.445480 0.444810
O O1 0.617571 0.192775 0.506565
O O2 0.842510 0.186704 0.211683
O O3 0.628660 0.217894 0.269888
O O4 0.023797 0.795600 0.129832
O O5 0.987636 0.056682 0.631021
O O6 0.500000 0.500000 0.000000
O O7 0.734285 0.120953 0.753908
O O8 0.774499 0.086972 0.947083
O O9 0.620631 0.944971 0.602786
O O10 0.373567 0.324317 0.859182
O O11 0.846014 0.875317 0.553745
O O12 0.780794 0.373322 0.592968
O O13 0.712977 0.644327 0.514766
O O14 0.956356 0.616206 0.220008
O O15 0.500000 0.000000 0.500000
O O16 0.989876 0.735218 0.980896
O O17 0.207667 0.604018 0.638485
#
# Coordination Sequence:
#
# PCOD8022708 Si02
#       8
#     2   2   2   2   2   2   2   2
#     4  11  22  41  64  98 129 161 210 267 322 374
#     4  10  23  38  62  91 135 169 209 255 315 396
#     4  11  23  42  66  92 129 171 212 262 314 384
#     4  10  24  42  61  92 129 173 204 257 330 367
#     4  11  23  44  64  94 128 167 217 270 311 366
#     4  11  24  38  67  96 124 167 213 262 318 374
#     4  11  22  39  64 100 127 165 209 264 325 380
#     4  11  23  43  65  91 130 167 213 263 312 382
#
# _framework density 22.406106000000001
#
# number of rings (size 3 to 8) (size 9 to 14) (size 15 to 20)
#    0.000    1.250    5.000    0.750    3.500    2.500 
#    0.000    0.625    0.000    0.000    0.000    0.000 
#    0.000    0.000    0.000    0.000    0.000    0.000 
#
# Total GULP energy -198277.047797 kJ/mol
# GULP energy per Si atom -12392.315487 kJ/mol
# Density = 2.235511 g / cm^3
# Si number density = 22.406106 Si / 1000 Ang^3
#
#
#
# Elastic Constant Matrix: (Units=GPa)
#
#
# Indices 1 2 3 4 5 6 
#
# 1 164.7027 39.1122 22.5940 -0.9801 8.6537 0.1099
# 2 39.1122 67.4930 10.9904 3.2401 -1.2527 -1.4171
# 3 22.5940 10.9904 66.7126 18.0939 2.8734 -2.6275
# 4 -0.9801 3.2401 18.0939 54.9034 7.3912 2.6213
# 5 8.6537 -1.2527 2.8734 7.3912 24.0451 5.0354
# 6 0.1099 -1.4171 -2.6275 2.6213 5.0354 38.5281
#
#
#
# Elastic Compliance Matrix: (Units=1/GPa)
#
#
# Indices 1 2 3 4 5 6 
#
# 1 0.007522 -0.004141 -0.002139 0.001505 -0.003127 -0.000013
# 2 -0.004141 0.017539 -0.001307 -0.001072 0.002833 0.000270
# 3 -0.002139 -0.001307 0.017570 -0.005835 0.000073 0.001544
# 4 0.001505 -0.001072 -0.005835 0.021108 -0.006164 -0.001072
# 5 -0.003127 0.002833 0.000073 -0.006164 0.045891 -0.005460
# 6 -0.000013 0.000270 0.001544 -0.001072 -0.005460 0.026857
#
#
# Mechanical properties :
#
#
# Convention : Reuss Voigt Hill
#
# Bulk Modulus (GPa) = 36.42369 49.36681 42.89525
# Shear Modulus (GPa) = 31.09198 38.57609 34.83404
#
# Velocity S-wave (km/s) = 3.72917 4.15381 3.94720
# Velocity P-wave (km/s) = 5.90201 6.71462 6.32138
#
# Compressibility (1/GPa) = 0.02745466
#
# Stress axis : x y z
#
# Youngs Moduli (GPa) = 132.94942 57.01670 56.91584
#
# Poissons Ratio (x) = 0.23611 0.12176
# Poissons Ratio (y) = 0.55055 0.07441
# Poissons Ratio (z) = 0.28442 0.07454
#
# Static dielectric constant tensor:
#      x y z
#    x 5.630510 1.664440 -0.658300 
#    y 1.664440 6.005410 -0.937120 
#    z -0.658300 -0.937120 4.516250 
# 
# 
# High freq. dielectric constant tensor:
#      x y z
#    x 1.874060 -0.004550 0.019280 
#    y -0.004550 1.871570 0.005450 
#    z 0.019280 0.005450 1.890860 
# 
# From -- ./inp_files/452352.got.cif
#   From: 2010.06.25/outbox.cif.g09.slc.cpg/sg2_227_cif.got.tgz:452352.got - 2010.06.27 13:26:56.
