data_PCOD8022269
_publ_section_title
;
Structure prediction by ZEFSAII (Michael W. Deem and Ramdas Pophale) SiO2 
 PCOD8022269
Probable space group: P -1
;
_chemical_formula_sum "Si O2"
_cell_formula_units_Z 16
_cell_length_a 14.543899
_cell_length_b 23.518939
_cell_length_c 13.661306
_cell_angle_alpha 160.243574
_cell_angle_beta 28.296311
_cell_angle_gamma 152.639948
_cell_volume 695.305604
_symmetry_space_group_name_H-M "P -1"
_symmetry_group_IT_number 2
_symmetry_cell_setting 'triclinic'
loop_
_space_group_symop_operation_xyz
x,y,z
-x,-y,-z
loop_
_atom_site_type_symbol
_atom_site_label
_atom_site_fract_x
_atom_site_fract_y
_atom_site_fract_z
Si Si1 0.754334 0.223924 0.108580
Si Si2 0.086586 0.674933 0.349620
Si Si3 0.332042 0.157951 0.485960
Si Si4 0.434530 0.204585 0.678471
Si Si5 0.268391 0.244245 0.103404
Si Si6 0.527329 0.140769 0.838214
Si Si7 0.337338 0.599979 0.703487
Si Si8 0.796682 0.524669 0.916230
O O1 0.580717 0.203345 0.319529
O O2 0.664589 0.251229 0.132236
O O3 0.964202 0.394447 0.215918
O O4 0.798287 0.037896 0.756811
O O5 0.238239 0.799324 0.327411
O O6 0.222619 0.598111 0.168331
O O7 0.975529 0.795133 0.707569
O O8 0.899198 0.503517 0.200760
O O9 0.289385 0.162619 0.649983
O O10 0.269022 0.304516 0.723255
O O11 0.635341 0.390550 0.773241
O O12 0.521636 0.046689 0.363582
O O13 0.293036 0.227535 0.937549
O O14 0.411297 0.450691 0.339498
O O15 0.355776 0.110850 0.865179
O O16 0.514319 0.293826 0.174453
#
# Coordination Sequence:
#
# PCOD8022269 Si02
#       8
#     2   2   2   2   2   2   2   2
#     4  10  22  45  69  97 131 167 226 274 318 390
#     4   9  23  39  66  93 128 172 220 260 321 385
#     4  11  24  45  70  96 130 174 220 275 325 384
#     4  12  25  43  66 102 134 172 217 269 331 394
#     4  10  23  41  62  94 133 174 211 267 324 385
#     4  12  21  43  66  95 136 171 217 268 324 386
#     4   9  20  41  66  95 126 171 219 267 314 392
#     4  11  23  43  67  94 133 177 209 268 335 383
#
# _framework density 23.011462999999999
#
# number of rings (size 3 to 8) (size 9 to 14) (size 15 to 20)
#    0.750    0.750    2.500    2.625    0.000    1.000 
#    2.250    0.000    0.000    0.000    0.000    0.000 
#    0.000    0.000    0.000    0.000    0.000    0.000 
#
# Total GULP energy -198348.700379 kJ/mol
# GULP energy per Si atom -12396.793774 kJ/mol
# Density = 2.295909 g / cm^3
# Si number density = 23.011463 Si / 1000 Ang^3
#
#
#
# Elastic Constant Matrix: (Units=GPa)
#
#
# Indices 1 2 3 4 5 6 
#
# 1 62.1270 6.6200 15.5172 -10.6618 0.6909 -6.6836
# 2 6.6200 55.7254 14.1920 4.0676 2.5240 -5.6219
# 3 15.5172 14.1920 86.7785 -4.2983 -6.7466 -6.5224
# 4 -10.6618 4.0676 -4.2983 30.1087 -7.4529 1.7724
# 5 0.6909 2.5240 -6.7466 -7.4529 40.8094 2.2066
# 6 -6.6836 -5.6219 -6.5224 1.7724 2.2066 19.8546
#
#
#
# Elastic Compliance Matrix: (Units=1/GPa)
#
#
# Indices 1 2 3 4 5 6 
#
# 1 0.018391 -0.001607 -0.002367 0.006207 0.000294 0.004371
# 2 -0.001607 0.019867 -0.003050 -0.004670 -0.002819 0.004812
# 3 -0.002367 -0.003050 0.012903 0.001935 0.002601 0.002116
# 4 0.006207 -0.004670 0.001935 0.038386 0.007670 -0.002876
# 5 0.000294 -0.002819 0.002601 0.007670 0.026693 -0.003496
# 6 0.004371 0.004812 0.002116 -0.002876 -0.003496 0.054541
#
#
# Mechanical properties :
#
#
# Convention : Reuss Voigt Hill
#
# Bulk Modulus (GPa) = 26.94591 30.80991 28.87791
# Shear Modulus (GPa) = 25.35496 29.37465 27.36481
#
# Velocity S-wave (km/s) = 3.32300 3.57672 3.45219
# Velocity P-wave (km/s) = 5.14376 5.52044 5.33543
#
# Compressibility (1/GPa) = 0.03711139
#
# Stress axis : x y z
#
# Youngs Moduli (GPa) = 54.37530 50.33473 77.50258
#
# Poissons Ratio (x) = 0.08091 0.18343
# Poissons Ratio (y) = 0.08740 0.23641
# Poissons Ratio (z) = 0.12869 0.15354
#
# Static dielectric constant tensor:
#      x y z
#    x 3.732420 -0.006380 -0.028960 
#    y -0.006380 3.942730 0.191780 
#    z -0.028960 0.191780 4.100450 
# 
# 
# High freq. dielectric constant tensor:
#      x y z
#    x 1.883580 -0.001820 -0.005430 
#    y -0.001820 1.901700 0.017290 
#    z -0.005430 0.017290 1.914990 
# 
# From -- ./inp_files/535430.got.cif
#   From: 2010.06.25/outbox.cif.g09.slc.cpg/sg2_268_cif.got.tgz:535430.got - 2010.06.27 13:26:56.
