data_PCOD8022100
_publ_section_title
;
Structure prediction by ZEFSAII (Michael W. Deem and Ramdas Pophale) SiO2 
 PCOD8022100
Probable space group: P -1
;
_chemical_formula_sum "Si O2"
_cell_formula_units_Z 16
_cell_length_a 16.580713
_cell_length_b 5.260824
_cell_length_c 14.311702
_cell_angle_alpha 89.969005
_cell_angle_beta 33.977650
_cell_angle_gamma 82.387119
_cell_volume 677.934577
_symmetry_space_group_name_H-M "P -1"
_symmetry_group_IT_number 2
_symmetry_cell_setting 'triclinic'
loop_
_space_group_symop_operation_xyz
x,y,z
-x,-y,-z
loop_
_atom_site_type_symbol
_atom_site_label
_atom_site_fract_x
_atom_site_fract_y
_atom_site_fract_z
Si Si1 0.280270 0.096713 0.105457
Si Si2 0.598677 0.629263 0.620508
Si Si3 0.542113 0.480878 0.067471
Si Si4 0.081975 0.216527 0.454934
Si Si5 0.056745 0.214528 0.159980
Si Si6 0.417481 0.725328 0.513150
Si Si7 0.341823 0.990582 0.766688
Si Si8 0.885444 0.789236 0.356608
O O1 0.244767 0.147122 0.249674
O O2 0.127714 0.182903 0.194788
O O3 0.393559 0.270729 0.965139
O O4 0.340631 0.791631 0.027807
O O5 0.595301 0.521906 0.730355
O O6 0.672415 0.385136 0.481609
O O7 0.429138 0.747539 0.747626
O O8 0.708632 0.827139 0.506505
O O9 0.500000 0.500000 0.000000
O O10 0.094957 0.214401 0.552099
O O11 0.000000 0.500000 0.500000
O O12 0.000000 0.000000 0.500000
O O13 0.974420 0.516760 0.225371
O O14 0.942200 0.028280 0.257948
O O15 0.184320 0.132463 0.959937
O O16 0.500000 0.500000 0.500000
O O17 0.313051 0.928623 0.684926
O O18 0.544667 0.826579 0.338487
#
# Coordination Sequence:
#
# PCOD8022100 Si02
#       8
#     2   2   2   2   2   2   2   2
#     4  12  23  42  67  92 131 183 245 286 330 403
#     4  11  25  43  70 101 145 180 228 292 353 408
#     4  12  26  42  66 102 139 180 231 295 344 393
#     4  12  22  41  62  88 133 188 233 277 333 407
#     4  12  25  44  70 100 135 183 235 280 340 413
#     4   9  21  43  75 105 130 175 233 283 351 420
#     4  10  22  44  77 101 134 179 235 283 346 424
#     4  12  27  43  65 102 141 183 228 288 351 405
#
# _framework density 23.601099000000001
#
# number of rings (size 3 to 8) (size 9 to 14) (size 15 to 20)
#    0.000    0.750    3.750    3.375    5.250    1.000 
#    0.000    1.250    0.000    0.000    0.000    0.000 
#    0.000    0.000    0.000    0.000    0.000    0.000 
#
# Total GULP energy -198327.940237 kJ/mol
# GULP energy per Si atom -12395.496265 kJ/mol
# Density = 2.354738 g / cm^3
# Si number density = 23.601099 Si / 1000 Ang^3
#
#
#
# Elastic Constant Matrix: (Units=GPa)
#
#
# Indices 1 2 3 4 5 6 
#
# 1 76.2100 15.0747 39.3931 -2.5591 15.3868 20.7665
# 2 15.0747 109.4296 25.5637 -4.6187 4.3142 20.0072
# 3 39.3931 25.5637 148.2801 -8.5299 24.9306 14.1361
# 4 -2.5591 -4.6187 -8.5299 36.6034 -2.1718 -3.2795
# 5 15.3868 4.3142 24.9306 -2.1718 37.2301 0.4066
# 6 20.7665 20.0072 14.1361 -3.2795 0.4066 32.9148
#
#
#
# Elastic Compliance Matrix: (Units=1/GPa)
#
#
# Indices 1 2 3 4 5 6 
#
# 1 0.018665 0.000285 -0.003092 -0.000663 -0.005599 -0.010618
# 2 0.000285 0.010517 -0.001217 0.000501 -0.000427 -0.005995
# 3 -0.003092 -0.001217 0.008652 0.001317 -0.004289 -0.000841
# 4 -0.000663 0.000501 0.001317 0.027907 0.000937 0.002317
# 5 -0.005599 -0.000427 -0.004289 0.000937 0.032092 0.005331
# 6 -0.010618 -0.005995 -0.000841 0.002317 0.005331 0.041251
#
#
# Mechanical properties :
#
#
# Convention : Reuss Voigt Hill
#
# Bulk Modulus (GPa) = 33.57157 54.88698 44.22928
# Shear Modulus (GPa) = 31.83456 38.27553 35.05504
#
# Velocity S-wave (km/s) = 3.67667 4.03149 3.85816
# Velocity P-wave (km/s) = 5.68149 6.70650 6.21516
#
# Compressibility (1/GPa) = 0.02978710
#
# Stress axis : x y z
#
# Youngs Moduli (GPa) = 53.57535 95.08097 115.57553
#
# Poissons Ratio (x) = -0.02712 0.35741
# Poissons Ratio (y) = -0.01528 0.14063
# Poissons Ratio (z) = 0.16568 0.11570
#
# Static dielectric constant tensor:
#      x y z
#    x 4.678450 0.365970 0.650540 
#    y 0.365970 4.240160 0.064420 
#    z 0.650540 0.064420 4.444750 
# 
# 
# High freq. dielectric constant tensor:
#      x y z
#    x 1.925060 0.013390 0.021780 
#    y 0.013390 1.950200 -0.003500 
#    z 0.021780 -0.003500 1.934490 
# 
# From -- ./inp_files/536337.got.cif
#   From: 2010.06.25/outbox.cif.g09.slc.cpg/sg2_269_cif.got.tgz:536337.got - 2010.06.27 13:26:56.
