data_PCOD8022485
_publ_section_title
;
Structure prediction by ZEFSAII (Michael W. Deem and Ramdas Pophale) SiO2 
 PCOD8022485
Probable space group: P -1
;
_chemical_formula_sum "Si O2"
_cell_formula_units_Z 14
_cell_length_a 12.189440
_cell_length_b 4.917981
_cell_length_c 12.299349
_cell_angle_alpha 60.418732
_cell_angle_beta 116.782107
_cell_angle_gamma 89.474956
_cell_volume 546.360549
_symmetry_space_group_name_H-M "P -1"
_symmetry_group_IT_number 2
_symmetry_cell_setting 'triclinic'
loop_
_space_group_symop_operation_xyz
x,y,z
-x,-y,-z
loop_
_atom_site_type_symbol
_atom_site_label
_atom_site_fract_x
_atom_site_fract_y
_atom_site_fract_z
Si Si1 0.988031 0.876600 0.402180
Si Si2 0.857107 0.149255 0.867466
Si Si3 0.551476 0.385893 0.425810
Si Si4 0.402194 0.174730 0.811372
Si Si5 0.284396 0.628443 0.855872
Si Si6 0.638385 0.380801 0.881693
Si Si7 0.806257 0.886468 0.678382
O O1 0.000000 0.500000 0.500000
O O2 0.102885 0.922025 0.371569
O O3 0.000000 0.000000 0.500000
O O4 0.853619 0.098599 0.248409
O O5 0.768104 0.152663 0.931096
O O6 0.844513 0.505432 0.739875
O O7 0.817633 0.920795 0.806452
O O8 0.000000 0.000000 0.000000
O O9 0.500000 0.500000 0.500000
O O10 0.617766 0.639033 0.350711
O O11 0.436951 0.359779 0.296162
O O12 0.658175 0.035652 0.546131
O O13 0.294523 0.375720 0.811374
O O14 0.388782 0.823801 0.843455
O O15 0.451994 0.849261 0.075597
O O16 0.321742 0.452002 0.025928
#
# Coordination Sequence:
#
# PCOD8022485 Si02
#       7
#     2   2   2   2   2   2   2
#     4  12  26  45  71 107 144 193 243 297 363 438
#     4  12  27  47  71 103 140 193 244 298 367 431
#     4  10  22  46  70 107 142 186 242 292 369 435
#     4  10  25  42  72 103 143 181 240 295 365 430
#     4  12  23  47  69 105 142 187 241 297 364 428
#     4  10  25  45  73 106 144 189 239 305 361 438
#     4  12  25  47  70 103 144 189 240 304 358 438
#
# _framework density 25.624103999999999
#
# number of rings (size 3 to 8) (size 9 to 14) (size 15 to 20)
#    0.857    0.000    1.429    5.571    0.000    6.286 
#    0.000    0.000    0.000    0.000    0.000    0.000 
#    0.000    0.000    0.000    0.000    0.000    0.000 
#
# Total GULP energy -173553.616752 kJ/mol
# GULP energy per Si atom -12396.686911 kJ/mol
# Density = 2.556578 g / cm^3
# Si number density = 25.624104 Si / 1000 Ang^3
#
#
#
# Elastic Constant Matrix: (Units=GPa)
#
#
# Indices 1 2 3 4 5 6 
#
# 1 104.6513 12.9862 37.6733 -3.5891 6.9851 -34.5466
# 2 12.9862 96.8548 39.8374 6.4124 -3.8143 -9.7737
# 3 37.6733 39.8374 154.6519 16.3320 24.8501 -19.7395
# 4 -3.5891 6.4124 16.3320 53.0520 -10.7876 -2.9691
# 5 6.9851 -3.8143 24.8501 -10.7876 59.1556 -1.6034
# 6 -34.5466 -9.7737 -19.7395 -2.9691 -1.6034 38.0657
#
#
#
# Elastic Compliance Matrix: (Units=1/GPa)
#
#
# Indices 1 2 3 4 5 6 
#
# 1 0.014441 0.000049 -0.002224 0.002333 -0.000013 0.012146
# 2 0.000049 0.011883 -0.003240 0.000092 0.002179 0.001515
# 3 -0.002224 -0.003240 0.009073 -0.003354 -0.004331 0.001410
# 4 0.002333 0.000092 -0.003354 0.021185 0.005064 0.002268
# 5 -0.000013 0.002179 -0.004331 0.005064 0.019777 -0.000470
# 6 0.012146 0.001515 0.001410 0.002268 -0.000470 0.038571
#
#
# Mechanical properties :
#
#
# Convention : Reuss Voigt Hill
#
# Bulk Modulus (GPa) = 40.70467 59.68353 50.19410
# Shear Modulus (GPa) = 37.32806 47.76540 42.54673
#
# Velocity S-wave (km/s) = 3.82089 4.32218 4.07924
# Velocity P-wave (km/s) = 5.94856 6.94629 6.46669
#
# Compressibility (1/GPa) = 0.02456720
#
# Stress axis : x y z
#
# Youngs Moduli (GPa) = 69.24875 84.15253 110.22264
#
# Poissons Ratio (x) = -0.00416 0.24519
# Poissons Ratio (y) = -0.00343 0.35708
# Poissons Ratio (z) = 0.15404 0.27262
#
# Static dielectric constant tensor:
#      x y z
#    x 4.766200 -0.086800 0.071580 
#    y -0.086800 4.197170 0.129810 
#    z 0.071580 0.129810 4.900410 
# 
# 
# High freq. dielectric constant tensor:
#      x y z
#    x 2.034070 -0.009900 -0.004800 
#    y -0.009900 2.014620 0.005710 
#    z -0.004800 0.005710 2.044120 
# 
# From -- ./inp_files/440244.got.cif
#   From: 2010.06.25/outbox.cif.g09.slc.cpg/sg2_221_cif.got.tgz:440244.got - 2010.06.27 13:26:56.
