data_PCOD8022781
_publ_section_title
;
Structure prediction by ZEFSAII (Michael W. Deem and Ramdas Pophale) SiO2 
 PCOD8022781
Probable space group: P -1
;
_chemical_formula_sum "Si O2"
_cell_formula_units_Z 14
_cell_length_a 11.280513
_cell_length_b 13.847612
_cell_length_c 8.473583
_cell_angle_alpha 83.308463
_cell_angle_beta 93.480030
_cell_angle_gamma 148.756348
_cell_volume 679.919080
_symmetry_space_group_name_H-M "P -1"
_symmetry_group_IT_number 2
_symmetry_cell_setting 'triclinic'
loop_
_space_group_symop_operation_xyz
x,y,z
-x,-y,-z
loop_
_atom_site_type_symbol
_atom_site_label
_atom_site_fract_x
_atom_site_fract_y
_atom_site_fract_z
Si Si1 0.499992 0.209220 0.767303
Si Si2 0.676374 0.205546 0.522639
Si Si3 0.043848 0.760181 0.368105
Si Si4 0.367791 0.631379 0.708795
Si Si5 0.871742 0.512253 0.966321
Si Si6 0.195400 0.058297 0.488347
Si Si7 0.285743 0.920735 0.027384
O O1 0.601139 0.185585 0.694171
O O2 0.726426 0.424075 0.809620
O O3 0.344092 0.161385 0.642232
O O4 0.346527 0.067757 0.929756
O O5 0.917366 0.317404 0.528513
O O6 0.690883 0.306103 0.387698
O O7 0.500000 0.000000 0.500000
O O8 0.781432 0.565377 0.328872
O O9 0.081463 0.874645 0.471354
O O10 0.223375 0.893978 0.211076
O O11 0.632908 0.790585 0.667547
O O12 0.321047 0.611630 0.891764
O O13 0.063605 0.728852 0.950105
O O14 0.000000 0.500000 0.000000
O O15 0.000000 0.000000 0.500000
O O16 0.500000 0.000000 0.000000
#
# Coordination Sequence:
#
# PCOD8022781 Si02
#       7
#     2   2   2   2   2   2   2
#     4  11  22  37  60  92 123 162 201 249 314 365
#     4  11  20  35  57  92 128 163 193 247 315 384
#     4  11  21  40  61  89 125 166 198 256 315 365
#     4  10  23  39  61  89 125 161 204 252 314 372
#     4  11  22  35  60  94 130 160 187 242 313 387
#     4  11  26  45  64  85 119 170 226 262 290 343
#     4  11  21  35  61  92 131 159 191 237 314 390
#
# _framework density 20.590688
#
# number of rings (size 3 to 8) (size 9 to 14) (size 15 to 20)
#    0.000    1.143    5.714    2.143    2.000    4.000 
#    0.000    2.857    0.000    3.429    0.000    0.000 
#    0.000    0.000    0.000    0.000    0.000    0.000 
#
# Total GULP energy -173490.166806 kJ/mol
# GULP energy per Si atom -12392.154772 kJ/mol
# Density = 2.054382 g / cm^3
# Si number density = 20.590688 Si / 1000 Ang^3
#
#
#
# Elastic Constant Matrix: (Units=GPa)
#
#
# Indices 1 2 3 4 5 6 
#
# 1 117.1296 40.1398 32.9145 10.4234 -6.9501 24.9080
# 2 40.1398 114.5305 44.5500 16.3261 -8.1218 9.3140
# 3 32.9145 44.5500 74.2440 21.1026 -6.4143 5.0181
# 4 10.4234 16.3261 21.1026 42.2899 3.4021 -2.7020
# 5 -6.9501 -8.1218 -6.4143 3.4021 18.2396 -1.3121
# 6 24.9080 9.3140 5.0181 -2.7020 -1.3121 24.1081
#
#
#
# Elastic Compliance Matrix: (Units=1/GPa)
#
#
# Indices 1 2 3 4 5 6 
#
# 1 0.012926 -0.001934 -0.002993 -0.001918 0.002501 -0.012063
# 2 -0.001934 0.012169 -0.005580 -0.001774 0.002937 -0.001581
# 3 -0.002993 -0.005580 0.020815 -0.007892 0.005189 0.000314
# 4 -0.001918 -0.001774 -0.007892 0.029953 -0.009368 0.007156
# 5 0.002501 0.002937 0.005189 -0.009368 0.060475 -0.002558
# 6 -0.012063 -0.001581 0.000314 0.007156 -0.002558 0.055152
#
#
# Mechanical properties :
#
#
# Convention : Reuss Voigt Hill
#
# Bulk Modulus (GPa) = 40.16858 60.12365 50.14611
# Shear Modulus (GPa) = 22.64468 29.48083 26.06276
#
# Velocity S-wave (km/s) = 3.31985 3.78796 3.56160
# Velocity P-wave (km/s) = 5.85198 6.95660 6.42806
#
# Compressibility (1/GPa) = 0.02489508
#
# Stress axis : x y z
#
# Youngs Moduli (GPa) = 77.36430 82.17385 48.04304
#
# Poissons Ratio (x) = 0.15893 0.14381
# Poissons Ratio (y) = 0.14963 0.26808
# Poissons Ratio (z) = 0.23159 0.45852
#
# Static dielectric constant tensor:
#      x y z
#    x 3.265100 -0.033420 -0.041520 
#    y -0.033420 3.915540 0.142880 
#    z -0.041520 0.142880 4.008360 
# 
# 
# High freq. dielectric constant tensor:
#      x y z
#    x 1.746870 0.001500 -0.018290 
#    y 0.001500 1.832160 0.007270 
#    z -0.018290 0.007270 1.809070 
# 
# From -- ./inp_files/267641.got.cif
#   From: 2010.06.25/outbox.cif.g09.slc.cpg/sg2_134_cif.got.tgz:267641.got - 2010.06.27 13:26:56.
