data_PCOD8022899
_publ_section_title
;
Structure prediction by ZEFSAII (Michael W. Deem and Ramdas Pophale) SiO2 
 PCOD8022899
Probable space group: P -1
;
_chemical_formula_sum "Si O2"
_cell_formula_units_Z 16
_cell_length_a 8.251855
_cell_length_b 14.742012
_cell_length_c 9.180977
_cell_angle_alpha 139.479342
_cell_angle_beta 94.520380
_cell_angle_gamma 76.899798
_cell_volume 699.007060
_symmetry_space_group_name_H-M "P -1"
_symmetry_group_IT_number 2
_symmetry_cell_setting 'triclinic'
loop_
_space_group_symop_operation_xyz
x,y,z
-x,-y,-z
loop_
_atom_site_type_symbol
_atom_site_label
_atom_site_fract_x
_atom_site_fract_y
_atom_site_fract_z
Si Si1 0.747383 0.621859 0.195758
Si Si2 0.390327 0.530369 0.761871
Si Si3 0.012782 0.066696 0.922571
Si Si4 0.537678 0.196978 0.773806
Si Si5 0.234293 0.606897 0.310709
Si Si6 0.260090 0.061863 0.698650
Si Si7 0.964450 0.828745 0.436577
Si Si8 0.120533 0.604468 0.613672
O O1 0.740825 0.509920 0.185439
O O2 0.563696 0.726645 0.280994
O O3 0.872106 0.716888 0.368188
O O4 0.802316 0.531686 0.940948
O O5 0.570342 0.417247 0.661694
O O6 0.308376 0.525210 0.590442
O O7 0.394400 0.693985 0.989499
O O8 0.203401 0.036828 0.829675
O O9 0.913600 0.982902 0.704953
O O10 0.941515 0.239155 0.123254
O O11 0.000000 0.000000 0.000000
O O12 0.415148 0.135088 0.797229
O O13 0.691006 0.078043 0.571887
O O14 0.125600 0.633143 0.479690
O O15 0.164630 0.750396 0.379275
O O16 0.091764 0.155566 0.717297
O O17 0.000000 0.500000 0.500000
#
# Coordination Sequence:
#
# PCOD8022899 Si02
#       8
#     2   2   2   2   2   2   2   2
#     4  10  23  39  71 102 136 175 229 289 345 398
#     4  11  24  41  71 101 133 181 232 279 350 404
#     4  12  27  44  68 102 143 185 228 287 349 414
#     4   9  20  42  68 103 137 173 233 295 342 403
#     4  11  23  43  65 100 142 176 227 287 338 405
#     4  10  23  41  71 100 134 182 234 287 348 409
#     4  11  23  43  68  99 140 179 235 285 346 407
#     4  12  28  46  70  95 141 185 230 277 342 422
#
# _framework density 22.889612
#
# number of rings (size 3 to 8) (size 9 to 14) (size 15 to 20)
#    0.000    1.250    1.250    4.125   10.500    0.000 
#    0.000    0.000    0.000    9.000    0.000    0.000 
#    0.000    0.000    0.000    0.000    0.000    0.000 
#
# Total GULP energy -198262.507253 kJ/mol
# GULP energy per Si atom -12391.406703 kJ/mol
# Density = 2.283751 g / cm^3
# Si number density = 22.889612 Si / 1000 Ang^3
#
#
#
# Elastic Constant Matrix: (Units=GPa)
#
#
# Indices 1 2 3 4 5 6 
#
# 1 94.6897 50.3372 50.3162 7.5184 5.3977 10.0205
# 2 50.3372 92.0536 34.7266 -0.8224 -3.0277 3.1885
# 3 50.3162 34.7266 103.7086 18.1082 7.9518 8.4800
# 4 7.5184 -0.8224 18.1082 32.7215 7.5465 -4.5247
# 5 5.3977 -3.0277 7.9518 7.5465 42.5589 1.1240
# 6 10.0205 3.1885 8.4800 -4.5247 1.1240 50.8801
#
#
#
# Elastic Compliance Matrix: (Units=1/GPa)
#
#
# Indices 1 2 3 4 5 6 
#
# 1 0.018115 -0.007740 -0.005698 -0.001157 -0.001520 -0.002202
# 2 -0.007740 0.016069 -0.002437 0.003237 0.001975 0.001168
# 3 -0.005698 -0.002437 0.014639 -0.006884 -0.000919 -0.001757
# 4 -0.001157 0.003237 -0.006884 0.036480 -0.004925 0.004525
# 5 -0.001520 0.001975 -0.000919 -0.004925 0.024893 -0.000659
# 6 -0.002202 0.001168 -0.001757 0.004525 -0.000659 0.020724
#
#
# Mechanical properties :
#
#
# Convention : Reuss Voigt Hill
#
# Bulk Modulus (GPa) = 58.57831 62.35688 60.46759
# Shear Modulus (GPa) = 29.69785 35.57022 32.63404
#
# Velocity S-wave (km/s) = 3.60590 3.94634 3.77996
# Velocity P-wave (km/s) = 6.55621 6.93299 6.74724
#
# Compressibility (1/GPa) = 0.01707117
#
# Stress axis : x y z
#
# Youngs Moduli (GPa) = 55.20249 62.23277 68.30852
#
# Poissons Ratio (x) = 0.48169 0.38925
# Poissons Ratio (y) = 0.42728 0.16650
# Poissons Ratio (z) = 0.31457 0.15169
#
# Static dielectric constant tensor:
#      x y z
#    x 4.166210 0.045200 0.092190 
#    y 0.045200 4.306040 0.234230 
#    z 0.092190 0.234230 4.090880 
# 
# 
# High freq. dielectric constant tensor:
#      x y z
#    x 1.902790 0.003790 0.007980 
#    y 0.003790 1.909930 0.016120 
#    z 0.007980 0.016120 1.897200 
# 
# From -- ./inp_files/209448.got.cif
#   From: 2010.06.25/outbox.cif.g09.slc.cpg/sg2_105_cif.got.tgz:209448.got - 2010.06.27 13:26:56.
