data_PCOD8022161
_publ_section_title
;
Structure prediction by ZEFSAII (Michael W. Deem and Ramdas Pophale) SiO2 
 PCOD8022161
Probable space group: P -1
;
_chemical_formula_sum "Si O2"
_cell_formula_units_Z 16
_cell_length_a 10.691716
_cell_length_b 13.786126
_cell_length_c 7.716501
_cell_angle_alpha 103.998559
_cell_angle_beta 136.832891
_cell_angle_gamma 60.601381
_cell_volume 664.926991
_symmetry_space_group_name_H-M "P -1"
_symmetry_group_IT_number 2
_symmetry_cell_setting 'triclinic'
loop_
_space_group_symop_operation_xyz
x,y,z
-x,-y,-z
loop_
_atom_site_type_symbol
_atom_site_label
_atom_site_fract_x
_atom_site_fract_y
_atom_site_fract_z
Si Si1 0.058345 0.370158 0.963367
Si Si2 0.184258 0.413087 0.765957
Si Si3 0.332049 0.557832 0.207070
Si Si4 0.772078 0.170610 0.358868
Si Si5 0.422572 0.711519 0.111430
Si Si6 0.783219 0.947266 0.125749
Si Si7 0.755067 0.052167 0.795106
Si Si8 0.539873 0.835681 0.740149
O O1 0.090312 0.353775 0.778555
O O2 0.873583 0.353113 0.856038
O O3 0.270940 0.268992 0.217859
O O4 0.000000 0.500000 0.000000
O O5 0.353829 0.325415 0.765819
O O6 0.000000 0.500000 0.500000
O O7 0.290731 0.469670 0.016431
O O8 0.500000 0.500000 0.500000
O O9 0.415052 0.613409 0.172290
O O10 0.571746 0.230045 0.306556
O O11 0.978796 0.150637 0.657223
O O12 0.762445 0.053560 0.258533
O O13 0.748335 0.245573 0.197933
O O14 0.360327 0.815565 0.220005
O O15 0.634291 0.892389 0.999039
O O16 0.724113 0.977082 0.877078
O O17 0.632958 0.056737 0.497991
O O18 0.000000 0.000000 0.000000
#
# Coordination Sequence:
#
# PCOD8022161 Si02
#       8
#     2   2   2   2   2   2   2   2
#     4  10  25  44  66 103 138 183 233 296 354 427
#     4  11  24  45  70 100 143 180 233 296 360 426
#     4  11  26  45  74 102 141 185 241 294 359 445
#     4  10  22  45  67 101 143 176 233 301 354 422
#     4  11  25  44  72 102 139 188 233 294 369 421
#     4  10  23  43  68 101 138 183 234 294 356 423
#     4  11  25  43  67 102 146 188 236 301 355 428
#     4  12  23  42  74  97 141 190 238 282 370 426
#
# _framework density 24.062794
#
# number of rings (size 3 to 8) (size 9 to 14) (size 15 to 20)
#    0.000    1.250    2.500    1.875    8.750    2.000 
#    0.000    0.000    0.000    0.000    0.000    0.000 
#    0.000    0.000    0.000    0.000    0.000    0.000 
#
# Total GULP energy -198218.891812 kJ/mol
# GULP energy per Si atom -12388.680738 kJ/mol
# Density = 2.400803 g / cm^3
# Si number density = 24.062794 Si / 1000 Ang^3
#
#
#
# Elastic Constant Matrix: (Units=GPa)
#
#
# Indices 1 2 3 4 5 6 
#
# 1 137.1803 4.5058 39.9403 -10.8523 3.8914 -8.0454
# 2 4.5058 60.0957 37.4184 -16.5701 1.3869 -15.5522
# 3 39.9403 37.4184 172.6641 -11.8114 8.1243 5.0253
# 4 -10.8523 -16.5701 -11.8114 32.6292 -3.2793 1.6999
# 5 3.8914 1.3869 8.1243 -3.2793 41.1536 -16.3339
# 6 -8.0454 -15.5522 5.0253 1.6999 -16.3339 39.5668
#
#
#
# Elastic Compliance Matrix: (Units=1/GPa)
#
#
# Indices 1 2 3 4 5 6 
#
# 1 0.008326 0.002609 -0.002430 0.003158 0.001200 0.003387
# 2 0.002609 0.027453 -0.006444 0.012410 0.006812 0.014418
# 3 -0.002430 -0.006444 0.007979 -0.001250 -0.003361 -0.005374
# 4 0.003158 0.012410 -0.001250 0.037728 0.004959 0.006105
# 5 0.001200 0.006812 -0.003361 0.004959 0.031405 0.016100
# 6 0.003387 0.014418 -0.005374 0.006105 0.016100 0.038696
#
#
# Mechanical properties :
#
#
# Convention : Reuss Voigt Hill
#
# Bulk Modulus (GPa) = 32.02399 59.29657 45.66028
# Shear Modulus (GPa) = 28.64886 41.87496 35.26191
#
# Velocity S-wave (km/s) = 3.45423 4.17614 3.83222
# Velocity P-wave (km/s) = 5.40799 6.92455 6.21272
#
# Compressibility (1/GPa) = 0.03122659
#
# Stress axis : x y z
#
# Youngs Moduli (GPa) = 120.10553 36.42635 125.32446
#
# Poissons Ratio (x) = -0.09502 0.30457
# Poissons Ratio (y) = -0.31331 0.80759
# Poissons Ratio (z) = 0.29189 0.23473
#
# Static dielectric constant tensor:
#      x y z
#    x 4.776430 -0.025180 -0.016110 
#    y -0.025180 4.062950 -0.231410 
#    z -0.016110 -0.231410 4.411130 
# 
# 
# High freq. dielectric constant tensor:
#      x y z
#    x 1.967150 -0.005460 0.003830 
#    y -0.005460 1.941200 -0.022230 
#    z 0.003830 -0.022230 1.962910 
# 
# From -- ./inp_files/270573.got.cif
#   From: 2010.06.25/outbox.cif.g09.slc.cpg/sg2_136_cif.got.tgz:270573.got - 2010.06.27 13:26:56.
