data_PCOD8022099
_publ_section_title
;
Structure prediction by ZEFSAII (Michael W. Deem and Ramdas Pophale) SiO2 
 PCOD8022099
Probable space group: P -1
;
_chemical_formula_sum "Si O2"
_cell_formula_units_Z 16
_cell_length_a 12.129695
_cell_length_b 8.328697
_cell_length_c 15.344845
_cell_angle_alpha 87.271309
_cell_angle_beta 149.945013
_cell_angle_gamma 84.765705
_cell_volume 747.842711
_symmetry_space_group_name_H-M "P -1"
_symmetry_group_IT_number 2
_symmetry_cell_setting 'triclinic'
loop_
_space_group_symop_operation_xyz
x,y,z
-x,-y,-z
loop_
_atom_site_type_symbol
_atom_site_label
_atom_site_fract_x
_atom_site_fract_y
_atom_site_fract_z
Si Si1 0.888391 0.817592 0.655270
Si Si2 0.506073 0.642090 0.430292
Si Si3 0.878429 0.139757 0.744655
Si Si4 0.654911 0.769439 0.908170
Si Si5 0.383759 0.651413 0.598311
Si Si6 0.040782 0.349966 0.595611
Si Si7 0.273559 0.499434 0.895853
Si Si8 0.219748 0.050468 0.616351
O O1 0.727555 0.711417 0.588533
O O2 0.792331 0.908224 0.496411
O O3 0.134609 0.690885 0.810153
O O4 0.911966 0.949853 0.742187
O O5 0.500000 0.500000 0.500000
O O6 0.286013 0.802935 0.284723
O O7 0.517775 0.547482 0.347560
O O8 0.749703 0.259536 0.578365
O O9 0.117954 0.170407 0.933920
O O10 0.590903 0.729727 0.765982
O O11 0.450978 0.915592 0.803309
O O12 0.671321 0.596173 0.973125
O O13 0.202197 0.690527 0.552898
O O14 0.130022 0.394778 0.747774
O O15 0.227351 0.205776 0.678411
O O16 0.000000 0.500000 0.500000
O O17 0.500000 0.500000 0.000000
O O18 0.000000 0.000000 0.500000
#
# Coordination Sequence:
#
# PCOD8022099 Si02
#       8
#     2   2   2   2   2   2   2   2
#     4  12  23  46  69 100 142 178 225 285 342 409
#     4  10  22  44  76  96 127 187 230 282 350 398
#     4  11  24  44  69  99 133 176 229 286 343 398
#     4  12  25  43  67 102 138 179 231 280 337 409
#     4  11  21  45  68  94 139 178 226 282 338 405
#     4  12  21  40  63  94 136 181 222 271 334 405
#     4  12  25  39  63 102 139 180 232 275 334 410
#     4  12  24  41  69  99 139 185 217 268 345 405
#
# _framework density 21.394874000000002
#
# number of rings (size 3 to 8) (size 9 to 14) (size 15 to 20)
#    0.000    0.500    6.250    2.625    1.750    1.000 
#    0.000    0.625    0.000    0.000    0.000    0.000 
#    0.000    0.000    0.000    0.000    0.000    0.000 
#
# Total GULP energy -198335.486634 kJ/mol
# GULP energy per Si atom -12395.967915 kJ/mol
# Density = 2.134618 g / cm^3
# Si number density = 21.394874 Si / 1000 Ang^3
#
#
#
# Elastic Constant Matrix: (Units=GPa)
#
#
# Indices 1 2 3 4 5 6 
#
# 1 76.4530 32.5593 39.6471 4.7132 27.2699 -4.5605
# 2 32.5593 143.2171 59.4612 11.4318 22.2447 -32.9958
# 3 39.6471 59.4612 126.0384 10.1455 19.3506 -12.1290
# 4 4.7132 11.4318 10.1455 44.9075 0.2315 3.3399
# 5 27.2699 22.2447 19.3506 0.2315 34.3644 -4.4033
# 6 -4.5605 -32.9958 -12.1290 3.3399 -4.4033 54.4318
#
#
#
# Elastic Compliance Matrix: (Units=1/GPa)
#
#
# Indices 1 2 3 4 5 6 
#
# 1 0.020291 -0.001068 -0.003840 -0.000860 -0.013349 -0.000830
# 2 -0.001068 0.010608 -0.003453 -0.002195 -0.003364 0.005434
# 3 -0.003840 -0.003453 0.011011 -0.001204 -0.000904 0.000039
# 4 -0.000860 -0.002195 -0.001204 0.023395 0.002249 -0.002925
# 5 -0.013349 -0.003364 -0.000904 0.002249 0.042356 -0.000071
# 6 -0.000830 0.005434 0.000039 -0.002925 -0.000071 0.021779
#
#
# Mechanical properties :
#
#
# Convention : Reuss Voigt Hill
#
# Bulk Modulus (GPa) = 39.70072 67.67151 53.68611
# Shear Modulus (GPa) = 32.35046 41.01014 36.68030
#
# Velocity S-wave (km/s) = 3.89275 4.38290 4.14508
# Velocity P-wave (km/s) = 6.22905 7.57044 6.93227
#
# Compressibility (1/GPa) = 0.02518846
#
# Stress axis : x y z
#
# Youngs Moduli (GPa) = 49.28273 94.26423 90.82224
#
# Poissons Ratio (x) = 0.10066 0.34878
# Poissons Ratio (y) = 0.05263 0.31358
# Poissons Ratio (z) = 0.18926 0.32546
#
# Static dielectric constant tensor:
#      x y z
#    x 4.023710 -0.467190 0.094780 
#    y -0.467190 4.400310 -0.142520 
#    z 0.094780 -0.142520 3.613750 
# 
# 
# High freq. dielectric constant tensor:
#      x y z
#    x 1.837160 -0.014240 0.013520 
#    y -0.014240 1.863300 0.000890 
#    z 0.013520 0.000890 1.827450 
# 
# From -- ./inp_files/272854.got.cif
#   From: 2010.06.25/outbox.cif.g09.slc.cpg/sg2_137_cif.got.tgz:272854.got - 2010.06.27 13:26:56.
