data_PCOD8022774
_publ_section_title
;
Structure prediction by ZEFSAII (Michael W. Deem and Ramdas Pophale) SiO2 
 PCOD8022774
Probable space group: P -1
;
_chemical_formula_sum "Si O2"
_cell_formula_units_Z 14
_cell_length_a 13.196909
_cell_length_b 15.706979
_cell_length_c 22.991979
_cell_angle_alpha 19.006389
_cell_angle_beta 153.583051
_cell_angle_gamma 144.875102
_cell_volume 676.703726
_symmetry_space_group_name_H-M "P -1"
_symmetry_group_IT_number 2
_symmetry_cell_setting 'triclinic'
loop_
_space_group_symop_operation_xyz
x,y,z
-x,-y,-z
loop_
_atom_site_type_symbol
_atom_site_label
_atom_site_fract_x
_atom_site_fract_y
_atom_site_fract_z
Si Si1 0.446147 0.244912 0.528945
Si Si2 0.862546 0.262508 0.646093
Si Si3 0.761786 0.392989 0.382280
Si Si4 0.984621 0.274097 0.212383
Si Si5 0.436999 0.893143 0.858532
Si Si6 0.002535 0.156317 0.167062
Si Si7 0.264851 0.834467 0.085012
O O1 0.681193 0.258416 0.607219
O O2 0.511389 0.013094 0.759682
O O3 0.338993 0.514480 0.335719
O O4 0.256721 0.176139 0.430474
O O5 0.723628 0.362686 0.451175
O O6 0.015473 0.479106 0.600738
O O7 0.031264 0.969105 0.914225
O O8 0.790995 0.101333 0.557092
O O9 0.541230 0.577967 0.119970
O O10 0.915091 0.231167 0.138110
O O11 0.839673 0.096155 0.290325
O O12 0.911461 0.592767 0.980751
O O13 0.522064 0.039112 0.864056
O O14 0.791146 0.092498 0.059146
#
# Coordination Sequence:
#
# PCOD8022774 Si02
#       7
#     2   2   2   2   2   2   2
#     4  11  23  42  62  86 129 169 189 246 306 364
#     4   9  20  40  63  92 121 152 207 251 300 355
#     4   9  20  38  62  93 117 151 203 264 293 345
#     4  10  23  39  59  90 123 160 205 240 302 367
#     4  11  23  39  62  92 123 156 203 249 300 361
#     4   9  20  41  59  90 117 158 200 252 303 344
#     4   9  21  40  64  92 116 157 206 250 297 350
#
# _framework density 20.688521999999999
#
# number of rings (size 3 to 8) (size 9 to 14) (size 15 to 20)
#    0.000    2.286    0.000    1.714    8.000    3.429 
#    7.714    0.714    0.000    0.000    0.000    0.000 
#    0.000    0.000    0.000    0.000    0.000    0.000 
#
# Total GULP energy -173507.520509 kJ/mol
# GULP energy per Si atom -12393.394322 kJ/mol
# Density = 2.064143 g / cm^3
# Si number density = 20.688522 Si / 1000 Ang^3
#
#
#
# Elastic Constant Matrix: (Units=GPa)
#
#
# Indices 1 2 3 4 5 6 
#
# 1 105.6105 50.8135 33.1659 -4.1534 -5.9589 13.4830
# 2 50.8135 89.2697 19.3030 6.7072 1.4552 -2.3122
# 3 33.1659 19.3030 82.8499 -7.2147 3.3764 -6.1247
# 4 -4.1534 6.7072 -7.2147 23.0405 -1.7429 3.4316
# 5 -5.9589 1.4552 3.3764 -1.7429 25.7724 -2.9478
# 6 13.4830 -2.3122 -6.1247 3.4316 -2.9478 29.5704
#
#
#
# Elastic Compliance Matrix: (Units=1/GPa)
#
#
# Indices 1 2 3 4 5 6 
#
# 1 0.017522 -0.009660 -0.005154 0.006202 0.004538 -0.010079
# 2 -0.009660 0.017603 -0.000351 -0.008150 -0.003006 0.006354
# 3 -0.005154 -0.000351 0.014926 0.002947 -0.002375 0.004835
# 4 0.006202 -0.008150 0.002947 0.049330 0.003907 -0.008190
# 5 0.004538 -0.003006 -0.002375 0.003907 0.040688 0.000806
# 6 -0.010079 0.006354 0.004835 -0.008190 0.000806 0.040943
#
#
# Mechanical properties :
#
#
# Convention : Reuss Voigt Hill
#
# Bulk Modulus (GPa) = 50.71073 53.81055 52.26064
# Shear Modulus (GPa) = 22.94470 27.30649 25.12559
#
# Velocity S-wave (km/s) = 3.33386 3.63696 3.48871
# Velocity P-wave (km/s) = 6.27569 6.61083 6.44543
#
# Compressibility (1/GPa) = 0.01971969
#
# Stress axis : x y z
#
# Youngs Moduli (GPa) = 57.07129 56.80942 66.99810
#
# Poissons Ratio (x) = 0.54880 0.34528
# Poissons Ratio (y) = 0.55133 0.02355
# Poissons Ratio (z) = 0.29412 0.01997
#
# Static dielectric constant tensor:
#      x y z
#    x 3.356880 -0.135980 -0.017920 
#    y -0.135980 3.853930 -0.101960 
#    z -0.017920 -0.101960 3.864510 
# 
# 
# High freq. dielectric constant tensor:
#      x y z
#    x 1.778240 -0.007120 -0.003660 
#    y -0.007120 1.811780 -0.002920 
#    z -0.003660 -0.002920 1.812270 
# 
# From -- ./inp_files/154025.got.cif
#   From: 2010.06.25/outbox.cif.g09.slc.cpg/sg2_78_cif.got.tgz:154025.got - 2010.06.27 13:26:56.
