data_PCOD8022757
_publ_section_title
;
Structure prediction by ZEFSAII (Michael W. Deem and Ramdas Pophale) SiO2 
 PCOD8022757
Probable space group: P -1
;
_chemical_formula_sum "Si O2"
_cell_formula_units_Z 16
_cell_length_a 11.561618
_cell_length_b 7.448497
_cell_length_c 11.652772
_cell_angle_alpha 126.405819
_cell_angle_beta 85.747226
_cell_angle_gamma 113.844940
_cell_volume 719.735639
_symmetry_space_group_name_H-M "P -1"
_symmetry_group_IT_number 2
_symmetry_cell_setting 'triclinic'
loop_
_space_group_symop_operation_xyz
x,y,z
-x,-y,-z
loop_
_atom_site_type_symbol
_atom_site_label
_atom_site_fract_x
_atom_site_fract_y
_atom_site_fract_z
Si Si1 0.207786 0.712862 0.126726
Si Si2 0.122583 0.091199 0.610150
Si Si3 0.428590 0.619436 0.393432
Si Si4 0.695704 0.780112 0.559820
Si Si5 0.932839 0.470551 0.145350
Si Si6 0.456905 0.657229 0.145192
Si Si7 0.079807 0.467406 0.584403
Si Si8 0.692560 0.118464 0.379292
O O1 0.323192 0.636846 0.099027
O O2 0.069904 0.497387 0.098477
O O3 0.233962 0.943085 0.292195
O O4 0.182599 0.739239 0.002481
O O5 0.203342 0.245369 0.548018
O O6 0.087416 0.275757 0.759844
O O7 0.217002 0.011033 0.644591
O O8 0.990030 0.833294 0.492845
O O9 0.569732 0.738152 0.482999
O O10 0.334227 0.383447 0.385474
O O11 0.435789 0.546329 0.233891
O O12 0.370174 0.821606 0.479646
O O13 0.926390 0.384069 0.245095
O O14 0.572170 0.939555 0.240853
O O15 0.500000 0.500000 0.000000
O O16 0.230400 0.613854 0.589534
O O17 0.000000 0.500000 0.500000
#
# Coordination Sequence:
#
# PCOD8022757 Si02
#       8
#     2   2   2   2   2   2   2   2
#     4  11  25  43  66  93 134 180 213 267 336 384
#     4  11  21  41  70  96 134 172 217 269 327 385
#     4  11  24  40  68 104 130 165 226 274 323 397
#     4  11  22  42  70 101 130 173 215 277 329 383
#     4  11  24  43  64  97 135 173 221 265 319 406
#     4  12  25  45  68  94 134 179 214 273 334 388
#     4  10  23  38  68 101 129 170 218 270 323 381
#     4  11  22  41  67 101 133 168 221 275 321 389
#
# _framework density 22.230384000000001
#
# number of rings (size 3 to 8) (size 9 to 14) (size 15 to 20)
#    0.000    1.000    3.750    3.000    3.500    1.000 
#    0.000    1.250    0.000    5.250    0.000    0.000 
#    0.000    0.000    0.000    0.000    0.000    0.000 
#
# Total GULP energy -198261.992818 kJ/mol
# GULP energy per Si atom -12391.374551 kJ/mol
# Density = 2.217979 g / cm^3
# Si number density = 22.230384 Si / 1000 Ang^3
#
#
#
# Elastic Constant Matrix: (Units=GPa)
#
#
# Indices 1 2 3 4 5 6 
#
# 1 148.8426 43.2052 43.9244 -7.5184 2.2822 14.0065
# 2 43.2052 126.3933 33.3371 -9.1890 13.4107 14.8936
# 3 43.9244 33.3371 121.7756 -27.5823 4.7559 6.7410
# 4 -7.5184 -9.1890 -27.5823 30.7736 -4.4127 3.7382
# 5 2.2822 13.4107 4.7559 -4.4127 41.3820 -5.4798
# 6 14.0065 14.8936 6.7410 3.7382 -5.4798 27.3980
#
#
#
# Elastic Compliance Matrix: (Units=1/GPa)
#
#
# Indices 1 2 3 4 5 6 
#
# 1 0.008191 -0.001913 -0.002385 -0.000395 0.000070 -0.002493
# 2 -0.001913 0.009976 -0.001296 0.001460 -0.003488 -0.005023
# 3 -0.002385 -0.001296 0.011796 0.009879 -0.000061 -0.002339
# 4 -0.000395 0.001460 0.009879 0.042991 0.001870 -0.008514
# 5 0.000070 -0.003488 -0.000061 0.001870 0.026412 0.006902
# 6 -0.002493 -0.005023 -0.002339 -0.008514 0.006902 0.043621
#
#
# Mechanical properties :
#
#
# Convention : Reuss Voigt Hill
#
# Bulk Modulus (GPa) = 53.26341 70.88276 62.07309
# Shear Modulus (GPa) = 31.16539 38.34705 34.75622
#
# Velocity S-wave (km/s) = 3.74829 4.15780 3.95835
# Velocity P-wave (km/s) = 6.53794 7.41650 6.99104
#
# Compressibility (1/GPa) = 0.01877462
#
# Stress axis : x y z
#
# Youngs Moduli (GPa) = 122.08087 100.24357 84.77320
#
# Poissons Ratio (x) = 0.19181 0.20218
# Poissons Ratio (y) = 0.23359 0.10986
# Poissons Ratio (z) = 0.29116 0.12990
#
# Static dielectric constant tensor:
#      x y z
#    x 4.369530 0.230490 0.204390 
#    y 0.230490 4.483090 -0.070770 
#    z 0.204390 -0.070770 4.110040 
# 
# 
# High freq. dielectric constant tensor:
#      x y z
#    x 1.911840 0.015120 0.008450 
#    y 0.015120 1.872140 -0.010700 
#    z 0.008450 -0.010700 1.870360 
# 
# From -- ./inp_files/420011.got.cif
#   From: 2010.06.25/outbox.cif.g09.slc.cpg/sg2_211_cif.got.tgz:420011.got - 2010.06.27 13:26:56.
