data_PCOD8022612
_publ_section_title
;
Structure prediction by ZEFSAII (Michael W. Deem and Ramdas Pophale) SiO2 
 PCOD8022612
Probable space group: P -1
;
_chemical_formula_sum "Si O2"
_cell_formula_units_Z 16
_cell_length_a 21.225585
_cell_length_b 8.304989
_cell_length_c 18.316175
_cell_angle_alpha 51.137539
_cell_angle_beta 161.169226
_cell_angle_gamma 118.372425
_cell_volume 715.327351
_symmetry_space_group_name_H-M "P -1"
_symmetry_group_IT_number 2
_symmetry_cell_setting 'triclinic'
loop_
_space_group_symop_operation_xyz
x,y,z
-x,-y,-z
loop_
_atom_site_type_symbol
_atom_site_label
_atom_site_fract_x
_atom_site_fract_y
_atom_site_fract_z
Si Si1 0.706130 0.047333 0.231167
Si Si2 0.930417 0.804139 0.997527
Si Si3 0.827066 0.373853 0.181958
Si Si4 0.885966 0.004284 0.594111
Si Si5 0.760614 0.655487 0.622357
Si Si6 0.352841 0.625367 0.161738
Si Si7 0.579070 0.763388 0.544703
Si Si8 0.879428 0.801528 0.111653
O O1 0.694828 0.277910 0.114805
O O2 0.711958 0.098294 0.309549
O O3 0.924901 0.823170 0.506970
O O4 0.500000 0.000000 0.000000
O O5 0.958318 0.740733 0.131522
O O6 0.066552 0.571580 0.166325
O O7 0.677364 0.894313 0.667810
O O8 0.000000 0.000000 0.000000
O O9 0.839299 0.599566 0.163829
O O10 0.677975 0.484251 0.915330
O O11 0.810647 0.870352 0.606678
O O12 0.918390 0.198059 0.620890
O O13 0.120856 0.837866 0.865372
O O14 0.521586 0.728233 0.304512
O O15 0.752888 0.621120 0.710902
O O16 0.456558 0.426779 0.394024
O O17 0.343496 0.948433 0.200192
#
# Coordination Sequence:
#
# PCOD8022612 Si02
#       8
#     2   2   2   2   2   2   2   2
#     4  10  22  48  76  99 125 179 223 286 358 417
#     4  12  25  38  62  97 143 188 241 280 319 387
#     4  10  23  43  72  98 136 167 232 285 344 407
#     4  11  24  44  68 100 140 174 231 282 341 412
#     4  12  24  41  66  95 137 191 234 270 333 403
#     4  11  22  42  67  99 133 192 226 271 326 417
#     4  12  24  42  64  96 148 193 228 264 339 406
#     4  12  25  44  63 106 145 179 225 288 336 403
#
# _framework density 22.367383
#
# number of rings (size 3 to 8) (size 9 to 14) (size 15 to 20)
#    0.000    0.750    3.750    4.125    3.500    0.500 
#    2.250    0.625    0.000    0.000    0.000    0.000 
#    0.000    0.000    0.000    0.000    0.000    0.000 
#
# Total GULP energy -198360.086277 kJ/mol
# GULP energy per Si atom -12397.505392 kJ/mol
# Density = 2.231647 g / cm^3
# Si number density = 22.367383 Si / 1000 Ang^3
#
#
#
# Elastic Constant Matrix: (Units=GPa)
#
#
# Indices 1 2 3 4 5 6 
#
# 1 112.9918 63.0987 44.2551 5.5520 -14.9053 1.5467
# 2 63.0987 158.5903 37.3331 26.4777 -14.2830 3.3230
# 3 44.2551 37.3331 75.9953 25.0889 -16.3650 -3.7336
# 4 5.5520 26.4777 25.0889 50.8798 -3.1014 -5.5950
# 5 -14.9053 -14.2830 -16.3650 -3.1014 32.4733 8.4159
# 6 1.5467 3.3230 -3.7336 -5.5950 8.4159 27.9169
#
#
#
# Elastic Compliance Matrix: (Units=1/GPa)
#
#
# Indices 1 2 3 4 5 6 
#
# 1 0.014193 -0.004528 -0.007191 0.004359 0.001521 -0.000794
# 2 -0.004528 0.009081 -0.000062 -0.004331 0.002075 -0.002332
# 3 -0.007191 -0.000062 0.022066 -0.009713 0.007050 -0.000715
# 4 0.004359 -0.004331 -0.009713 0.026593 -0.003661 0.005408
# 5 0.001521 0.002075 0.007050 -0.003661 0.038661 -0.011777
# 6 -0.000794 -0.002332 -0.000715 0.005408 -0.011777 0.040681
#
#
# Mechanical properties :
#
#
# Convention : Reuss Voigt Hill
#
# Bulk Modulus (GPa) = 45.91915 70.77236 58.34576
# Shear Modulus (GPa) = 27.45804 35.78004 31.61904
#
# Velocity S-wave (km/s) = 3.50750 4.00390 3.76390
# Velocity P-wave (km/s) = 6.08091 7.28592 6.71052
#
# Compressibility (1/GPa) = 0.02177741
#
# Stress axis : x y z
#
# Youngs Moduli (GPa) = 70.45844 110.12506 45.31773
#
# Poissons Ratio (x) = 0.49868 0.32588
# Poissons Ratio (y) = 0.31905 0.00280
# Poissons Ratio (z) = 0.50667 0.00681
#
# Static dielectric constant tensor:
#      x y z
#    x 4.207330 -0.049770 -0.175540 
#    y -0.049770 4.324630 0.501140 
#    z -0.175540 0.501140 4.078140 
# 
# 
# High freq. dielectric constant tensor:
#      x y z
#    x 1.881800 0.002540 -0.004070 
#    y 0.002540 1.893470 0.029940 
#    z -0.004070 0.029940 1.871120 
# 
# From -- ./inp_files/577263.got.cif
#   From: 2010.06.25/outbox.cif.g09.slc.cpg/sg2_289_cif.got.tgz:577263.got - 2010.06.27 13:26:56.
