data_PCOD8022138
_publ_section_title
;
Structure prediction by ZEFSAII (Michael W. Deem and Ramdas Pophale) SiO2 
 PCOD8022138
Probable space group: P -1
;
_chemical_formula_sum "Si O2"
_cell_formula_units_Z 16
_cell_length_a 8.890641
_cell_length_b 8.823576
_cell_length_c 15.662431
_cell_angle_alpha 92.972571
_cell_angle_beta 64.981297
_cell_angle_gamma 45.856006
_cell_volume 676.154526
_symmetry_space_group_name_H-M "P -1"
_symmetry_group_IT_number 2
_symmetry_cell_setting 'triclinic'
loop_
_space_group_symop_operation_xyz
x,y,z
-x,-y,-z
loop_
_atom_site_type_symbol
_atom_site_label
_atom_site_fract_x
_atom_site_fract_y
_atom_site_fract_z
Si Si1 0.953018 0.082719 0.178993
Si Si2 0.511028 0.205282 0.201658
Si Si3 0.836999 0.000034 0.478739
Si Si4 0.184961 0.351221 0.793769
Si Si5 0.238865 0.142412 0.014256
Si Si6 0.914569 0.286149 0.766580
Si Si7 0.760330 0.460299 0.359944
Si Si8 0.241039 0.149444 0.358967
O O1 0.713735 0.183450 0.185111
O O2 0.786896 0.281362 0.301178
O O3 0.122002 0.071842 0.078878
O O4 0.159343 0.807935 0.161759
O O5 0.334787 0.417994 0.177246
O O6 0.317946 0.269936 0.323613
O O7 0.677762 0.947717 0.106959
O O8 0.789938 0.872078 0.534513
O O9 0.989880 0.843963 0.351814
O O10 0.550086 0.285286 0.529757
O O11 0.000000 0.000000 0.500000
O O12 0.123607 0.495007 0.728716
O O13 0.982928 0.560436 0.921693
O O14 0.141287 0.209011 0.768199
O O15 0.498883 0.141274 0.743911
O O16 0.500000 0.000000 0.000000
O O17 0.957620 0.308670 0.389332
#
# Coordination Sequence:
#
# PCOD8022138 Si02
#       8
#     2   2   2   2   2   2   2   2
#     4  11  25  43  68 100 138 179 224 286 341 399
#     4  12  24  44  69 104 138 178 227 285 341 409
#     4  11  26  43  69 104 139 184 230 279 339 408
#     4  10  22  45  66 101 133 175 231 281 335 411
#     4  11  23  46  74  97 138 183 227 279 349 409
#     4  12  24  44  68 100 143 173 230 286 330 406
#     4  10  22  45  69  94 140 183 227 277 338 405
#     4  11  23  44  70  99 136 181 229 277 345 400
#
# _framework density 23.663229999999999
#
# number of rings (size 3 to 8) (size 9 to 14) (size 15 to 20)
#    0.000    1.000    3.750    2.625    0.000    8.500 
#    0.000    0.000    0.000    0.000    0.000    0.000 
#    0.000    0.000    0.000    0.000    0.000    0.000 
#
# Total GULP energy -198343.132172 kJ/mol
# GULP energy per Si atom -12396.445761 kJ/mol
# Density = 2.360937 g / cm^3
# Si number density = 23.663230 Si / 1000 Ang^3
#
#
#
# Elastic Constant Matrix: (Units=GPa)
#
#
# Indices 1 2 3 4 5 6 
#
# 1 140.1129 24.6860 39.2947 5.4716 -8.2219 -5.0666
# 2 24.6860 99.4547 14.8864 5.9994 -5.5124 -7.9747
# 3 39.2947 14.8864 73.9396 6.1960 -1.9527 -0.0015
# 4 5.4716 5.9994 6.1960 44.0744 6.0940 -9.8616
# 5 -8.2219 -5.5124 -1.9527 6.0940 30.2759 7.6337
# 6 -5.0666 -7.9747 -0.0015 -9.8616 7.6337 42.5581
#
#
#
# Elastic Compliance Matrix: (Units=1/GPa)
#
#
# Indices 1 2 3 4 5 6 
#
# 1 0.008714 -0.001366 -0.004267 -0.000476 0.001853 0.000339
# 2 -0.001366 0.010841 -0.001337 -0.000995 0.001366 0.001393
# 3 -0.004267 -0.001337 0.016230 -0.001899 0.000344 -0.001260
# 4 -0.000476 -0.000995 -0.001899 0.025750 -0.007394 0.007050
# 5 0.001853 0.001366 0.000344 -0.007394 0.037290 -0.007926
# 6 0.000339 0.001393 -0.001260 0.007050 -0.007926 0.026854
#
#
# Mechanical properties :
#
#
# Convention : Reuss Voigt Hill
#
# Bulk Modulus (GPa) = 45.77764 52.36016 49.06890
# Shear Modulus (GPa) = 34.03635 39.02435 36.53035
#
# Velocity S-wave (km/s) = 3.79669 4.06539 3.93333
# Velocity P-wave (km/s) = 6.21348 6.64919 6.43502
#
# Compressibility (1/GPa) = 0.02184472
#
# Stress axis : x y z
#
# Youngs Moduli (GPa) = 114.75742 92.23860 61.61499
#
# Poissons Ratio (x) = 0.12596 0.26292
# Poissons Ratio (y) = 0.15672 0.08241
# Poissons Ratio (z) = 0.48969 0.12337
#
# Static dielectric constant tensor:
#      x y z
#    x 4.320820 0.181820 0.042420 
#    y 0.181820 4.666630 0.036600 
#    z 0.042420 0.036600 4.320950 
# 
# 
# High freq. dielectric constant tensor:
#      x y z
#    x 1.932320 -0.000400 -0.006270 
#    y -0.000400 1.964780 -0.005900 
#    z -0.006270 -0.005900 1.927290 
# 
# From -- ./inp_files/556218.got.cif
#   From: 2010.06.25/outbox.cif.g09.slc.cpg/sg2_279_cif.got.tgz:556218.got - 2010.06.27 13:26:56.
