data_PCOD8022523
_publ_section_title
;
Structure prediction by ZEFSAII (Michael W. Deem and Ramdas Pophale) SiO2 
 PCOD8022523
Probable space group: P -1
;
_chemical_formula_sum "Si O2"
_cell_formula_units_Z 14
_cell_length_a 11.119925
_cell_length_b 8.121728
_cell_length_c 11.010595
_cell_angle_alpha 127.153050
_cell_angle_beta 53.607045
_cell_angle_gamma 95.387074
_cell_volume 581.268762
_symmetry_space_group_name_H-M "P -1"
_symmetry_group_IT_number 2
_symmetry_cell_setting 'triclinic'
loop_
_space_group_symop_operation_xyz
x,y,z
-x,-y,-z
loop_
_atom_site_type_symbol
_atom_site_label
_atom_site_fract_x
_atom_site_fract_y
_atom_site_fract_z
Si Si1 0.517061 0.880985 0.566080
Si Si2 0.045602 0.636200 0.134481
Si Si3 0.795345 0.762825 0.532040
Si Si4 0.393124 0.556186 0.818277
Si Si5 0.701828 0.554332 0.713243
Si Si6 0.013214 0.113981 0.338691
Si Si7 0.716167 0.960946 0.018390
O O1 0.653435 0.906899 0.584634
O O2 0.573953 0.613529 0.390750
O O3 0.500000 0.000000 0.500000
O O4 0.337241 0.994508 0.788589
O O5 0.964984 0.599966 0.290582
O O6 0.241413 0.555566 0.988655
O O7 0.960054 0.906235 0.278211
O O8 0.000000 0.500000 0.000000
O O9 0.732331 0.606331 0.578934
O O10 0.841030 0.927767 0.668042
O O11 0.553209 0.474491 0.771703
O O12 0.368998 0.800967 0.894020
O O13 0.863708 0.345068 0.568401
O O14 0.654889 0.775304 0.923021
O O15 0.088403 0.129129 0.166657
#
# Coordination Sequence:
#
# PCOD8022523 Si02
#       7
#     2   2   2   2   2   2   2
#     4  12  27  42  68 105 145 182 235 290 349 412
#     4  11  24  45  70 104 147 190 221 282 360 420
#     4  11  23  46  72  97 148 181 229 291 351 408
#     4  11  24  43  71 103 139 186 231 283 355 410
#     4  11  24  45  77 106 132 179 244 293 340 414
#     4  10  25  45  76 105 135 185 239 285 349 415
#     4  10  22  46  72  99 139 185 233 286 351 418
#
# _framework density 24.085243999999999
#
# number of rings (size 3 to 8) (size 9 to 14) (size 15 to 20)
#    0.000    1.143    2.857    3.000    6.000    2.286 
#    0.000    2.857    0.000    0.000    0.000    0.000 
#    0.000    0.000    0.000    0.000    0.000    0.000 
#
# Total GULP energy -173524.413159 kJ/mol
# GULP energy per Si atom -12394.600940 kJ/mol
# Density = 2.403043 g / cm^3
# Si number density = 24.085244 Si / 1000 Ang^3
#
#
#
# Elastic Constant Matrix: (Units=GPa)
#
#
# Indices 1 2 3 4 5 6 
#
# 1 96.0469 47.3478 32.8709 15.4180 -9.9430 8.2893
# 2 47.3478 63.1437 42.5248 11.5326 5.5910 7.6304
# 3 32.8709 42.5248 169.3789 -3.4893 3.5107 11.6720
# 4 15.4180 11.5326 -3.4893 44.6809 6.8238 2.9339
# 5 -9.9430 5.5910 3.5107 6.8238 32.3018 -3.1737
# 6 8.2893 7.6304 11.6720 2.9339 -3.1737 36.3400
#
#
#
# Elastic Compliance Matrix: (Units=1/GPa)
#
#
# Indices 1 2 3 4 5 6 
#
# 1 0.019204 -0.014087 -0.000468 -0.004446 0.009330 -0.000099
# 2 -0.014087 0.031051 -0.004750 -0.001991 -0.009010 -0.002407
# 3 -0.000468 -0.004750 0.007350 0.002171 -0.000726 -0.001495
# 4 -0.004446 -0.001991 0.002171 0.025780 -0.006897 -0.001949
# 5 0.009330 -0.009010 -0.000726 -0.006897 0.037300 0.003811
# 6 -0.000099 -0.002407 -0.001495 -0.001949 0.003811 0.029016
#
#
# Mechanical properties :
#
#
# Convention : Reuss Voigt Hill
#
# Bulk Modulus (GPa) = 52.64707 63.78406 58.21557
# Shear Modulus (GPa) = 25.68778 36.38627 31.03702
#
# Velocity S-wave (km/s) = 3.26933 3.89103 3.59365
# Velocity P-wave (km/s) = 6.01311 6.83571 6.43756
#
# Compressibility (1/GPa) = 0.01899441
#
# Stress axis : x y z
#
# Youngs Moduli (GPa) = 52.07158 32.20468 136.04914
#
# Poissons Ratio (x) = 0.45367 0.06372
# Poissons Ratio (y) = 0.73353 0.64629
# Poissons Ratio (z) = 0.02439 0.15299
#
# Static dielectric constant tensor:
#      x y z
#    x 4.079810 0.320950 -0.072370 
#    y 0.320950 4.241350 -0.261220 
#    z -0.072370 -0.261220 5.047110 
# 
# 
# High freq. dielectric constant tensor:
#      x y z
#    x 1.933130 0.024910 -0.002290 
#    y 0.024910 1.941240 -0.005460 
#    z -0.002290 -0.005460 1.983580 
# 
# From -- ./inp_files/397685.got.cif
#   From: 2010.06.25/outbox.cif.g09.slc.cpg/sg2_199_cif.got.tgz:397685.got - 2010.06.27 13:26:56.
