data_PCOD8022787
_publ_section_title
;
Structure prediction by ZEFSAII (Michael W. Deem and Ramdas Pophale) SiO2 
 PCOD8022787
Probable space group: P -1
;
_chemical_formula_sum "Si O2"
_cell_formula_units_Z 16
_cell_length_a 11.659854
_cell_length_b 8.383918
_cell_length_c 16.392707
_cell_angle_alpha 122.495037
_cell_angle_beta 54.481093
_cell_angle_gamma 144.360618
_cell_volume 752.799214
_symmetry_space_group_name_H-M "P -1"
_symmetry_group_IT_number 2
_symmetry_cell_setting 'triclinic'
loop_
_space_group_symop_operation_xyz
x,y,z
-x,-y,-z
loop_
_atom_site_type_symbol
_atom_site_label
_atom_site_fract_x
_atom_site_fract_y
_atom_site_fract_z
Si Si1 0.572566 0.306719 0.380982
Si Si2 0.515132 0.174301 0.778222
Si Si3 0.923424 0.673586 0.211572
Si Si4 0.762231 0.741069 0.549362
Si Si5 0.315365 0.537660 0.898121
Si Si6 0.715377 0.719136 0.753391
Si Si7 0.200927 0.609332 0.136410
Si Si8 0.117149 0.991706 0.884417
O O1 0.740342 0.546783 0.313190
O O2 0.661512 0.453801 0.472761
O O3 0.355137 0.191281 0.419211
O O4 0.538575 0.047233 0.323100
O O5 0.653217 0.469392 0.759224
O O6 0.614904 0.176906 0.817978
O O7 0.303352 0.057107 0.866783
O O8 0.811866 0.475043 0.122677
O O9 0.077555 0.677875 0.190715
O O10 0.063789 0.996020 0.224612
O O11 0.733103 0.688814 0.643043
O O12 0.000000 0.000000 0.500000
O O13 0.556969 0.741501 0.837871
O O14 0.215742 0.230254 0.844288
O O15 0.289215 0.611965 0.016154
O O16 0.049591 0.317082 0.166471
O O17 0.000000 0.000000 0.000000
#
# Coordination Sequence:
#
# PCOD8022787 Si02
#       8
#     2   2   2   2   2   2   2   2
#     4  11  24  42  70  95 127 166 215 270 326 390
#     4  11  24  42  64  97 134 172 216 261 318 386
#     4  12  22  40  65  95 129 170 220 266 321 381
#     4  11  23  45  73  96 123 167 213 271 340 380
#     4  10  23  39  61  95 133 171 222 264 312 378
#     4  11  24  42  66  95 130 168 215 271 319 385
#     4  11  23  38  64  94 135 179 213 261 317 383
#     4   9  20  39  62  88 128 177 213 259 312 377
#
# _framework density 21.254007999999999
#
# number of rings (size 3 to 8) (size 9 to 14) (size 15 to 20)
#    0.000    1.250    3.750    1.875    0.000    7.500 
#    0.000    0.625    0.000    0.000    0.000    0.000 
#    0.000    0.000    0.000    0.000    0.000    0.000 
#
# Total GULP energy -198317.954270 kJ/mol
# GULP energy per Si atom -12394.872142 kJ/mol
# Density = 2.120563 g / cm^3
# Si number density = 21.254008 Si / 1000 Ang^3
#
#
#
# Elastic Constant Matrix: (Units=GPa)
#
#
# Indices 1 2 3 4 5 6 
#
# 1 91.9732 16.6203 39.5983 -1.3338 -8.2266 29.0127
# 2 16.6203 101.4013 36.4369 -3.5024 -15.4568 15.9277
# 3 39.5983 36.4369 106.6856 -4.3258 0.3295 15.2210
# 4 -1.3338 -3.5024 -4.3258 36.9633 3.2581 -5.4613
# 5 -8.2266 -15.4568 0.3295 3.2581 39.5104 3.1121
# 6 29.0127 15.9277 15.2210 -5.4613 3.1121 30.5053
#
#
#
# Elastic Compliance Matrix: (Units=1/GPa)
#
#
# Indices 1 2 3 4 5 6 
#
# 1 0.018958 0.002589 -0.005516 -0.002938 0.006653 -0.017835
# 2 0.002589 0.013225 -0.004394 -0.000918 0.006455 -0.007998
# 3 -0.005516 -0.004394 0.012737 0.001421 -0.003230 0.001769
# 4 -0.002938 -0.000918 0.001421 0.028572 -0.003976 0.008085
# 5 0.006653 0.006455 -0.003230 -0.003976 0.030513 -0.011911
# 6 -0.017835 -0.007998 0.001769 0.008085 -0.011911 0.055699
#
#
# Mechanical properties :
#
#
# Convention : Reuss Voigt Hill
#
# Bulk Modulus (GPa) = 33.02765 53.93010 43.47888
# Shear Modulus (GPa) = 27.10933 35.22277 31.16605
#
# Velocity S-wave (km/s) = 3.57528 4.07533 3.83346
# Velocity P-wave (km/s) = 5.71110 6.89736 6.33207
#
# Compressibility (1/GPa) = 0.03027766
#
# Stress axis : x y z
#
# Youngs Moduli (GPa) = 52.74766 75.61543 78.51438
#
# Poissons Ratio (x) = -0.19575 0.43309
# Poissons Ratio (y) = -0.13655 0.34497
# Poissons Ratio (z) = 0.29096 0.33223
#
# Static dielectric constant tensor:
#      x y z
#    x 3.819990 0.068060 -0.091030 
#    y 0.068060 4.838690 -0.015060 
#    z -0.091030 -0.015060 3.838130 
# 
# 
# High freq. dielectric constant tensor:
#      x y z
#    x 1.829420 0.014530 -0.007920 
#    y 0.014530 1.854760 0.000160 
#    z -0.007920 0.000160 1.823790 
# 
# From -- ./inp_files/81323.got.cif
#   From: 2010.06.25/outbox.cif.g09.slc.cpg/sg2_41_cif.got.tgz:81323.got - 2010.06.27 13:26:56.
