data_PCOD8022128
_publ_section_title
;
Structure prediction by ZEFSAII (Michael W. Deem and Ramdas Pophale) SiO2 
 PCOD8022128
Probable space group: P -1
;
_chemical_formula_sum "Si O2"
_cell_formula_units_Z 12
_cell_length_a 17.875388
_cell_length_b 8.726667
_cell_length_c 6.011174
_cell_angle_alpha 92.564650
_cell_angle_beta 112.260340
_cell_angle_gamma 139.301546
_cell_volume 472.584784
_symmetry_space_group_name_H-M "P -1"
_symmetry_group_IT_number 2
_symmetry_cell_setting 'triclinic'
loop_
_space_group_symop_operation_xyz
x,y,z
-x,-y,-z
loop_
_atom_site_type_symbol
_atom_site_label
_atom_site_fract_x
_atom_site_fract_y
_atom_site_fract_z
Si Si1 0.097975 0.329052 0.983953
Si Si2 0.116720 0.255629 0.456759
Si Si3 0.856889 0.387443 0.306695
Si Si4 0.136815 0.874457 0.005094
Si Si5 0.340626 0.107002 0.621036
Si Si6 0.323849 0.367658 0.924173
O O1 0.970219 0.233640 0.933254
O O2 0.203234 0.605282 0.971336
O O3 0.021092 0.083898 0.709022
O O4 0.175673 0.358405 0.272095
O O5 0.054854 0.333564 0.441040
O O6 0.255492 0.421214 0.770165
O O7 0.721540 0.114522 0.284274
O O8 0.940725 0.371747 0.279386
O O9 0.255480 0.959571 0.281562
O O10 0.227938 0.153139 0.006726
O O11 0.323877 0.250968 0.710058
O O12 0.511123 0.336692 0.784475
#
# Coordination Sequence:
#
# PCOD8022128 Si02
#       6
#     2   2   2   2   2   2
#     4  11  25  41  67  94 130 168 212 256 319 383
#     4  11  25  43  64  95 130 169 211 260 318 374
#     4  11  25  41  67  96 131 166 207 268 317 371
#     4  11  23  42  67  98 124 169 211 262 312 378
#     4  10  22  45  65  95 127 167 217 256 313 380
#     4  10  23  42  70  91 126 172 213 259 312 377
#
# _framework density 25.392272999999999
#
# number of rings (size 3 to 8) (size 9 to 14) (size 15 to 20)
#    0.000    1.333    1.667    2.500    7.000    2.000 
#    0.000    1.667    0.000    0.000    0.000    0.000 
#    0.000    0.000    0.000    0.000    0.000    0.000 
#
# Total GULP energy -148749.313921 kJ/mol
# GULP energy per Si atom -12395.776160 kJ/mol
# Density = 2.533448 g / cm^3
# Si number density = 25.392273 Si / 1000 Ang^3
#
#
#
# Elastic Constant Matrix: (Units=GPa)
#
#
# Indices 1 2 3 4 5 6 
#
# 1 131.8620 54.3780 70.3600 7.1333 1.4202 -21.2243
# 2 54.3780 160.8018 62.1047 -17.4521 8.8543 -15.6547
# 3 70.3600 62.1047 149.3865 -7.9353 2.3947 -6.8619
# 4 7.1333 -17.4521 -7.9353 40.6139 -12.7831 4.0937
# 5 1.4202 8.8543 2.3947 -12.7831 37.7592 1.3901
# 6 -21.2243 -15.6547 -6.8619 4.0937 1.3901 35.9490
#
#
#
# Elastic Compliance Matrix: (Units=1/GPa)
#
#
# Indices 1 2 3 4 5 6 
#
# 1 0.012366 -0.002175 -0.004890 -0.005185 -0.001624 0.006073
# 2 -0.002175 0.008337 -0.002189 0.003147 -0.000728 0.001598
# 3 -0.004890 -0.002189 0.009915 0.002385 0.000959 -0.002257
# 4 -0.005185 0.003147 0.002385 0.031017 0.009996 -0.005155
# 5 -0.001624 -0.000728 0.000959 0.009996 0.030164 -0.003397
# 6 0.006073 0.001598 -0.002257 -0.005155 -0.003397 0.032386
#
#
# Mechanical properties :
#
#
# Convention : Reuss Voigt Hill
#
# Bulk Modulus (GPa) = 82.58650 90.63730 86.61190
# Shear Modulus (GPa) = 34.07610 39.87826 36.97718
#
# Velocity S-wave (km/s) = 3.66729 3.96724 3.82021
# Velocity P-wave (km/s) = 7.10823 7.53377 7.32409
#
# Compressibility (1/GPa) = 0.01210852
#
# Stress axis : x y z
#
# Youngs Moduli (GPa) = 80.86956 119.94555 100.85541
#
# Poissons Ratio (x) = 0.26088 0.49322
# Poissons Ratio (y) = 0.17589 0.22081
# Poissons Ratio (z) = 0.39548 0.26260
#
# Static dielectric constant tensor:
#      x y z
#    x 4.754330 -0.294980 -0.336990 
#    y -0.294980 4.571890 -0.428870 
#    z -0.336990 -0.428870 5.171130 
# 
# 
# High freq. dielectric constant tensor:
#      x y z
#    x 2.025540 -0.027120 -0.023110 
#    y -0.027120 2.008700 -0.044170 
#    z -0.023110 -0.044170 2.034350 
# 
# From -- ./inp_files/57766.got.cif
#   From: 2010.06.25/outbox.cif.g09.slc.cpg/sg2_29_cif.got.tgz:57766.got - 2010.06.27 13:26:56.
