data_PCOD8022582
_publ_section_title
;
Structure prediction by ZEFSAII (Michael W. Deem and Ramdas Pophale) SiO2 
 PCOD8022582
Probable space group: P -1
;
_chemical_formula_sum "Si O2"
_cell_formula_units_Z 16
_cell_length_a 5.470767
_cell_length_b 27.354057
_cell_length_c 22.367269
_cell_angle_alpha 11.674572
_cell_angle_beta 75.919544
_cell_angle_gamma 75.134281
_cell_volume 654.104122
_symmetry_space_group_name_H-M "P -1"
_symmetry_group_IT_number 2
_symmetry_cell_setting 'triclinic'
loop_
_space_group_symop_operation_xyz
x,y,z
-x,-y,-z
loop_
_atom_site_type_symbol
_atom_site_label
_atom_site_fract_x
_atom_site_fract_y
_atom_site_fract_z
Si Si1 0.837027 0.804357 0.217580
Si Si2 0.463984 0.196539 0.428183
Si Si3 0.267365 0.890286 0.362397
Si Si4 0.893425 0.601762 0.043948
Si Si5 0.310371 0.718262 0.974319
Si Si6 0.345406 0.833375 0.291582
Si Si7 0.027617 0.437312 0.727962
Si Si8 0.144822 0.646549 0.862621
O O1 0.586800 0.795065 0.281941
O O2 0.991211 0.541112 0.537449
O O3 0.786846 0.893274 0.045917
O O4 0.000000 0.000000 0.000000
O O5 0.716609 0.150487 0.425111
O O6 0.526060 0.158559 0.539617
O O7 0.274701 0.005218 0.646946
O O8 0.354097 0.472876 0.094725
O O9 0.057617 0.693027 0.617174
O O10 0.405692 0.845178 0.344083
O O11 0.156717 0.166610 0.042912
O O12 0.597714 0.642801 0.028926
O O13 0.089969 0.680569 0.985913
O O14 0.945313 0.747278 0.805060
O O15 0.248902 0.571488 0.213793
O O16 0.176446 0.612876 0.551169
O O17 0.000000 0.500000 0.000000
#
# Coordination Sequence:
#
# PCOD8022582 Si02
#       8
#     2   2   2   2   2   2   2   2
#     4   9  21  44  71 103 152 194 241 305 373 433
#     4  11  27  47  73 106 148 197 244 319 381 444
#     4  12  24  46  75 110 145 198 254 306 378 446
#     4  12  26  46  74 106 147 203 253 311 382 450
#     4  12  27  47  74 111 151 191 259 314 373 452
#     4  10  22  47  73 105 148 197 246 306 367 453
#     4  11  24  43  73 108 150 195 244 316 370 437
#     4  11  25  49  72 100 149 195 251 314 380 449
#
# _framework density 24.460936
#
# number of rings (size 3 to 8) (size 9 to 14) (size 15 to 20)
#    0.000    1.000    2.500    3.000    5.250    1.500 
#    4.500    5.625    0.000    0.000    0.000    0.000 
#    0.000    0.000    0.000    0.000    0.000    0.000 
#
# Total GULP energy -198222.826958 kJ/mol
# GULP energy per Si atom -12388.926685 kJ/mol
# Density = 2.440526 g / cm^3
# Si number density = 24.460936 Si / 1000 Ang^3
#
#
#
# Elastic Constant Matrix: (Units=GPa)
#
#
# Indices 1 2 3 4 5 6 
#
# 1 117.2657 28.1048 38.7634 -3.9718 -18.4649 9.3371
# 2 28.1048 90.1454 39.7242 4.3992 -8.8958 9.9155
# 3 38.7634 39.7242 110.5099 5.8721 -14.1231 9.2546
# 4 -3.9718 4.3992 5.8721 33.4756 1.0050 -2.7963
# 5 -18.4649 -8.8958 -14.1231 1.0050 47.4003 8.3044
# 6 9.3371 9.9155 9.2546 -2.7963 8.3044 39.6061
#
#
#
# Elastic Compliance Matrix: (Units=1/GPa)
#
#
# Indices 1 2 3 4 5 6 
#
# 1 0.010526 -0.001670 -0.002581 0.001650 0.003341 -0.002044
# 2 -0.001670 0.013822 -0.003929 -0.001574 0.001248 -0.002522
# 3 -0.002581 -0.003929 0.011904 -0.002093 0.002162 -0.001791
# 4 0.001650 -0.001574 -0.002093 0.030935 -0.001455 0.002983
# 5 0.003341 0.001248 0.002162 -0.001455 0.024507 -0.006847
# 6 -0.002044 -0.002522 -0.001791 0.002983 -0.006847 0.028426
#
#
# Mechanical properties :
#
#
# Convention : Reuss Voigt Hill
#
# Bulk Modulus (GPa) = 50.27048 59.01176 54.64112
# Shear Modulus (GPa) = 34.93773 38.18496 36.56134
#
# Velocity S-wave (km/s) = 3.78340 3.95531 3.87031
# Velocity P-wave (km/s) = 6.29932 6.71093 6.50838
#
# Compressibility (1/GPa) = 0.01989239
#
# Stress axis : x y z
#
# Youngs Moduli (GPa) = 95.00341 72.34633 84.00516
#
# Poissons Ratio (x) = 0.12083 0.21684
# Poissons Ratio (y) = 0.15867 0.33002
# Poissons Ratio (z) = 0.24523 0.28421
#
# Static dielectric constant tensor:
#      x y z
#    x 4.418360 -0.038920 -0.022400 
#    y -0.038920 4.727120 0.659880 
#    z -0.022400 0.659880 5.400990 
# 
# 
# High freq. dielectric constant tensor:
#      x y z
#    x 1.976660 0.000070 -0.007630 
#    y 0.000070 1.963030 0.024960 
#    z -0.007630 0.024960 1.994730 
# 
# From -- ./inp_files/605309.got.cif
#   From: 2010.06.25/outbox.cif.g09.slc.cpg/sg2_303_cif.got.tgz:605309.got - 2010.06.27 13:26:56.
