data_PCOD8022778
_publ_section_title
;
Structure prediction by ZEFSAII (Michael W. Deem and Ramdas Pophale) SiO2 
 PCOD8022778
Probable space group: P -1
;
_chemical_formula_sum "Si O2"
_cell_formula_units_Z 16
_cell_length_a 6.443414
_cell_length_b 9.643880
_cell_length_c 18.230958
_cell_angle_alpha 73.601222
_cell_angle_beta 46.879672
_cell_angle_gamma 69.669228
_cell_volume 773.719904
_symmetry_space_group_name_H-M "P -1"
_symmetry_group_IT_number 2
_symmetry_cell_setting 'triclinic'
loop_
_space_group_symop_operation_xyz
x,y,z
-x,-y,-z
loop_
_atom_site_type_symbol
_atom_site_label
_atom_site_fract_x
_atom_site_fract_y
_atom_site_fract_z
Si Si1 0.209708 0.434969 0.792381
Si Si2 0.882550 0.574787 0.441500
Si Si3 0.824646 0.869933 0.775686
Si Si4 0.758838 0.378375 0.376669
Si Si5 0.956265 0.679441 0.916220
Si Si6 0.793261 0.151293 0.047564
Si Si7 0.256126 0.787556 0.254914
Si Si8 0.336097 0.674872 0.091973
O O1 0.343375 0.500143 0.680375
O O2 0.410097 0.274273 0.787579
O O3 0.209132 0.545111 0.845122
O O4 0.869987 0.440865 0.853813
O O5 0.934209 0.445493 0.386992
O O6 0.540238 0.654976 0.514778
O O7 0.000000 0.500000 0.500000
O O8 0.048959 0.702194 0.361442
O O9 0.894657 0.809968 0.850507
O O10 0.492883 0.866400 0.836382
O O11 0.036362 0.771507 0.680538
O O12 0.856086 0.037926 0.731970
O O13 0.048562 0.743619 0.959585
O O14 0.682722 0.605744 0.015183
O O15 0.710541 0.210905 0.978891
O O16 0.000000 0.000000 0.000000
O O17 0.238498 0.761471 0.177076
#
# Coordination Sequence:
#
# PCOD8022778 Si02
#       8
#     2   2   2   2   2   2   2   2
#     4  11  22  38  63  93 123 165 211 259 305 372
#     4  11  23  44  71  92 120 160 206 264 321 378
#     4  10  24  41  63  95 129 167 207 257 303 373
#     4  10  23  44  66  92 124 160 207 259 321 370
#     4  10  23  39  61  88 129 174 211 247 310 362
#     4  11  22  39  59  88 135 174 208 250 306 364
#     4  12  24  39  66  94 124 163 211 255 317 368
#     4  11  22  37  58  91 130 164 213 259 298 362
#
# _framework density 20.679317000000001
#
# number of rings (size 3 to 8) (size 9 to 14) (size 15 to 20)
#    0.000    1.250    2.500    3.375    1.750    5.500 
#    0.000    0.625    0.000    0.000    0.000    0.000 
#    0.000    0.000    0.000    0.000    0.000    0.000 
#
# Total GULP energy -198365.225541 kJ/mol
# GULP energy per Si atom -12397.826596 kJ/mol
# Density = 2.063225 g / cm^3
# Si number density = 20.679317 Si / 1000 Ang^3
#
#
#
# Elastic Constant Matrix: (Units=GPa)
#
#
# Indices 1 2 3 4 5 6 
#
# 1 77.3827 39.3098 40.2415 5.1729 1.6055 11.8178
# 2 39.3098 125.1094 54.4509 11.1006 6.8313 -2.7107
# 3 40.2415 54.4509 120.9294 1.8262 -2.8757 7.0421
# 4 5.1729 11.1006 1.8262 37.6717 7.1152 -1.1212
# 5 1.6055 6.8313 -2.8757 7.1152 37.7450 1.7840
# 6 11.8178 -2.7107 7.0421 -1.1212 1.7840 24.3474
#
#
#
# Elastic Compliance Matrix: (Units=1/GPa)
#
#
# Indices 1 2 3 4 5 6 
#
# 1 0.018365 -0.004246 -0.003679 -0.001413 0.000371 -0.008415
# 2 -0.004246 0.011479 -0.004038 -0.002085 -0.002027 0.004560
# 3 -0.003679 -0.004038 0.011462 0.000754 0.001716 -0.002070
# 4 -0.001413 -0.002085 0.000754 0.028305 -0.004931 0.001900
# 5 0.000371 -0.002027 0.001716 -0.004931 0.028055 -0.003185
# 6 -0.008415 0.004560 -0.002070 0.001900 -0.003185 0.046584
#
#
# Mechanical properties :
#
#
# Convention : Reuss Voigt Hill
#
# Bulk Modulus (GPa) = 57.54027 65.71400 61.62713
# Shear Modulus (GPa) = 28.74065 32.58075 30.66070
#
# Velocity S-wave (km/s) = 3.73208 3.97359 3.85473
# Velocity P-wave (km/s) = 6.81591 7.27318 7.04826
#
# Compressibility (1/GPa) = 0.01737913
#
# Stress axis : x y z
#
# Youngs Moduli (GPa) = 54.45141 87.11496 87.24714
#
# Poissons Ratio (x) = 0.36992 0.32099
# Poissons Ratio (y) = 0.23122 0.35229
# Poissons Ratio (z) = 0.20033 0.35176
#
# Static dielectric constant tensor:
#      x y z
#    x 3.798750 0.042650 -0.072940 
#    y 0.042650 3.438860 -0.096420 
#    z -0.072940 -0.096420 3.925400 
# 
# 
# High freq. dielectric constant tensor:
#      x y z
#    x 1.817660 0.001300 0.000330 
#    y 0.001300 1.795610 0.001910 
#    z 0.000330 0.001910 1.822270 
# 
# From -- ./inp_files/39180.got.cif
#   From: 2010.06.25/outbox.cif.g09.slc.cpg/sg2_20_cif.got.tgz:39180.got - 2010.06.27 13:26:56.
