data_PCOD8022285
_publ_section_title
;
Structure prediction by ZEFSAII (Michael W. Deem and Ramdas Pophale) SiO2 
 PCOD8022285
Probable space group: P -1
;
_chemical_formula_sum "Si O2"
_cell_formula_units_Z 16
_cell_length_a 7.450607
_cell_length_b 8.921151
_cell_length_c 13.098273
_cell_angle_alpha 104.654008
_cell_angle_beta 56.767301
_cell_angle_gamma 81.514129
_cell_volume 659.003918
_symmetry_space_group_name_H-M "P -1"
_symmetry_group_IT_number 2
_symmetry_cell_setting 'triclinic'
loop_
_space_group_symop_operation_xyz
x,y,z
-x,-y,-z
loop_
_atom_site_type_symbol
_atom_site_label
_atom_site_fract_x
_atom_site_fract_y
_atom_site_fract_z
Si Si1 0.020353 0.727471 0.835549
Si Si2 0.568506 0.045347 0.719646
Si Si3 0.811329 0.376237 0.444225
Si Si4 0.638366 0.344489 0.093252
Si Si5 0.236198 0.369303 0.943557
Si Si6 0.315730 0.305966 0.339523
Si Si7 0.288379 0.940170 0.534776
Si Si8 0.860396 0.062234 0.819995
O O1 0.149090 0.600533 0.683943
O O2 0.191684 0.711761 0.872930
O O3 0.928684 0.913094 0.853295
O O4 0.804166 0.682181 0.937441
O O5 0.329751 0.202861 0.815715
O O6 0.743342 0.051565 0.576695
O O7 0.671483 0.045501 0.799185
O O8 0.522735 0.871595 0.694946
O O9 0.661160 0.553875 0.567527
O O10 0.676880 0.248778 0.477802
O O11 0.057112 0.306191 0.413305
O O12 0.585001 0.533787 0.104297
O O13 0.399162 0.331888 0.204181
O O14 0.750941 0.232319 0.942747
O O15 0.000000 0.500000 0.000000
O O16 0.500000 0.000000 0.500000
O O17 0.075433 0.064613 0.685447
#
# Coordination Sequence:
#
# PCOD8022285 Si02
#       8
#     2   2   2   2   2   2   2   2
#     4  10  22  45  70 100 150 185 245 305 361 436
#     4  12  25  46  75 104 150 191 245 307 362 442
#     4  10  24  48  71 106 150 191 248 304 360 444
#     4  11  25  43  70 103 147 197 244 305 366 436
#     4  10  25  45  69 103 149 189 243 303 366 433
#     4  11  24  44  74 105 146 194 249 295 369 432
#     4  11  26  46  74 108 150 194 242 305 371 435
#     4  11  25  45  72 111 145 190 252 297 375 437
#
# _framework density 24.279066
#
# number of rings (size 3 to 8) (size 9 to 14) (size 15 to 20)
#    0.000    1.250    2.500    2.250    8.750    3.000 
#    4.500    0.000    0.000    0.000    0.000    0.000 
#    0.000    0.000    0.000    0.000    0.000    0.000 
#
# Total GULP energy -198346.927854 kJ/mol
# GULP energy per Si atom -12396.682991 kJ/mol
# Density = 2.422381 g / cm^3
# Si number density = 24.279066 Si / 1000 Ang^3
#
#
#
# Elastic Constant Matrix: (Units=GPa)
#
#
# Indices 1 2 3 4 5 6 
#
# 1 49.9622 32.0414 21.9232 5.5471 5.6651 10.6004
# 2 32.0414 166.8332 102.9587 3.9160 -3.5103 27.7124
# 3 21.9232 102.9587 201.7342 4.7022 13.6743 21.5244
# 4 5.5471 3.9160 4.7022 61.5596 4.0557 1.8383
# 5 5.6651 -3.5103 13.6743 4.0557 45.2788 -3.1389
# 6 10.6004 27.7124 21.5244 1.8383 -3.1389 28.8718
#
#
#
# Elastic Compliance Matrix: (Units=1/GPa)
#
#
# Indices 1 2 3 4 5 6 
#
# 1 0.024189 -0.003907 0.000248 -0.001542 -0.003655 -0.005615
# 2 -0.003907 0.010396 -0.004513 0.000030 0.002313 -0.004931
# 3 0.000248 -0.004513 0.007609 -0.000081 -0.002792 -0.001730
# 4 -0.001542 0.000030 -0.000081 0.016491 -0.001299 -0.000594
# 5 -0.003655 0.002313 -0.002792 -0.001299 0.023951 0.003890
# 6 -0.005615 -0.004931 -0.001730 -0.000594 0.003890 0.043181
#
#
# Mechanical properties :
#
#
# Convention : Reuss Voigt Hill
#
# Bulk Modulus (GPa) = 38.68304 81.37511 60.02908
# Shear Modulus (GPa) = 33.16162 44.58248 38.87205
#
# Velocity S-wave (km/s) = 3.69975 4.28980 4.00566
# Velocity P-wave (km/s) = 5.84963 7.62403 6.79500
#
# Compressibility (1/GPa) = 0.02585112
#
# Stress axis : x y z
#
# Youngs Moduli (GPa) = 41.34158 96.18817 131.42333
#
# Poissons Ratio (x) = 0.37577 -0.03259
# Poissons Ratio (y) = 0.16151 0.59309
# Poissons Ratio (z) = -0.01025 0.43408
#
# Static dielectric constant tensor:
#      x y z
#    x 4.144900 0.241720 0.012050 
#    y 0.241720 4.874610 -0.285040 
#    z 0.012050 -0.285040 5.203580 
# 
# 
# High freq. dielectric constant tensor:
#      x y z
#    x 1.947110 0.007040 0.005440 
#    y 0.007040 1.970870 -0.007220 
#    z 0.005440 -0.007220 1.984950 
# 
# From -- ./inp_files/495143.got.cif
#   From: 2010.06.25/outbox.cif.g09.slc.cpg/sg2_248_cif.got.tgz:495143.got - 2010.06.27 13:26:56.
