data_PCOD8022300
_publ_section_title
;
Structure prediction by ZEFSAII (Michael W. Deem and Ramdas Pophale) SiO2 
 PCOD8022300
Probable space group: P -1
;
_chemical_formula_sum "Si O2"
_cell_formula_units_Z 16
_cell_length_a 12.117495
_cell_length_b 14.348511
_cell_length_c 8.347704
_cell_angle_alpha 105.642697
_cell_angle_beta 146.077235
_cell_angle_gamma 87.344834
_cell_volume 736.256714
_symmetry_space_group_name_H-M "P -1"
_symmetry_group_IT_number 2
_symmetry_cell_setting 'triclinic'
loop_
_space_group_symop_operation_xyz
x,y,z
-x,-y,-z
loop_
_atom_site_type_symbol
_atom_site_label
_atom_site_fract_x
_atom_site_fract_y
_atom_site_fract_z
Si Si1 0.986237 0.455870 0.784163
Si Si2 0.991503 0.770847 0.705979
Si Si3 0.696801 0.564451 0.359997
Si Si4 0.436390 0.575983 0.340404
Si Si5 0.203729 0.776376 0.635065
Si Si6 0.630298 0.859513 0.365551
Si Si7 0.363910 0.936915 0.664378
Si Si8 0.592708 0.208157 0.602001
O O1 0.805743 0.482454 0.490819
O O2 0.916123 0.333966 0.635189
O O3 0.000000 0.500000 0.000000
O O4 0.202906 0.507963 0.972445
O O5 0.846221 0.653267 0.472986
O O6 0.848198 0.839834 0.597368
O O7 0.091343 0.800787 0.666377
O O8 0.168521 0.782873 0.060178
O O9 0.613257 0.610092 0.433590
O O10 0.500000 0.500000 0.000000
O O11 0.500000 0.500000 0.500000
O O12 0.420948 0.684337 0.436862
O O13 0.178943 0.850541 0.495660
O O14 0.448531 0.796863 0.990595
O O15 0.554125 0.828257 0.438875
O O16 0.698665 0.982749 0.484686
O O17 0.482441 0.876936 0.667577
O O18 0.500000 0.000000 0.000000
#
# Coordination Sequence:
#
# PCOD8022300 Si02
#       8
#     2   2   2   2   2   2   2   2
#     4  12  24  42  65  97 141 177 224 279 336 406
#     4  11  23  42  67  99 131 176 224 275 333 398
#     4  12  25  40  66  98 137 181 226 274 332 404
#     4  12  25  42  66 102 133 179 224 268 340 404
#     4  10  24  42  67  96 136 174 220 281 335 397
#     4  10  22  45  70  98 127 172 227 276 340 395
#     4  10  23  45  69  96 133 175 219 283 343 390
#     4  11  23  44  72  97 135 173 224 280 332 406
#
# _framework density 21.731551
#
# number of rings (size 3 to 8) (size 9 to 14) (size 15 to 20)
#    0.000    1.000    3.750    2.625    1.750    2.000 
#    2.250    0.000    0.000    0.000    0.000    0.000 
#    0.000    0.000    0.000    0.000    0.000    0.000 
#
# Total GULP energy -198277.508879 kJ/mol
# GULP energy per Si atom -12392.344305 kJ/mol
# Density = 2.168209 g / cm^3
# Si number density = 21.731551 Si / 1000 Ang^3
#
#
#
# Elastic Constant Matrix: (Units=GPa)
#
#
# Indices 1 2 3 4 5 6 
#
# 1 94.0951 55.9292 31.5025 -5.8266 3.7255 1.4900
# 2 55.9292 194.2159 55.7714 3.8716 -0.9201 -1.3291
# 3 31.5025 55.7714 80.8423 -12.1214 8.3049 -13.4078
# 4 -5.8266 3.8716 -12.1214 36.0015 -6.6999 0.5202
# 5 3.7255 -0.9201 8.3049 -6.6999 36.9973 1.0634
# 6 1.4900 -1.3291 -13.4078 0.5202 1.0634 37.9515
#
#
#
# Elastic Compliance Matrix: (Units=1/GPa)
#
#
# Indices 1 2 3 4 5 6 
#
# 1 0.013659 -0.003033 -0.003281 0.001382 -0.000412 -0.001809
# 2 -0.003033 0.007404 -0.004640 -0.002628 0.001091 -0.001255
# 3 -0.003281 -0.004640 0.019159 0.005717 -0.003244 0.006747
# 4 0.001382 -0.002628 0.005717 0.030947 0.004078 0.001335
# 5 -0.000412 0.001091 -0.003244 0.004078 0.028620 -0.001950
# 6 -0.001809 -0.001255 0.006747 0.001335 -0.001950 0.028797
#
#
# Mechanical properties :
#
#
# Convention : Reuss Voigt Hill
#
# Bulk Modulus (GPa) = 54.60313 72.83993 63.72153
# Shear Modulus (GPa) = 31.92855 37.25341 34.59098
#
# Velocity S-wave (km/s) = 3.83721 4.14485 3.99399
# Velocity P-wave (km/s) = 6.69425 7.51646 7.11724
#
# Compressibility (1/GPa) = 0.01831397
#
# Stress axis : x y z
#
# Youngs Moduli (GPa) = 73.20963 135.06418 52.19502
#
# Poissons Ratio (x) = 0.40970 0.17123
# Poissons Ratio (y) = 0.22207 0.24219
# Poissons Ratio (z) = 0.24017 0.62672
#
# Static dielectric constant tensor:
#      x y z
#    x 4.334370 0.415890 0.203330 
#    y 0.415890 4.544770 0.062080 
#    z 0.203330 0.062080 3.915060 
# 
# 
# High freq. dielectric constant tensor:
#      x y z
#    x 1.862640 0.008620 0.005890 
#    y 0.008620 1.871710 0.004690 
#    z 0.005890 0.004690 1.839750 
# 
# From -- ./inp_files/273100.got.cif
#   From: 2010.06.25/outbox.cif.g09.slc.cpg/sg2_137_cif.got.tgz:273100.got - 2010.06.27 13:26:56.
