data_PCOD8022487
_publ_section_title
;
Structure prediction by ZEFSAII (Michael W. Deem and Ramdas Pophale) SiO2 
 PCOD8022487
Probable space group: P -1
;
_chemical_formula_sum "Si O2"
_cell_formula_units_Z 16
_cell_length_a 6.301647
_cell_length_b 21.451808
_cell_length_c 8.902476
_cell_angle_alpha 55.806820
_cell_angle_beta 71.577059
_cell_angle_gamma 47.422133
_cell_volume 728.911099
_symmetry_space_group_name_H-M "P -1"
_symmetry_group_IT_number 2
_symmetry_cell_setting 'triclinic'
loop_
_space_group_symop_operation_xyz
x,y,z
-x,-y,-z
loop_
_atom_site_type_symbol
_atom_site_label
_atom_site_fract_x
_atom_site_fract_y
_atom_site_fract_z
Si Si1 0.465857 0.986809 0.853706
Si Si2 0.233734 0.225015 0.901623
Si Si3 0.500402 0.598637 0.720059
Si Si4 0.348401 0.289597 0.294524
Si Si5 0.086732 0.714648 0.415594
Si Si6 0.161431 0.867977 0.254785
Si Si7 0.706060 0.082457 0.532484
Si Si8 0.956974 0.389659 0.989595
O O1 0.524609 0.045296 0.652544
O O2 0.706032 0.871732 0.916844
O O3 0.138240 0.023147 0.865527
O O4 0.500000 0.000000 0.000000
O O5 0.553937 0.187152 0.838378
O O6 0.986955 0.274912 0.758531
O O7 0.093529 0.306032 0.949526
O O8 0.492053 0.684651 0.670793
O O9 0.406802 0.621121 0.533108
O O10 0.818125 0.492544 0.800848
O O11 0.279914 0.601168 0.870417
O O12 0.544705 0.178865 0.333665
O O13 0.122149 0.297946 0.440325
O O14 0.209434 0.362380 0.084028
O O15 0.040869 0.808813 0.357630
O O16 0.257914 0.878162 0.377996
O O17 0.000000 0.000000 0.500000
#
# Coordination Sequence:
#
# PCOD8022487 Si02
#       8
#     2   2   2   2   2   2   2   2
#     4  12  24  42  64  94 134 176 218 264 326 395
#     4  12  25  41  65 100 131 173 219 274 324 394
#     4  10  22  46  70  91 129 175 209 281 337 390
#     4  11  21  44  66  92 131 172 214 269 327 397
#     4  11  21  42  70  90 130 171 218 260 333 395
#     4  12  22  43  63  89 133 180 212 269 323 388
#     4  12  27  39  65 102 130 176 225 269 327 391
#     4  10  26  41  67 101 126 165 226 272 335 394
#
# _framework density 21.950548999999999
#
# number of rings (size 3 to 8) (size 9 to 14) (size 15 to 20)
#    0.000    0.750    6.250    0.750    3.500    2.000 
#    0.000    2.500    0.000    0.000    0.000    0.000 
#    0.000    0.000    0.000    0.000    0.000    0.000 
#
# Total GULP energy -198209.070497 kJ/mol
# GULP energy per Si atom -12388.066906 kJ/mol
# Density = 2.190059 g / cm^3
# Si number density = 21.950549 Si / 1000 Ang^3
#
#
#
# Elastic Constant Matrix: (Units=GPa)
#
#
# Indices 1 2 3 4 5 6 
#
# 1 79.5731 6.4944 37.5290 -8.9571 12.4758 -2.3703
# 2 6.4944 106.1488 36.7973 -17.5539 8.1445 -4.9126
# 3 37.5290 36.7973 82.4061 -29.3634 19.3839 -7.7497
# 4 -8.9571 -17.5539 -29.3634 36.6910 -0.0140 4.9415
# 5 12.4758 8.1445 19.3839 -0.0140 34.3178 -8.5609
# 6 -2.3703 -4.9126 -7.7497 4.9415 -8.5609 28.8558
#
#
#
# Elastic Compliance Matrix: (Units=1/GPa)
#
#
# Indices 1 2 3 4 5 6 
#
# 1 0.016552 0.001773 -0.008699 -0.001958 -0.001739 -0.000855
# 2 0.001773 0.011436 -0.005197 0.001705 -0.000347 0.000302
# 3 -0.008699 -0.005197 0.027053 0.017107 -0.011010 -0.000530
# 4 -0.001958 0.001705 0.017107 0.042042 -0.010752 -0.005666
# 5 -0.001739 -0.000347 -0.011010 -0.010752 0.038596 0.010133
# 6 -0.000855 0.000302 -0.000530 -0.005666 0.010133 0.038470
#
#
# Mechanical properties :
#
#
# Convention : Reuss Voigt Hill
#
# Bulk Modulus (GPa) = 32.47191 47.75217 40.11204
# Shear Modulus (GPa) = 23.96254 32.46008 28.21131
#
# Velocity S-wave (km/s) = 3.30761 3.84967 3.58889
# Velocity P-wave (km/s) = 5.42332 6.44683 5.95709
#
# Compressibility (1/GPa) = 0.03079584
#
# Stress axis : x y z
#
# Youngs Moduli (GPa) = 60.41710 87.44158 36.96484
#
# Poissons Ratio (x) = -0.15502 0.32154
# Poissons Ratio (y) = -0.10711 0.19209
# Poissons Ratio (z) = 0.52555 0.45439
#
# Static dielectric constant tensor:
#      x y z
#    x 4.667650 -0.112390 -0.029930 
#    y -0.112390 3.873110 -0.571870 
#    z -0.029930 -0.571870 4.803500 
# 
# 
# High freq. dielectric constant tensor:
#      x y z
#    x 1.874770 -0.000530 0.011870 
#    y -0.000530 1.848800 -0.029610 
#    z 0.011870 -0.029610 1.869040 
# 
# From -- ./inp_files/48947.got.cif
#   From: 2010.06.25/outbox.cif.g09.slc.cpg/sg2_25_cif.got.tgz:48947.got - 2010.06.27 13:26:56.
