data_PCOD8022208
_publ_section_title
;
Structure prediction by ZEFSAII (Michael W. Deem and Ramdas Pophale) SiO2 
 PCOD8022208
Probable space group: P -1
;
_chemical_formula_sum "Si O2"
_cell_formula_units_Z 16
_cell_length_a 12.606114
_cell_length_b 21.375607
_cell_length_c 6.734313
_cell_angle_alpha 106.634885
_cell_angle_beta 72.846254
_cell_angle_gamma 156.393870
_cell_volume 693.738294
_symmetry_space_group_name_H-M "P -1"
_symmetry_group_IT_number 2
_symmetry_cell_setting 'triclinic'
loop_
_space_group_symop_operation_xyz
x,y,z
-x,-y,-z
loop_
_atom_site_type_symbol
_atom_site_label
_atom_site_fract_x
_atom_site_fract_y
_atom_site_fract_z
Si Si1 0.418968 0.851659 0.385645
Si Si2 0.075572 0.790215 0.561296
Si Si3 0.580516 0.258207 0.040044
Si Si4 0.976483 0.043989 0.714999
Si Si5 0.604893 0.707729 0.958348
Si Si6 0.100064 0.614729 0.664777
Si Si7 0.717977 0.526895 0.772429
Si Si8 0.254004 0.285458 0.511243
O O1 0.204575 0.794015 0.398189
O O2 0.351849 0.786553 0.580642
O O3 0.711550 0.038436 0.379061
O O4 0.403795 0.783924 0.184674
O O5 0.946631 0.704118 0.773082
O O6 0.838372 0.689718 0.460065
O O7 0.828806 0.372782 0.145046
O O8 0.599753 0.343221 0.030551
O O9 0.315320 0.108094 0.176561
O O10 0.183621 0.146394 0.875418
O O11 0.036940 0.142809 0.655436
O O12 0.000000 0.000000 0.500000
O O13 0.460907 0.566819 0.013208
O O14 0.750296 0.759327 0.729188
O O15 0.000000 0.500000 0.500000
O O16 0.845723 0.524658 0.722726
O O17 0.543778 0.437235 0.586668
#
# Coordination Sequence:
#
# PCOD8022208 Si02
#       8
#     2   2   2   2   2   2   2   2
#     4  10  24  44  67  96 130 172 223 266 323 386
#     4  10  22  45  68  89 133 178 218 272 316 379
#     4  12  24  40  70  99 129 174 212 267 333 392
#     4  11  24  39  64 101 134 163 206 267 329 390
#     4  11  24  39  66 101 130 166 216 267 329 393
#     4  11  24  42  66  97 138 168 212 271 329 391
#     4  10  24  42  61  97 129 174 221 268 317 376
#     4  11  22  42  68  95 133 172 215 267 332 380
#
# _framework density 23.063454
#
# number of rings (size 3 to 8) (size 9 to 14) (size 15 to 20)
#    0.000    1.250    1.250    3.750    5.250    4.500 
#    0.000   17.500    0.000    0.000    0.000    0.000 
#    0.000    0.000    0.000    0.000    0.000    0.000 
#
# Total GULP energy -198310.859633 kJ/mol
# GULP energy per Si atom -12394.428727 kJ/mol
# Density = 2.301096 g / cm^3
# Si number density = 23.063454 Si / 1000 Ang^3
#
#
#
# Elastic Constant Matrix: (Units=GPa)
#
#
# Indices 1 2 3 4 5 6 
#
# 1 136.2084 17.2793 29.5241 -3.8556 26.8025 12.9491
# 2 17.2793 85.2099 13.9497 -18.6994 19.7434 -7.0136
# 3 29.5241 13.9497 92.5005 -8.0034 13.4415 5.7601
# 4 -3.8556 -18.6994 -8.0034 24.7382 -1.8724 10.3319
# 5 26.8025 19.7434 13.4415 -1.8724 36.5538 -2.0359
# 6 12.9491 -7.0136 5.7601 10.3319 -2.0359 42.6074
#
#
#
# Elastic Compliance Matrix: (Units=1/GPa)
#
#
# Indices 1 2 3 4 5 6 
#
# 1 0.009319 -0.000037 -0.001691 0.001799 -0.006285 -0.003346
# 2 -0.000037 0.016186 -0.000204 0.011777 -0.008067 -0.000538
# 3 -0.001691 -0.000204 0.012357 0.004344 -0.003104 -0.002392
# 4 0.001799 0.011777 0.004344 0.055943 -0.007141 -0.013102
# 5 -0.006285 -0.008067 -0.003104 -0.007141 0.037350 0.004518
# 6 -0.003346 -0.000538 -0.002392 -0.013102 0.004518 0.028115
#
#
# Mechanical properties :
#
#
# Convention : Reuss Voigt Hill
#
# Bulk Modulus (GPa) = 29.41528 48.38056 38.89792
# Shear Modulus (GPa) = 28.65866 37.65760 33.15813
#
# Velocity S-wave (km/s) = 3.52888 4.04515 3.79580
# Velocity P-wave (km/s) = 5.42086 6.54526 6.00941
#
# Compressibility (1/GPa) = 0.03399594
#
# Stress axis : x y z
#
# Youngs Moduli (GPa) = 107.30977 61.78186 80.92397
#
# Poissons Ratio (x) = 0.00230 0.13688
# Poissons Ratio (y) = 0.00399 0.01654
# Poissons Ratio (z) = 0.18151 0.01263
#
# Static dielectric constant tensor:
#      x y z
#    x 4.452320 0.107800 0.209760 
#    y 0.107800 4.949000 -0.691580 
#    z 0.209760 -0.691580 4.288470 
# 
# 
# High freq. dielectric constant tensor:
#      x y z
#    x 1.928730 -0.002220 0.015480 
#    y -0.002220 1.923460 -0.028370 
#    z 0.015480 -0.028370 1.897070 
# 
# From -- ./inp_files/70496.got.cif
#   From: 2010.06.25/outbox.cif.g09.slc.cpg/sg2_36_cif.got.tgz:70496.got - 2010.06.27 13:26:56.
