data_PCOD8022940
_publ_section_title
;
Structure prediction by ZEFSAII (Michael W. Deem and Ramdas Pophale) SiO2 
 PCOD8022940
Probable space group: P -1
;
_chemical_formula_sum "Si O2"
_cell_formula_units_Z 12
_cell_length_a 7.582706
_cell_length_b 5.237171
_cell_length_c 17.834499
_cell_angle_alpha 117.776359
_cell_angle_beta 79.300346
_cell_angle_gamma 113.179487
_cell_volume 576.047578
_symmetry_space_group_name_H-M "P -1"
_symmetry_group_IT_number 2
_symmetry_cell_setting 'triclinic'
loop_
_space_group_symop_operation_xyz
x,y,z
-x,-y,-z
loop_
_atom_site_type_symbol
_atom_site_label
_atom_site_fract_x
_atom_site_fract_y
_atom_site_fract_z
Si Si1 0.994590 0.816486 0.202765
Si Si2 0.098145 0.372023 0.366103
Si Si3 0.500571 0.660384 0.443118
Si Si4 0.389721 0.530215 0.899372
Si Si5 0.374084 0.835104 0.097355
Si Si6 0.094214 0.231667 0.634539
O O1 0.167287 0.754499 0.139709
O O2 0.807258 0.695296 0.150207
O O3 0.947063 0.645747 0.264182
O O4 0.055629 0.183366 0.264861
O O5 0.321553 0.478206 0.380737
O O6 0.020349 0.653834 0.404118
O O7 0.984459 0.143537 0.411273
O O8 0.500000 0.500000 0.500000
O O9 0.680952 0.645371 0.381108
O O10 0.500000 0.000000 0.500000
O O11 0.510941 0.316174 0.879357
O O12 0.509116 0.798694 0.869124
O O13 0.337992 0.682248 0.997751
#
# Coordination Sequence:
#
# PCOD8022940 Si02
#       6
#     2   2   2   2   2   2
#     4  10  25  38  68  88 130 160 206 254 304 362
#     4  10  25  42  63  95 122 159 203 254 305 364
#     4  12  26  44  68  90 123 164 201 252 308 372
#     4  10  23  40  62  91 125 166 208 251 301 358
#     4  10  23  40  62  91 125 166 208 251 301 358
#     4  10  25  42  63  95 122 159 203 254 305 364
#
# _framework density 20.831610999999999
#
# number of rings (size 3 to 8) (size 9 to 14) (size 15 to 20)
#    1.000    0.667    0.000    2.500    7.000    4.000 
#    0.000    5.000    0.000    0.000    0.000    0.000 
#    0.000    0.000    0.000    0.000    0.000    0.000 
#
# Total GULP energy -148753.325493 kJ/mol
# GULP energy per Si atom -12396.110458 kJ/mol
# Density = 2.078420 g / cm^3
# Si number density = 20.831611 Si / 1000 Ang^3
#
#
#
# Elastic Constant Matrix: (Units=GPa)
#
#
# Indices 1 2 3 4 5 6 
#
# 1 158.3457 80.1778 47.7794 -18.1619 11.4199 12.8322
# 2 80.1778 150.8284 41.2392 -10.6263 1.8756 -13.4600
# 3 47.7794 41.2392 59.0577 -8.8750 8.0620 10.4653
# 4 -18.1619 -10.6263 -8.8750 20.9057 16.6022 -3.3296
# 5 11.4199 1.8756 8.0620 16.6022 32.2717 1.8829
# 6 12.8322 -13.4600 10.4653 -3.3296 1.8829 48.9259
#
#
#
# Elastic Compliance Matrix: (Units=1/GPa)
#
#
# Indices 1 2 3 4 5 6 
#
# 1 0.012383 -0.004965 -0.002002 0.016402 -0.011879 -0.002612
# 2 -0.004965 0.010969 -0.005631 -0.003517 0.004036 0.005130
# 3 -0.002002 -0.005631 0.028355 0.018882 -0.015458 -0.005209
# 4 0.016402 -0.003517 0.018882 0.130232 -0.077462 0.002536
# 5 -0.011879 0.004036 -0.015458 -0.077462 0.078713 -0.000769
# 6 -0.002612 0.005130 -0.005209 0.002536 -0.000769 0.023852
#
#
# Mechanical properties :
#
#
# Convention : Reuss Voigt Hill
#
# Bulk Modulus (GPa) = 37.72031 78.51385 58.11708
# Shear Modulus (GPa) = 15.69681 33.68968 24.69325
#
# Velocity S-wave (km/s) = 2.74799 4.02585 3.44666
# Velocity P-wave (km/s) = 5.31179 7.70594 6.61803
#
# Compressibility (1/GPa) = 0.02651092
#
# Stress axis : x y z
#
# Youngs Moduli (GPa) = 80.75567 91.16735 35.26710
#
# Poissons Ratio (x) = 0.45266 0.07060
# Poissons Ratio (y) = 0.40096 0.19859
# Poissons Ratio (z) = 0.16167 0.51336
#
# Static dielectric constant tensor:
#      x y z
#    x 3.722570 -0.010610 0.021850 
#    y -0.010610 3.951820 -0.017160 
#    z 0.021850 -0.017160 3.590810 
# 
# 
# High freq. dielectric constant tensor:
#      x y z
#    x 1.826400 0.001440 0.001980 
#    y 0.001440 1.824610 -0.002730 
#    z 0.001980 -0.002730 1.809500 
# 
# From -- ./inp_files/11677.got.cif
#   From: 2010.06.25/outbox.cif.g09.slc.cpg/sg2_6_cif.got.tgz:11677.got - 2010.06.27 13:26:56.
