data_PCOD8022877
_publ_section_title
;
Structure prediction by ZEFSAII (Michael W. Deem and Ramdas Pophale) SiO2 
 PCOD8022877
Probable space group: P -1
;
_chemical_formula_sum "Si O2"
_cell_formula_units_Z 14
_cell_length_a 17.255941
_cell_length_b 11.450809
_cell_length_c 9.135245
_cell_angle_alpha 141.077871
_cell_angle_beta 134.278665
_cell_angle_gamma 31.940470
_cell_volume 596.040619
_symmetry_space_group_name_H-M "P -1"
_symmetry_group_IT_number 2
_symmetry_cell_setting 'triclinic'
loop_
_space_group_symop_operation_xyz
x,y,z
-x,-y,-z
loop_
_atom_site_type_symbol
_atom_site_label
_atom_site_fract_x
_atom_site_fract_y
_atom_site_fract_z
Si Si1 0.296168 0.516682 0.412122
Si Si2 0.726156 0.536888 0.997402
Si Si3 0.010729 0.693400 0.356817
Si Si4 0.523421 0.988235 0.691503
Si Si5 0.940196 0.729207 0.828507
Si Si6 0.238116 0.987994 0.876404
Si Si7 0.880267 0.020979 0.777851
O O1 0.333733 0.404752 0.189311
O O2 0.312326 0.720447 0.642105
O O3 0.131527 0.653284 0.377353
O O4 0.419653 0.280013 0.446124
O O5 0.732715 0.319765 0.863762
O O6 0.629466 0.786268 0.211161
O O7 0.887823 0.435362 0.109811
O O8 0.087975 0.444609 0.314838
O O9 0.878234 0.774516 0.156095
O O10 0.934890 0.927588 0.594167
O O11 0.500000 0.000000 0.500000
O O12 0.637489 0.012184 0.915247
O O13 0.864400 0.847999 0.683046
O O14 0.853655 0.968097 0.057755
O O15 0.000000 0.000000 0.000000
#
# Coordination Sequence:
#
# PCOD8022877 Si02
#       7
#     2   2   2   2   2   2   2
#     4  12  24  47  79 104 148 190 242 300 357 435
#     4  11  24  49  69 106 147 190 244 293 360 435
#     4  12  22  44  75 114 143 184 247 303 354 427
#     4  12  31  49  70 106 152 192 241 299 366 438
#     4  11  23  41  76 108 145 187 242 301 356 420
#     4  12  25  47  78 108 142 195 242 295 367 427
#     4  10  23  39  68 106 145 184 236 298 358 416
#
# _framework density 23.488330999999999
#
# number of rings (size 3 to 8) (size 9 to 14) (size 15 to 20)
#    0.000    0.571    4.286    4.286    6.000    2.286 
#    2.571    0.000    0.000    0.000    0.000    0.000 
#    0.000    0.000    0.000    0.000    0.000    0.000 
#
# Total GULP energy -173580.927791 kJ/mol
# GULP energy per Si atom -12398.637699 kJ/mol
# Density = 2.343487 g / cm^3
# Si number density = 23.488331 Si / 1000 Ang^3
#
#
#
# Elastic Constant Matrix: (Units=GPa)
#
#
# Indices 1 2 3 4 5 6 
#
# 1 72.3968 23.4787 22.1804 2.2585 -13.3527 12.9288
# 2 23.4787 102.8643 17.0486 11.1226 -8.1894 24.0584
# 3 22.1804 17.0486 85.9828 4.5071 -21.1864 -0.2892
# 4 2.2585 11.1226 4.5071 43.3964 2.4171 -5.7969
# 5 -13.3527 -8.1894 -21.1864 2.4171 49.4465 7.1135
# 6 12.9288 24.0584 -0.2892 -5.7969 7.1135 45.8574
#
#
#
# Elastic Compliance Matrix: (Units=1/GPa)
#
#
# Indices 1 2 3 4 5 6 
#
# 1 0.016854 -0.001926 -0.003047 -0.000859 0.003606 -0.004428
# 2 -0.001926 0.012608 -0.001267 -0.004050 0.002221 -0.006936
# 3 -0.003047 -0.001267 0.013935 -0.001142 0.004892 0.000708
# 4 -0.000859 -0.004050 -0.001142 0.025254 -0.003504 0.006096
# 5 0.003606 0.002221 0.004892 -0.003504 0.024758 -0.006434
# 6 -0.004428 -0.006936 0.000708 0.006096 -0.006434 0.028467
#
#
# Mechanical properties :
#
#
# Convention : Reuss Voigt Hill
#
# Bulk Modulus (GPa) = 32.34489 42.96216 37.65352
# Shear Modulus (GPa) = 34.56323 40.97581 37.76952
#
# Velocity S-wave (km/s) = 3.84018 4.18127 4.01435
# Velocity P-wave (km/s) = 5.78474 6.45301 6.12799
#
# Compressibility (1/GPa) = 0.03091679
#
# Stress axis : x y z
#
# Youngs Moduli (GPa) = 59.33451 79.31385 71.76119
#
# Poissons Ratio (x) = 0.15277 0.21866
# Poissons Ratio (y) = 0.11428 0.09091
# Poissons Ratio (z) = 0.18080 0.10048
#
# Static dielectric constant tensor:
#      x y z
#    x 6.012870 1.611620 -0.379500 
#    y 1.611620 5.324050 0.117530 
#    z -0.379500 0.117530 4.394760 
# 
# 
# High freq. dielectric constant tensor:
#      x y z
#    x 1.920830 0.021540 -0.017410 
#    y 0.021540 1.933390 0.010920 
#    z -0.017410 0.010920 1.939900 
# 
# From -- ./inp_files/255981.got.cif
#   From: 2010.06.25/outbox.cif.g09.slc.cpg/sg2_128_cif.got.tgz:255981.got - 2010.06.27 13:26:56.
