data_PCOD8022175
_publ_section_title
;
Structure prediction by ZEFSAII (Michael W. Deem and Ramdas Pophale) SiO2 
 PCOD8022175
Probable space group: P -1
;
_chemical_formula_sum "Si O2"
_cell_formula_units_Z 14
_cell_length_a 9.601545
_cell_length_b 10.798650
_cell_length_c 12.213539
_cell_angle_alpha 138.034923
_cell_angle_beta 48.343557
_cell_angle_gamma 111.901912
_cell_volume 613.766907
_symmetry_space_group_name_H-M "P -1"
_symmetry_group_IT_number 2
_symmetry_cell_setting 'triclinic'
loop_
_space_group_symop_operation_xyz
x,y,z
-x,-y,-z
loop_
_atom_site_type_symbol
_atom_site_label
_atom_site_fract_x
_atom_site_fract_y
_atom_site_fract_z
Si Si1 0.453656 0.960213 0.874663
Si Si2 0.249117 0.666968 0.833953
Si Si3 0.228288 0.730827 0.415251
Si Si4 0.978031 0.428250 0.760978
Si Si5 0.641411 0.604435 0.206730
Si Si6 0.745364 0.908503 0.499693
Si Si7 0.045428 0.050577 0.130514
O O1 0.422320 0.741472 0.733768
O O2 0.616233 0.987572 0.725149
O O3 0.500000 0.000000 0.000000
O O4 0.249318 0.111712 0.056299
O O5 0.325213 0.577957 0.851799
O O6 0.162595 0.519629 0.709180
O O7 0.077659 0.860624 0.066382
O O8 0.113508 0.596131 0.324422
O O9 0.446842 0.619601 0.250269
O O10 0.124292 0.786861 0.622825
O O11 0.215788 0.911599 0.463722
O O12 0.053950 0.227939 0.653864
O O13 0.820290 0.571994 0.009958
O O14 0.629354 0.798596 0.407729
O O15 0.000000 0.000000 0.000000
#
# Coordination Sequence:
#
# PCOD8022175 Si02
#       7
#     2   2   2   2   2   2   2
#     4  10  23  42  70  98 125 172 221 270 318 385
#     4   9  23  44  66  86 139 167 215 258 340 377
#     4  12  24  40  69 103 127 169 226 266 321 391
#     4  11  23  41  65 100 132 170 211 277 326 375
#     4  11  23  41  64  99 133 171 210 275 331 374
#     4  11  23  42  71  94 129 175 224 259 325 392
#     4  10  22  45  67  95 132 170 217 266 326 389
#
# _framework density 22.809963
#
# number of rings (size 3 to 8) (size 9 to 14) (size 15 to 20)
#    0.857    0.571    0.000    6.429    2.000    3.429 
#    2.571    0.714    0.000    0.000    0.000    0.000 
#    0.000    0.000    0.000    0.000    0.000    0.000 
#
# Total GULP energy -173508.788347 kJ/mol
# GULP energy per Si atom -12393.484882 kJ/mol
# Density = 2.275805 g / cm^3
# Si number density = 22.809963 Si / 1000 Ang^3
#
#
#
# Elastic Constant Matrix: (Units=GPa)
#
#
# Indices 1 2 3 4 5 6 
#
# 1 168.6646 11.0944 43.1229 -3.0416 4.3642 -0.4899
# 2 11.0944 48.9808 19.3885 1.5860 2.3446 2.1019
# 3 43.1229 19.3885 116.4695 -27.0786 0.6359 -0.5175
# 4 -3.0416 1.5860 -27.0786 28.2755 -5.3642 -4.4028
# 5 4.3642 2.3446 0.6359 -5.3642 40.2416 1.2566
# 6 -0.4899 2.1019 -0.5175 -4.4028 1.2566 24.5532
#
#
#
# Elastic Compliance Matrix: (Units=1/GPa)
#
#
# Indices 1 2 3 4 5 6 
#
# 1 0.006688 -0.000197 -0.002988 -0.002360 -0.000972 -0.000286
# 2 -0.000197 0.023144 -0.005539 -0.007551 -0.002142 -0.003346
# 3 -0.002988 -0.005539 0.013926 0.014239 0.002226 0.003147
# 4 -0.002360 -0.007551 0.014239 0.052056 0.007102 0.009870
# 5 -0.000972 -0.002142 0.002226 0.007102 0.025987 0.000154
# 6 -0.000286 -0.003346 0.003147 0.009870 0.000154 0.042837
#
#
# Mechanical properties :
#
#
# Convention : Reuss Voigt Hill
#
# Bulk Modulus (GPa) = 38.00666 53.48073 45.74369
# Shear Modulus (GPa) = 26.19795 35.98134 31.08964
#
# Velocity S-wave (km/s) = 3.39267 3.97601 3.69587
# Velocity P-wave (km/s) = 5.66087 6.67647 6.18954
#
# Compressibility (1/GPa) = 0.02631118
#
# Stress axis : x y z
#
# Youngs Moduli (GPa) = 149.53085 43.20829 71.80562
#
# Poissons Ratio (x) = 0.00850 0.21456
# Poissons Ratio (y) = 0.02942 0.39770
# Poissons Ratio (z) = 0.44680 0.23931
#
# Static dielectric constant tensor:
#      x y z
#    x 4.188330 -0.005160 -0.046290 
#    y -0.005160 3.889180 0.109810 
#    z -0.046290 0.109810 3.889140 
# 
# 
# High freq. dielectric constant tensor:
#      x y z
#    x 1.917310 0.000860 -0.002830 
#    y 0.000860 1.881870 -0.000500 
#    z -0.002830 -0.000500 1.889390 
# 
# From -- ./inp_files/397862.got.cif
#   From: 2010.06.25/outbox.cif.g09.slc.cpg/sg2_199_cif.got.tgz:397862.got - 2010.06.27 13:26:56.
