data_PCOD8022895
_publ_section_title
;
Structure prediction by ZEFSAII (Michael W. Deem and Ramdas Pophale) SiO2 
 PCOD8022895
Probable space group: P -1
;
_chemical_formula_sum "Si O2"
_cell_formula_units_Z 14
_cell_length_a 9.166976
_cell_length_b 12.016129
_cell_length_c 8.301883
_cell_angle_alpha 91.210067
_cell_angle_beta 76.517707
_cell_angle_gamma 131.106196
_cell_volume 659.063937
_symmetry_space_group_name_H-M "P -1"
_symmetry_group_IT_number 2
_symmetry_cell_setting 'triclinic'
loop_
_space_group_symop_operation_xyz
x,y,z
-x,-y,-z
loop_
_atom_site_type_symbol
_atom_site_label
_atom_site_fract_x
_atom_site_fract_y
_atom_site_fract_z
Si Si1 0.033782 0.996549 0.237332
Si Si2 0.233688 0.235368 0.450055
Si Si3 0.432562 0.878042 0.382545
Si Si4 0.911426 0.366156 0.141745
Si Si5 0.031833 0.358707 0.455693
Si Si6 0.811620 0.068266 0.088831
Si Si7 0.361453 0.641645 0.585515
O O1 0.857220 0.831614 0.351249
O O2 0.186683 0.107396 0.343029
O O3 0.165303 0.983946 0.086407
O O4 0.938814 0.060210 0.185214
O O5 0.141933 0.297968 0.395228
O O6 0.477401 0.371905 0.403935
O O7 0.477275 0.776315 0.431173
O O8 0.191322 0.771729 0.414015
O O9 0.500000 0.000000 0.500000
O O10 0.572422 0.959090 0.190446
O O11 0.898203 0.237361 0.061216
O O12 0.693597 0.308124 0.245436
O O13 0.032127 0.417885 0.282715
O O14 0.000000 0.500000 0.000000
O O15 0.157013 0.491581 0.556766
#
# Coordination Sequence:
#
# PCOD8022895 Si02
#       7
#     2   2   2   2   2   2   2
#     4  10  23  39  70 102 137 169 227 292 338 388
#     4  11  22  44  67 100 131 182 234 270 337 405
#     4  11  19  40  71  95 127 176 225 276 334 394
#     4  11  24  44  65  97 142 175 220 281 340 401
#     4  11  24  44  69  95 139 185 220 277 335 406
#     4  11  21  43  68 104 135 175 223 288 340 395
#     4  11  24  43  68  97 135 186 224 269 338 414
#
# _framework density 21.242249000000001
#
# number of rings (size 3 to 8) (size 9 to 14) (size 15 to 20)
#    0.000    1.143    5.714    2.143    4.000    0.000 
#    5.143    2.143    0.000    0.000    0.000    0.000 
#    0.000    0.000    0.000    0.000    0.000    0.000 
#
# Total GULP energy -173507.319818 kJ/mol
# GULP energy per Si atom -12393.379987 kJ/mol
# Density = 2.119390 g / cm^3
# Si number density = 21.242249 Si / 1000 Ang^3
#
#
#
# Elastic Constant Matrix: (Units=GPa)
#
#
# Indices 1 2 3 4 5 6 
#
# 1 150.6990 56.4402 63.3198 -8.1624 -15.3260 2.7458
# 2 56.4402 117.8706 47.9900 -4.2643 -9.6386 -4.1206
# 3 63.3198 47.9900 116.5632 -5.2813 -12.4423 -4.6738
# 4 -8.1624 -4.2643 -5.2813 30.1271 -8.7897 0.7930
# 5 -15.3260 -9.6386 -12.4423 -8.7897 23.9112 1.9425
# 6 2.7458 -4.1206 -4.6738 0.7930 1.9425 37.5211
#
#
#
# Elastic Compliance Matrix: (Units=1/GPa)
#
#
# Indices 1 2 3 4 5 6 
#
# 1 0.009890 -0.002828 -0.003658 0.003012 0.004548 -0.001789
# 2 -0.002828 0.011169 -0.002843 0.000694 0.001385 0.000993
# 3 -0.003658 -0.002843 0.012227 0.001708 0.003397 0.001267
# 4 0.003012 0.000694 0.001708 0.039647 0.017811 -0.001691
# 5 0.004548 0.001385 0.003397 0.017811 0.053847 -0.002922
# 6 -0.001789 0.000993 0.001267 -0.001691 -0.002922 0.027236
#
#
# Mechanical properties :
#
#
# Convention : Reuss Voigt Hill
#
# Bulk Modulus (GPa) = 68.36103 80.07032 74.21568
# Shear Modulus (GPa) = 28.16099 32.80408 30.48254
#
# Velocity S-wave (km/s) = 3.64498 3.93400 3.79224
# Velocity P-wave (km/s) = 7.06866 7.64270 7.36128
#
# Compressibility (1/GPa) = 0.01462822
#
# Stress axis : x y z
#
# Youngs Moduli (GPa) = 101.10987 89.53730 81.78404
#
# Poissons Ratio (x) = 0.25322 0.29917
# Poissons Ratio (y) = 0.28594 0.23250
# Poissons Ratio (z) = 0.36986 0.25454
#
# Static dielectric constant tensor:
#      x y z
#    x 3.973400 -0.149670 -0.134790 
#    y -0.149670 3.960080 -0.090520 
#    z -0.134790 -0.090520 3.844490 
# 
# 
# High freq. dielectric constant tensor:
#      x y z
#    x 1.845810 -0.013910 -0.010980 
#    y -0.013910 1.830350 0.002810 
#    z -0.010980 0.002810 1.820070 
# 
# From -- ./inp_files/187508.got.cif
#   From: 2010.06.25/outbox.cif.g09.slc.cpg/sg2_94_cif.got.tgz:187508.got - 2010.06.27 13:26:56.
