data_PCOD8022862
_publ_section_title
;
Structure prediction by ZEFSAII (Michael W. Deem and Ramdas Pophale) SiO2 
 PCOD8022862
Probable space group: P -1
;
_chemical_formula_sum "Si O2"
_cell_formula_units_Z 16
_cell_length_a 9.598456
_cell_length_b 22.059752
_cell_length_c 8.500340
_cell_angle_alpha 32.953500
_cell_angle_beta 114.599636
_cell_angle_gamma 128.379824
_cell_volume 743.989983
_symmetry_space_group_name_H-M "P -1"
_symmetry_group_IT_number 2
_symmetry_cell_setting 'triclinic'
loop_
_space_group_symop_operation_xyz
x,y,z
-x,-y,-z
loop_
_atom_site_type_symbol
_atom_site_label
_atom_site_fract_x
_atom_site_fract_y
_atom_site_fract_z
Si Si1 0.210414 0.829446 0.242646
Si Si2 0.004995 0.530187 0.752930
Si Si3 0.601049 0.661212 0.361729
Si Si4 0.982695 0.294927 0.088754
Si Si5 0.444061 0.829158 0.881028
Si Si6 0.755481 0.585884 0.333907
Si Si7 0.943146 0.847399 0.300037
Si Si8 0.471039 0.017471 0.711513
O O1 0.153944 0.687333 0.453901
O O2 0.042724 0.826814 0.247111
O O3 0.362426 0.865246 0.367497
O O4 0.289663 0.939477 0.902876
O O5 0.815003 0.501246 0.652000
O O6 0.064386 0.440090 0.890161
O O7 0.000000 0.500000 0.000000
O O8 0.731659 0.679320 0.238807
O O9 0.440093 0.505069 0.652042
O O10 0.725802 0.741880 0.395069
O O11 0.470325 0.710362 0.151527
O O12 0.013541 0.196790 0.420477
O O13 0.767594 0.222084 0.122346
O O14 0.084236 0.318279 0.920314
O O15 0.522080 0.914414 0.893763
O O16 0.565257 0.921442 0.590544
O O17 0.000000 0.000000 0.000000
#
# Coordination Sequence:
#
# PCOD8022862 Si02
#       8
#     2   2   2   2   2   2   2   2
#     4  11  22  42  64  99 132 179 219 278 335 399
#     4  12  21  42  72 103 135 174 227 283 330 403
#     4  11  25  44  67  97 143 175 222 276 352 401
#     4  12  25  45  73 101 133 178 238 276 339 401
#     4  11  22  42  70 100 130 178 225 290 327 400
#     4  11  25  44  69 102 138 179 222 283 340 411
#     4  12  26  47  67  98 140 185 222 280 345 410
#     4  10  23  39  66  99 132 166 237 276 326 394
#
# _framework density 21.505665
#
# number of rings (size 3 to 8) (size 9 to 14) (size 15 to 20)
#    0.000    0.750    5.000    1.875    3.500    1.500 
#    0.000    1.250    0.000    0.000    0.000    0.000 
#    0.000    0.000    0.000    0.000    0.000    0.000 
#
# Total GULP energy -198309.303570 kJ/mol
# GULP energy per Si atom -12394.331473 kJ/mol
# Density = 2.145672 g / cm^3
# Si number density = 21.505665 Si / 1000 Ang^3
#
#
#
# Elastic Constant Matrix: (Units=GPa)
#
#
# Indices 1 2 3 4 5 6 
#
# 1 60.9609 6.8455 30.4505 13.9157 -8.8690 13.2895
# 2 6.8455 95.1221 24.4850 -7.8448 0.2045 19.2331
# 3 30.4505 24.4850 57.5151 1.7824 2.2233 17.0117
# 4 13.9157 -7.8448 1.7824 36.6975 -8.6752 2.5051
# 5 -8.8690 0.2045 2.2233 -8.6752 37.5060 -1.6626
# 6 13.2895 19.2331 17.0117 2.5051 -1.6626 27.6143
#
#
#
# Elastic Compliance Matrix: (Units=1/GPa)
#
#
# Indices 1 2 3 4 5 6 
#
# 1 0.026293 0.001873 -0.013261 -0.007399 0.005069 -0.004813
# 2 0.001873 0.013346 -0.004559 0.003126 0.001026 -0.007610
# 3 -0.013261 -0.004559 0.029079 0.002126 -0.004735 -0.008835
# 4 -0.007399 0.003126 0.002126 0.032072 0.005414 -0.002509
# 5 0.005069 0.001026 -0.004735 0.005414 0.029435 0.001044
# 6 -0.004813 -0.007610 -0.008835 -0.002509 0.001044 0.049562
#
#
# Mechanical properties :
#
#
# Convention : Reuss Voigt Hill
#
# Bulk Modulus (GPa) = 27.15623 37.46224 32.30923
# Shear Modulus (GPa) = 22.32590 30.48471 26.40530
#
# Velocity S-wave (km/s) = 3.22551 3.76908 3.50784
# Velocity P-wave (km/s) = 5.15042 6.03314 5.60917
#
# Compressibility (1/GPa) = 0.03682397
#
# Stress axis : x y z
#
# Youngs Moduli (GPa) = 38.03256 74.92999 34.38937
#
# Poissons Ratio (x) = -0.14036 0.45605
# Poissons Ratio (y) = -0.07125 0.15678
# Poissons Ratio (z) = 0.50436 0.34160
#
# Static dielectric constant tensor:
#      x y z
#    x 3.847850 -0.114950 0.008810 
#    y -0.114950 4.206340 -0.139330 
#    z 0.008810 -0.139330 3.859010 
# 
# 
# High freq. dielectric constant tensor:
#      x y z
#    x 1.833830 -0.004460 -0.004830 
#    y -0.004460 1.869720 -0.012880 
#    z -0.004830 -0.012880 1.830870 
# 
# From -- ./inp_files/225859.got.cif
#   From: 2010.06.25/outbox.cif.g09.slc.cpg/sg2_113_cif.got.tgz:225859.got - 2010.06.27 13:26:56.
