data_PCOD8022822
_publ_section_title
;
Structure prediction by ZEFSAII (Michael W. Deem and Ramdas Pophale) SiO2 
 PCOD8022822
Probable space group: P -1
;
_chemical_formula_sum "Si O2"
_cell_formula_units_Z 14
_cell_length_a 8.189878
_cell_length_b 21.516357
_cell_length_c 10.126752
_cell_angle_alpha 33.549578
_cell_angle_beta 46.604034
_cell_angle_gamma 42.757202
_cell_volume 655.980921
_symmetry_space_group_name_H-M "P -1"
_symmetry_group_IT_number 2
_symmetry_cell_setting 'triclinic'
loop_
_space_group_symop_operation_xyz
x,y,z
-x,-y,-z
loop_
_atom_site_type_symbol
_atom_site_label
_atom_site_fract_x
_atom_site_fract_y
_atom_site_fract_z
Si Si1 0.655554 0.222594 0.270889
Si Si2 0.429036 0.044939 0.813417
Si Si3 0.215799 0.475963 0.026080
Si Si4 0.647581 0.301042 0.413761
Si Si5 0.098724 0.778367 0.122920
Si Si6 0.092719 0.416084 0.472259
Si Si7 0.758854 0.122072 0.901228
O O1 0.593164 0.107057 0.545249
O O2 0.421108 0.337914 0.138916
O O3 0.763764 0.262108 0.271575
O O4 0.863197 0.176340 0.123820
O O5 0.150500 0.141271 0.806870
O O6 0.500000 0.000000 0.000000
O O7 0.456080 0.926535 0.918439
O O8 0.100709 0.496197 0.200326
O O9 0.340225 0.572696 0.768328
O O10 0.000000 0.500000 0.000000
O O11 0.365649 0.314827 0.532024
O O12 0.789400 0.195726 0.625955
O O13 0.302040 0.788308 0.094650
O O14 0.102107 0.643228 0.345949
O O15 0.000000 0.500000 0.500000
O O16 0.000000 0.000000 0.000000
#
# Coordination Sequence:
#
# PCOD8022822 Si02
#       7
#     2   2   2   2   2   2   2
#     4  11  23  41  66  94 123 167 214 256 314 384
#     4  11  21  44  65  89 129 169 213 259 311 367
#     4  11  23  39  62  93 130 162 203 268 320 370
#     4  11  21  41  64  90 128 167 210 258 316 376
#     4  11  22  40  65  95 128 160 213 262 315 367
#     4  11  21  39  64  93 127 165 208 257 315 385
#     4  10  23  39  64  89 127 169 205 264 313 361
#
# _framework density 21.342082999999999
#
# number of rings (size 3 to 8) (size 9 to 14) (size 15 to 20)
#    0.000    1.143    4.286    4.286    2.000    2.286 
#    0.000    4.286    0.000    0.000    0.000    0.000 
#    0.000    0.000    0.000    0.000    0.000    0.000 
#
# Total GULP energy -173533.554798 kJ/mol
# GULP energy per Si atom -12395.253914 kJ/mol
# Density = 2.129351 g / cm^3
# Si number density = 21.342083 Si / 1000 Ang^3
#
#
#
# Elastic Constant Matrix: (Units=GPa)
#
#
# Indices 1 2 3 4 5 6 
#
# 1 106.9454 26.6667 42.8858 -15.9915 0.6923 36.3719
# 2 26.6667 63.0491 25.9748 7.5613 -1.3206 32.0130
# 3 42.8858 25.9748 136.8068 -12.8884 -4.3758 9.8280
# 4 -15.9915 7.5613 -12.8884 39.8123 7.5150 -4.8238
# 5 0.6923 -1.3206 -4.3758 7.5150 51.1849 -10.6347
# 6 36.3719 32.0130 9.8280 -4.8238 -10.6347 36.7505
#
#
#
# Elastic Compliance Matrix: (Units=1/GPa)
#
#
# Indices 1 2 3 4 5 6 
#
# 1 0.018174 0.005335 -0.004988 0.003009 -0.005660 -0.022543
# 2 0.005335 0.037914 -0.007263 -0.011017 -0.006334 -0.039643
# 3 -0.004988 -0.007263 0.009943 0.003344 0.002254 0.009696
# 4 0.003009 -0.011017 0.003344 0.031110 -0.002733 0.009017
# 5 -0.005660 -0.006334 0.002254 -0.002733 0.023572 0.016979
# 6 -0.022543 -0.039643 0.009696 0.009017 0.016979 0.087558
#
#
# Mechanical properties :
#
#
# Convention : Reuss Voigt Hill
#
# Bulk Modulus (GPa) = 19.15805 55.31732 37.23769
# Shear Modulus (GPa) = 20.87664 39.63446 30.25555
#
# Velocity S-wave (km/s) = 3.13100 4.31409 3.76925
# Velocity P-wave (km/s) = 4.69755 7.12676 6.03563
#
# Compressibility (1/GPa) = 0.05219737
#
# Stress axis : x y z
#
# Youngs Moduli (GPa) = 55.02368 26.37576 100.57412
#
# Poissons Ratio (x) = -0.14072 0.50168
# Poissons Ratio (y) = -0.29356 0.73052
# Poissons Ratio (z) = 0.27447 0.19158
#
# Static dielectric constant tensor:
#      x y z
#    x 4.527740 0.538980 -0.246530 
#    y 0.538980 3.955800 -0.131940 
#    z -0.246530 -0.131940 4.186930 
# 
# 
# High freq. dielectric constant tensor:
#      x y z
#    x 1.843270 0.031680 -0.002810 
#    y 0.031680 1.815390 -0.009750 
#    z -0.002810 -0.009750 1.847490 
# 
# From -- ./inp_files/180905.got.cif
#   From: 2010.06.25/outbox.cif.g09.slc.cpg/sg2_91_cif.got.tgz:180905.got - 2010.06.27 13:26:56.
