data_PCOD8022908
_publ_section_title
;
Structure prediction by ZEFSAII (Michael W. Deem and Ramdas Pophale) SiO2 
 PCOD8022908
Probable space group: P -1
;
_chemical_formula_sum "Si O2"
_cell_formula_units_Z 16
_cell_length_a 8.346286
_cell_length_b 12.892886
_cell_length_c 13.880453
_cell_angle_alpha 32.030925
_cell_angle_beta 106.649779
_cell_angle_gamma 119.075541
_cell_volume 666.520078
_symmetry_space_group_name_H-M "P -1"
_symmetry_group_IT_number 2
_symmetry_cell_setting 'triclinic'
loop_
_space_group_symop_operation_xyz
x,y,z
-x,-y,-z
loop_
_atom_site_type_symbol
_atom_site_label
_atom_site_fract_x
_atom_site_fract_y
_atom_site_fract_z
Si Si1 0.118926 0.184306 0.300403
Si Si2 0.152120 0.096330 0.159234
Si Si3 0.839273 0.277613 0.086697
Si Si4 0.414334 0.218058 0.629723
Si Si5 0.170471 0.653562 0.478349
Si Si6 0.457190 0.597363 0.085417
Si Si7 0.409376 0.654603 0.247785
Si Si8 0.958594 0.342484 0.852471
O O1 0.116942 0.075319 0.283582
O O2 0.330157 0.328616 0.268706
O O3 0.009359 0.334148 0.149200
O O4 0.000000 0.000000 0.500000
O O5 0.173207 0.889060 0.290356
O O6 0.346064 0.326188 0.994209
O O7 0.995050 0.128898 0.043934
O O8 0.744536 0.012622 0.257617
O O9 0.667323 0.314988 0.065893
O O10 0.935282 0.422362 0.892333
O O11 0.624230 0.313852 0.543090
O O12 0.335599 0.393392 0.462230
O O13 0.429645 0.192150 0.768418
O O14 0.000000 0.500000 0.500000
O O15 0.129809 0.539948 0.666767
O O16 0.491391 0.702766 0.115509
O O17 0.240150 0.716878 0.187929
#
# Coordination Sequence:
#
# PCOD8022908 Si02
#       8
#     2   2   2   2   2   2   2   2
#     4  11  25  43  73 100 135 183 235 293 346 406
#     4  11  26  46  69 100 145 184 231 287 351 421
#     4  10  23  41  68  99 135 181 234 280 352 412
#     4  11  22  42  67 103 140 183 232 281 349 415
#     4  12  25  43  67 103 143 186 228 284 346 413
#     4  11  22  45  68  98 141 180 234 286 348 412
#     4  10  23  39  72  99 139 180 232 288 335 414
#     4  10  24  41  66  99 140 182 227 282 342 407
#
# _framework density 24.005277
#
# number of rings (size 3 to 8) (size 9 to 14) (size 15 to 20)
#    0.000    1.250    2.500    2.250    7.000    3.500 
#    0.000    0.625    0.000    0.000    0.000    0.000 
#    0.000    0.000    0.000    0.000    0.000    0.000 
#
# Total GULP energy -198320.904738 kJ/mol
# GULP energy per Si atom -12395.056546 kJ/mol
# Density = 2.395064 g / cm^3
# Si number density = 24.005277 Si / 1000 Ang^3
#
#
#
# Elastic Constant Matrix: (Units=GPa)
#
#
# Indices 1 2 3 4 5 6 
#
# 1 105.6768 28.4190 41.4755 12.8040 -8.1153 1.2252
# 2 28.4190 78.7136 26.6143 0.6602 -12.8907 5.6239
# 3 41.4755 26.6143 111.3941 12.0057 -9.9470 0.2659
# 4 12.8040 0.6602 12.0057 34.4914 -1.8081 4.5266
# 5 -8.1153 -12.8907 -9.9470 -1.8081 49.4215 -4.9835
# 6 1.2252 5.6239 0.2659 4.5266 -4.9835 23.2967
#
#
#
# Elastic Compliance Matrix: (Units=1/GPa)
#
#
# Indices 1 2 3 4 5 6 
#
# 1 0.012057 -0.003193 -0.003327 -0.003354 0.000448 0.000922
# 2 -0.003193 0.015366 -0.002483 0.002343 0.002728 -0.003385
# 3 -0.003327 -0.002483 0.011200 -0.002744 0.001103 0.001416
# 4 -0.003354 0.002343 -0.002744 0.032012 0.000016 -0.006574
# 5 0.000448 0.002728 0.001103 0.000016 0.021638 0.003931
# 6 0.000922 -0.003385 0.001416 -0.006574 0.003931 0.045795
#
#
# Mechanical properties :
#
#
# Convention : Reuss Voigt Hill
#
# Bulk Modulus (GPa) = 48.50428 54.31136 51.40782
# Shear Modulus (GPa) = 30.68489 34.72696 32.70593
#
# Velocity S-wave (km/s) = 3.57915 3.80760 3.69514
# Velocity P-wave (km/s) = 6.10982 6.48107 6.29818
#
# Compressibility (1/GPa) = 0.02061674
#
# Stress axis : x y z
#
# Youngs Moduli (GPa) = 82.93688 65.08060 89.28532
#
# Poissons Ratio (x) = 0.20778 0.29707
# Poissons Ratio (y) = 0.26479 0.22171
# Poissons Ratio (z) = 0.27595 0.16161
#
# Static dielectric constant tensor:
#      x y z
#    x 4.619670 0.052030 0.133950 
#    y 0.052030 4.316170 0.129080 
#    z 0.133950 0.129080 4.515780 
# 
# 
# High freq. dielectric constant tensor:
#      x y z
#    x 1.960950 0.006820 0.004820 
#    y 0.006820 1.948950 0.003830 
#    z 0.004820 0.003830 1.958640 
# 
# From -- ./inp_files/505102.got.cif
#   From: 2010.06.25/outbox.cif.g09.slc.cpg/sg2_253_cif.got.tgz:505102.got - 2010.06.27 13:26:56.
