data_PCOD8022645
_publ_section_title
;
Structure prediction by ZEFSAII (Michael W. Deem and Ramdas Pophale) SiO2 
 PCOD8022645
Probable space group: P -1
;
_chemical_formula_sum "Si O2"
_cell_formula_units_Z 16
_cell_length_a 19.809185
_cell_length_b 9.023344
_cell_length_c 11.794096
_cell_angle_alpha 48.319891
_cell_angle_beta 142.698672
_cell_angle_gamma 104.053911
_cell_volume 739.314720
_symmetry_space_group_name_H-M "P -1"
_symmetry_group_IT_number 2
_symmetry_cell_setting 'triclinic'
loop_
_space_group_symop_operation_xyz
x,y,z
-x,-y,-z
loop_
_atom_site_type_symbol
_atom_site_label
_atom_site_fract_x
_atom_site_fract_y
_atom_site_fract_z
Si Si1 0.763770 0.397001 0.858960
Si Si2 0.983454 0.609510 0.725070
Si Si3 0.168727 0.683018 0.602136
Si Si4 0.838238 0.006698 0.984722
Si Si5 0.521015 0.127276 0.860249
Si Si6 0.758374 0.791730 0.158401
Si Si7 0.740571 0.169746 0.158041
Si Si8 0.105955 0.052740 0.155689
O O1 0.621072 0.685102 0.499809
O O2 0.743928 0.227544 0.999898
O O3 0.876231 0.413269 0.063506
O O4 0.810752 0.260589 0.867382
O O5 0.920776 0.654906 0.490954
O O6 0.858334 0.863642 0.499834
O O7 0.024912 0.337461 0.954751
O O8 0.264381 0.402913 0.819674
O O9 0.226515 0.668212 0.811567
O O10 0.007620 0.780276 0.342430
O O11 0.194724 0.856267 0.476855
O O12 0.736403 0.967892 0.935624
O O13 0.797149 0.017115 0.791645
O O14 0.580365 0.267338 0.922198
O O15 0.500000 0.000000 0.000000
O O16 0.646771 0.925949 0.043960
O O17 0.000000 0.000000 0.000000
#
# Coordination Sequence:
#
# PCOD8022645 Si02
#       8
#     2   2   2   2   2   2   2   2
#     4  12  24  42  71 100 134 174 230 272 336 392
#     4  11  21  39  69 102 134 166 228 276 331 388
#     4  11  23  41  66 105 136 171 219 280 335 393
#     4  11  21  38  69 101 135 171 215 281 333 392
#     4  11  28  47  65  94 138 184 221 275 332 400
#     4  11  23  43  69  96 137 175 226 269 334 397
#     4  11  24  43  70  99 131 175 228 279 328 394
#     4  10  23  37  59 103 141 174 208 272 345 389
#
# _framework density 21.641663000000001
#
# number of rings (size 3 to 8) (size 9 to 14) (size 15 to 20)
#    0.000    1.000    6.250    1.875    5.250    1.500 
#    0.000    2.500    0.000    0.000    0.000    0.000 
#    0.000    0.000    0.000    0.000    0.000    0.000 
#
# Total GULP energy -198226.580995 kJ/mol
# GULP energy per Si atom -12389.161312 kJ/mol
# Density = 2.159241 g / cm^3
# Si number density = 21.641663 Si / 1000 Ang^3
#
#
#
# Elastic Constant Matrix: (Units=GPa)
#
#
# Indices 1 2 3 4 5 6 
#
# 1 128.1805 26.5038 39.7809 -8.6201 -2.2609 4.1625
# 2 26.5038 108.8313 46.4774 -13.3080 0.2006 0.2903
# 3 39.7809 46.4774 83.0944 2.3009 -0.2725 3.0863
# 4 -8.6201 -13.3080 2.3009 29.0479 6.4030 -2.5681
# 5 -2.2609 0.2006 -0.2725 6.4030 24.0770 -0.0887
# 6 4.1625 0.2903 3.0863 -2.5681 -0.0887 33.6038
#
#
#
# Elastic Compliance Matrix: (Units=1/GPa)
#
#
# Indices 1 2 3 4 5 6 
#
# 1 0.009454 0.000062 -0.004630 0.003158 -0.000007 -0.000505
# 2 0.000062 0.013392 -0.007773 0.007343 -0.002142 0.001146
# 3 -0.004630 -0.007773 0.018856 -0.006943 0.001684 -0.001617
# 4 0.003158 0.007343 -0.006943 0.041999 -0.011000 0.003364
# 5 -0.000007 -0.002142 0.001684 -0.011000 0.044492 -0.000859
# 6 -0.000505 0.001146 -0.001617 0.003364 -0.000859 0.030215
#
#
# Mechanical properties :
#
#
# Convention : Reuss Voigt Hill
#
# Bulk Modulus (GPa) = 58.74984 60.62559 59.68771
# Shear Modulus (GPa) = 26.48829 31.16868 28.82848
#
# Velocity S-wave (km/s) = 3.50229 3.79914 3.65373
# Velocity P-wave (km/s) = 6.60002 6.87886 6.74089
#
# Compressibility (1/GPa) = 0.01702132
#
# Stress axis : x y z
#
# Youngs Moduli (GPa) = 105.77476 74.67272 53.03217
#
# Poissons Ratio (x) = -0.00465 0.24552
# Poissons Ratio (y) = -0.00658 0.41223
# Poissons Ratio (z) = 0.48969 0.58044
#
# Static dielectric constant tensor:
#      x y z
#    x 4.254260 -0.162200 -0.218840 
#    y -0.162200 4.115980 0.023170 
#    z -0.218840 0.023170 3.749150 
# 
# 
# High freq. dielectric constant tensor:
#      x y z
#    x 1.845790 -0.002910 -0.012860 
#    y -0.002910 1.864690 -0.007940 
#    z -0.012860 -0.007940 1.814110 
# 
# From -- ./inp_files/461923.got.cif
#   From: 2010.06.25/outbox.cif.g09.slc.cpg/sg2_231_cif.got.tgz:461923.got - 2010.06.27 13:26:56.
