data_PCOD8022750
_publ_section_title
;
Structure prediction by ZEFSAII (Michael W. Deem and Ramdas Pophale) SiO2 
 PCOD8022750
Probable space group: P -1
;
_chemical_formula_sum "Si O2"
_cell_formula_units_Z 16
_cell_length_a 9.630057
_cell_length_b 9.474949
_cell_length_c 15.170808
_cell_angle_alpha 59.561807
_cell_angle_beta 96.957855
_cell_angle_gamma 137.649918
_cell_volume 723.526410
_symmetry_space_group_name_H-M "P -1"
_symmetry_group_IT_number 2
_symmetry_cell_setting 'triclinic'
loop_
_space_group_symop_operation_xyz
x,y,z
-x,-y,-z
loop_
_atom_site_type_symbol
_atom_site_label
_atom_site_fract_x
_atom_site_fract_y
_atom_site_fract_z
Si Si1 0.773324 0.562385 0.731385
Si Si2 0.981161 0.911568 0.360607
Si Si3 0.566311 0.226864 0.982376
Si Si4 0.097290 0.917580 0.001557
Si Si5 0.731326 0.943697 0.221679
Si Si6 0.281259 0.915593 0.347518
Si Si7 0.737212 0.309727 0.163875
Si Si8 0.974204 0.623611 0.568564
O O1 0.765171 0.494607 0.853771
O O2 0.977878 0.658923 0.662789
O O3 0.836390 0.810870 0.658708
O O4 0.535633 0.308981 0.743193
O O5 0.792345 0.844969 0.318160
O O6 0.855935 0.672547 0.495707
O O7 0.141343 0.949204 0.295766
O O8 0.654681 0.283464 0.068775
O O9 0.500000 0.000000 0.000000
O O10 0.343246 0.134425 0.998776
O O11 0.949517 0.620127 0.110825
O O12 0.116543 0.930364 0.893687
O O13 0.000000 0.000000 0.000000
O O14 0.792413 0.167232 0.208830
O O15 0.187287 0.680688 0.357503
O O16 0.224303 0.830403 0.475408
O O17 0.549479 0.178068 0.265922
#
# Coordination Sequence:
#
# PCOD8022750 Si02
#       8
#     2   2   2   2   2   2   2   2
#     4  11  21  40  66  92 125 163 213 253 314 373
#     4  10  23  38  67  91 125 163 209 262 313 361
#     4  11  23  41  67  93 127 174 205 251 319 379
#     4  11  27  40  61  98 131 162 218 262 303 379
#     4  11  24  41  61  97 128 165 210 256 312 383
#     4   9  21  40  67  90 123 171 206 254 322 367
#     4  12  23  44  67  89 135 171 204 258 318 381
#     4   9  19  42  65  92 122 165 213 258 310 375
#
# _framework density 22.113913
#
# number of rings (size 3 to 8) (size 9 to 14) (size 15 to 20)
#    0.750    0.750    3.750    1.500    7.000    1.000 
#    0.000    0.000    0.000    2.250    0.000    0.000 
#    0.000    0.000    0.000    0.000    0.000    0.000 
#
# Total GULP energy -198248.070245 kJ/mol
# GULP energy per Si atom -12390.504390 kJ/mol
# Density = 2.206358 g / cm^3
# Si number density = 22.113913 Si / 1000 Ang^3
#
#
#
# Elastic Constant Matrix: (Units=GPa)
#
#
# Indices 1 2 3 4 5 6 
#
# 1 100.1657 19.0287 33.3491 1.4927 -6.0196 -23.0341
# 2 19.0287 60.2467 31.9535 -11.8427 0.4588 -17.6402
# 3 33.3491 31.9535 88.7265 7.0257 -30.3594 -13.5593
# 4 1.4927 -11.8427 7.0257 18.2968 -10.5643 8.3683
# 5 -6.0196 0.4588 -30.3594 -10.5643 33.6415 -8.7736
# 6 -23.0341 -17.6402 -13.5593 8.3683 -8.7736 32.2996
#
#
#
# Elastic Compliance Matrix: (Units=1/GPa)
#
#
# Indices 1 2 3 4 5 6 
#
# 1 0.013280 -0.001056 -0.002379 -0.004389 0.001314 0.009389
# 2 -0.001056 0.028232 -0.012560 0.018749 -0.005207 0.003121
# 3 -0.002379 -0.012560 0.028036 -0.009913 0.025229 0.012635
# 4 -0.004389 0.018749 -0.009913 0.085524 0.012765 -0.015742
# 5 0.001314 -0.005207 0.025229 0.012765 0.062647 0.022394
# 6 0.009389 0.003121 0.012635 -0.015742 0.022394 0.054826
#
#
# Mechanical properties :
#
#
# Convention : Reuss Voigt Hill
#
# Bulk Modulus (GPa) = 26.62518 46.42239 36.52379
# Shear Modulus (GPa) = 15.77013 27.83475 21.80244
#
# Velocity S-wave (km/s) = 2.67335 3.55166 3.14334
# Velocity P-wave (km/s) = 4.64707 6.15281 5.45217
#
# Compressibility (1/GPa) = 0.03755843
#
# Stress axis : x y z
#
# Youngs Moduli (GPa) = 75.30376 35.42023 35.66817
#
# Poissons Ratio (x) = 0.03741 0.08485
# Poissons Ratio (y) = 0.07954 0.44798
# Poissons Ratio (z) = 0.17915 0.44486
#
# Static dielectric constant tensor:
#      x y z
#    x 4.053040 -0.161690 -0.103640 
#    y -0.161690 3.897210 -0.094520 
#    z -0.103640 -0.094520 4.336150 
# 
# 
# High freq. dielectric constant tensor:
#      x y z
#    x 1.870770 -0.021490 -0.005630 
#    y -0.021490 1.852210 -0.010240 
#    z -0.005630 -0.010240 1.880480 
# 
# From -- ./inp_files/556083.got.cif
#   From: 2010.06.25/outbox.cif.g09.slc.cpg/sg2_279_cif.got.tgz:556083.got - 2010.06.27 13:26:56.
