data_PCOD8022334
_publ_section_title
;
Structure prediction by ZEFSAII (Michael W. Deem and Ramdas Pophale) SiO2 
 PCOD8022334
Probable space group: P -1
;
_chemical_formula_sum "Si O2"
_cell_formula_units_Z 12
_cell_length_a 9.525978
_cell_length_b 6.961039
_cell_length_c 14.176445
_cell_angle_alpha 72.618088
_cell_angle_beta 36.610701
_cell_angle_gamma 75.468687
_cell_volume 534.919252
_symmetry_space_group_name_H-M "P -1"
_symmetry_group_IT_number 2
_symmetry_cell_setting 'triclinic'
loop_
_space_group_symop_operation_xyz
x,y,z
-x,-y,-z
loop_
_atom_site_type_symbol
_atom_site_label
_atom_site_fract_x
_atom_site_fract_y
_atom_site_fract_z
Si Si1 0.353953 0.256576 0.428768
Si Si2 0.865708 0.383885 0.169818
Si Si3 0.024202 0.367670 0.746018
Si Si4 0.354377 0.942790 0.326887
Si Si5 0.934149 0.681262 0.598273
Si Si6 0.136884 0.015929 0.021470
O O1 0.599563 0.366824 0.281425
O O2 0.240739 0.251039 0.594259
O O3 0.169073 0.381417 0.440612
O O4 0.392722 0.030117 0.399973
O O5 0.864915 0.501873 0.250446
O O6 0.995941 0.167764 0.144510
O O7 0.000000 0.500000 0.000000
O O8 0.882977 0.510770 0.728082
O O9 0.846137 0.203528 0.906906
O O10 0.212807 0.734596 0.437282
O O11 0.205657 0.113452 0.323585
O O12 0.603058 0.901155 0.148538
O O13 0.000000 0.000000 0.000000
#
# Coordination Sequence:
#
# PCOD8022334 Si02
#       6
#     2   2   2   2   2   2
#     4  10  22  45  71  97 138 174 227 284 327 406
#     4  12  26  45  68 100 137 183 224 278 339 401
#     4  12  26  41  71 108 131 180 230 272 344 402
#     4   9  21  44  75  94 138 180 223 277 340 398
#     4   9  22  45  72 103 132 178 229 276 341 398
#     4  12  24  46  66  99 144 179 221 284 341 393
#
# _framework density 22.433292000000002
#
# number of rings (size 3 to 8) (size 9 to 14) (size 15 to 20)
#    1.000    0.333    3.333    1.000    4.667    2.667 
#    0.000    1.667    0.000    0.000    0.000    0.000 
#    0.000    0.000    0.000    0.000    0.000    0.000 
#
# Total GULP energy -148793.336242 kJ/mol
# GULP energy per Si atom -12399.444687 kJ/mol
# Density = 2.238223 g / cm^3
# Si number density = 22.433292 Si / 1000 Ang^3
#
#
#
# Elastic Constant Matrix: (Units=GPa)
#
#
# Indices 1 2 3 4 5 6 
#
# 1 121.6036 39.3279 61.2273 1.9107 -2.5093 19.4920
# 2 39.3279 85.4993 38.9638 -7.3670 6.9548 8.4289
# 3 61.2273 38.9638 118.1220 9.1574 -9.8676 0.7367
# 4 1.9107 -7.3670 9.1574 38.8972 -5.1220 7.8845
# 5 -2.5093 6.9548 -9.8676 -5.1220 42.3830 1.4812
# 6 19.4920 8.4289 0.7367 7.8845 1.4812 39.7027
#
#
#
# Elastic Compliance Matrix: (Units=1/GPa)
#
#
# Indices 1 2 3 4 5 6 
#
# 1 0.012998 -0.002551 -0.005961 0.001532 0.000197 -0.006041
# 2 -0.002551 0.015810 -0.004475 0.004315 -0.003169 -0.002760
# 3 -0.005961 -0.004475 0.013574 -0.004256 0.002875 0.004362
# 4 0.001532 0.004315 -0.004256 0.029258 0.002189 -0.007481
# 5 0.000197 -0.003169 0.002875 0.002189 0.025090 -0.000848
# 6 -0.006041 -0.002760 0.004362 -0.007481 -0.000848 0.030175
#
#
# Mechanical properties :
#
#
# Convention : Reuss Voigt Hill
#
# Bulk Modulus (GPa) = 60.93939 67.14031 64.03985
# Shear Modulus (GPa) = 31.57602 36.57698 34.07650
#
# Velocity S-wave (km/s) = 3.75581 4.04230 3.90168
# Velocity P-wave (km/s) = 6.78467 7.19588 6.99330
#
# Compressibility (1/GPa) = 0.01640975
#
# Stress axis : x y z
#
# Youngs Moduli (GPa) = 76.93625 63.24916 73.66756
#
# Poissons Ratio (x) = 0.16134 0.43910
# Poissons Ratio (y) = 0.19625 0.32967
# Poissons Ratio (z) = 0.45858 0.28305
#
# Static dielectric constant tensor:
#      x y z
#    x 4.032120 0.181460 0.008400 
#    y 0.181460 4.305220 0.088100 
#    z 0.008400 0.088100 3.991800 
# 
# 
# High freq. dielectric constant tensor:
#      x y z
#    x 1.872820 0.011770 -0.007730 
#    y 0.011770 1.898500 0.004670 
#    z -0.007730 0.004670 1.877680 
# 
# From -- ./inp_files/490519.got.cif
#   From: 2010.06.25/outbox.cif.g09.slc.cpg/sg2_246_cif.got.tgz:490519.got - 2010.06.27 13:26:56.
