data_PCOD8022084
_publ_section_title
;
Structure prediction by ZEFSAII (Michael W. Deem and Ramdas Pophale) SiO2 
 PCOD8022084
Probable space group: P -1
;
_chemical_formula_sum "Si O2"
_cell_formula_units_Z 14
_cell_length_a 15.433344
_cell_length_b 15.003677
_cell_length_c 9.115838
_cell_angle_alpha 68.161093
_cell_angle_beta 129.625275
_cell_angle_gamma 152.901486
_cell_volume 614.615707
_symmetry_space_group_name_H-M "P -1"
_symmetry_group_IT_number 2
_symmetry_cell_setting 'triclinic'
loop_
_space_group_symop_operation_xyz
x,y,z
-x,-y,-z
loop_
_atom_site_type_symbol
_atom_site_label
_atom_site_fract_x
_atom_site_fract_y
_atom_site_fract_z
Si Si1 0.779928 0.502844 0.964905
Si Si2 0.705394 0.759990 0.255908
Si Si3 0.404506 0.192845 0.151909
Si Si4 0.188079 0.916099 0.349809
Si Si5 0.307311 0.749839 0.123577
Si Si6 0.133864 0.315429 0.573726
Si Si7 0.192277 0.869036 0.931544
O O1 0.532251 0.382147 0.810157
O O2 0.655948 0.297467 0.942239
O O3 0.917624 0.638310 0.875198
O O4 0.012041 0.690601 0.227862
O O5 0.652524 0.604413 0.277907
O O6 0.717814 0.816992 0.073174
O O7 0.000000 0.000000 0.500000
O O8 0.706276 0.459125 0.371977
O O9 0.217944 0.023892 0.195599
O O10 0.419184 0.108896 0.117652
O O11 0.025254 0.836125 0.356946
O O12 0.483512 0.106897 0.604263
O O13 0.341885 0.887783 0.028269
O O14 0.000000 0.500000 0.000000
O O15 0.903533 0.146632 0.303701
#
# Coordination Sequence:
#
# PCOD8022084 Si02
#       7
#     2   2   2   2   2   2   2
#     4  10  23  45  68 102 136 181 226 280 342 404
#     4  12  24  45  71  99 143 177 227 286 333 406
#     4  11  24  45  66 101 136 177 228 275 337 407
#     4  11  25  44  71 101 140 178 227 278 343 402
#     4  10  22  44  74  99 137 179 226 284 338 400
#     4  12  25  45  69 102 140 181 223 282 335 405
#     4  10  24  45  69 100 137 178 230 278 341 401
#
# _framework density 22.778462999999999
#
# number of rings (size 3 to 8) (size 9 to 14) (size 15 to 20)
#    0.000    1.143    2.857    3.000    0.000    8.000 
#    2.571    1.429    0.000    0.000    0.000    0.000 
#    0.000    0.000    0.000    0.000    0.000    0.000 
#
# Total GULP energy -173560.383009 kJ/mol
# GULP energy per Si atom -12397.170215 kJ/mol
# Density = 2.272662 g / cm^3
# Si number density = 22.778463 Si / 1000 Ang^3
#
#
#
# Elastic Constant Matrix: (Units=GPa)
#
#
# Indices 1 2 3 4 5 6 
#
# 1 160.8288 70.5801 65.3616 -1.8151 -3.6067 -14.2582
# 2 70.5801 80.7089 31.7842 2.1640 -0.5645 -16.8688
# 3 65.3616 31.7842 117.5087 13.6564 -3.2757 -6.7016
# 4 -1.8151 2.1640 13.6564 48.1800 -1.1967 -3.3858
# 5 -3.6067 -0.5645 -3.2757 -1.1967 33.0899 -7.8922
# 6 -14.2582 -16.8688 -6.7016 -3.3858 -7.8922 40.7548
#
#
#
# Elastic Compliance Matrix: (Units=1/GPa)
#
#
# Indices 1 2 3 4 5 6 
#
# 1 0.011899 -0.008649 -0.004495 0.002144 0.000825 0.000182
# 2 -0.008649 0.021412 -0.000546 -0.000705 0.000734 0.005830
# 3 -0.004495 -0.000546 0.011564 -0.003416 0.000502 -0.000083
# 4 0.002144 -0.000705 -0.003416 0.022001 0.001143 0.001946
# 5 0.000825 0.000734 0.000502 0.001143 0.032080 0.006982
# 6 0.000182 0.005830 -0.000083 0.001946 0.006982 0.028514
#
#
# Mechanical properties :
#
#
# Convention : Reuss Voigt Hill
#
# Bulk Modulus (GPa) = 57.15933 77.16648 67.16291
# Shear Modulus (GPa) = 31.11754 37.15963 34.13859
#
# Velocity S-wave (km/s) = 3.70008 4.04338 3.87553
# Velocity P-wave (km/s) = 6.58803 7.46653 7.04100
#
# Compressibility (1/GPa) = 0.01749496
#
# Stress axis : x y z
#
# Youngs Moduli (GPa) = 84.03917 46.70361 86.47519
#
# Poissons Ratio (x) = 0.40396 0.38870
# Poissons Ratio (y) = 0.72689 0.04718
# Poissons Ratio (z) = 0.37775 0.02548
#
# Static dielectric constant tensor:
#      x y z
#    x 4.719800 -0.369650 -0.159750 
#    y -0.369650 4.291310 0.072070 
#    z -0.159750 0.072070 4.140670 
# 
# 
# High freq. dielectric constant tensor:
#      x y z
#    x 1.904350 -0.009450 -0.020840 
#    y -0.009450 1.903950 0.010720 
#    z -0.020840 0.010720 1.896790 
# 
# From -- ./inp_files/315003.got.cif
#   From: 2010.06.25/outbox.cif.g09.slc.cpg/sg2_158_cif.got.tgz:315003.got - 2010.06.27 13:26:56.
