data_PCOD8022725
_publ_section_title
;
Structure prediction by ZEFSAII (Michael W. Deem and Ramdas Pophale) SiO2 
 PCOD8022725
Probable space group: P -1
;
_chemical_formula_sum "Si O2"
_cell_formula_units_Z 16
_cell_length_a 12.444579
_cell_length_b 7.885498
_cell_length_c 18.797416
_cell_angle_alpha 72.682593
_cell_angle_beta 35.044826
_cell_angle_gamma 49.662824
_cell_volume 684.325329
_symmetry_space_group_name_H-M "P -1"
_symmetry_group_IT_number 2
_symmetry_cell_setting 'triclinic'
loop_
_space_group_symop_operation_xyz
x,y,z
-x,-y,-z
loop_
_atom_site_type_symbol
_atom_site_label
_atom_site_fract_x
_atom_site_fract_y
_atom_site_fract_z
Si Si1 0.162992 0.529429 0.561428
Si Si2 0.873110 0.692635 0.945636
Si Si3 0.918026 0.465335 0.816479
Si Si4 0.311631 0.861464 0.099185
Si Si5 0.252228 0.939644 0.642975
Si Si6 0.417665 0.259253 0.771143
Si Si7 0.790008 0.856812 0.503788
Si Si8 0.173725 0.892759 0.327957
O O1 0.483741 0.342059 0.431670
O O2 0.053337 0.799574 0.563770
O O3 0.976848 0.602281 0.721185
O O4 0.138499 0.394204 0.529487
O O5 0.917350 0.486766 0.899335
O O6 0.715309 0.925324 0.946015
O O7 0.177764 0.539102 0.826748
O O8 0.692426 0.792279 0.100926
O O9 0.193838 0.160010 0.689820
O O10 0.620463 0.582448 0.940489
O O11 0.040748 0.954985 0.203822
O O12 0.319612 0.854704 0.181096
O O13 0.324212 0.938294 0.523184
O O14 0.566492 0.017047 0.667537
O O15 0.615796 0.264718 0.700288
O O16 0.062264 0.770202 0.395147
#
# Coordination Sequence:
#
# PCOD8022725 Si02
#       8
#     2   2   2   2   2   2   2   2
#     4  11  22  40  67  98 129 167 216 269 321 378
#     4  11  22  37  68  89 125 171 212 262 318 387
#     4  11  19  40  65  94 131 162 213 271 324 376
#     4  11  22  39  66 100 122 164 222 270 316 378
#     4  10  23  38  64 100 127 163 211 278 324 367
#     4  11  23  40  59  93 132 171 209 255 327 389
#     4  10  23  40  62  92 130 172 205 260 325 382
#     4  11  23  40  68  96 128 167 218 267 319 379
#
# _framework density 23.380692
#
# number of rings (size 3 to 8) (size 9 to 14) (size 15 to 20)
#    0.000    1.250    2.500    4.875    1.750    1.500 
#    0.000    0.000    2.750    2.250    0.000    0.000 
#    0.000    0.000    0.000    0.000    0.000    0.000 
#
# Total GULP energy -198224.436057 kJ/mol
# GULP energy per Si atom -12389.027254 kJ/mol
# Density = 2.332748 g / cm^3
# Si number density = 23.380692 Si / 1000 Ang^3
#
#
#
# Elastic Constant Matrix: (Units=GPa)
#
#
# Indices 1 2 3 4 5 6 
#
# 1 120.5696 12.5220 51.5908 7.5535 -10.7432 -3.8159
# 2 12.5220 17.4286 12.8322 5.2848 -7.8476 -2.5502
# 3 51.5908 12.8322 139.3840 1.5705 2.7456 -12.0117
# 4 7.5535 5.2848 1.5705 21.2173 -11.4084 -1.3528
# 5 -10.7432 -7.8476 2.7456 -11.4084 49.4391 2.7972
# 6 -3.8159 -2.5502 -12.0117 -1.3528 2.7972 24.4484
#
#
#
# Elastic Compliance Matrix: (Units=1/GPa)
#
#
# Indices 1 2 3 4 5 6 
#
# 1 0.010443 -0.003758 -0.003598 -0.001753 0.001514 -0.000800
# 2 -0.003758 0.071220 -0.004944 -0.011591 0.007926 0.002865
# 3 -0.003598 -0.004944 0.009319 0.000946 -0.002081 0.003791
# 4 -0.001753 -0.011591 0.000946 0.056374 0.010686 0.000879
# 5 0.001514 0.007926 -0.002081 0.010686 0.024518 -0.002173
# 6 -0.000800 0.002865 0.003791 0.000879 -0.002173 0.043236
#
#
# Mechanical properties :
#
#
# Convention : Reuss Voigt Hill
#
# Bulk Modulus (GPa) = 15.06470 47.91914 31.49192
# Shear Modulus (GPa) = 19.09567 32.38344 25.73956
#
# Velocity S-wave (km/s) = 2.86095 3.72566 3.32156
# Velocity P-wave (km/s) = 4.16780 6.24877 5.31120
#
# Compressibility (1/GPa) = 0.06638033
#
# Stress axis : x y z
#
# Youngs Moduli (GPa) = 95.75456 14.04097 107.31223
#
# Poissons Ratio (x) = 0.05276 0.38616
# Poissons Ratio (y) = 0.35984 0.53060
# Poissons Ratio (z) = 0.34457 0.06943
#
# Static dielectric constant tensor:
#      x y z
#    x 4.413220 -0.118340 -0.030740 
#    y -0.118340 3.814690 0.057270 
#    z -0.030740 0.057270 4.435290 
# 
# 
# High freq. dielectric constant tensor:
#      x y z
#    x 1.934040 -0.011520 -0.004130 
#    y -0.011520 1.886630 0.001910 
#    z -0.004130 0.001910 1.947840 
# 
# From -- ./inp_files/259434.got.cif
#   From: 2010.06.25/outbox.cif.g09.slc.cpg/sg2_130_cif.got.tgz:259434.got - 2010.06.27 13:26:56.
