data_PCOD8022595
_publ_section_title
;
Structure prediction by ZEFSAII (Michael W. Deem and Ramdas Pophale) SiO2 
 PCOD8022595
Probable space group: P -1
;
_chemical_formula_sum "Si O2"
_cell_formula_units_Z 16
_cell_length_a 15.020975
_cell_length_b 9.225249
_cell_length_c 9.256549
_cell_angle_alpha 33.554640
_cell_angle_beta 56.695253
_cell_angle_gamma 65.401416
_cell_volume 590.169944
_symmetry_space_group_name_H-M "P -1"
_symmetry_group_IT_number 2
_symmetry_cell_setting 'triclinic'
loop_
_space_group_symop_operation_xyz
x,y,z
-x,-y,-z
loop_
_atom_site_type_symbol
_atom_site_label
_atom_site_fract_x
_atom_site_fract_y
_atom_site_fract_z
Si Si1 0.233293 0.902443 0.760704
Si Si2 0.229887 0.559708 0.515269
Si Si3 0.942780 0.802346 0.877419
Si Si4 0.084731 0.738596 0.271596
Si Si5 0.546648 0.022301 0.782899
Si Si6 0.165183 0.927110 0.490587
Si Si7 0.615804 0.473939 0.150005
Si Si8 0.600049 0.785189 0.456409
O O1 0.214615 0.020096 0.521778
O O2 0.279102 0.613742 0.951976
O O3 0.329171 0.101912 0.568883
O O4 0.125317 0.893802 0.959873
O O5 0.198026 0.658684 0.302713
O O6 0.249808 0.789734 0.427035
O O7 0.332545 0.397684 0.553591
O O8 0.120046 0.393440 0.795440
O O9 0.965403 0.079482 0.715335
O O10 0.874116 0.831971 0.767242
O O11 0.060047 0.720971 0.792980
O O12 0.000000 0.500000 0.500000
O O13 0.608685 0.307099 0.448375
O O14 0.442939 0.985022 0.797965
O O15 0.627157 0.789589 0.894684
O O16 0.500000 0.000000 0.000000
O O17 0.502860 0.388581 0.240201
#
# Coordination Sequence:
#
# PCOD8022595 Si02
#       8
#     2   2   2   2   2   2   2   2
#     4  12  25  47  69 113 141 198 246 312 378 451
#     4  11  23  44  70 102 137 193 238 300 370 452
#     4  10  22  48  67  98 143 188 239 308 369 443
#     4  11  26  43  71 105 145 191 245 309 381 453
#     4  10  24  46  75 106 153 202 249 308 382 441
#     4  10  25  41  73 100 141 182 252 297 376 435
#     4  10  26  46  74 107 153 197 251 313 368 447
#     4  10  26  43  73 101 149 194 246 306 370 449
#
# _framework density 27.110837
#
# number of rings (size 3 to 8) (size 9 to 14) (size 15 to 20)
#    0.750    0.750    1.250    1.875    5.250    5.500 
#    0.000    0.000    0.000    0.000    0.000    0.000 
#    0.000    0.000    0.000    0.000    0.000    0.000 
#
# Total GULP energy -198272.111484 kJ/mol
# GULP energy per Si atom -12392.006968 kJ/mol
# Density = 2.704913 g / cm^3
# Si number density = 27.110837 Si / 1000 Ang^3
#
#
#
# Elastic Constant Matrix: (Units=GPa)
#
#
# Indices 1 2 3 4 5 6 
#
# 1 78.4796 31.1266 11.2621 17.9821 27.9196 5.3648
# 2 31.1266 111.2921 19.1554 16.7820 32.0091 -7.6515
# 3 11.2621 19.1554 77.8864 4.6791 14.6440 16.3859
# 4 17.9821 16.7820 4.6791 40.1371 -5.5729 7.3898
# 5 27.9196 32.0091 14.6440 -5.5729 37.0475 7.7575
# 6 5.3648 -7.6515 16.3859 7.3898 7.7575 54.2787
#
#
#
# Elastic Compliance Matrix: (Units=1/GPa)
#
#
# Indices 1 2 3 4 5 6 
#
# 1 0.022975 0.002491 0.000555 -0.015132 -0.022634 0.003208
# 2 0.002491 0.015928 -0.001584 -0.011320 -0.018099 0.006605
# 3 0.000555 -0.001584 0.014861 -0.001175 -0.004264 -0.003995
# 4 -0.015132 -0.011320 -0.001175 0.042557 0.030112 -0.009843
# 5 -0.022634 -0.018099 -0.004264 0.030112 0.068610 -0.012932
# 6 0.003208 0.006605 -0.003995 -0.009843 -0.012932 0.023432
#
#
# Mechanical properties :
#
#
# Convention : Reuss Voigt Hill
#
# Bulk Modulus (GPa) = 17.64055 43.41626 30.52840
# Shear Modulus (GPa) = 24.46961 40.03358 32.25160
#
# Velocity S-wave (km/s) = 3.00755 3.84691 3.45283
# Velocity P-wave (km/s) = 4.31062 5.98170 5.21355
#
# Compressibility (1/GPa) = 0.05668759
#
# Stress axis : x y z
#
# Youngs Moduli (GPa) = 43.52626 62.78317 67.28833
#
# Poissons Ratio (x) = -0.15639 -0.03735
# Poissons Ratio (y) = -0.10842 0.10660
# Poissons Ratio (z) = -0.02416 0.09946
#
# Static dielectric constant tensor:
#      x y z
#    x 4.972140 -0.256540 0.163080 
#    y -0.256540 5.171160 0.035220 
#    z 0.163080 0.035220 4.658430 
# 
# 
# High freq. dielectric constant tensor:
#      x y z
#    x 2.102140 -0.009650 0.005730 
#    y -0.009650 2.091620 0.014310 
#    z 0.005730 0.014310 2.079980 
# 
# From -- ./inp_files/297242.got.cif
#   From: 2010.06.25/outbox.cif.g09.slc.cpg/sg2_149_cif.got.tgz:297242.got - 2010.06.27 13:26:56.
