data_PCOD8022742
_publ_section_title
;
Structure prediction by ZEFSAII (Michael W. Deem and Ramdas Pophale) SiO2 
 PCOD8022742
Probable space group: P -1
;
_chemical_formula_sum "Si O2"
_cell_formula_units_Z 14
_cell_length_a 8.486791
_cell_length_b 13.408851
_cell_length_c 9.381588
_cell_angle_alpha 86.460458
_cell_angle_beta 63.348287
_cell_angle_gamma 47.322376
_cell_volume 652.036891
_symmetry_space_group_name_H-M "P -1"
_symmetry_group_IT_number 2
_symmetry_cell_setting 'triclinic'
loop_
_space_group_symop_operation_xyz
x,y,z
-x,-y,-z
loop_
_atom_site_type_symbol
_atom_site_label
_atom_site_fract_x
_atom_site_fract_y
_atom_site_fract_z
Si Si1 0.695264 0.996892 0.489116
Si Si2 0.454702 0.294649 0.681610
Si Si3 0.091239 0.745066 0.567366
Si Si4 0.240598 0.051591 0.066250
Si Si5 0.510574 0.736272 0.006701
Si Si6 0.018787 0.547541 0.637704
Si Si7 0.989810 0.102723 0.900498
O O1 0.567771 0.138696 0.617832
O O2 0.500000 0.000000 0.500000
O O3 0.874698 0.858899 0.530685
O O4 0.862593 0.977578 0.299204
O O5 0.647250 0.304786 0.566449
O O6 0.197625 0.411245 0.683448
O O7 0.380788 0.334738 0.875248
O O8 0.139049 0.606684 0.557124
O O9 0.997155 0.814045 0.755206
O O10 0.148679 0.115018 0.935203
O O11 0.500000 0.000000 0.000000
O O12 0.302612 0.911332 0.087472
O O13 0.735865 0.669908 0.811688
O O14 0.307932 0.737250 0.024355
O O15 0.000000 0.500000 0.500000
O O16 0.000000 0.000000 0.000000
#
# Coordination Sequence:
#
# PCOD8022742 Si02
#       7
#     2   2   2   2   2   2   2
#     4  12  24  41  73 106 137 170 228 287 339 398
#     4  12  25  46  69 101 138 181 225 280 344 407
#     4  12  24  46  71 103 134 176 230 281 343 401
#     4  11  21  39  72 103 133 171 227 284 336 395
#     4  11  23  46  66  99 137 179 227 274 343 404
#     4  12  29  46  69  96 141 186 224 276 340 417
#     4  10  23  38  66 104 136 172 219 288 334 390
#
# _framework density 21.471177999999998
#
# number of rings (size 3 to 8) (size 9 to 14) (size 15 to 20)
#    0.000    0.571    4.286    4.714    8.000    0.000 
#    0.000    0.714    0.000    0.000    0.000    0.000 
#    0.000    0.000    0.000    0.000    0.000    0.000 
#
# Total GULP energy -173559.932196 kJ/mol
# GULP energy per Si atom -12397.138014 kJ/mol
# Density = 2.142231 g / cm^3
# Si number density = 21.471178 Si / 1000 Ang^3
#
#
#
# Elastic Constant Matrix: (Units=GPa)
#
#
# Indices 1 2 3 4 5 6 
#
# 1 121.4621 28.9261 40.8504 -0.5957 4.0865 -22.5240
# 2 28.9261 81.6908 23.9747 -13.4966 13.7506 -19.1608
# 3 40.8504 23.9747 110.7637 -6.5273 10.5690 4.0227
# 4 -0.5957 -13.4966 -6.5273 27.0200 -9.4706 7.4115
# 5 4.0865 13.7506 10.5690 -9.4706 41.1506 -6.9193
# 6 -22.5240 -19.1608 4.0227 7.4115 -6.9193 45.0420
#
#
#
# Elastic Compliance Matrix: (Units=1/GPa)
#
#
# Indices 1 2 3 4 5 6 
#
# 1 0.011119 -0.002039 -0.004130 -0.003018 0.000901 0.005697
# 2 -0.002039 0.016063 -0.002347 0.005204 -0.002562 0.004773
# 3 -0.004130 -0.002347 0.011556 0.002102 -0.002091 -0.004763
# 4 -0.003018 0.005204 0.002102 0.044130 0.007230 -0.005634
# 5 0.000901 -0.002562 -0.002091 0.007230 0.027708 0.002614
# 6 0.005697 0.004773 -0.004763 -0.005634 0.002614 0.028835
#
#
# Mechanical properties :
#
#
# Convention : Reuss Voigt Hill
#
# Bulk Modulus (GPa) = 46.07224 55.71322 50.89273
# Shear Modulus (GPa) = 30.54794 37.32021 33.93407
#
# Velocity S-wave (km/s) = 3.77602 4.17364 3.97980
# Velocity P-wave (km/s) = 6.36517 7.01640 6.69871
#
# Compressibility (1/GPa) = 0.02170504
#
# Stress axis : x y z
#
# Youngs Moduli (GPa) = 89.93651 62.25604 86.53701
#
# Poissons Ratio (x) = 0.12695 0.35741
# Poissons Ratio (y) = 0.18340 0.20309
# Poissons Ratio (z) = 0.37145 0.14611
#
# Static dielectric constant tensor:
#      x y z
#    x 4.134230 -0.281850 -0.599900 
#    y -0.281850 3.953380 -0.033340 
#    z -0.599900 -0.033340 3.871900 
# 
# 
# High freq. dielectric constant tensor:
#      x y z
#    x 1.866240 -0.025110 -0.000330 
#    y -0.025110 1.826700 -0.012780 
#    z -0.000330 -0.012780 1.852580 
# 
# From -- ./inp_files/157589.got.cif
#   From: 2010.06.25/outbox.cif.g09.slc.cpg/sg2_79_cif.got.tgz:157589.got - 2010.06.27 13:26:56.
