data_PCOD8022309
_publ_section_title
;
Structure prediction by ZEFSAII (Michael W. Deem and Ramdas Pophale) SiO2 
 PCOD8022309
Probable space group: P -1
;
_chemical_formula_sum "Si O2"
_cell_formula_units_Z 14
_cell_length_a 6.699315
_cell_length_b 25.397631
_cell_length_c 5.945474
_cell_angle_alpha 65.866563
_cell_angle_beta 73.770106
_cell_angle_gamma 40.105922
_cell_volume 593.767233
_symmetry_space_group_name_H-M "P -1"
_symmetry_group_IT_number 2
_symmetry_cell_setting 'triclinic'
loop_
_space_group_symop_operation_xyz
x,y,z
-x,-y,-z
loop_
_atom_site_type_symbol
_atom_site_label
_atom_site_fract_x
_atom_site_fract_y
_atom_site_fract_z
Si Si1 0.224242 0.323594 0.731743
Si Si2 0.724988 0.866955 0.151393
Si Si3 0.644742 0.271506 0.062848
Si Si4 0.723353 0.974224 0.279346
Si Si5 0.335104 0.615065 0.928023
Si Si6 0.603832 0.172708 0.560194
Si Si7 0.245558 0.553439 0.675883
O O1 0.498408 0.224798 0.735198
O O2 0.090289 0.385412 0.445406
O O3 0.375277 0.335580 0.847035
O O4 0.938874 0.346809 0.883559
O O5 0.803013 0.904570 0.215532
O O6 0.631435 0.832053 0.399871
O O7 0.019248 0.791029 0.041478
O O8 0.433160 0.940797 0.951862
O O9 0.614120 0.326736 0.168534
O O10 0.593321 0.218957 0.275280
O O11 0.053196 0.925471 0.359945
O O12 0.500000 0.000000 0.500000
O O13 0.245804 0.614850 0.702325
O O14 0.665330 0.516015 0.057635
O O15 0.500000 0.500000 0.500000
#
# Coordination Sequence:
#
# PCOD8022309 Si02
#       7
#     2   2   2   2   2   2   2
#     4  11  23  43  67 105 141 182 236 290 352 418
#     4  11  25  46  67 100 142 182 233 294 345 419
#     4  12  25  42  72 107 137 185 239 287 354 419
#     4  11  24  46  70  99 140 186 236 284 354 418
#     4  10  22  45  71 101 143 185 235 295 344 420
#     4  12  25  42  70 103 139 185 233 290 352 415
#     4   9  21  43  71 101 143 187 231 289 355 414
#
# _framework density 23.578261999999999
#
# number of rings (size 3 to 8) (size 9 to 14) (size 15 to 20)
#    0.000    1.143    4.286    1.286    0.000    6.857 
#    0.000   10.000    0.000    0.000    0.000    0.000 
#    0.000    0.000    0.000    0.000    0.000    0.000 
#
# Total GULP energy -173590.668956 kJ/mol
# GULP energy per Si atom -12399.333497 kJ/mol
# Density = 2.352460 g / cm^3
# Si number density = 23.578262 Si / 1000 Ang^3
#
#
#
# Elastic Constant Matrix: (Units=GPa)
#
#
# Indices 1 2 3 4 5 6 
#
# 1 110.0621 52.3932 53.8451 -16.5148 1.4719 -3.5863
# 2 52.3932 99.2969 34.0673 -6.8028 8.2801 -9.6920
# 3 53.8451 34.0673 99.2662 -6.2342 8.6329 -1.5553
# 4 -16.5148 -6.8028 -6.2342 31.9987 -0.3747 -2.8396
# 5 1.4719 8.2801 8.6329 -0.3747 47.4991 3.7779
# 6 -3.5863 -9.6920 -1.5553 -2.8396 3.7779 32.7635
#
#
#
# Elastic Compliance Matrix: (Units=1/GPa)
#
#
# Indices 1 2 3 4 5 6 
#
# 1 0.015855 -0.005944 -0.006355 0.005699 0.001747 -0.000032
# 2 -0.005944 0.014252 -0.001404 -0.000004 -0.002345 0.003769
# 3 -0.006355 -0.001404 0.014127 -0.000875 -0.002111 -0.000273
# 4 0.005699 -0.000004 -0.000875 0.034337 -0.000029 0.003560
# 5 0.001747 -0.002345 -0.002111 -0.000029 0.022041 -0.003147
# 6 -0.000032 0.003769 -0.000273 0.003560 -0.003147 0.032292
#
#
# Mechanical properties :
#
#
# Convention : Reuss Voigt Hill
#
# Bulk Modulus (GPa) = 59.42463 65.47073 62.44768
# Shear Modulus (GPa) = 30.13517 33.67357 31.90437
#
# Velocity S-wave (km/s) = 3.57892 3.78320 3.68248
# Velocity P-wave (km/s) = 6.50662 6.84917 6.68009
#
# Compressibility (1/GPa) = 0.01682804
#
# Stress axis : x y z
#
# Youngs Moduli (GPa) = 63.07204 70.16606 70.78486
#
# Poissons Ratio (x) = 0.41706 0.44983
# Poissons Ratio (y) = 0.37489 0.09940
# Poissons Ratio (z) = 0.40081 0.09853
#
# Static dielectric constant tensor:
#      x y z
#    x 4.116590 -0.181740 0.284180 
#    y -0.181740 4.612710 -0.170770 
#    z 0.284180 -0.170770 4.376490 
# 
# 
# High freq. dielectric constant tensor:
#      x y z
#    x 1.919830 -0.016520 0.008620 
#    y -0.016520 1.949690 0.006400 
#    z 0.008620 0.006400 1.927810 
# 
# From -- ./inp_files/8177.got.cif
#   From: 2010.06.25/outbox.cif.g09.slc.cpg/sg2_5_cif.got.tgz:8177.got - 2010.06.27 13:26:56.
