data_PCOD8022990
_publ_section_title
;
Structure prediction by ZEFSAII (Michael W. Deem and Ramdas Pophale) SiO2 
 PCOD8022990
Probable space group: P -1
;
_chemical_formula_sum "Si O2"
_cell_formula_units_Z 16
_cell_length_a 12.319047
_cell_length_b 11.169212
_cell_length_c 14.661700
_cell_angle_alpha 31.772611
_cell_angle_beta 93.555289
_cell_angle_gamma 114.583268
_cell_volume 766.077164
_symmetry_space_group_name_H-M "P -1"
_symmetry_group_IT_number 2
_symmetry_cell_setting 'triclinic'
loop_
_space_group_symop_operation_xyz
x,y,z
-x,-y,-z
loop_
_atom_site_type_symbol
_atom_site_label
_atom_site_fract_x
_atom_site_fract_y
_atom_site_fract_z
Si Si1 0.027360 0.890402 0.286371
Si Si2 0.502208 0.156328 0.144960
Si Si3 0.815160 0.295606 0.324580
Si Si4 0.167770 0.656206 0.501763
Si Si5 0.411917 0.237838 0.589419
Si Si6 0.066952 0.763252 0.907089
Si Si7 0.412655 0.372478 0.297019
Si Si8 0.345139 0.531036 0.866897
O O1 0.048758 0.694549 0.475169
O O2 0.905639 0.662191 0.348924
O O3 0.968484 0.021843 0.256470
O O4 0.190442 0.175778 0.067519
O O5 0.591937 0.416990 0.061250
O O6 0.325147 0.959911 0.267864
O O7 0.519809 0.913935 0.313195
O O8 0.561388 0.339932 0.931960
O O9 0.802030 0.375973 0.373048
O O10 0.694709 0.260173 0.279631
O O11 0.756101 0.951737 0.531894
O O12 0.986741 0.578166 0.117732
O O13 0.500000 0.500000 0.500000
O O14 0.425967 0.394097 0.393339
O O15 0.242269 0.974612 0.786014
O O16 0.000000 0.500000 0.000000
O O17 0.532944 0.369843 0.264193
#
# Coordination Sequence:
#
# PCOD8022990 Si02
#       8
#     2   2   2   2   2   2   2   2
#     4  10  23  40  64  92 139 166 204 286 324 386
#     4  12  23  42  72  99 131 168 216 282 323 397
#     4  11  22  38  70  93 131 175 214 271 333 389
#     4  11  22  41  63 104 131 161 216 276 351 382
#     4  12  27  46  65  94 133 179 224 269 317 387
#     4  11  23  46  63  87 132 180 222 258 313 397
#     4  12  22  40  68  98 129 170 217 270 330 384
#     4  11  20  39  67 101 130 159 218 275 337 387
#
# _framework density 20.885625999999998
#
# number of rings (size 3 to 8) (size 9 to 14) (size 15 to 20)
#    0.000    0.750    5.000    3.750    0.000    3.500 
#    2.250    1.250    0.000    0.000    0.000    0.000 
#    0.000    0.000    0.000    0.000    0.000    0.000 
#
# Total GULP energy -198376.472516 kJ/mol
# GULP energy per Si atom -12398.529532 kJ/mol
# Density = 2.083809 g / cm^3
# Si number density = 20.885626 Si / 1000 Ang^3
#
#
#
# Elastic Constant Matrix: (Units=GPa)
#
#
# Indices 1 2 3 4 5 6 
#
# 1 76.2053 32.7934 15.3368 1.0114 4.0305 -0.8545
# 2 32.7934 145.2955 63.5051 -10.5663 -1.8546 5.2000
# 3 15.3368 63.5051 104.9350 5.1439 -4.6419 6.4798
# 4 1.0114 -10.5663 5.1439 40.4792 0.9678 -2.4614
# 5 4.0305 -1.8546 -4.6419 0.9678 36.0268 -4.6096
# 6 -0.8545 5.2000 6.4798 -2.4614 -4.6096 25.8594
#
#
#
# Elastic Compliance Matrix: (Units=1/GPa)
#
#
# Indices 1 2 3 4 5 6 
#
# 1 0.014727 -0.003380 -0.000176 -0.001139 -0.001712 0.000797
# 2 -0.003380 0.010565 -0.006053 0.003589 -0.000003 -0.000378
# 3 -0.000176 -0.006053 0.013586 -0.003472 0.001258 -0.002299
# 4 -0.001139 0.003589 -0.003472 0.026276 -0.000519 0.002519
# 5 -0.001712 -0.000003 0.001258 -0.000519 0.028726 0.004700
# 6 0.000797 -0.000378 -0.002299 0.002519 0.004700 0.040427
#
#
# Mechanical properties :
#
#
# Convention : Reuss Voigt Hill
#
# Bulk Modulus (GPa) = 50.86177 61.07850 55.97013
# Shear Modulus (GPa) = 31.23469 34.79311 33.01390
#
# Velocity S-wave (km/s) = 3.87138 4.08596 3.98011
# Velocity P-wave (km/s) = 6.66249 7.18107 6.92664
#
# Compressibility (1/GPa) = 0.01966113
#
# Stress axis : x y z
#
# Youngs Moduli (GPa) = 67.90233 94.64883 73.60414
#
# Poissons Ratio (x) = 0.31993 0.01295
# Poissons Ratio (y) = 0.22952 0.44550
# Poissons Ratio (z) = 0.01194 0.57287
#
# Static dielectric constant tensor:
#      x y z
#    x 3.871720 0.080460 -0.009740 
#    y 0.080460 3.718600 -0.098800 
#    z -0.009740 -0.098800 3.921040 
# 
# 
# High freq. dielectric constant tensor:
#      x y z
#    x 1.813490 0.007150 -0.000430 
#    y 0.007150 1.808840 -0.013270 
#    z -0.000430 -0.013270 1.828370 
# 
# From -- ./inp_files/332793.got.cif
#   From: 2010.06.25/outbox.cif.g09.slc.cpg/sg2_167_cif.got.tgz:332793.got - 2010.06.27 13:26:56.
