data_PCOD8022492
_publ_section_title
;
Structure prediction by ZEFSAII (Michael W. Deem and Ramdas Pophale) SiO2 
 PCOD8022492
Probable space group: P -1
;
_chemical_formula_sum "Si O2"
_cell_formula_units_Z 16
_cell_length_a 17.437926
_cell_length_b 10.508762
_cell_length_c 8.247022
_cell_angle_alpha 56.697009
_cell_angle_beta 58.166838
_cell_angle_gamma 33.093873
_cell_volume 682.088238
_symmetry_space_group_name_H-M "P -1"
_symmetry_group_IT_number 2
_symmetry_cell_setting 'triclinic'
loop_
_space_group_symop_operation_xyz
x,y,z
-x,-y,-z
loop_
_atom_site_type_symbol
_atom_site_label
_atom_site_fract_x
_atom_site_fract_y
_atom_site_fract_z
Si Si1 0.241252 0.504875 0.956595
Si Si2 0.801399 0.786850 0.350918
Si Si3 0.210143 0.225867 0.002212
Si Si4 0.963035 0.334573 0.688308
Si Si5 0.048195 0.170229 0.365547
Si Si6 0.497219 0.686892 0.054262
Si Si7 0.509238 0.326892 0.308004
Si Si8 0.216176 0.664272 0.545704
O O1 0.212469 0.672870 0.738893
O O2 0.224732 0.359519 0.996730
O O3 0.126743 0.677305 0.108642
O O4 0.397204 0.326740 0.978354
O O5 0.843313 0.606451 0.563327
O O6 0.929617 0.740895 0.243055
O O7 0.652126 0.052278 0.389120
O O8 0.792939 0.734008 0.214169
O O9 0.075319 0.299308 0.161401
O O10 0.341063 0.944918 0.093720
O O11 0.061430 0.153473 0.557109
O O12 0.885368 0.341238 0.390677
O O13 0.157821 0.898549 0.370713
O O14 0.522902 0.645402 0.864023
O O15 0.522510 0.485076 0.239575
O O16 0.375869 0.421921 0.479421
#
# Coordination Sequence:
#
# PCOD8022492 Si02
#       8
#     2   2   2   2   2   2   2   2
#     4  12  26  41  65  99 138 175 225 274 327 393
#     4  10  23  41  73  97 131 179 219 270 338 393
#     4  11  22  44  70 100 136 176 217 274 336 398
#     4  11  24  43  62 100 134 176 223 274 325 397
#     4  11  24  44  70  96 139 174 225 275 330 398
#     4  10  23  42  68 101 135 174 219 275 335 395
#     4  10  22  46  70  97 135 175 221 275 337 394
#     4  11  25  43  68 103 131 179 222 276 332 395
#
# _framework density 23.457376
#
# number of rings (size 3 to 8) (size 9 to 14) (size 15 to 20)
#    0.000    1.250    1.250    4.125    1.750    5.500 
#    0.000    3.125    0.000    0.000    0.000    0.000 
#    0.000    0.000    0.000    0.000    0.000    0.000 
#
# Total GULP energy -198375.683811 kJ/mol
# GULP energy per Si atom -12398.480238 kJ/mol
# Density = 2.340399 g / cm^3
# Si number density = 23.457376 Si / 1000 Ang^3
#
#
#
# Elastic Constant Matrix: (Units=GPa)
#
#
# Indices 1 2 3 4 5 6 
#
# 1 114.3598 34.5914 23.2360 -3.3000 -10.0558 -17.0655
# 2 34.5914 127.6600 36.2064 -0.7459 -14.2102 -9.4817
# 3 23.2360 36.2064 90.8329 18.5325 -6.7628 -12.4837
# 4 -3.3000 -0.7459 18.5325 31.4866 -3.0740 -0.8874
# 5 -10.0558 -14.2102 -6.7628 -3.0740 30.3342 6.2929
# 6 -17.0655 -9.4817 -12.4837 -0.8874 6.2929 33.8121
#
#
#
# Elastic Compliance Matrix: (Units=1/GPa)
#
#
# Indices 1 2 3 4 5 6 
#
# 1 0.010451 -0.001848 -0.001765 0.002360 0.001644 0.003861
# 2 -0.001848 0.009771 -0.003705 0.002549 0.003424 -0.000131
# 3 -0.001765 -0.003705 0.015265 -0.009215 -0.000593 0.003574
# 4 0.002360 0.002549 -0.009215 0.037848 0.004017 -0.001250
# 5 0.001644 0.003424 -0.000593 0.004017 0.036449 -0.005108
# 6 0.003861 -0.000131 0.003574 -0.001250 -0.005108 0.033725
#
#
# Mechanical properties :
#
#
# Convention : Reuss Voigt Hill
#
# Bulk Modulus (GPa) = 47.96172 57.88004 52.92088
# Shear Modulus (GPa) = 30.28552 35.04784 32.66668
#
# Velocity S-wave (km/s) = 3.59707 3.86956 3.73580
# Velocity P-wave (km/s) = 6.14350 6.68527 6.42010
#
# Compressibility (1/GPa) = 0.02084996
#
# Stress axis : x y z
#
# Youngs Moduli (GPa) = 95.68806 102.34175 65.50945
#
# Poissons Ratio (x) = 0.18908 0.11565
# Poissons Ratio (y) = 0.17679 0.24274
# Poissons Ratio (z) = 0.16893 0.37922
#
# Static dielectric constant tensor:
#      x y z
#    x 4.257740 -0.093760 0.043730 
#    y -0.093760 4.175650 0.018960 
#    z 0.043730 0.018960 4.104680 
# 
# 
# High freq. dielectric constant tensor:
#      x y z
#    x 1.931330 -0.007940 0.001670 
#    y -0.007940 1.936030 0.003060 
#    z 0.001670 0.003060 1.925810 
# 
# From -- ./inp_files/332834.got.cif
#   From: 2010.06.25/outbox.cif.g09.slc.cpg/sg2_167_cif.got.tgz:332834.got - 2010.06.27 13:26:56.
