data_PCOD8022326
_publ_section_title
;
Structure prediction by ZEFSAII (Michael W. Deem and Ramdas Pophale) SiO2 
 PCOD8022326
Probable space group: P -1
;
_chemical_formula_sum "Si O2"
_cell_formula_units_Z 12
_cell_length_a 14.559461
_cell_length_b 10.990066
_cell_length_c 11.166330
_cell_angle_alpha 59.978375
_cell_angle_beta 41.673690
_cell_angle_gamma 30.389224
_cell_volume 543.102541
_symmetry_space_group_name_H-M "P -1"
_symmetry_group_IT_number 2
_symmetry_cell_setting 'triclinic'
loop_
_space_group_symop_operation_xyz
x,y,z
-x,-y,-z
loop_
_atom_site_type_symbol
_atom_site_label
_atom_site_fract_x
_atom_site_fract_y
_atom_site_fract_z
Si Si1 0.859855 0.122170 0.399382
Si Si2 0.758728 0.625099 0.870580
Si Si3 0.396066 0.948483 0.280057
Si Si4 0.397224 0.668230 0.692665
Si Si5 0.343937 0.021375 0.569315
Si Si6 0.453600 0.639197 0.087927
O O1 0.773030 0.046682 0.574934
O O2 0.668968 0.412093 0.483188
O O3 0.847024 0.131544 0.261491
O O4 0.144264 0.910707 0.279013
O O5 0.768195 0.777791 0.743797
O O6 0.663995 0.700916 0.064366
O O7 0.560127 0.706365 0.938750
O O8 0.040106 0.316792 0.728497
O O9 0.455572 0.921384 0.374750
O O10 0.396140 0.824188 0.674659
O O11 0.377948 0.569683 0.863461
O O12 0.500000 0.000000 0.500000
O O13 0.500000 0.500000 0.000000
#
# Coordination Sequence:
#
# PCOD8022326 Si02
#       6
#     2   2   2   2   2   2
#     4  10  22  45  71  91 134 180 218 273 332 395
#     4  11  25  43  68 100 133 171 228 276 326 407
#     4  10  23  46  68  95 133 175 223 274 331 399
#     4  10  23  43  65  98 131 172 224 270 326 402
#     4  11  26  43  67  97 136 179 215 279 340 390
#     4  12  25  40  69 103 132 177 220 277 337 391
#
# _framework density 22.095275000000001
#
# number of rings (size 3 to 8) (size 9 to 14) (size 15 to 20)
#    0.000    1.333    1.667    3.000    4.667    4.667 
#    0.000    0.000    0.000    0.000    0.000    0.000 
#    0.000    0.000    0.000    0.000    0.000    0.000 
#
# Total GULP energy -148794.827301 kJ/mol
# GULP energy per Si atom -12399.568942 kJ/mol
# Density = 2.204499 g / cm^3
# Si number density = 22.095275 Si / 1000 Ang^3
#
#
#
# Elastic Constant Matrix: (Units=GPa)
#
#
# Indices 1 2 3 4 5 6 
#
# 1 114.4132 43.9979 39.6424 7.0254 -9.3300 18.4006
# 2 43.9979 118.5246 36.7403 -6.5663 -13.7575 14.8333
# 3 39.6424 36.7403 74.2852 7.8930 -7.4252 -2.2453
# 4 7.0254 -6.5663 7.8930 21.5127 3.8010 11.5050
# 5 -9.3300 -13.7575 -7.4252 3.8010 43.0144 -0.8021
# 6 18.4006 14.8333 -2.2453 11.5050 -0.8021 36.9648
#
#
#
# Elastic Compliance Matrix: (Units=1/GPa)
#
#
# Indices 1 2 3 4 5 6 
#
# 1 0.012520 -0.001960 -0.005848 0.000463 0.000928 -0.005925
# 2 -0.001960 0.013037 -0.006686 0.011147 0.001454 -0.008100
# 3 -0.005848 -0.006686 0.021992 -0.014714 0.001905 0.011550
# 4 0.000463 0.011147 -0.014714 0.071015 -0.005668 -0.027823
# 5 0.000928 0.001454 0.001905 -0.005668 0.024770 0.001372
# 6 -0.005925 -0.008100 0.011550 -0.027823 0.001372 0.042644
#
#
# Mechanical properties :
#
#
# Convention : Reuss Voigt Hill
#
# Bulk Modulus (GPa) = 53.87299 60.88713 57.38006
# Shear Modulus (GPa) = 22.60883 32.75455 27.68169
#
# Velocity S-wave (km/s) = 3.20229 3.85440 3.54338
# Velocity P-wave (km/s) = 6.17316 6.88658 6.53961
#
# Compressibility (1/GPa) = 0.01856218
#
# Stress axis : x y z
#
# Youngs Moduli (GPa) = 79.87070 76.70303 45.47148
#
# Poissons Ratio (x) = 0.15035 0.26590
# Poissons Ratio (y) = 0.15656 0.30402
# Poissons Ratio (z) = 0.46705 0.51283
#
# Static dielectric constant tensor:
#      x y z
#    x 4.306400 0.166290 0.080350 
#    y 0.166290 4.249220 0.030430 
#    z 0.080350 0.030430 4.098830 
# 
# 
# High freq. dielectric constant tensor:
#      x y z
#    x 1.877180 0.022300 0.013550 
#    y 0.022300 1.876560 -0.001630 
#    z 0.013550 -0.001630 1.861180 
# 
# From -- ./inp_files/161331.got.cif
#   From: 2010.06.25/outbox.cif.g09.slc.cpg/sg2_81_cif.got.tgz:161331.got - 2010.06.27 13:26:56.
