data_PCOD8022796
_publ_section_title
;
Structure prediction by ZEFSAII (Michael W. Deem and Ramdas Pophale) SiO2 
 PCOD8022796
Probable space group: P -1
;
_chemical_formula_sum "Si O2"
_cell_formula_units_Z 16
_cell_length_a 13.955520
_cell_length_b 10.977508
_cell_length_c 10.820053
_cell_angle_alpha 125.163891
_cell_angle_beta 122.798287
_cell_angle_gamma 100.870131
_cell_volume 780.431664
_symmetry_space_group_name_H-M "P -1"
_symmetry_group_IT_number 2
_symmetry_cell_setting 'triclinic'
loop_
_space_group_symop_operation_xyz
x,y,z
-x,-y,-z
loop_
_atom_site_type_symbol
_atom_site_label
_atom_site_fract_x
_atom_site_fract_y
_atom_site_fract_z
Si Si1 0.261547 0.300659 0.042687
Si Si2 0.919780 0.182430 0.355296
Si Si3 0.456485 0.574843 0.117700
Si Si4 0.311149 0.775289 0.735882
Si Si5 0.372633 0.320345 0.464215
Si Si6 0.739080 0.371097 0.109281
Si Si7 0.835189 0.618809 0.748911
Si Si8 0.836426 0.144072 0.005845
O O1 0.289246 0.375002 0.963133
O O2 0.445792 0.445566 0.317169
O O3 0.184457 0.359688 0.107187
O O4 0.142975 0.045770 0.812591
O O5 0.793275 0.173883 0.329092
O O6 0.938081 0.252631 0.267496
O O7 0.100603 0.371404 0.653804
O O8 0.613445 0.721048 0.406680
O O9 0.500000 0.500000 0.000000
O O10 0.423124 0.703009 0.105649
O O11 0.278095 0.662195 0.775700
O O12 0.267697 0.626387 0.503523
O O13 0.500000 0.000000 0.000000
O O14 0.231901 0.310854 0.343257
O O15 0.313237 0.116045 0.230877
O O16 0.759458 0.232274 0.973184
O O17 0.032388 0.783196 0.963422
#
# Coordination Sequence:
#
# PCOD8022796 Si02
#       8
#     2   2   2   2   2   2   2   2
#     4  10  25  38  65  96 123 166 215 267 313 365
#     4  11  21  41  62  98 130 164 211 267 322 368
#     4  10  25  44  63  89 127 178 215 253 317 389
#     4  11  23  35  67  98 125 163 215 269 321 368
#     4  10  23  39  62  94 127 163 213 264 313 373
#     4  11  23  44  63  91 137 172 209 254 321 396
#     4  12  20  39  63 101 125 157 215 271 324 360
#     4  11  22  38  65  97 128 166 202 269 331 372
#
# _framework density 20.501476
#
# number of rings (size 3 to 8) (size 9 to 14) (size 15 to 20)
#    0.750    0.500    3.750    3.000    5.250    1.000 
#    0.000    0.625    0.000    0.000    0.000    0.000 
#    0.000    0.000    0.000    0.000    0.000    0.000 
#
# Total GULP energy -198307.796733 kJ/mol
# GULP energy per Si atom -12394.237296 kJ/mol
# Density = 2.045481 g / cm^3
# Si number density = 20.501476 Si / 1000 Ang^3
#
#
#
# Elastic Constant Matrix: (Units=GPa)
#
#
# Indices 1 2 3 4 5 6 
#
# 1 142.1467 37.6450 28.5460 11.1972 -18.5795 -5.7839
# 2 37.6450 42.5403 11.7165 8.5497 -4.3038 -3.5998
# 3 28.5460 11.7165 82.5509 30.0701 -6.1956 -4.5020
# 4 11.1972 8.5497 30.0701 34.7308 -3.5533 -0.1964
# 5 -18.5795 -4.3038 -6.1956 -3.5533 33.4018 2.1470
# 6 -5.7839 -3.5998 -4.5020 -0.1964 2.1470 29.3076
#
#
#
# Elastic Compliance Matrix: (Units=1/GPa)
#
#
# Indices 1 2 3 4 5 6 
#
# 1 0.010148 -0.008099 -0.002507 0.001330 0.004257 0.000320
# 2 -0.008099 0.031795 0.000399 -0.005659 -0.001091 0.002410
# 3 -0.002507 0.000399 0.018695 -0.015428 0.000335 0.002298
# 4 0.001330 -0.005659 -0.015428 0.043297 0.001925 -0.002654
# 5 0.004257 -0.001091 0.000335 0.001925 0.032537 -0.001613
# 6 0.000320 0.002410 0.002298 -0.002654 -0.001613 0.034933
#
#
# Mechanical properties :
#
#
# Convention : Reuss Voigt Hill
#
# Bulk Modulus (GPa) = 24.86141 47.00587 35.93364
# Shear Modulus (GPa) = 24.36312 32.11007 28.23660
#
# Velocity S-wave (km/s) = 3.45100 3.96186 3.71522
# Velocity P-wave (km/s) = 5.29454 6.62618 5.99743
#
# Compressibility (1/GPa) = 0.04022299
#
# Stress axis : x y z
#
# Youngs Moduli (GPa) = 98.54035 31.45102 53.49138
#
# Poissons Ratio (x) = 0.25473 0.13412
# Poissons Ratio (y) = 0.79811 -0.02134
# Poissons Ratio (z) = 0.24707 -0.01255
#
# Static dielectric constant tensor:
#      x y z
#    x 3.877210 -0.014950 -0.018670 
#    y -0.014950 3.530950 0.028230 
#    z -0.018670 0.028230 3.707110 
# 
# 
# High freq. dielectric constant tensor:
#      x y z
#    x 1.810030 -0.004410 -0.004980 
#    y -0.004410 1.774580 0.010420 
#    z -0.004980 0.010420 1.800000 
# 
# From -- ./inp_files/253071.got.cif
#   From: 2010.06.25/outbox.cif.g09.slc.cpg/sg2_127_cif.got.tgz:253071.got - 2010.06.27 13:26:56.
