data_PCOD8022626
_publ_section_title
;
Structure prediction by ZEFSAII (Michael W. Deem and Ramdas Pophale) SiO2 
 PCOD8022626
Probable space group: P -1
;
_chemical_formula_sum "Si O2"
_cell_formula_units_Z 16
_cell_length_a 9.240021
_cell_length_b 15.680205
_cell_length_c 9.593270
_cell_angle_alpha 81.519611
_cell_angle_beta 74.377623
_cell_angle_gamma 33.738384
_cell_volume 735.811098
_symmetry_space_group_name_H-M "P -1"
_symmetry_group_IT_number 2
_symmetry_cell_setting 'triclinic'
loop_
_space_group_symop_operation_xyz
x,y,z
-x,-y,-z
loop_
_atom_site_type_symbol
_atom_site_label
_atom_site_fract_x
_atom_site_fract_y
_atom_site_fract_z
Si Si1 0.536023 0.420712 0.377283
Si Si2 0.516103 0.750917 0.605917
Si Si3 0.969768 0.258408 0.622092
Si Si4 0.166482 0.355188 0.180544
Si Si5 0.049406 0.933538 0.352779
Si Si6 0.109642 0.197841 0.300657
Si Si7 0.396294 0.153365 0.686198
Si Si8 0.642256 0.687260 0.148230
O O1 0.500000 0.500000 0.500000
O O2 0.476967 0.347969 0.440429
O O3 0.310172 0.564718 0.292334
O O4 0.840822 0.287668 0.273650
O O5 0.732422 0.653217 0.697699
O O6 0.575813 0.792318 0.460758
O O7 0.213884 0.913885 0.706743
O O8 0.937011 0.175089 0.611548
O O9 0.049012 0.265678 0.453596
O O10 0.206063 0.163383 0.694198
O O11 0.227098 0.224187 0.181548
O O12 0.841578 0.521884 0.206871
O O13 0.324438 0.329533 0.022704
O O14 0.328307 0.827485 0.234955
O O15 0.000000 0.000000 0.500000
O O16 0.317042 0.020388 0.298974
O O17 0.264808 0.264708 0.824976
#
# Coordination Sequence:
#
# PCOD8022626 Si02
#       8
#     2   2   2   2   2   2   2   2
#     4  10  23  35  57  98 129 164 208 267 322 376
#     4  12  23  41  67  97 131 169 218 268 326 383
#     4  11  21  36  60  98 129 159 212 274 320 369
#     4  11  26  45  65  93 135 179 213 264 320 401
#     4  12  22  42  68  98 133 169 214 274 327 379
#     4  11  21  39  62  94 131 163 212 265 326 377
#     4  12  23  39  65  98 125 168 216 273 317 380
#     4  11  26  45  65  93 132 180 219 257 330 389
#
# _framework density 21.744710999999999
#
# number of rings (size 3 to 8) (size 9 to 14) (size 15 to 20)
#    0.000    0.750    3.750    4.875    3.500    2.000 
#    0.000    1.250    0.000    4.500    0.000    0.000 
#    0.000    0.000    0.000    0.000    0.000    0.000 
#
# Total GULP energy -198299.970230 kJ/mol
# GULP energy per Si atom -12393.748139 kJ/mol
# Density = 2.169522 g / cm^3
# Si number density = 21.744711 Si / 1000 Ang^3
#
#
#
# Elastic Constant Matrix: (Units=GPa)
#
#
# Indices 1 2 3 4 5 6 
#
# 1 109.0649 45.9819 23.4098 -5.7229 -5.9743 13.2174
# 2 45.9819 148.7793 32.1012 -7.1897 -2.0968 1.5524
# 3 23.4098 32.1012 55.6072 -3.5079 1.7305 0.2009
# 4 -5.7229 -7.1897 -3.5079 24.9340 -1.1976 -3.7279
# 5 -5.9743 -2.0968 1.7305 -1.1976 17.7348 0.4007
# 6 13.2174 1.5524 0.2009 -3.7279 0.4007 41.3435
#
#
#
# Elastic Compliance Matrix: (Units=1/GPa)
#
#
# Indices 1 2 3 4 5 6 
#
# 1 0.011782 -0.002756 -0.003416 0.001091 0.004131 -0.003588
# 2 -0.002756 0.008425 -0.003632 0.001415 0.000502 0.000705
# 3 -0.003416 -0.003632 0.021705 0.001237 -0.003643 0.001270
# 4 0.001091 0.001415 0.001237 0.041585 0.003148 0.003311
# 5 0.004131 0.000502 -0.003643 0.003148 0.058442 -0.001604
# 6 -0.003588 0.000705 0.001270 0.003311 -0.001604 0.025616
#
#
# Mechanical properties :
#
#
# Convention : Reuss Voigt Hill
#
# Bulk Modulus (GPa) = 44.83523 57.38190 51.10857
# Shear Modulus (GPa) = 25.69399 30.93303 28.31351
#
# Velocity S-wave (km/s) = 3.44120 3.77577 3.61236
# Velocity P-wave (km/s) = 6.03762 6.74201 6.39951
#
# Compressibility (1/GPa) = 0.02230389
#
# Stress axis : x y z
#
# Youngs Moduli (GPa) = 84.87195 118.69480 46.07233
#
# Poissons Ratio (x) = 0.32713 0.15738
# Poissons Ratio (y) = 0.23391 0.16734
# Poissons Ratio (z) = 0.28992 0.43113
#
# Static dielectric constant tensor:
#      x y z
#    x 4.240500 -0.335820 -0.012270 
#    y -0.335820 4.565590 0.046100 
#    z -0.012270 0.046100 3.408400 
# 
# 
# High freq. dielectric constant tensor:
#      x y z
#    x 1.868830 -0.003810 -0.003350 
#    y -0.003810 1.886840 -0.000460 
#    z -0.003350 -0.000460 1.790330 
# 
# From -- ./inp_files/206815.got.cif
#   From: 2010.06.25/outbox.cif.g09.slc.cpg/sg2_104_cif.got.tgz:206815.got - 2010.06.27 13:26:56.
