data_PCOD8022840
_publ_section_title
;
Structure prediction by ZEFSAII (Michael W. Deem and Ramdas Pophale) SiO2 
 PCOD8022840
Probable space group: P -1
;
_chemical_formula_sum "Si O2"
_cell_formula_units_Z 16
_cell_length_a 11.213060
_cell_length_b 13.277139
_cell_length_c 8.451894
_cell_angle_alpha 128.582300
_cell_angle_beta 93.811385
_cell_angle_gamma 57.011870
_cell_volume 750.091596
_symmetry_space_group_name_H-M "P -1"
_symmetry_group_IT_number 2
_symmetry_cell_setting 'triclinic'
loop_
_space_group_symop_operation_xyz
x,y,z
-x,-y,-z
loop_
_atom_site_type_symbol
_atom_site_label
_atom_site_fract_x
_atom_site_fract_y
_atom_site_fract_z
Si Si1 0.125236 0.245460 0.991523
Si Si2 0.110738 0.413014 0.575556
Si Si3 0.239243 0.827150 0.171810
Si Si4 0.067870 0.012500 0.858156
Si Si5 0.231321 0.705328 0.368465
Si Si6 0.618591 0.799614 0.829785
Si Si7 0.101685 0.183479 0.579330
Si Si8 0.494685 0.392730 0.263660
O O1 0.132310 0.113379 0.975477
O O2 0.164686 0.192818 0.760745
O O3 0.255483 0.254396 0.075508
O O4 0.948856 0.428186 0.163315
O O5 0.290842 0.294765 0.419640
O O6 0.089169 0.296489 0.552645
O O7 0.000000 0.500000 0.500000
O O8 0.304998 0.724809 0.241448
O O9 0.066894 0.888904 0.189215
O O10 0.226232 0.990646 0.343296
O O11 0.345338 0.712599 0.922434
O O12 0.208003 0.824827 0.625073
O O13 0.000000 0.000000 0.000000
O O14 0.350173 0.514870 0.252257
O O15 0.069515 0.754583 0.351258
O O16 0.521486 0.738688 0.797011
O O17 0.500000 0.000000 0.000000
O O18 0.500000 0.500000 0.500000
#
# Coordination Sequence:
#
# PCOD8022840 Si02
#       8
#     2   2   2   2   2   2   2   2
#     4  11  23  43  68 100 133 173 225 280 341 396
#     4  10  23  39  65  94 130 173 221 276 329 390
#     4  11  23  43  66  99 134 176 222 278 336 402
#     4  11  23  37  71 100 131 172 227 279 334 393
#     4  11  22  42  65 100 133 172 224 274 334 400
#     4  11  27  46  65  98 139 179 225 275 338 405
#     4  11  21  43  70  97 134 172 223 280 339 398
#     4  12  28  44  68  96 139 181 228 273 337 400
#
# _framework density 21.330728000000001
#
# number of rings (size 3 to 8) (size 9 to 14) (size 15 to 20)
#    0.000    1.000    2.500    4.500   14.000    0.000 
#    0.000    5.000    0.000    0.000    0.000    0.000 
#    0.000    0.000    0.000    0.000    0.000    0.000 
#
# Total GULP energy -198400.837724 kJ/mol
# GULP energy per Si atom -12400.052358 kJ/mol
# Density = 2.128218 g / cm^3
# Si number density = 21.330728 Si / 1000 Ang^3
#
#
#
# Elastic Constant Matrix: (Units=GPa)
#
#
# Indices 1 2 3 4 5 6 
#
# 1 65.4307 26.1944 24.6726 2.2549 4.2807 15.3523
# 2 26.1944 126.8707 39.3788 6.3203 0.3641 28.1063
# 3 24.6726 39.3788 126.4663 4.7771 -7.0184 2.8885
# 4 2.2549 6.3203 4.7771 40.8652 -1.9825 -2.1895
# 5 4.2807 0.3641 -7.0184 -1.9825 37.0111 3.4802
# 6 15.3523 28.1063 2.8885 -2.1895 3.4802 41.1003
#
#
#
# Elastic Compliance Matrix: (Units=1/GPa)
#
#
# Indices 1 2 3 4 5 6 
#
# 1 0.018550 -0.001616 -0.003085 -0.000815 -0.002245 -0.005461
# 2 -0.001616 0.010604 -0.002773 -0.001573 0.000088 -0.006545
# 3 -0.003085 -0.002773 0.009442 -0.000292 0.001952 0.002204
# 4 -0.000815 -0.001573 -0.000292 0.024990 0.001145 0.002635
# 5 -0.002245 0.000088 0.001952 0.001145 0.027865 -0.001657
# 6 -0.005461 -0.006545 0.002204 0.002635 -0.001657 0.030972
#
#
# Mechanical properties :
#
#
# Convention : Reuss Voigt Hill
#
# Bulk Modulus (GPa) = 42.28618 55.47326 48.87972
# Shear Modulus (GPa) = 34.42306 39.03010 36.72658
#
# Velocity S-wave (km/s) = 4.02154 4.28221 4.15392
# Velocity P-wave (km/s) = 6.43668 7.10721 6.78024
#
# Compressibility (1/GPa) = 0.02364839
#
# Stress axis : x y z
#
# Youngs Moduli (GPa) = 53.90962 94.30172 105.91527
#
# Poissons Ratio (x) = 0.15236 0.32674
# Poissons Ratio (y) = 0.08710 0.29370
# Poissons Ratio (z) = 0.16631 0.26150
#
# Static dielectric constant tensor:
#      x y z
#    x 3.608120 0.058550 -0.075580 
#    y 0.058550 3.940120 0.160310 
#    z -0.075580 0.160310 4.404730 
# 
# 
# High freq. dielectric constant tensor:
#      x y z
#    x 1.814530 0.011980 -0.003250 
#    y 0.011980 1.847330 0.006200 
#    z -0.003250 0.006200 1.854770 
# 
# From -- ./inp_files/187632.got.cif
#   From: 2010.06.25/outbox.cif.g09.slc.cpg/sg2_94_cif.got.tgz:187632.got - 2010.06.27 13:26:56.
