data_PCOD8022149
_publ_section_title
;
Structure prediction by ZEFSAII (Michael W. Deem and Ramdas Pophale) SiO2 
 PCOD8022149
Probable space group: P -1
;
_chemical_formula_sum "Si O2"
_cell_formula_units_Z 14
_cell_length_a 12.767980
_cell_length_b 15.471199
_cell_length_c 8.796819
_cell_angle_alpha 57.377318
_cell_angle_beta 133.802083
_cell_angle_gamma 149.805265
_cell_volume 622.331598
_symmetry_space_group_name_H-M "P -1"
_symmetry_group_IT_number 2
_symmetry_cell_setting 'triclinic'
loop_
_space_group_symop_operation_xyz
x,y,z
-x,-y,-z
loop_
_atom_site_type_symbol
_atom_site_label
_atom_site_fract_x
_atom_site_fract_y
_atom_site_fract_z
Si Si1 0.710356 0.364680 0.547368
Si Si2 0.445678 0.652804 0.904199
Si Si3 0.321447 0.158680 0.601534
Si Si4 0.851367 0.799798 0.365935
Si Si5 0.600058 0.942159 0.953770
Si Si6 0.086849 0.734343 0.230516
Si Si7 0.109925 0.750359 0.586127
O O1 0.564411 0.344503 0.290529
O O2 0.574125 0.302905 0.627893
O O3 0.734969 0.260324 0.627207
O O4 0.983675 0.566875 0.645386
O O5 0.479774 0.785576 0.877871
O O6 0.196613 0.457630 0.902272
O O7 0.679263 0.716344 0.124360
O O8 0.301316 0.253755 0.585513
O O9 0.312873 0.055289 0.802541
O O10 0.088903 0.011654 0.393945
O O11 0.940979 0.734094 0.524252
O O12 0.379379 0.899137 0.793476
O O13 0.835660 0.129459 0.933142
O O14 0.133728 0.798850 0.388577
#
# Coordination Sequence:
#
# PCOD8022149 Si02
#       7
#     2   2   2   2   2   2   2
#     4  11  22  41  70  97 131 161 219 275 310 381
#     4  10  22  45  66  96 130 167 214 268 320 376
#     4  10  25  46  60  96 132 171 218 258 318 394
#     4  10  24  46  60  92 136 170 216 257 321 390
#     4  11  22  43  71  92 129 174 212 262 326 374
#     4  11  22  40  70 106 120 163 223 275 306 383
#     4  11  22  41  69 100 126 166 220 267 319 378
#
# _framework density 22.496046
#
# number of rings (size 3 to 8) (size 9 to 14) (size 15 to 20)
#    0.000    1.429    2.857    2.143    2.000    6.286 
#   18.000    0.000    0.000    0.000    0.000    0.000 
#    0.000    0.000    0.000    0.000    0.000    0.000 
#
# Total GULP energy -173613.619362 kJ/mol
# GULP energy per Si atom -12400.972812 kJ/mol
# Density = 2.244484 g / cm^3
# Si number density = 22.496046 Si / 1000 Ang^3
#
#
#
# Elastic Constant Matrix: (Units=GPa)
#
#
# Indices 1 2 3 4 5 6 
#
# 1 111.5787 27.1380 36.1336 -9.4346 9.3238 8.3002
# 2 27.1380 120.8755 50.4602 -9.0800 -8.7531 16.0225
# 3 36.1336 50.4602 94.8761 2.9741 9.2107 12.6882
# 4 -9.4346 -9.0800 2.9741 25.7283 3.3336 -7.1442
# 5 9.3238 -8.7531 9.2107 3.3336 31.4854 -5.8469
# 6 8.3002 16.0225 12.6882 -7.1442 -5.8469 35.7896
#
#
#
# Elastic Compliance Matrix: (Units=1/GPa)
#
#
# Indices 1 2 3 4 5 6 
#
# 1 0.010960 -0.000809 -0.003515 0.004376 -0.003008 -0.000551
# 2 -0.000809 0.011950 -0.006447 0.003665 0.004807 -0.001359
# 3 -0.003515 -0.006447 0.016635 -0.005938 -0.005793 -0.004328
# 4 0.004376 0.003665 -0.005938 0.044941 -0.001789 0.008128
# 5 -0.003008 0.004807 -0.005793 -0.001789 0.037041 0.006293
# 6 -0.000551 -0.001359 -0.004328 0.008128 0.006293 0.032862
#
#
# Mechanical properties :
#
#
# Convention : Reuss Voigt Hill
#
# Bulk Modulus (GPa) = 55.55058 61.64375 58.59716
# Shear Modulus (GPa) = 27.48276 32.84056 30.16166
#
# Velocity S-wave (km/s) = 3.49903 3.82493 3.66560
# Velocity P-wave (km/s) = 6.40870 6.85334 6.63474
#
# Compressibility (1/GPa) = 0.01800161
#
# Stress axis : x y z
#
# Youngs Moduli (GPa) = 91.24212 83.68439 60.11427
#
# Poissons Ratio (x) = 0.06772 0.21131
# Poissons Ratio (y) = 0.07383 0.38756
# Poissons Ratio (z) = 0.32073 0.53952
#
# Static dielectric constant tensor:
#      x y z
#    x 4.011180 -0.027830 0.044290 
#    y -0.027830 3.911180 0.168850 
#    z 0.044290 0.168850 4.035720 
# 
# 
# High freq. dielectric constant tensor:
#      x y z
#    x 1.885080 -0.003200 0.007380 
#    y -0.003200 1.882410 0.015550 
#    z 0.007380 0.015550 1.880590 
# 
# From -- ./inp_files/183778.got.cif
#   From: 2010.06.25/outbox.cif.g09.slc.cpg/sg2_92_cif.got.tgz:183778.got - 2010.06.27 13:26:56.
