data_PCOD8022323
_publ_section_title
;
Structure prediction by ZEFSAII (Michael W. Deem and Ramdas Pophale) SiO2 
 PCOD8022323
Probable space group: P -1
;
_chemical_formula_sum "Si O2"
_cell_formula_units_Z 16
_cell_length_a 10.624411
_cell_length_b 12.375906
_cell_length_c 5.260831
_cell_angle_alpha 94.467333
_cell_angle_beta 91.985639
_cell_angle_gamma 60.377255
_cell_volume 599.486711
_symmetry_space_group_name_H-M "P -1"
_symmetry_group_IT_number 2
_symmetry_cell_setting 'triclinic'
loop_
_space_group_symop_operation_xyz
x,y,z
-x,-y,-z
loop_
_atom_site_type_symbol
_atom_site_label
_atom_site_fract_x
_atom_site_fract_y
_atom_site_fract_z
Si Si1 0.135517 0.848520 0.825843
Si Si2 0.280577 0.722579 0.343789
Si Si3 0.266932 0.492611 0.382442
Si Si4 0.690466 0.879799 0.721721
Si Si5 0.540503 0.146083 0.551548
Si Si6 0.061069 0.309798 0.624717
Si Si7 0.301089 0.348100 0.853050
Si Si8 0.866842 0.914921 0.109409
O O1 0.162138 0.760999 0.569861
O O2 0.963952 0.911030 0.873140
O O3 0.225495 0.780329 0.072912
O O4 0.180030 0.950699 0.747021
O O5 0.341784 0.574228 0.316082
O O6 0.393315 0.762739 0.469191
O O7 0.325620 0.427121 0.646002
O O8 0.093340 0.572444 0.421583
O O9 0.311830 0.392016 0.142681
O O10 0.556665 0.852683 0.696767
O O11 0.836379 0.754554 0.623264
O O12 0.723917 0.908158 0.013402
O O13 0.660338 0.001163 0.574963
O O14 0.429156 0.204417 0.794628
O O15 0.145165 0.356925 0.824638
O O16 0.033594 0.204288 0.734037
#
# Coordination Sequence:
#
# PCOD8022323 Si02
#       8
#     2   2   2   2   2   2   2   2
#     4  11  25  41  70 109 146 177 232 288 369 426
#     4  12  24  47  70 100 140 194 234 295 344 419
#     4  12  26  47  73 101 142 188 245 297 353 405
#     4  10  22  45  71 109 143 186 229 291 367 428
#     4  10  24  47  71 102 149 190 241 284 347 437
#     4  11  24  42  74 108 142 178 233 303 366 421
#     4  11  28  47  70 103 140 195 241 294 343 416
#     4  11  23  39  73 107 144 183 223 297 369 434
#
# _framework density 26.689499999999999
#
# number of rings (size 3 to 8) (size 9 to 14) (size 15 to 20)
#    0.000    1.000    2.500    3.000    5.250    3.000 
#    4.500    2.500    0.000    0.000    0.000    0.000 
#    0.000    0.000    0.000    0.000    0.000    0.000 
#
# Total GULP energy -198279.768205 kJ/mol
# GULP energy per Si atom -12392.485513 kJ/mol
# Density = 2.662875 g / cm^3
# Si number density = 26.689500 Si / 1000 Ang^3
#
#
#
# Elastic Constant Matrix: (Units=GPa)
#
#
# Indices 1 2 3 4 5 6 
#
# 1 84.2949 14.2313 4.4995 1.7553 15.1187 19.9898
# 2 14.2313 96.8553 31.6923 -0.2462 -3.6410 11.4547
# 3 4.4995 31.6923 99.7190 -3.8472 4.1353 6.3329
# 4 1.7553 -0.2462 -3.8472 41.5174 9.9522 -9.1566
# 5 15.1187 -3.6410 4.1353 9.9522 25.3401 4.3390
# 6 19.9898 11.4547 6.3329 -9.1566 4.3390 50.8597
#
#
#
# Elastic Compliance Matrix: (Units=1/GPa)
#
#
# Indices 1 2 3 4 5 6 
#
# 1 0.014832 -0.002190 0.000698 0.000493 -0.008685 -0.004594
# 2 -0.002190 0.012379 -0.003968 -0.001839 0.004828 -0.002176
# 3 0.000698 -0.003968 0.011487 0.001822 -0.003545 -0.000180
# 4 0.000493 -0.001839 0.001822 0.028788 -0.013242 0.006306
# 5 -0.008685 0.004828 -0.003545 -0.013242 0.051809 -0.004036
# 6 -0.004594 -0.002176 -0.000180 0.006306 -0.004036 0.023460
#
#
# Mechanical properties :
#
#
# Convention : Reuss Voigt Hill
#
# Bulk Modulus (GPa) = 36.00071 42.41282 39.20677
# Shear Modulus (GPa) = 30.68703 38.90651 34.79677
#
# Velocity S-wave (km/s) = 3.39452 3.82219 3.61468
# Velocity P-wave (km/s) = 5.37417 5.95017 5.66949
#
# Compressibility (1/GPa) = 0.02777723
#
# Stress axis : x y z
#
# Youngs Moduli (GPa) = 67.42036 80.78141 87.05741
#
# Poissons Ratio (x) = 0.17688 -0.06073
# Poissons Ratio (y) = 0.14762 0.34548
# Poissons Ratio (z) = -0.04703 0.32057
#
# Static dielectric constant tensor:
#      x y z
#    x 4.945770 0.239200 0.050060 
#    y 0.239200 5.130610 0.172700 
#    z 0.050060 0.172700 4.430950 
# 
# 
# High freq. dielectric constant tensor:
#      x y z
#    x 2.078930 0.015960 0.004480 
#    y 0.015960 2.082120 0.011060 
#    z 0.004480 0.011060 2.057270 
# 
# From -- ./inp_files/70556.got.cif
#   From: 2010.06.25/outbox.cif.g09.slc.cpg/sg2_36_cif.got.tgz:70556.got - 2010.06.27 13:26:56.
