data_PCOD8022311
_publ_section_title
;
Structure prediction by ZEFSAII (Michael W. Deem and Ramdas Pophale) SiO2 
 PCOD8022311
Probable space group: P -1
;
_chemical_formula_sum "Si O2"
_cell_formula_units_Z 14
_cell_length_a 8.359472
_cell_length_b 8.881600
_cell_length_c 12.343096
_cell_angle_alpha 69.071897
_cell_angle_beta 117.119245
_cell_angle_gamma 71.794447
_cell_volume 625.092150
_symmetry_space_group_name_H-M "P -1"
_symmetry_group_IT_number 2
_symmetry_cell_setting 'triclinic'
loop_
_space_group_symop_operation_xyz
x,y,z
-x,-y,-z
loop_
_atom_site_type_symbol
_atom_site_label
_atom_site_fract_x
_atom_site_fract_y
_atom_site_fract_z
Si Si1 0.865544 0.326626 0.188120
Si Si2 0.005905 0.822574 0.094778
Si Si3 0.556449 0.538775 0.623613
Si Si4 0.327805 0.255094 0.074548
Si Si5 0.667422 0.803422 0.663846
Si Si6 0.212528 0.007619 0.790450
Si Si7 0.898996 0.215732 0.458155
O O1 0.789244 0.185900 0.171815
O O2 0.873239 0.352028 0.314513
O O3 0.108827 0.216345 0.245958
O O4 0.715168 0.539153 0.030562
O O5 0.267956 0.668196 0.214485
O O6 0.890289 0.876988 0.160713
O O7 0.887458 0.745857 0.005860
O O8 0.000000 0.000000 0.000000
O O9 0.500000 0.500000 0.500000
O O10 0.687484 0.640433 0.631795
O O11 0.339454 0.680660 0.589762
O O12 0.404895 0.218137 0.233128
O O13 0.531919 0.074766 0.117433
O O14 0.500000 0.000000 0.500000
O O15 0.073469 0.177934 0.613277
O O16 0.000000 0.000000 0.500000
#
# Coordination Sequence:
#
# PCOD8022311 Si02
#       7
#     2   2   2   2   2   2   2
#     4  11  23  42  72 103 138 183 244 295 346 420
#     4  12  28  46  70 103 149 189 233 298 361 417
#     4  12  26  48  73 104 143 188 242 291 355 427
#     4  12  26  46  70 105 141 185 245 294 352 425
#     4  12  25  45  73 102 140 186 243 294 355 428
#     4  11  23  45  69 102 145 187 233 291 360 425
#     4  10  22  45  71 102 137 188 238 286 349 424
#
# _framework density 22.396697
#
# number of rings (size 3 to 8) (size 9 to 14) (size 15 to 20)
#    0.000    0.571    2.857    6.429    6.000    0.000 
#    0.000    1.429    0.000    0.000    0.000    0.000 
#    0.000    0.000    0.000    0.000    0.000    0.000 
#
# Total GULP energy -173527.959897 kJ/mol
# GULP energy per Si atom -12394.854278 kJ/mol
# Density = 2.234572 g / cm^3
# Si number density = 22.396697 Si / 1000 Ang^3
#
#
#
# Elastic Constant Matrix: (Units=GPa)
#
#
# Indices 1 2 3 4 5 6 
#
# 1 83.0252 24.2078 40.6591 -7.8293 7.0560 -19.5984
# 2 24.2078 92.0484 49.7773 2.2232 -4.0384 -8.2892
# 3 40.6591 49.7773 168.7172 -15.0094 -8.6964 -8.3673
# 4 -7.8293 2.2232 -15.0094 41.3197 -8.1700 3.6013
# 5 7.0560 -4.0384 -8.6964 -8.1700 52.6449 -8.5077
# 6 -19.5984 -8.2892 -8.3673 3.6013 -8.5077 47.5994
#
#
#
# Elastic Compliance Matrix: (Units=1/GPa)
#
#
# Indices 1 2 3 4 5 6 
#
# 1 0.015538 -0.002208 -0.002814 0.001259 -0.001694 0.005120
# 2 -0.002208 0.013579 -0.003609 -0.002450 0.000539 0.001103
# 3 -0.002814 -0.003609 0.008015 0.002960 0.001839 -0.000274
# 4 0.001259 -0.002450 0.002960 0.026523 0.004143 -0.000654
# 5 -0.001694 0.000539 0.001839 0.004143 0.020713 0.003108
# 6 0.005120 0.001103 -0.000274 -0.000654 0.003108 0.023866
#
#
# Mechanical properties :
#
#
# Convention : Reuss Voigt Hill
#
# Bulk Modulus (GPa) = 50.33328 63.67548 57.00438
# Shear Modulus (GPa) = 37.84453 43.58923 40.71688
#
# Velocity S-wave (km/s) = 4.11510 4.41640 4.26841
# Velocity P-wave (km/s) = 6.71573 7.38232 7.05690
#
# Compressibility (1/GPa) = 0.01986757
#
# Stress axis : x y z
#
# Youngs Moduli (GPa) = 64.35849 73.64545 124.76951
#
# Poissons Ratio (x) = 0.16261 0.35115
# Poissons Ratio (y) = 0.14211 0.45035
# Poissons Ratio (z) = 0.18113 0.26582
#
# Static dielectric constant tensor:
#      x y z
#    x 4.439530 -0.392250 0.214520 
#    y -0.392250 2.688730 -2.437250 
#    z 0.214520 -2.437250 1.116780 
# 
# 
# High freq. dielectric constant tensor:
#      x y z
#    x 1.882690 -0.013180 0.006980 
#    y -0.013180 1.874170 -0.001650 
#    z 0.006980 -0.001650 1.908300 
# 
# From -- ./inp_files/156870.got.cif
#   From: 2010.06.25/outbox.cif.g09.slc.cpg/sg2_79_cif.got.tgz:156870.got - 2010.06.27 13:26:56.
