data_PCOD8022321
_publ_section_title
;
Structure prediction by ZEFSAII (Michael W. Deem and Ramdas Pophale) SiO2 
 PCOD8022321
Probable space group: P -1
;
_chemical_formula_sum "Si O2"
_cell_formula_units_Z 16
_cell_length_a 19.484937
_cell_length_b 5.364999
_cell_length_c 10.227748
_cell_angle_alpha 63.115627
_cell_angle_beta 137.627023
_cell_angle_gamma 104.917739
_cell_volume 637.451180
_symmetry_space_group_name_H-M "P -1"
_symmetry_group_IT_number 2
_symmetry_cell_setting 'triclinic'
loop_
_space_group_symop_operation_xyz
x,y,z
-x,-y,-z
loop_
_atom_site_type_symbol
_atom_site_label
_atom_site_fract_x
_atom_site_fract_y
_atom_site_fract_z
Si Si1 0.250483 0.436006 0.577733
Si Si2 0.194701 0.982552 0.772652
Si Si3 0.039256 0.668006 0.136154
Si Si4 0.436309 0.263511 0.726601
Si Si5 0.719432 0.792610 0.929607
Si Si6 0.939738 0.437265 0.301710
Si Si7 0.645054 0.348844 0.098734
Si Si8 0.572420 0.072825 0.469085
O O1 0.185380 0.306121 0.632851
O O2 0.164580 0.622811 0.324721
O O3 0.328120 0.207940 0.656229
O O4 0.331145 0.613529 0.722805
O O5 0.080769 0.892360 0.651207
O O6 0.255614 0.830861 0.775544
O O7 0.255925 0.949638 0.003775
O O8 0.998319 0.526170 0.238615
O O9 0.000000 0.500000 0.000000
O O10 0.000000 0.000000 0.000000
O O11 0.456798 0.065211 0.675863
O O12 0.419451 0.597190 0.596513
O O13 0.539670 0.204607 0.976809
O O14 0.682899 0.912842 0.708886
O O15 0.823532 0.588350 0.101489
O O16 0.633158 0.637676 0.925014
O O17 0.000000 0.500000 0.500000
O O18 0.500000 0.000000 0.500000
#
# Coordination Sequence:
#
# PCOD8022321 Si02
#       8
#     2   2   2   2   2   2   2   2
#     4  11  28  48  73 111 151 201 258 318 389 465
#     4  10  23  44  80 105 149 191 265 315 373 458
#     4  12  32  52  78 114 161 200 256 328 403 459
#     4  12  28  43  76 108 154 205 245 315 388 452
#     4  10  23  40  71 106 139 191 251 311 368 448
#     4  11  26  48  80 110 144 204 266 320 387 459
#     4  10  22  45  71 108 146 193 252 312 368 449
#     4  12  26  45  71 106 154 198 256 303 379 463
#
# _framework density 25.099961
#
# number of rings (size 3 to 8) (size 9 to 14) (size 15 to 20)
#    0.000    1.000    1.250    3.750   15.750    1.500 
#    0.000    0.000    0.000    0.000    0.000    0.000 
#    0.000    0.000    0.000    0.000    0.000    0.000 
#
# Total GULP energy -198280.726002 kJ/mol
# GULP energy per Si atom -12392.545375 kJ/mol
# Density = 2.504283 g / cm^3
# Si number density = 25.099961 Si / 1000 Ang^3
#
#
#
# Elastic Constant Matrix: (Units=GPa)
#
#
# Indices 1 2 3 4 5 6 
#
# 1 126.9173 32.8353 33.8185 13.9413 5.6463 3.8122
# 2 32.8353 106.1107 32.2503 35.2231 0.7838 7.4914
# 3 33.8185 32.2503 142.2655 28.4878 13.1986 -1.8323
# 4 13.9413 35.2231 28.4878 40.0438 -15.2062 2.4378
# 5 5.6463 0.7838 13.1986 -15.2062 36.2050 6.1137
# 6 3.8122 7.4914 -1.8323 2.4378 6.1137 47.7885
#
#
#
# Elastic Compliance Matrix: (Units=1/GPa)
#
#
# Indices 1 2 3 4 5 6 
#
# 1 0.008925 -0.002091 -0.001427 -0.000634 -0.001046 -0.000273
# 2 -0.002091 0.015127 0.000851 -0.015752 -0.006844 -0.000493
# 3 -0.001427 0.000851 0.010124 -0.010739 -0.008332 0.001982
# 4 -0.000634 -0.015752 -0.010739 0.058206 0.029586 -0.004646
# 5 -0.001046 -0.006844 -0.008332 0.029586 0.044470 -0.006361
# 6 -0.000273 -0.000493 0.001982 -0.004646 -0.006361 0.022151
#
#
# Mechanical properties :
#
#
# Convention : Reuss Voigt Hill
#
# Bulk Modulus (GPa) = 34.67203 63.67798 49.17500
# Shear Modulus (GPa) = 28.74376 43.23341 35.98858
#
# Velocity S-wave (km/s) = 3.38771 4.15474 3.79068
# Velocity P-wave (km/s) = 5.39867 6.95993 6.22842
#
# Compressibility (1/GPa) = 0.02884169
#
# Stress axis : x y z
#
# Youngs Moduli (GPa) = 112.04933 66.10853 98.77177
#
# Poissons Ratio (x) = 0.13821 0.14096
# Poissons Ratio (y) = 0.23425 -0.08403
# Poissons Ratio (z) = 0.15991 -0.05624
#
# Static dielectric constant tensor:
#      x y z
#    x 4.841990 0.466930 0.086390 
#    y 0.466930 4.833940 -0.349470 
#    z 0.086390 -0.349470 4.789830 
# 
# 
# High freq. dielectric constant tensor:
#      x y z
#    x 2.014020 0.005300 0.011450 
#    y 0.005300 2.013480 -0.002360 
#    z 0.011450 -0.002360 2.009750 
# 
# From -- ./inp_files/323601.got.cif
#   From: 2010.06.25/outbox.cif.g09.slc.cpg/sg2_162_cif.got.tgz:323601.got - 2010.06.27 13:26:56.
