data_PCOD8022874
_publ_section_title
;
Structure prediction by ZEFSAII (Michael W. Deem and Ramdas Pophale) SiO2 
 PCOD8022874
Probable space group: P -1
;
_chemical_formula_sum "Si O2"
_cell_formula_units_Z 14
_cell_length_a 10.974283
_cell_length_b 6.551597
_cell_length_c 14.104165
_cell_angle_alpha 96.472457
_cell_angle_beta 57.861645
_cell_angle_gamma 59.050677
_cell_volume 623.589634
_symmetry_space_group_name_H-M "P -1"
_symmetry_group_IT_number 2
_symmetry_cell_setting 'triclinic'
loop_
_space_group_symop_operation_xyz
x,y,z
-x,-y,-z
loop_
_atom_site_type_symbol
_atom_site_label
_atom_site_fract_x
_atom_site_fract_y
_atom_site_fract_z
Si Si1 0.775120 0.355265 0.930092
Si Si2 0.244032 0.501267 0.399241
Si Si3 0.383470 0.640455 0.186225
Si Si4 0.891661 0.737104 0.678264
Si Si5 0.412235 0.741823 0.626378
Si Si6 0.075109 0.391019 0.773589
Si Si7 0.907457 0.189047 0.141939
O O1 0.661640 0.484277 0.883300
O O2 0.892338 0.453580 0.902998
O O3 0.616763 0.465994 0.085546
O O4 0.939713 0.013613 0.846450
O O5 0.299474 0.648281 0.322048
O O6 0.229769 0.317606 0.329708
O O7 0.412542 0.305708 0.397947
O O8 0.036090 0.728524 0.549956
O O9 0.277141 0.943884 0.203848
O O10 0.017140 0.519179 0.699599
O O11 0.500000 0.500000 0.500000
O O12 0.302302 0.710597 0.748080
O O13 0.263455 0.058649 0.662932
O O14 0.122440 0.535889 0.831268
O O15 0.000000 0.000000 0.000000
#
# Coordination Sequence:
#
# PCOD8022874 Si02
#       7
#     2   2   2   2   2   2   2
#     4  10  23  39  67  99 130 178 224 278 341 398
#     4  11  25  42  66 101 134 174 230 281 339 411
#     4  11  22  41  66  98 135 172 223 281 338 403
#     4  11  24  42  70 100 134 178 224 286 346 397
#     4  11  27  45  71 101 140 186 231 283 350 411
#     4  11  24  46  70 102 141 179 232 286 345 413
#     4  11  24  44  69  99 142 187 229 281 344 415
#
# _framework density 22.450662000000001
#
# number of rings (size 3 to 8) (size 9 to 14) (size 15 to 20)
#    0.000    1.143    2.857    2.143    2.000   12.000 
#    0.000    0.000    0.000    0.000    0.000    0.000 
#    0.000    0.000    0.000    0.000    0.000    0.000 
#
# Total GULP energy -173552.373364 kJ/mol
# GULP energy per Si atom -12396.598097 kJ/mol
# Density = 2.239956 g / cm^3
# Si number density = 22.450662 Si / 1000 Ang^3
#
#
#
# Elastic Constant Matrix: (Units=GPa)
#
#
# Indices 1 2 3 4 5 6 
#
# 1 115.6601 40.2051 40.1468 10.7253 -3.1930 7.9233
# 2 40.2051 113.0368 42.4669 10.6076 -3.4946 10.5185
# 3 40.1468 42.4669 114.8215 2.4299 -3.1507 14.3327
# 4 10.7253 10.6076 2.4299 35.4705 2.4007 3.0488
# 5 -3.1930 -3.4946 -3.1507 2.4007 35.4177 -2.6346
# 6 7.9233 10.5185 14.3327 3.0488 -2.6346 31.7124
#
#
#
# Elastic Compliance Matrix: (Units=1/GPa)
#
#
# Indices 1 2 3 4 5 6 
#
# 1 0.010718 -0.002529 -0.002704 -0.002311 0.000607 -0.000345
# 2 -0.002529 0.011258 -0.003031 -0.002314 0.000662 -0.001455
# 3 -0.002704 -0.003031 0.011187 0.001250 0.000108 -0.003487
# 4 -0.002311 -0.002314 0.001250 0.029866 -0.002521 -0.002301
# 5 0.000607 0.000662 0.000108 -0.002521 0.028699 0.002206
# 6 -0.000345 -0.001455 -0.003487 -0.002301 0.002206 0.034082
#
#
# Mechanical properties :
#
#
# Convention : Reuss Voigt Hill
#
# Bulk Modulus (GPa) = 60.10848 65.46180 62.78514
# Shear Modulus (GPa) = 33.81055 35.23342 34.52198
#
# Velocity S-wave (km/s) = 3.88492 3.96583 3.92558
# Velocity P-wave (km/s) = 6.85239 7.08461 6.96947
#
# Compressibility (1/GPa) = 0.01663659
#
# Stress axis : x y z
#
# Youngs Moduli (GPa) = 93.29897 88.82744 89.38804
#
# Poissons Ratio (x) = 0.22463 0.24168
# Poissons Ratio (y) = 0.23594 0.27091
# Poissons Ratio (z) = 0.25225 0.26922
#
# Static dielectric constant tensor:
#      x y z
#    x 4.127100 -0.041370 -0.235650 
#    y -0.041370 3.966760 -0.064640 
#    z -0.235650 -0.064640 3.997180 
# 
# 
# High freq. dielectric constant tensor:
#      x y z
#    x 1.896890 -0.003220 -0.013620 
#    y -0.003220 1.877660 -0.004220 
#    z -0.013620 -0.004220 1.886000 
# 
# From -- ./inp_files/124377.got.cif
#   From: 2010.06.25/outbox.cif.g09.slc.cpg/sg2_63_cif.got.tgz:124377.got - 2010.06.27 13:26:56.
