data_PCOD8022561
_publ_section_title
;
Structure prediction by ZEFSAII (Michael W. Deem and Ramdas Pophale) SiO2 
 PCOD8022561
Probable space group: P -1
;
_chemical_formula_sum "Si O2"
_cell_formula_units_Z 14
_cell_length_a 12.190967
_cell_length_b 18.222831
_cell_length_c 11.930978
_cell_angle_alpha 149.128923
_cell_angle_beta 36.331988
_cell_angle_gamma 153.114118
_cell_volume 605.781488
_symmetry_space_group_name_H-M "P -1"
_symmetry_group_IT_number 2
_symmetry_cell_setting 'triclinic'
loop_
_space_group_symop_operation_xyz
x,y,z
-x,-y,-z
loop_
_atom_site_type_symbol
_atom_site_label
_atom_site_fract_x
_atom_site_fract_y
_atom_site_fract_z
Si Si1 0.911628 0.796115 0.823925
Si Si2 0.573763 0.350200 0.280820
Si Si3 0.397466 0.418641 0.737745
Si Si4 0.308800 0.081906 0.464708
Si Si5 0.122662 0.761719 0.042432
Si Si6 0.145966 0.714798 0.699186
Si Si7 0.109403 0.237678 0.447127
O O1 0.619749 0.631994 0.878147
O O2 0.972892 0.754525 0.599237
O O3 0.060715 0.804319 0.813189
O O4 0.000000 0.000000 0.000000
O O5 0.493107 0.373374 0.496839
O O6 0.323309 0.221759 0.243341
O O7 0.765504 0.556432 0.332087
O O8 0.698104 0.259909 0.072280
O O9 0.310845 0.254968 0.685102
O O10 0.155358 0.392166 0.881411
O O11 0.569630 0.162029 0.399021
O O12 0.236787 0.974765 0.262370
O O13 0.116385 0.932564 0.519471
O O14 0.110040 0.731356 0.880860
O O15 0.000000 0.500000 0.500000
#
# Coordination Sequence:
#
# PCOD8022561 Si02
#       7
#     2   2   2   2   2   2   2
#     4  11  27  46  69 103 149 207 238 292 375 445
#     4  10  22  47  69 105 150 181 233 309 370 417
#     4  11  24  47  71 110 146 183 250 307 363 428
#     4  12  25  43  77 113 141 188 253 307 364 429
#     4  12  26  42  83 111 137 194 251 303 369 428
#     4  12  26  49  72 105 155 194 245 304 358 440
#     4  10  24  45  70 102 154 184 233 313 362 430
#
# _framework density 23.110643
#
# number of rings (size 3 to 8) (size 9 to 14) (size 15 to 20)
#    0.000    0.857    4.286    1.714    4.000    4.000 
#    0.000    0.000    0.000    0.000    0.000    0.000 
#    0.000    0.000    0.000    0.000    0.000    0.000 
#
# Total GULP energy -173517.810047 kJ/mol
# GULP energy per Si atom -12394.129289 kJ/mol
# Density = 2.305804 g / cm^3
# Si number density = 23.110643 Si / 1000 Ang^3
#
#
#
# Elastic Constant Matrix: (Units=GPa)
#
#
# Indices 1 2 3 4 5 6 
#
# 1 122.1305 46.8214 35.7877 5.1617 -6.7675 6.4644
# 2 46.8214 183.8800 53.7021 15.6720 -4.1585 6.6462
# 3 35.7877 53.7021 79.6093 9.8825 -10.0928 4.6100
# 4 5.1617 15.6720 9.8825 36.4706 4.2126 -2.0693
# 5 -6.7675 -4.1585 -10.0928 4.2126 37.4872 -0.7202
# 6 6.4644 6.6462 4.6100 -2.0693 -0.7202 42.6284
#
#
#
# Elastic Compliance Matrix: (Units=1/GPa)
#
#
# Indices 1 2 3 4 5 6 
#
# 1 0.009802 -0.001497 -0.003256 0.000006 0.000709 -0.000889
# 2 -0.001497 0.007131 -0.003928 -0.001779 -0.000348 -0.000552
# 3 -0.003256 -0.003928 0.017632 -0.003148 0.004060 -0.000885
# 4 0.000006 -0.001779 -0.003148 0.029649 -0.004338 0.001983
# 5 0.000709 -0.000348 0.004060 -0.004338 0.028342 -0.000224
# 6 -0.000889 -0.000552 -0.000885 0.001983 -0.000224 0.023868
#
#
# Mechanical properties :
#
#
# Convention : Reuss Voigt Hill
#
# Bulk Modulus (GPa) = 58.13430 73.13804 65.63617
# Shear Modulus (GPa) = 35.83735 39.93782 37.88759
#
# Velocity S-wave (km/s) = 3.94215 4.16157 4.05334
# Velocity P-wave (km/s) = 6.77717 7.40319 7.09708
#
# Compressibility (1/GPa) = 0.01720155
#
# Stress axis : x y z
#
# Youngs Moduli (GPa) = 102.01859 140.24151 56.71654
#
# Poissons Ratio (x) = 0.21000 0.18465
# Poissons Ratio (y) = 0.15277 0.22279
# Poissons Ratio (z) = 0.33214 0.55089
#
# Static dielectric constant tensor:
#      x y z
#    x 6.617780 0.483840 0.569980 
#    y 0.483840 4.554300 0.249660 
#    z 0.569980 0.249660 4.276480 
# 
# 
# High freq. dielectric constant tensor:
#      x y z
#    x 1.923590 0.003530 -0.002660 
#    y 0.003530 1.935370 0.010270 
#    z -0.002660 0.010270 1.888670 
# 
# From -- ./inp_files/437426.got.cif
#   From: 2010.06.25/outbox.cif.g09.slc.cpg/sg2_219_cif.got.tgz:437426.got - 2010.06.27 13:26:56.
