data_PCOD8022023
_publ_section_title
;
Structure prediction by ZEFSAII (Michael W. Deem and Ramdas Pophale) SiO2 
 PCOD8022023
Probable space group: P -1
;
_chemical_formula_sum "Si O2"
_cell_formula_units_Z 16
_cell_length_a 11.651169
_cell_length_b 14.669946
_cell_length_c 13.706649
_cell_angle_alpha 46.912701
_cell_angle_beta 138.091541
_cell_angle_gamma 152.170072
_cell_volume 728.193520
_symmetry_space_group_name_H-M "P -1"
_symmetry_group_IT_number 2
_symmetry_cell_setting 'triclinic'
loop_
_space_group_symop_operation_xyz
x,y,z
-x,-y,-z
loop_
_atom_site_type_symbol
_atom_site_label
_atom_site_fract_x
_atom_site_fract_y
_atom_site_fract_z
Si Si1 0.329380 0.909587 0.557276
Si Si2 0.585202 0.691904 0.903000
Si Si3 0.154713 0.518957 0.496995
Si Si4 0.165997 0.675584 0.050438
Si Si5 0.008014 0.376293 0.809345
Si Si6 0.269649 0.009625 0.867043
Si Si7 0.731591 0.839925 0.679140
Si Si8 0.310349 0.034770 0.101411
O O1 0.467347 0.915278 0.730934
O O2 0.028996 0.690179 0.512646
O O3 0.500000 0.000000 0.500000
O O4 0.284328 0.028715 0.463323
O O5 0.765269 0.831983 0.822024
O O6 0.726432 0.842729 0.973863
O O7 0.285287 0.584369 0.786019
O O8 0.500000 0.500000 0.000000
O O9 0.222493 0.669512 0.353803
O O10 0.441624 0.614684 0.634642
O O11 0.000000 0.500000 0.500000
O O12 0.994240 0.594553 0.099157
O O13 0.471015 0.790698 0.174425
O O14 0.207964 0.836856 0.914862
O O15 0.000000 0.500000 0.000000
O O16 0.967902 0.203879 0.888835
O O17 0.996813 0.932608 0.728653
O O18 0.374097 0.070189 0.001423
#
# Coordination Sequence:
#
# PCOD8022023 Si02
#       8
#     2   2   2   2   2   2   2   2
#     4  12  21  38  65  92 129 183 213 253 321 392
#     4  12  24  36  59 100 136 171 214 267 325 386
#     4  12  21  38  63  93 134 172 216 257 314 400
#     4  10  22  44  72  88 126 169 224 275 334 388
#     4  11  21  38  65  95 121 173 220 263 330 382
#     4  10  25  43  64 100 123 171 219 279 333 377
#     4  12  25  41  62  97 141 169 216 267 320 394
#     4  11  21  40  63  91 133 168 221 262 326 394
#
# _framework density 21.972182
#
# number of rings (size 3 to 8) (size 9 to 14) (size 15 to 20)
#    0.000    0.750    6.250    2.250    0.000    4.000 
#    0.000    0.625    0.000    1.500    0.000    0.000 
#    0.000    0.000    0.000    0.000    0.000    0.000 
#
# Total GULP energy -198212.024401 kJ/mol
# GULP energy per Si atom -12388.251525 kJ/mol
# Density = 2.192217 g / cm^3
# Si number density = 21.972182 Si / 1000 Ang^3
#
#
#
# Elastic Constant Matrix: (Units=GPa)
#
#
# Indices 1 2 3 4 5 6 
#
# 1 70.5138 45.0704 9.9765 6.7707 18.1520 -13.7550
# 2 45.0704 120.3659 21.8766 9.4286 12.8912 -20.5190
# 3 9.9765 21.8766 61.4132 4.0293 9.4167 -8.6101
# 4 6.7707 9.4286 4.0293 36.9198 6.5123 7.2287
# 5 18.1520 12.8912 9.4167 6.5123 30.5205 12.3252
# 6 -13.7550 -20.5190 -8.6101 7.2287 12.3252 44.9609
#
#
#
# Elastic Compliance Matrix: (Units=1/GPa)
#
#
# Indices 1 2 3 4 5 6 
#
# 1 0.023735 -0.005747 0.002126 -0.002237 -0.015800 0.009737
# 2 -0.005747 0.012003 -0.002266 -0.002208 -0.002195 0.004242
# 3 0.002126 -0.002266 0.018891 -0.001560 -0.008108 0.005707
# 4 -0.002237 -0.002208 -0.001560 0.029672 -0.000963 -0.006497
# 5 -0.015800 -0.002195 -0.008108 -0.000963 0.054781 -0.022250
# 6 0.009737 0.004242 0.005707 -0.006497 -0.022250 0.035393
#
#
# Mechanical properties :
#
#
# Convention : Reuss Voigt Hill
#
# Bulk Modulus (GPa) = 23.33441 45.12664 34.23053
# Shear Modulus (GPa) = 24.93336 34.17153 29.55244
#
# Velocity S-wave (km/s) = 3.37229 3.94790 3.67139
# Velocity P-wave (km/s) = 5.07997 6.43148 5.79526
#
# Compressibility (1/GPa) = 0.04285517
#
# Stress axis : x y z
#
# Youngs Moduli (GPa) = 42.13122 83.31320 52.93620
#
# Poissons Ratio (x) = 0.47878 -0.11253
# Poissons Ratio (y) = 0.24212 0.11995
# Poissons Ratio (z) = -0.08956 0.18878
#
# Static dielectric constant tensor:
#      x y z
#    x 4.011600 0.115410 0.273630 
#    y 0.115410 4.441150 0.301730 
#    z 0.273630 0.301730 3.734040 
# 
# 
# High freq. dielectric constant tensor:
#      x y z
#    x 1.838810 -0.002680 0.010160 
#    y -0.002680 1.890100 0.011770 
#    z 0.010160 0.011770 1.854500 
# 
# From -- ./inp_files/521566.got.cif
#   From: 2010.06.25/outbox.cif.g09.slc.cpg/sg2_261_cif.got.tgz:521566.got - 2010.06.27 13:26:56.
