data_PCOD8022590
_publ_section_title
;
Structure prediction by ZEFSAII (Michael W. Deem and Ramdas Pophale) SiO2 
 PCOD8022590
Probable space group: P -1
;
_chemical_formula_sum "Si O2"
_cell_formula_units_Z 14
_cell_length_a 9.596808
_cell_length_b 16.092851
_cell_length_c 10.752396
_cell_angle_alpha 155.648112
_cell_angle_beta 120.405087
_cell_angle_gamma 63.795950
_cell_volume 589.669586
_symmetry_space_group_name_H-M "P -1"
_symmetry_group_IT_number 2
_symmetry_cell_setting 'triclinic'
loop_
_space_group_symop_operation_xyz
x,y,z
-x,-y,-z
loop_
_atom_site_type_symbol
_atom_site_label
_atom_site_fract_x
_atom_site_fract_y
_atom_site_fract_z
Si Si1 0.496920 0.953727 0.174479
Si Si2 0.128125 0.482395 0.646059
Si Si3 0.984016 0.375831 0.951126
Si Si4 0.457387 0.678417 0.130364
Si Si5 0.164543 0.033488 0.047818
Si Si6 0.333176 0.372531 0.072340
Si Si7 0.277023 0.814630 0.576940
O O1 0.552829 0.104822 0.515700
O O2 0.304108 0.932797 0.051067
O O3 0.567241 0.043562 0.198115
O O4 0.550462 0.725801 0.908671
O O5 0.207174 0.269839 0.377877
O O6 0.000000 0.500000 0.500000
O O7 0.285558 0.638275 0.925673
O O8 0.037446 0.498559 0.760396
O O9 0.823700 0.230953 0.659036
O O10 0.155477 0.272086 0.891936
O O11 0.000000 0.500000 0.000000
O O12 0.500000 0.500000 0.000000
O O13 0.609107 0.695956 0.129982
O O14 0.155861 0.932415 0.770310
O O15 0.000000 0.000000 0.000000
O O16 0.334932 0.617193 0.407842
#
# Coordination Sequence:
#
# PCOD8022590 Si02
#       7
#     2   2   2   2   2   2   2
#     4  12  26  45  76 105 148 199 252 301 385 446
#     4  12  27  47  78 112 150 196 250 318 382 441
#     4  10  22  47  76 104 147 201 243 305 372 448
#     4  12  22  49  74 104 150 200 245 311 376 451
#     4  12  28  46  71 110 153 192 248 316 385 436
#     4  11  25  42  75 107 141 192 259 294 366 457
#     4  11  24  48  73 104 153 196 241 313 371 447
#
# _framework density 23.742108999999999
#
# number of rings (size 3 to 8) (size 9 to 14) (size 15 to 20)
#    0.000    0.571    4.286    3.429    6.000    2.286 
#    0.000    0.000    0.000    0.000    0.000    0.000 
#    0.000    0.000    0.000    0.000    0.000    0.000 
#
# Total GULP energy -173515.132161 kJ/mol
# GULP energy per Si atom -12393.938011 kJ/mol
# Density = 2.368807 g / cm^3
# Si number density = 23.742109 Si / 1000 Ang^3
#
#
#
# Elastic Constant Matrix: (Units=GPa)
#
#
# Indices 1 2 3 4 5 6 
#
# 1 146.8166 55.0614 46.9104 3.7184 -20.6359 -12.5979
# 2 55.0614 145.7384 45.6719 -3.9021 -7.5217 -20.5617
# 3 46.9104 45.6719 89.9443 -5.4596 -25.6209 7.4342
# 4 3.7184 -3.9021 -5.4596 42.3410 2.0743 -3.1669
# 5 -20.6359 -7.5217 -25.6209 2.0743 38.9832 -5.8935
# 6 -12.5979 -20.5617 7.4342 -3.1669 -5.8935 41.8504
#
#
#
# Elastic Compliance Matrix: (Units=1/GPa)
#
#
# Indices 1 2 3 4 5 6 
#
# 1 0.009281 -0.001965 -0.003348 -0.001363 0.002817 0.002717
# 2 -0.001965 0.009704 -0.004696 0.000902 -0.001568 0.004858
# 3 -0.003348 -0.004696 0.018156 0.001399 0.008386 -0.005253
# 4 -0.001363 0.000902 0.001399 0.024148 -0.000684 0.001515
# 5 0.002817 -0.001568 0.008386 -0.000684 0.032867 0.003165
# 6 0.002717 0.004858 -0.005253 0.001515 0.003165 0.028593
#
#
# Mechanical properties :
#
#
# Convention : Reuss Voigt Hill
#
# Bulk Modulus (GPa) = 58.39670 75.30961 66.85315
# Shear Modulus (GPa) = 33.67543 40.29193 36.98368
#
# Velocity S-wave (km/s) = 3.77023 4.12402 3.95108
# Velocity P-wave (km/s) = 6.60322 7.38007 7.00242
#
# Compressibility (1/GPa) = 0.01712426
#
# Stress axis : x y z
#
# Youngs Moduli (GPa) = 107.74143 103.04578 55.07693
#
# Poissons Ratio (x) = 0.20253 0.18437
# Poissons Ratio (y) = 0.21175 0.25865
# Poissons Ratio (z) = 0.36067 0.48391
#
# Static dielectric constant tensor:
#      x y z
#    x 4.840220 -0.415060 -0.010500 
#    y -0.415060 4.489750 -0.018110 
#    z -0.010500 -0.018110 4.538080 
# 
# 
# High freq. dielectric constant tensor:
#      x y z
#    x 1.963780 -0.009320 -0.009570 
#    y -0.009320 1.931820 -0.006170 
#    z -0.009570 -0.006170 1.934890 
# 
# From -- ./inp_files/402573.got.cif
#   From: 2010.06.25/outbox.cif.g09.slc.cpg/sg2_202_cif.got.tgz:402573.got - 2010.06.27 13:26:56.
