data_PCOD8022157
_publ_section_title
;
Structure prediction by ZEFSAII (Michael W. Deem and Ramdas Pophale) SiO2 
 PCOD8022157
Probable space group: P -1
;
_chemical_formula_sum "Si O2"
_cell_formula_units_Z 14
_cell_length_a 5.116482
_cell_length_b 10.384656
_cell_length_c 23.203760
_cell_angle_alpha 145.994586
_cell_angle_beta 57.577612
_cell_angle_gamma 115.061567
_cell_volume 581.464073
_symmetry_space_group_name_H-M "P -1"
_symmetry_group_IT_number 2
_symmetry_cell_setting 'triclinic'
loop_
_space_group_symop_operation_xyz
x,y,z
-x,-y,-z
loop_
_atom_site_type_symbol
_atom_site_label
_atom_site_fract_x
_atom_site_fract_y
_atom_site_fract_z
Si Si1 0.747816 0.936701 0.757706
Si Si2 0.642590 0.335761 0.373780
Si Si3 0.649198 0.989280 0.058702
Si Si4 0.856486 0.444099 0.935510
Si Si5 0.613026 0.369368 0.117336
Si Si6 0.267086 0.277223 0.578248
Si Si7 0.565446 0.212765 0.638119
O O1 0.599438 0.859608 0.685943
O O2 0.450397 0.968081 0.847808
O O3 0.015259 0.760620 0.685197
O O4 0.913741 0.174414 0.814133
O O5 0.500000 0.500000 0.500000
O O6 0.643875 0.482401 0.369370
O O7 0.497242 0.206198 0.121610
O O8 0.521766 0.740085 0.965308
O O9 0.000000 0.000000 0.000000
O O10 0.016794 0.606012 0.928345
O O11 0.500000 0.500000 0.000000
O O12 0.000000 0.500000 0.000000
O O13 0.486454 0.631335 0.240920
O O14 0.325424 0.295186 0.646752
O O15 0.916643 0.239082 0.586370
O O16 0.476426 0.060206 0.446593
#
# Coordination Sequence:
#
# PCOD8022157 Si02
#       7
#     2   2   2   2   2   2   2
#     4  12  27  48  75 102 150 194 240 301 373 425
#     4  12  27  47  73 104 141 194 249 300 357 442
#     4  11  25  43  72 106 141 184 239 299 359 444
#     4  12  26  48  69 103 147 192 234 291 357 442
#     4  11  25  41  70 103 139 178 242 284 362 428
#     4  10  22  45  66  99 140 173 240 287 365 402
#     4  10  23  41  70 100 133 185 222 305 347 427
#
# _framework density 24.077154
#
# number of rings (size 3 to 8) (size 9 to 14) (size 15 to 20)
#    0.000    0.857    1.429    4.714   10.000    0.000 
#    5.143    0.000    0.000    0.000    0.000    0.000 
#    0.000    0.000    0.000    0.000    0.000    0.000 
#
# Total GULP energy -173521.504575 kJ/mol
# GULP energy per Si atom -12394.393184 kJ/mol
# Density = 2.402235 g / cm^3
# Si number density = 24.077154 Si / 1000 Ang^3
#
#
#
# Elastic Constant Matrix: (Units=GPa)
#
#
# Indices 1 2 3 4 5 6 
#
# 1 134.6119 15.6255 49.8767 0.7735 7.8153 16.5582
# 2 15.6255 81.6309 22.6892 7.2137 7.8916 21.7180
# 3 49.8767 22.6892 156.9840 5.2100 19.4357 18.2926
# 4 0.7735 7.2137 5.2100 28.4959 5.4917 0.8170
# 5 7.8153 7.8916 19.4357 5.4917 45.4184 3.1501
# 6 16.5582 21.7180 18.2926 0.8170 3.1501 32.4571
#
#
#
# Elastic Compliance Matrix: (Units=1/GPa)
#
#
# Indices 1 2 3 4 5 6 
#
# 1 0.008709 -0.000236 -0.002369 0.000396 -0.000289 -0.002932
# 2 -0.000236 0.015472 -0.000781 -0.003251 -0.001256 -0.009589
# 3 -0.002369 -0.000781 0.007858 -0.000608 -0.002577 -0.002433
# 4 0.000396 -0.003251 -0.000608 0.036698 -0.003802 0.001761
# 5 -0.000289 -0.001256 -0.002577 -0.003802 0.023833 0.000223
# 6 -0.002932 -0.009589 -0.002433 0.001761 0.000223 0.040027
#
#
# Mechanical properties :
#
#
# Convention : Reuss Voigt Hill
#
# Bulk Modulus (GPa) = 39.57354 61.06774 50.32064
# Shear Modulus (GPa) = 33.83164 40.27662 37.05413
#
# Velocity S-wave (km/s) = 3.75258 4.09444 3.92723
# Velocity P-wave (km/s) = 5.93697 6.91166 6.44277
#
# Compressibility (1/GPa) = 0.02526941
#
# Stress axis : x y z
#
# Youngs Moduli (GPa) = 114.82471 64.63215 127.25551
#
# Poissons Ratio (x) = 0.01523 0.30143
# Poissons Ratio (y) = 0.02706 0.09934
# Poissons Ratio (z) = 0.27198 0.05046
#
# Static dielectric constant tensor:
#      x y z
#    x 4.316720 -0.124400 -0.015950 
#    y -0.124400 5.382180 0.425140 
#    z -0.015950 0.425140 4.580840 
# 
# 
# High freq. dielectric constant tensor:
#      x y z
#    x 1.958490 0.010830 0.004650 
#    y 0.010830 1.949150 0.020490 
#    z 0.004650 0.020490 1.967510 
# 
# From -- ./inp_files/615512.got.cif
#   From: 2010.06.25/outbox.cif.g09.slc.cpg/sg2_308_cif.got.tgz:615512.got - 2010.06.27 13:26:56.
