data_PCOD8022153
_publ_section_title
;
Structure prediction by ZEFSAII (Michael W. Deem and Ramdas Pophale) SiO2 
 PCOD8022153
Probable space group: P -1
;
_chemical_formula_sum "Si O2"
_cell_formula_units_Z 14
_cell_length_a 7.638252
_cell_length_b 11.793221
_cell_length_c 8.771378
_cell_angle_alpha 80.578499
_cell_angle_beta 64.574181
_cell_angle_gamma 53.028608
_cell_volume 565.202234
_symmetry_space_group_name_H-M "P -1"
_symmetry_group_IT_number 2
_symmetry_cell_setting 'triclinic'
loop_
_space_group_symop_operation_xyz
x,y,z
-x,-y,-z
loop_
_atom_site_type_symbol
_atom_site_label
_atom_site_fract_x
_atom_site_fract_y
_atom_site_fract_z
Si Si1 0.439458 0.773707 0.531895
Si Si2 0.977156 0.785193 0.192913
Si Si3 0.746838 0.520413 0.973482
Si Si4 0.514464 0.941081 0.690501
Si Si5 0.824959 0.490961 0.287796
Si Si6 0.058160 0.776186 0.514763
Si Si7 0.347034 0.773272 0.895167
O O1 0.479690 0.894342 0.541819
O O2 0.697106 0.632515 0.411830
O O3 0.224027 0.829933 0.477004
O O4 0.341944 0.741112 0.725735
O O5 0.064812 0.744135 0.341995
O O6 0.078259 0.646508 0.087157
O O7 0.086135 0.862661 0.056377
O O8 0.688253 0.889120 0.254799
O O9 0.900535 0.576268 0.845305
O O10 0.676525 0.541468 0.173797
O O11 0.497218 0.616571 0.954343
O O12 0.778425 0.898972 0.635470
O O13 0.465567 0.857487 0.851495
O O14 0.823989 0.371754 0.405476
#
# Coordination Sequence:
#
# PCOD8022153 Si02
#       7
#     2   2   2   2   2   2   2
#     4  10  23  41  70  95 135 171 222 272 328 388
#     4  12  24  41  69 100 133 180 218 271 334 400
#     4  11  23  40  72  97 135 172 229 270 339 384
#     4  10  25  45  68  96 140 175 219 269 336 396
#     4  11  22  42  64 105 133 171 223 289 318 394
#     4  12  23  42  69  98 135 174 224 271 332 390
#     4  10  22  45  66  97 134 174 220 272 327 390
#
# _framework density 24.769895999999999
#
# number of rings (size 3 to 8) (size 9 to 14) (size 15 to 20)
#    0.857    0.286    1.429    5.143    0.000    2.286 
#    0.000    5.714    0.000    0.000    0.000    0.000 
#    0.000    0.000    0.000    0.000    0.000    0.000 
#
# Total GULP energy -173512.324493 kJ/mol
# GULP energy per Si atom -12393.737464 kJ/mol
# Density = 2.471352 g / cm^3
# Si number density = 24.769896 Si / 1000 Ang^3
#
#
#
# Elastic Constant Matrix: (Units=GPa)
#
#
# Indices 1 2 3 4 5 6 
#
# 1 71.4509 9.8883 -9.9986 12.7293 3.7237 -13.2431
# 2 9.8883 81.8426 1.2210 14.4834 10.9206 -13.6660
# 3 -9.9986 1.2210 114.1080 0.1744 -2.4702 -9.5780
# 4 12.7293 14.4834 0.1744 26.2392 -1.7736 -2.7628
# 5 3.7237 10.9206 -2.4702 -1.7736 37.9854 2.9805
# 6 -13.2431 -13.6660 -9.5780 -2.7628 2.9805 36.9781
#
#
#
# Elastic Compliance Matrix: (Units=1/GPa)
#
#
# Indices 1 2 3 4 5 6 
#
# 1 0.016959 0.000807 0.001977 -0.008183 -0.002657 0.006487
# 2 0.000807 0.015319 0.000293 -0.008597 -0.005322 0.005813
# 3 0.001977 0.000293 0.009199 -0.000850 0.000035 0.003132
# 4 -0.008183 -0.008597 -0.000850 0.046869 0.005664 -0.003282
# 5 -0.002657 -0.005322 0.000035 0.005664 0.028760 -0.004804
# 6 0.006487 0.005813 0.003132 -0.003282 -0.004804 0.032468
#
#
# Mechanical properties :
#
#
# Convention : Reuss Voigt Hill
#
# Bulk Modulus (GPa) = 20.99515 29.95813 25.47664
# Shear Modulus (GPa) = 31.38807 37.99325 34.69066
#
# Velocity S-wave (km/s) = 3.56362 3.92069 3.74641
# Velocity P-wave (km/s) = 5.04252 5.71109 5.38718
#
# Compressibility (1/GPa) = 0.04763006
#
# Stress axis : x y z
#
# Youngs Moduli (GPa) = 58.96547 65.27953 108.71099
#
# Poissons Ratio (x) = -0.05270 -0.21491
# Poissons Ratio (y) = -0.04760 -0.03182
# Poissons Ratio (z) = -0.11657 -0.01911
#
# Static dielectric constant tensor:
#      x y z
#    x 4.434840 -0.074720 -0.482650 
#    y -0.074720 4.171690 -0.118760 
#    z -0.482650 -0.118760 4.770660 
# 
# 
# High freq. dielectric constant tensor:
#      x y z
#    x 1.976880 -0.004060 -0.029650 
#    y -0.004060 1.983170 -0.007550 
#    z -0.029650 -0.007550 2.000550 
# 
# From -- ./inp_files/201346.got.cif
#   From: 2010.06.25/outbox.cif.g09.slc.cpg/sg2_101_cif.got.tgz:201346.got - 2010.06.27 13:26:56.
