data_PCOD8022985
_publ_section_title
;
Structure prediction by ZEFSAII (Michael W. Deem and Ramdas Pophale) SiO2 
 PCOD8022985
Probable space group: P -1
;
_chemical_formula_sum "Si O2"
_cell_formula_units_Z 14
_cell_length_a 28.733713
_cell_length_b 5.334776
_cell_length_c 11.394253
_cell_angle_alpha 110.309425
_cell_angle_beta 157.174311
_cell_angle_gamma 69.492242
_cell_volume 633.208692
_symmetry_space_group_name_H-M "P -1"
_symmetry_group_IT_number 2
_symmetry_cell_setting 'triclinic'
loop_
_space_group_symop_operation_xyz
x,y,z
-x,-y,-z
loop_
_atom_site_type_symbol
_atom_site_label
_atom_site_fract_x
_atom_site_fract_y
_atom_site_fract_z
Si Si1 0.037554 0.363585 0.686011
Si Si2 0.102189 0.268737 0.197780
Si Si3 0.443363 0.807704 0.428340
Si Si4 0.175652 0.983433 0.803612
Si Si5 0.513020 0.124322 0.867012
Si Si6 0.634169 0.657405 0.228612
Si Si7 0.045963 0.152814 0.303195
O O1 0.000000 0.500000 0.500000
O O2 0.935634 0.186070 0.463937
O O3 0.043460 0.579847 0.837772
O O4 0.165808 0.198797 0.924483
O O5 0.222387 0.383525 0.448582
O O6 0.117222 0.149596 0.345204
O O7 0.000000 0.500000 0.000000
O O8 0.054434 0.058751 0.961290
O O9 0.500000 0.500000 0.500000
O O10 0.500000 0.000000 0.500000
O O11 0.459491 0.945232 0.613054
O O12 0.301687 0.805656 0.071419
O O13 0.152402 0.114053 0.641558
O O14 0.405867 0.265862 0.719805
O O15 0.585164 0.373468 0.027721
O O16 0.597080 0.910925 0.101384
#
# Coordination Sequence:
#
# PCOD8022985 Si02
#       7
#     2   2   2   2   2   2   2
#     4   9  20  40  68  94 131 176 226 278 346 409
#     4  11  25  40  66 104 133 177 223 289 355 415
#     4  12  29  45  70 107 143 189 235 286 355 423
#     4  10  23  44  66  99 136 182 226 287 347 416
#     4  10  24  48  70 101 132 188 236 289 338 410
#     4  10  24  47  74  97 137 181 238 290 344 401
#     4  10  23  40  64 104 136 176 225 280 364 415
#
# _framework density 22.109615000000002
#
# number of rings (size 3 to 8) (size 9 to 14) (size 15 to 20)
#    0.000    1.714    0.000    1.714   10.000    6.857 
#    5.143    0.000    0.000    0.000    0.000    0.000 
#    0.000    0.000    0.000    0.000    0.000    0.000 
#
# Total GULP energy -173460.450685 kJ/mol
# GULP energy per Si atom -12390.032192 kJ/mol
# Density = 2.205929 g / cm^3
# Si number density = 22.109615 Si / 1000 Ang^3
#
#
#
# Elastic Constant Matrix: (Units=GPa)
#
#
# Indices 1 2 3 4 5 6 
#
# 1 72.6815 36.2964 49.5204 -1.8274 9.3363 -11.2505
# 2 36.2964 159.8821 54.9239 -0.3699 5.6959 -17.8674
# 3 49.5204 54.9239 116.2355 -12.3274 15.7807 -20.1814
# 4 -1.8274 -0.3699 -12.3274 37.6796 -9.3949 -2.9032
# 5 9.3363 5.6959 15.7807 -9.3949 35.2743 8.2105
# 6 -11.2505 -17.8674 -20.1814 -2.9032 8.2105 41.8166
#
#
#
# Elastic Compliance Matrix: (Units=1/GPa)
#
#
# Indices 1 2 3 4 5 6 
#
# 1 0.020180 -0.001804 -0.007336 -0.001983 -0.002645 0.001500
# 2 -0.001804 0.007765 -0.002710 -0.000815 -0.000128 0.001493
# 3 -0.007336 -0.002710 0.014928 0.003780 -0.004508 0.005221
# 4 -0.001983 -0.000815 0.003780 0.029399 0.006393 0.001728
# 5 -0.002645 -0.000128 -0.004508 0.006393 0.034969 -0.009364
# 6 0.001500 0.001493 0.005221 0.001728 -0.009364 0.029434
#
#
# Mechanical properties :
#
#
# Convention : Reuss Voigt Hill
#
# Bulk Modulus (GPa) = 52.15602 70.03117 61.09359
# Shear Modulus (GPa) = 29.98223 36.82465 33.40344
#
# Velocity S-wave (km/s) = 3.68648 4.08554 3.89113
# Velocity P-wave (km/s) = 6.46229 7.34839 6.91954
#
# Compressibility (1/GPa) = 0.01917324
#
# Stress axis : x y z
#
# Youngs Moduli (GPa) = 49.55492 128.78776 66.98645
#
# Poissons Ratio (x) = 0.23232 0.49139
# Poissons Ratio (y) = 0.08939 0.18155
# Poissons Ratio (z) = 0.36351 0.34904
#
# Static dielectric constant tensor:
#      x y z
#    x 4.122420 -0.460840 0.094280 
#    y -0.460840 4.472610 0.003330 
#    z 0.094280 0.003330 3.671790 
# 
# 
# High freq. dielectric constant tensor:
#      x y z
#    x 1.886010 -0.004010 -0.000490 
#    y -0.004010 1.893840 0.002100 
#    z -0.000490 0.002100 1.844070 
# 
# From -- ./inp_files/362802.got.cif
#   From: 2010.06.25/outbox.cif.g09.slc.cpg/sg2_182_cif.got.tgz:362802.got - 2010.06.27 13:26:56.
