data_PCOD8022216
_publ_section_title
;
Structure prediction by ZEFSAII (Michael W. Deem and Ramdas Pophale) SiO2 
 PCOD8022216
Probable space group: P -1
;
_chemical_formula_sum "Si O2"
_cell_formula_units_Z 16
_cell_length_a 12.899110
_cell_length_b 9.441132
_cell_length_c 15.694143
_cell_angle_alpha 114.557625
_cell_angle_beta 153.133245
_cell_angle_gamma 76.104653
_cell_volume 744.895924
_symmetry_space_group_name_H-M "P -1"
_symmetry_group_IT_number 2
_symmetry_cell_setting 'triclinic'
loop_
_space_group_symop_operation_xyz
x,y,z
-x,-y,-z
loop_
_atom_site_type_symbol
_atom_site_label
_atom_site_fract_x
_atom_site_fract_y
_atom_site_fract_z
Si Si1 0.554462 0.970734 0.129734
Si Si2 0.216600 0.691281 0.541243
Si Si3 0.291676 0.337564 0.790274
Si Si4 0.935883 0.153265 0.174327
Si Si5 0.879526 0.707232 0.830893
Si Si6 0.784108 0.092874 0.719515
Si Si7 0.657557 0.325167 0.562816
Si Si8 0.841284 0.583530 0.458362
O O1 0.662812 0.821710 0.176759
O O2 0.748999 0.136905 0.344375
O O3 0.339354 0.951134 0.034899
O O4 0.500000 0.000000 0.000000
O O5 0.326615 0.703290 0.532207
O O6 0.328114 0.566948 0.645222
O O7 0.926829 0.622285 0.311354
O O8 0.282527 0.326204 0.677020
O O9 0.500000 0.500000 0.000000
O O10 0.968030 0.253399 0.134661
O O11 0.999570 0.277383 0.329565
O O12 0.098888 0.035656 0.265138
O O13 0.784851 0.513228 0.732404
O O14 0.630488 0.751608 0.647097
O O15 0.060858 0.817203 0.062134
O O16 0.808582 0.230349 0.700824
O O17 0.500000 0.000000 0.500000
O O18 0.000000 0.500000 0.500000
#
# Coordination Sequence:
#
# PCOD8022216 Si02
#       8
#     2   2   2   2   2   2   2   2
#     4  12  26  42  67 101 142 184 231 299 350 420
#     4  11  23  43  68  99 137 180 234 292 362 416
#     4  11  24  43  67  98 140 183 238 290 352 435
#     4  12  25  46  72  99 139 192 232 289 370 414
#     4  11  25  50  71 104 143 190 240 295 363 433
#     4  12  27  45  74 109 144 184 241 301 358 443
#     4  11  25  47  74 103 146 185 239 300 361 431
#     4  10  22  45  68  95 135 181 235 288 344 426
#
# _framework density 21.479510000000001
#
# number of rings (size 3 to 8) (size 9 to 14) (size 15 to 20)
#    0.000    0.750    2.500    5.625    5.250    0.000 
#    2.250    0.000    0.000    0.000    0.000    0.000 
#    0.000    0.000    0.000    0.000    0.000    0.000 
#
# Total GULP energy -198296.714623 kJ/mol
# GULP energy per Si atom -12393.544664 kJ/mol
# Density = 2.143062 g / cm^3
# Si number density = 21.479510 Si / 1000 Ang^3
#
#
#
# Elastic Constant Matrix: (Units=GPa)
#
#
# Indices 1 2 3 4 5 6 
#
# 1 114.9444 14.7535 38.3833 -8.2136 -7.7660 7.6914
# 2 14.7535 110.3552 29.0740 -10.8249 -16.1675 5.9677
# 3 38.3833 29.0740 105.7952 12.1659 -9.9712 0.4712
# 4 -8.2136 -10.8249 12.1659 36.0042 -1.0647 -9.2608
# 5 -7.7660 -16.1675 -9.9712 -1.0647 45.0611 2.0772
# 6 7.6914 5.9677 0.4712 -9.2608 2.0772 42.8266
#
#
#
# Elastic Compliance Matrix: (Units=1/GPa)
#
#
# Indices 1 2 3 4 5 6 
#
# 1 0.010472 0.000284 -0.004184 0.003627 0.001119 -0.001144
# 2 0.000284 0.010840 -0.003260 0.004331 0.003354 -0.000752
# 3 -0.004184 -0.003260 0.012662 -0.006275 0.000778 -0.000328
# 4 0.003627 0.004331 -0.006275 0.033611 0.001307 0.006019
# 5 0.001119 0.003354 0.000778 0.001307 0.023863 -0.001552
# 6 -0.001144 -0.000752 -0.000328 0.006019 -0.001552 0.025041
#
#
# Mechanical properties :
#
#
# Convention : Reuss Voigt Hill
#
# Bulk Modulus (GPa) = 50.88252 55.05735 52.96993
# Shear Modulus (GPa) = 36.40067 41.37066 38.88566
#
# Velocity S-wave (km/s) = 4.12110 4.39344 4.25945
# Velocity P-wave (km/s) = 6.81065 7.17109 6.99319
#
# Compressibility (1/GPa) = 0.01965312
#
# Stress axis : x y z
#
# Youngs Moduli (GPa) = 95.49422 92.25505 78.97338
#
# Poissons Ratio (x) = -0.02619 0.33040
# Poissons Ratio (y) = -0.02711 0.25749
# Poissons Ratio (z) = 0.39952 0.30080
#
# Static dielectric constant tensor:
#      x y z
#    x 3.999810 0.271690 -0.076060 
#    y 0.271690 4.345690 -0.079780 
#    z -0.076060 -0.079780 4.067370 
# 
# 
# High freq. dielectric constant tensor:
#      x y z
#    x 1.850420 0.010950 -0.005640 
#    y 0.010950 1.864710 0.012580 
#    z -0.005640 0.012580 1.842670 
# 
# From -- ./inp_files/516038.got.cif
#   From: 2010.06.25/outbox.cif.g09.slc.cpg/sg2_259_cif.got.tgz:516038.got - 2010.06.27 13:26:56.
