data_PCOD8022594
_publ_section_title
;
Structure prediction by ZEFSAII (Michael W. Deem and Ramdas Pophale) SiO2 
 PCOD8022594
Probable space group: P -1
;
_chemical_formula_sum "Si O2"
_cell_formula_units_Z 14
_cell_length_a 9.294501
_cell_length_b 11.261525
_cell_length_c 8.701529
_cell_angle_alpha 69.921326
_cell_angle_beta 46.208746
_cell_angle_gamma 72.196049
_cell_volume 614.379368
_symmetry_space_group_name_H-M "P -1"
_symmetry_group_IT_number 2
_symmetry_cell_setting 'triclinic'
loop_
_space_group_symop_operation_xyz
x,y,z
-x,-y,-z
loop_
_atom_site_type_symbol
_atom_site_label
_atom_site_fract_x
_atom_site_fract_y
_atom_site_fract_z
Si Si1 0.863021 0.706050 0.846309
Si Si2 0.466865 0.876794 0.987746
Si Si3 0.161440 0.298798 0.776949
Si Si4 0.618524 0.500113 0.657878
Si Si5 0.790586 0.454316 0.880839
Si Si6 0.572953 0.938984 0.318443
Si Si7 0.286098 0.760946 0.432803
O O1 0.672701 0.783661 0.871521
O O2 0.911294 0.575626 0.774436
O O3 0.059937 0.780977 0.654521
O O4 0.814423 0.673942 0.071912
O O5 0.394910 0.930926 0.853095
O O6 0.292472 0.807826 0.229795
O O7 0.500000 0.000000 0.000000
O O8 0.305866 0.378112 0.533473
O O9 0.218502 0.148382 0.774462
O O10 0.933340 0.328901 0.876624
O O11 0.748757 0.452042 0.731793
O O12 0.624074 0.387605 0.575629
O O13 0.398677 0.541446 0.868235
O O14 0.420782 0.845475 0.398914
O O15 0.500000 0.000000 0.500000
#
# Coordination Sequence:
#
# PCOD8022594 Si02
#       7
#     2   2   2   2   2   2   2
#     4  12  24  42  72 105 135 184 225 280 341 405
#     4  10  22  48  66  94 140 182 231 272 333 404
#     4  12  25  44  69 104 144 173 230 284 341 406
#     4  11  25  44  71 105 138 181 220 282 356 396
#     4  11  25  42  69 107 140 176 224 282 344 412
#     4  11  27  47  72  98 138 186 225 287 333 404
#     4  11  24  45  73  99 135 183 227 277 345 401
#
# _framework density 22.787223999999998
#
# number of rings (size 3 to 8) (size 9 to 14) (size 15 to 20)
#    0.000    0.857    5.714    0.857    4.000    3.429 
#    0.000    0.714    0.000    0.000    0.000    0.000 
#    0.000    0.000    0.000    0.000    0.000    0.000 
#
# Total GULP energy -173529.179322 kJ/mol
# GULP energy per Si atom -12394.941380 kJ/mol
# Density = 2.273536 g / cm^3
# Si number density = 22.787224 Si / 1000 Ang^3
#
#
#
# Elastic Constant Matrix: (Units=GPa)
#
#
# Indices 1 2 3 4 5 6 
#
# 1 88.6192 66.1432 43.0366 7.4711 5.5579 -23.4027
# 2 66.1432 102.9735 48.7240 10.5956 9.3241 -31.5296
# 3 43.0366 48.7240 140.0769 -6.2015 4.0257 -15.9657
# 4 7.4711 10.5956 -6.2015 32.6429 3.3673 8.1965
# 5 5.5579 9.3241 4.0257 3.3673 33.7219 -0.8955
# 6 -23.4027 -31.5296 -15.9657 8.1965 -0.8955 46.0009
#
#
#
# Elastic Compliance Matrix: (Units=1/GPa)
#
#
# Indices 1 2 3 4 5 6 
#
# 1 0.022514 -0.012294 -0.002456 -0.002309 0.000281 0.002592
# 2 -0.012294 0.023291 -0.003456 -0.007555 -0.002987 0.009798
# 3 -0.002456 -0.003456 0.009137 0.003712 -0.000131 -0.001111
# 4 -0.002309 -0.007555 0.003712 0.037489 -0.002030 -0.011784
# 5 0.000281 -0.002987 -0.000131 -0.002030 0.030626 -0.000991
# 6 0.002592 0.009798 -0.001111 -0.011784 -0.000991 0.031468
#
#
# Mechanical properties :
#
#
# Convention : Reuss Voigt Hill
#
# Bulk Modulus (GPa) = 53.96400 71.94191 62.95295
# Shear Modulus (GPa) = 25.36598 34.05752 29.71175
#
# Velocity S-wave (km/s) = 3.34003 3.87018 3.61484
# Velocity P-wave (km/s) = 6.21350 7.18407 6.71634
#
# Compressibility (1/GPa) = 0.01853087
#
# Stress axis : x y z
#
# Youngs Moduli (GPa) = 44.41652 42.93437 109.44314
#
# Poissons Ratio (x) = 0.52782 0.26877
# Poissons Ratio (y) = 0.54604 0.37828
# Poissons Ratio (z) = 0.10908 0.14840
#
# Static dielectric constant tensor:
#      x y z
#    x 3.841230 0.300590 -0.213250 
#    y 0.300590 3.370190 0.469470 
#    z -0.213250 0.469470 3.992000 
# 
# 
# High freq. dielectric constant tensor:
#      x y z
#    x 1.885490 -0.009870 0.008500 
#    y -0.009870 1.905280 0.001910 
#    z 0.008500 0.001910 1.914600 
# 
# From -- ./inp_files/175742.got.cif
#   From: 2010.06.25/outbox.cif.g09.slc.cpg/sg2_88_cif.got.tgz:175742.got - 2010.06.27 13:26:56.
