data_PCOD8022091
_publ_section_title
;
Structure prediction by ZEFSAII (Michael W. Deem and Ramdas Pophale) SiO2 
 PCOD8022091
Probable space group: P -1
;
_chemical_formula_sum "Si O2"
_cell_formula_units_Z 16
_cell_length_a 14.760247
_cell_length_b 10.545219
_cell_length_c 9.183893
_cell_angle_alpha 124.697013
_cell_angle_beta 143.695143
_cell_angle_gamma 50.918858
_cell_volume 651.144319
_symmetry_space_group_name_H-M "P -1"
_symmetry_group_IT_number 2
_symmetry_cell_setting 'triclinic'
loop_
_space_group_symop_operation_xyz
x,y,z
-x,-y,-z
loop_
_atom_site_type_symbol
_atom_site_label
_atom_site_fract_x
_atom_site_fract_y
_atom_site_fract_z
Si Si1 0.104039 0.817933 0.723194
Si Si2 0.206311 0.117798 0.054822
Si Si3 0.675933 0.398815 0.911827
Si Si4 0.526502 0.776587 0.022519
Si Si5 0.559885 0.763855 0.384617
Si Si6 0.893970 0.408255 0.945222
Si Si7 0.751281 0.921553 0.245692
Si Si8 0.848032 0.455574 0.593828
O O1 0.161633 0.672247 0.822588
O O2 0.149453 0.724886 0.565213
O O3 0.911733 0.923095 0.540520
O O4 0.208243 0.933684 0.954808
O O5 0.210468 0.162920 0.919832
O O6 0.040454 0.237200 0.991120
O O7 0.366786 0.118403 0.351486
O O8 0.556723 0.583244 0.918438
O O9 0.572717 0.278312 0.715560
O O10 0.746754 0.388707 0.834592
O O11 0.369167 0.888531 0.799096
O O12 0.491880 0.837957 0.185907
O O13 0.682164 0.810348 0.183284
O O14 0.703978 0.594844 0.415489
O O15 0.812012 0.490647 0.741616
O O16 0.976404 0.528044 0.208341
#
# Coordination Sequence:
#
# PCOD8022091 Si02
#       8
#     2   2   2   2   2   2   2   2
#     4  12  25  45  78 108 143 193 252 294 361 431
#     4  11  26  48  72 107 151 195 238 305 367 430
#     4  12  27  45  78 110 145 192 251 297 361 434
#     4  11  26  48  75 110 151 192 241 300 371 437
#     4  11  26  48  72 106 151 193 241 302 368 427
#     4  10  24  45  71 112 149 184 245 303 365 429
#     4  11  26  47  75 110 148 192 239 301 370 434
#     4  10  22  44  75 105 145 191 240 303 361 432
#
# _framework density 24.572126999999998
#
# number of rings (size 3 to 8) (size 9 to 14) (size 15 to 20)
#    0.000    1.000    2.500    2.250    8.750    4.000 
#    4.500    0.000    0.000    0.000    0.000    0.000 
#    0.000    0.000    0.000    0.000    0.000    0.000 
#
# Total GULP energy -198417.000618 kJ/mol
# GULP energy per Si atom -12401.062539 kJ/mol
# Density = 2.451620 g / cm^3
# Si number density = 24.572127 Si / 1000 Ang^3
#
#
#
# Elastic Constant Matrix: (Units=GPa)
#
#
# Indices 1 2 3 4 5 6 
#
# 1 130.1390 17.4910 36.1959 18.8247 12.5451 4.8125
# 2 17.4910 93.2626 58.7682 1.1545 9.4350 2.8417
# 3 36.1959 58.7682 114.3938 10.3509 19.4796 3.7867
# 4 18.8247 1.1545 10.3509 50.4770 -0.2618 0.9712
# 5 12.5451 9.4350 19.4796 -0.2618 25.8001 0.7327
# 6 4.8125 2.8417 3.7867 0.9712 0.7327 35.2932
#
#
#
# Elastic Compliance Matrix: (Units=1/GPa)
#
#
# Indices 1 2 3 4 5 6 
#
# 1 0.008986 -0.000049 -0.002046 -0.002929 -0.002812 -0.000863
# 2 -0.000049 0.015957 -0.008386 0.001384 0.000546 -0.000428
# 3 -0.002046 -0.008386 0.015171 -0.002186 -0.007402 -0.000460
# 4 -0.002929 0.001384 -0.002186 0.021337 0.002788 -0.000123
# 5 -0.002812 0.000546 -0.007402 0.002788 0.045541 0.000111
# 6 -0.000863 -0.000428 -0.000460 -0.000123 0.000111 0.028537
#
#
# Mechanical properties :
#
#
# Convention : Reuss Voigt Hill
#
# Bulk Modulus (GPa) = 52.21477 62.52284 57.36881
# Shear Modulus (GPa) = 30.69871 37.33675 34.01773
#
# Velocity S-wave (km/s) = 3.53842 3.90227 3.72479
# Velocity P-wave (km/s) = 6.16357 6.76783 6.47276
#
# Compressibility (1/GPa) = 0.01915167
#
# Stress axis : x y z
#
# Youngs Moduli (GPa) = 111.28033 62.66988 65.91683
#
# Poissons Ratio (x) = 0.00309 0.13484
# Poissons Ratio (y) = 0.00548 0.55278
# Poissons Ratio (z) = 0.22764 0.52555
#
# Static dielectric constant tensor:
#      x y z
#    x 4.236500 0.012410 0.061430 
#    y 0.012410 4.504770 -0.162080 
#    z 0.061430 -0.162080 4.428190 
# 
# 
# High freq. dielectric constant tensor:
#      x y z
#    x 1.962980 -0.002440 0.010440 
#    y -0.002440 2.003570 -0.015590 
#    z 0.010440 -0.015590 1.975250 
# 
# From -- ./inp_files/308651.got.cif
#   From: 2010.06.25/outbox.cif.g09.slc.cpg/sg2_155_cif.got.tgz:308651.got - 2010.06.27 13:26:56.
