data_PCOD8022652
_publ_section_title
;
Structure prediction by ZEFSAII (Michael W. Deem and Ramdas Pophale) SiO2 
 PCOD8022652
Probable space group: P -1
;
_chemical_formula_sum "Si O2"
_cell_formula_units_Z 12
_cell_length_a 11.777045
_cell_length_b 15.203003
_cell_length_c 11.512125
_cell_angle_alpha 141.504249
_cell_angle_beta 143.536533
_cell_angle_gamma 26.552955
_cell_volume 531.858670
_symmetry_space_group_name_H-M "P -1"
_symmetry_group_IT_number 2
_symmetry_cell_setting 'triclinic'
loop_
_space_group_symop_operation_xyz
x,y,z
-x,-y,-z
loop_
_atom_site_type_symbol
_atom_site_label
_atom_site_fract_x
_atom_site_fract_y
_atom_site_fract_z
Si Si1 0.370753 0.151780 0.335343
Si Si2 0.089897 0.803248 0.922040
Si Si3 0.263539 0.766787 0.495665
Si Si4 0.534881 0.373457 0.737223
Si Si5 0.754264 0.699325 0.865165
Si Si6 0.099969 0.261030 0.739570
O O1 0.381856 0.303741 0.553118
O O2 0.256496 0.213076 0.173804
O O3 0.174010 0.159168 0.258119
O O4 0.678046 0.925156 0.356098
O O5 0.323850 0.610750 0.835819
O O6 0.204107 0.761517 0.102836
O O7 0.000000 0.000000 0.000000
O O8 0.367092 0.652379 0.339507
O O9 0.491471 0.741506 0.717724
O O10 0.178567 0.685227 0.428780
O O11 0.000000 0.000000 0.500000
O O12 0.025564 0.456340 0.835350
O O13 0.775066 0.801376 0.091485
#
# Coordination Sequence:
#
# PCOD8022652 Si02
#       6
#     2   2   2   2   2   2
#     4  11  23  41  66  90 129 166 211 266 318 373
#     4  11  26  44  67  91 123 170 217 267 316 372
#     4  11  21  40  66  93 131 168 202 258 318 376
#     4  10  24  44  64  94 128 166 214 261 316 375
#     4  10  23  37  60  96 132 166 209 255 313 381
#     4  11  22  37  62  98 128 170 206 253 317 381
#
# _framework density 22.562384999999999
#
# number of rings (size 3 to 8) (size 9 to 14) (size 15 to 20)
#    0.000    1.333    3.333    2.500    2.333    8.667 
#    0.000    0.000    0.000    0.000    0.000    0.000 
#    0.000    0.000    0.000    0.000    0.000    0.000 
#
# Total GULP energy -148852.108399 kJ/mol
# GULP energy per Si atom -12404.342367 kJ/mol
# Density = 2.251103 g / cm^3
# Si number density = 22.562385 Si / 1000 Ang^3
#
#
#
# Elastic Constant Matrix: (Units=GPa)
#
#
# Indices 1 2 3 4 5 6 
#
# 1 82.2267 30.1091 8.8568 2.7009 20.9032 -14.1863
# 2 30.1091 97.8842 21.8199 18.8932 7.8587 -5.4776
# 3 8.8568 21.8199 75.5292 4.8495 8.7471 -11.7615
# 4 2.7009 18.8932 4.8495 36.1202 -2.3337 7.5095
# 5 20.9032 7.8587 8.7471 -2.3337 25.8909 2.4473
# 6 -14.1863 -5.4776 -11.7615 7.5095 2.4473 22.0592
#
#
#
# Elastic Compliance Matrix: (Units=1/GPa)
#
#
# Indices 1 2 3 4 5 6 
#
# 1 0.021799 -0.003883 0.004292 -0.005528 -0.020209 0.019467
# 2 -0.003883 0.013494 -0.002604 -0.006871 -0.000880 0.001902
# 3 0.004292 -0.002604 0.017176 -0.004850 -0.010244 0.014059
# 4 -0.005528 -0.006871 -0.004850 0.037856 0.013703 -0.022254
# 5 -0.020209 -0.000880 -0.010244 0.013703 0.062768 -0.030305
# 6 0.019467 0.001902 0.014059 -0.022254 -0.030305 0.076758
#
#
# Mechanical properties :
#
#
# Convention : Reuss Voigt Hill
#
# Bulk Modulus (GPa) = 20.79876 41.91238 31.35557
# Shear Modulus (GPa) = 19.97874 29.80436 24.89155
#
# Velocity S-wave (km/s) = 2.97894 3.63847 3.32510
# Velocity P-wave (km/s) = 4.59026 6.02227 5.35436
#
# Compressibility (1/GPa) = 0.04807979
#
# Stress axis : x y z
#
# Youngs Moduli (GPa) = 45.87422 74.10532 58.22115
#
# Poissons Ratio (x) = 0.28777 -0.24991
# Poissons Ratio (y) = 0.17814 0.15160
# Poissons Ratio (z) = -0.19692 0.19296
#
# Static dielectric constant tensor:
#      x y z
#    x 3.962490 -0.095480 0.272620 
#    y -0.095480 4.157700 -0.043050 
#    z 0.272620 -0.043050 4.276260 
# 
# 
# High freq. dielectric constant tensor:
#      x y z
#    x 1.868250 -0.006420 0.011620 
#    y -0.006420 1.906100 0.004850 
#    z 0.011620 0.004850 1.897490 
# 
# From -- ./inp_files/168161.got.cif
#   From: 2010.06.25/outbox.cif.g09.slc.cpg/sg2_85_cif.got.tgz:168161.got - 2010.06.27 13:26:56.
