data_PCOD8022871
_publ_section_title
;
Structure prediction by ZEFSAII (Michael W. Deem and Ramdas Pophale) SiO2 
 PCOD8022871
Probable space group: P -1
;
_chemical_formula_sum "Si O2"
_cell_formula_units_Z 16
_cell_length_a 11.863879
_cell_length_b 8.123347
_cell_length_c 10.696731
_cell_angle_alpha 108.372920
_cell_angle_beta 124.484283
_cell_angle_gamma 63.971539
_cell_volume 760.453102
_symmetry_space_group_name_H-M "P -1"
_symmetry_group_IT_number 2
_symmetry_cell_setting 'triclinic'
loop_
_space_group_symop_operation_xyz
x,y,z
-x,-y,-z
loop_
_atom_site_type_symbol
_atom_site_label
_atom_site_fract_x
_atom_site_fract_y
_atom_site_fract_z
Si Si1 0.480437 0.205856 0.185876
Si Si2 0.668908 0.410265 0.773444
Si Si3 0.083560 0.241426 0.387839
Si Si4 0.612828 0.122749 0.993614
Si Si5 0.729076 0.167563 0.512172
Si Si6 0.435909 0.432752 0.821754
Si Si7 0.112495 0.835685 0.955989
Si Si8 0.839842 0.416428 0.456663
O O1 0.345682 0.375913 0.196271
O O2 0.574980 0.234301 0.130420
O O3 0.595624 0.130316 0.350715
O O4 0.393619 0.079655 0.046389
O O5 0.672457 0.307046 0.623181
O O6 0.509917 0.445014 0.739841
O O7 0.800990 0.312385 0.923677
O O8 0.170248 0.383698 0.442325
O O9 0.977049 0.255608 0.208805
O O10 0.000034 0.311660 0.481643
O O11 0.176403 0.028556 0.418855
O O12 0.773845 0.105623 0.044007
O O13 0.487107 0.215062 0.833747
O O14 0.810733 0.271794 0.499985
O O15 0.265705 0.533371 0.719340
O O16 0.500000 0.500000 0.000000
O O17 0.000000 0.000000 0.000000
#
# Coordination Sequence:
#
# PCOD8022871 Si02
#       8
#     2   2   2   2   2   2   2   2
#     4  11  22  41  65 101 124 161 217 275 327 383
#     4  11  23  40  66  92 125 167 210 266 327 380
#     4  11  25  44  65  94 129 175 220 257 315 394
#     4  10  23  39  67  96 123 167 220 268 323 377
#     4  12  23  44  64  94 139 163 205 273 333 384
#     4  11  19  40  67  92 125 167 212 266 317 374
#     4  11  23  46  63  89 131 174 217 261 318 390
#     4  11  24  41  68  98 125 173 217 261 325 387
#
# _framework density 21.040087
#
# number of rings (size 3 to 8) (size 9 to 14) (size 15 to 20)
#    0.000    1.000    3.750    3.750    0.000    1.000 
#    4.500    3.125    0.000    0.000    0.000    0.000 
#    0.000    0.000    0.000    0.000    0.000    0.000 
#
# Total GULP energy -198214.146445 kJ/mol
# GULP energy per Si atom -12388.384153 kJ/mol
# Density = 2.099220 g / cm^3
# Si number density = 21.040087 Si / 1000 Ang^3
#
#
#
# Elastic Constant Matrix: (Units=GPa)
#
#
# Indices 1 2 3 4 5 6 
#
# 1 60.0104 24.0158 27.8345 11.4716 -4.7450 -13.0369
# 2 24.0158 86.7559 16.5986 17.0532 5.8879 -17.2322
# 3 27.8345 16.5986 110.7067 9.5498 0.5864 -1.1997
# 4 11.4716 17.0532 9.5498 38.0939 -6.0968 -0.3330
# 5 -4.7450 5.8879 0.5864 -6.0968 31.2141 7.0428
# 6 -13.0369 -17.2322 -1.1997 -0.3330 7.0428 33.6903
#
#
#
# Elastic Compliance Matrix: (Units=1/GPa)
#
#
# Indices 1 2 3 4 5 6 
#
# 1 0.022490 -0.003490 -0.004760 -0.003636 0.002038 0.006286
# 2 -0.003490 0.016106 -0.000812 -0.006967 -0.006765 0.008204
# 3 -0.004760 -0.000812 0.010414 -0.000916 -0.000543 -0.001782
# 4 -0.003636 -0.006967 -0.000916 0.031996 0.008486 -0.006461
# 5 0.002038 -0.006765 -0.000543 0.008486 0.037655 -0.010479
# 6 0.006286 0.008204 -0.001782 -0.006461 -0.010479 0.038374
#
#
# Mechanical properties :
#
#
# Convention : Reuss Voigt Hill
#
# Bulk Modulus (GPa) = 32.37678 43.81899 38.09788
# Shear Modulus (GPa) = 26.96075 33.20126 30.08100
#
# Velocity S-wave (km/s) = 3.58355 3.97671 3.78524
# Velocity P-wave (km/s) = 5.70473 6.47745 6.10333
#
# Compressibility (1/GPa) = 0.03088633
#
# Stress axis : x y z
#
# Youngs Moduli (GPa) = 44.46353 62.08843 96.02389
#
# Poissons Ratio (x) = 0.21669 0.45711
# Poissons Ratio (y) = 0.15518 0.07794
# Poissons Ratio (z) = 0.21167 0.05039
#
# Static dielectric constant tensor:
#      x y z
#    x 4.029870 -0.530350 -0.141480 
#    y -0.530350 5.686650 0.164410 
#    z -0.141480 0.164410 3.766110 
# 
# 
# High freq. dielectric constant tensor:
#      x y z
#    x 1.808650 -0.002450 -0.007010 
#    y -0.002450 1.849900 0.005210 
#    z -0.007010 0.005210 1.828190 
# 
# From -- ./inp_files/418282.got.cif
#   From: 2010.06.25/outbox.cif.g09.slc.cpg/sg2_210_cif.got.tgz:418282.got - 2010.06.27 13:26:56.
