data_PCOD8022698
_publ_section_title
;
Structure prediction by ZEFSAII (Michael W. Deem and Ramdas Pophale) SiO2 
 PCOD8022698
Probable space group: P -1
;
_chemical_formula_sum "Si O2"
_cell_formula_units_Z 16
_cell_length_a 8.936171
_cell_length_b 12.420096
_cell_length_c 7.993452
_cell_angle_alpha 103.420915
_cell_angle_beta 52.214598
_cell_angle_gamma 89.972296
_cell_volume 670.146704
_symmetry_space_group_name_H-M "P -1"
_symmetry_group_IT_number 2
_symmetry_cell_setting 'triclinic'
loop_
_space_group_symop_operation_xyz
x,y,z
-x,-y,-z
loop_
_atom_site_type_symbol
_atom_site_label
_atom_site_fract_x
_atom_site_fract_y
_atom_site_fract_z
Si Si1 0.723115 0.191963 0.130093
Si Si2 0.747661 0.851746 0.812356
Si Si3 0.240419 0.478095 0.025517
Si Si4 0.834821 0.177653 0.393350
Si Si5 0.339103 0.925838 0.211289
Si Si6 0.688974 0.434550 0.644074
Si Si7 0.686380 0.662013 0.558223
Si Si8 0.020595 0.340974 0.937612
O O1 0.736575 0.130064 0.281174
O O2 0.540669 0.293581 0.295809
O O3 0.710793 0.110088 0.955129
O O4 0.928155 0.232208 0.992798
O O5 0.758485 0.725783 0.690026
O O6 0.936470 0.861309 0.789715
O O7 0.718490 0.938406 0.703353
O O8 0.566351 0.884985 0.073609
O O9 0.202818 0.540136 0.251112
O O10 0.157030 0.563899 0.966823
O O11 0.465895 0.432621 0.830417
O O12 0.120305 0.376019 0.053306
O O13 0.771760 0.129465 0.592462
O O14 0.784575 0.312994 0.467863
O O15 0.716482 0.528621 0.523842
O O16 0.807993 0.684667 0.323428
#
# Coordination Sequence:
#
# PCOD8022698 Si02
#       8
#     2   2   2   2   2   2   2   2
#     4  11  25  44  66 102 135 173 224 278 334 390
#     4  10  24  45  74  97 128 179 224 275 333 399
#     4  10  23  38  61  87 135 185 213 269 321 386
#     4  12  26  41  72 102 130 178 223 270 337 402
#     4  10  24  51  70  95 137 171 221 286 337 383
#     4  11  24  40  63  99 136 178 217 267 330 399
#     4  11  24  43  66  94 140 178 218 273 333 393
#     4  11  23  40  60  93 132 178 222 268 321 391
#
# _framework density 23.87537
#
# number of rings (size 3 to 8) (size 9 to 14) (size 15 to 20)
#    0.000    1.250    1.250    3.375   10.500    3.500 
#    0.000    5.625    0.000    0.000    0.000    0.000 
#    0.000    0.000    0.000    0.000    0.000    0.000 
#
# Total GULP energy -198390.076892 kJ/mol
# GULP energy per Si atom -12399.379806 kJ/mol
# Density = 2.382103 g / cm^3
# Si number density = 23.875370 Si / 1000 Ang^3
#
#
#
# Elastic Constant Matrix: (Units=GPa)
#
#
# Indices 1 2 3 4 5 6 
#
# 1 134.0121 -0.6964 46.1384 -10.2650 -2.6043 -7.2809
# 2 -0.6964 48.1149 4.8488 -5.7444 -10.7175 9.0749
# 3 46.1384 4.8488 78.3539 -6.4177 -6.5059 1.2891
# 4 -10.2650 -5.7444 -6.4177 22.0314 -1.2522 -3.4352
# 5 -2.6043 -10.7175 -6.5059 -1.2522 32.3429 -6.9971
# 6 -7.2809 9.0749 1.2891 -3.4352 -6.9971 20.7014
#
#
#
# Elastic Compliance Matrix: (Units=1/GPa)
#
#
# Indices 1 2 3 4 5 6 
#
# 1 0.009951 0.000529 -0.005563 0.003929 0.001006 0.004606
# 2 0.000529 0.024385 -0.000688 0.005645 0.006627 -0.007284
# 3 -0.005563 -0.000688 0.016460 0.001915 0.002372 -0.001560
# 4 0.003929 0.005645 0.001915 0.051107 0.006607 0.009502
# 5 0.001006 0.006627 0.002372 0.006607 0.036231 0.010644
# 6 0.004606 -0.007284 -0.001560 0.009502 0.010644 0.058391
#
#
# Mechanical properties :
#
#
# Convention : Reuss Voigt Hill
#
# Bulk Modulus (GPa) = 25.41153 40.11807 32.76480
# Shear Modulus (GPa) = 22.61572 29.02779 25.82176
#
# Velocity S-wave (km/s) = 3.08107 3.49062 3.29222
# Velocity P-wave (km/s) = 4.82947 5.75200 5.31081
#
# Compressibility (1/GPa) = 0.03935222
#
# Stress axis : x y z
#
# Youngs Moduli (GPa) = 100.49579 41.00960 60.75285
#
# Poissons Ratio (x) = -0.02170 0.33794
# Poissons Ratio (y) = -0.05317 0.04180
# Poissons Ratio (z) = 0.55901 0.02822
#
# Static dielectric constant tensor:
#      x y z
#    x 4.606120 0.086380 -0.124020 
#    y 0.086380 4.181420 0.017870 
#    z -0.124020 0.017870 4.178890 
# 
# 
# High freq. dielectric constant tensor:
#      x y z
#    x 1.962190 0.001040 -0.014540 
#    y 0.001040 1.931510 -0.000560 
#    z -0.014540 -0.000560 1.945770 
# 
# From -- ./inp_files/187243.got.cif
#   From: 2010.06.25/outbox.cif.g09.slc.cpg/sg2_94_cif.got.tgz:187243.got - 2010.06.27 13:26:56.
