data_PCOD8022263
_publ_section_title
;
Structure prediction by ZEFSAII (Michael W. Deem and Ramdas Pophale) SiO2 
 PCOD8022263
Probable space group: P -1
;
_chemical_formula_sum "Si O2"
_cell_formula_units_Z 14
_cell_length_a 11.885637
_cell_length_b 14.594982
_cell_length_c 9.601891
_cell_angle_alpha 117.630223
_cell_angle_beta 49.283438
_cell_angle_gamma 151.436685
_cell_volume 575.589117
_symmetry_space_group_name_H-M "P -1"
_symmetry_group_IT_number 2
_symmetry_cell_setting 'triclinic'
loop_
_space_group_symop_operation_xyz
x,y,z
-x,-y,-z
loop_
_atom_site_type_symbol
_atom_site_label
_atom_site_fract_x
_atom_site_fract_y
_atom_site_fract_z
Si Si1 0.267155 0.086106 0.854682
Si Si2 0.064077 0.217371 0.570161
Si Si3 0.410137 0.807186 0.887125
Si Si4 0.326092 0.495821 0.086027
Si Si5 0.601639 0.014369 0.149820
Si Si6 0.359808 0.546499 0.770292
Si Si7 0.831999 0.143344 0.423587
O O1 0.545774 0.320216 0.830316
O O2 0.197237 0.961298 0.948587
O O3 0.298484 0.045487 0.653371
O O4 0.000000 0.000000 0.000000
O O5 0.148135 0.353018 0.711029
O O6 0.304461 0.270481 0.414059
O O7 0.055545 0.259930 0.451894
O O8 0.746323 0.988470 0.704687
O O9 0.263262 0.607315 0.863353
O O10 0.256544 0.793934 0.889457
O O11 0.383134 0.844305 0.086236
O O12 0.999997 0.295335 0.265335
O O13 0.500000 0.500000 0.000000
O O14 0.311516 0.486125 0.925604
O O15 0.422629 0.932263 0.377198
#
# Coordination Sequence:
#
# PCOD8022263 Si02
#       7
#     2   2   2   2   2   2   2
#     4  12  24  44  75  99 137 184 229 285 351 408
#     4  10  23  41  69 103 139 177 237 289 335 406
#     4  10  22  45  69  94 141 185 228 282 347 410
#     4  12  24  43  70 105 141 178 232 286 346 406
#     4  10  24  46  68 103 139 181 235 282 346 416
#     4  11  22  42  69 104 137 182 234 284 343 408
#     4  11  25  46  67 105 143 179 228 289 342 417
#
# _framework density 24.322906
#
# number of rings (size 3 to 8) (size 9 to 14) (size 15 to 20)
#    0.000    1.143    4.286    0.857    2.000    2.857 
#    0.000    9.286    0.000    0.000    0.000    0.000 
#    0.000    0.000    0.000    0.000    0.000    0.000 
#
# Total GULP energy -173582.083995 kJ/mol
# GULP energy per Si atom -12398.720285 kJ/mol
# Density = 2.426755 g / cm^3
# Si number density = 24.322906 Si / 1000 Ang^3
#
#
#
# Elastic Constant Matrix: (Units=GPa)
#
#
# Indices 1 2 3 4 5 6 
#
# 1 181.1788 41.1328 44.8880 19.0265 -4.5108 -26.3660
# 2 41.1328 94.0111 35.2301 30.5172 15.0605 -22.2790
# 3 44.8880 35.2301 132.3506 25.0865 18.8921 -16.0585
# 4 19.0265 30.5172 25.0865 38.1986 7.9443 -0.5885
# 5 -4.5108 15.0605 18.8921 7.9443 40.3651 3.7943
# 6 -26.3660 -22.2790 -16.0585 -0.5885 3.7943 42.3593
#
#
#
# Elastic Compliance Matrix: (Units=1/GPa)
#
#
# Indices 1 2 3 4 5 6 
#
# 1 0.006881 -0.001680 -0.001614 -0.001442 0.002193 0.002571
# 2 -0.001680 0.018488 -0.000107 -0.012603 -0.005396 0.008946
# 3 -0.001614 -0.000107 0.009998 -0.004763 -0.004168 0.003036
# 4 -0.001442 -0.012603 -0.004763 0.040018 -0.000283 -0.008750
# 5 0.002193 -0.005396 -0.004168 -0.000283 0.029575 -0.005706
# 6 0.002571 0.008946 0.003036 -0.008750 -0.005706 0.031453
#
#
# Mechanical properties :
#
#
# Convention : Reuss Voigt Hill
#
# Bulk Modulus (GPa) = 35.00927 72.22692 53.61809
# Shear Modulus (GPa) = 32.73624 43.27057 38.00341
#
# Velocity S-wave (km/s) = 3.67263 4.22240 3.95708
# Velocity P-wave (km/s) = 5.69290 7.31649 6.55516
#
# Compressibility (1/GPa) = 0.02856386
#
# Stress axis : x y z
#
# Youngs Moduli (GPa) = 145.33012 54.09045 100.02192
#
# Poissons Ratio (x) = 0.09086 0.16148
# Poissons Ratio (y) = 0.24412 0.01070
# Poissons Ratio (z) = 0.23463 0.00579
#
# Static dielectric constant tensor:
#      x y z
#    x 4.713750 -0.298300 -0.001300 
#    y -0.298300 5.519570 0.401250 
#    z -0.001300 0.401250 4.737820 
# 
# 
# High freq. dielectric constant tensor:
#      x y z
#    x 1.983420 0.011050 -0.001270 
#    y 0.011050 1.957990 0.014560 
#    z -0.001270 0.014560 1.978520 
# 
# From -- ./inp_files/274004.got.cif
#   From: 2010.06.25/outbox.cif.g09.slc.cpg/sg2_138_cif.got.tgz:274004.got - 2010.06.27 13:26:56.
