data_PCOD8022813
_publ_section_title
;
Structure prediction by ZEFSAII (Michael W. Deem and Ramdas Pophale) SiO2 
 PCOD8022813
Probable space group: P -1
;
_chemical_formula_sum "Si O2"
_cell_formula_units_Z 14
_cell_length_a 9.510215
_cell_length_b 6.979610
_cell_length_c 16.229329
_cell_angle_alpha 133.761239
_cell_angle_beta 132.311003
_cell_angle_gamma 47.398555
_cell_volume 528.410613
_symmetry_space_group_name_H-M "P -1"
_symmetry_group_IT_number 2
_symmetry_cell_setting 'triclinic'
loop_
_space_group_symop_operation_xyz
x,y,z
-x,-y,-z
loop_
_atom_site_type_symbol
_atom_site_label
_atom_site_fract_x
_atom_site_fract_y
_atom_site_fract_z
Si Si1 0.540602 0.598056 0.434746
Si Si2 0.103050 0.540069 0.930896
Si Si3 0.023428 0.461614 0.400513
Si Si4 0.965834 0.960849 0.146505
Si Si5 0.681738 0.813511 0.772546
Si Si6 0.585504 0.825169 0.355422
Si Si7 0.457436 0.855423 0.020675
O O1 0.427244 0.398219 0.362520
O O2 0.403677 0.917420 0.507968
O O3 0.775686 0.478932 0.529906
O O4 0.551982 0.599441 0.339111
O O5 0.060596 0.277058 0.875085
O O6 0.340233 0.427816 0.957722
O O7 0.934499 0.665389 0.826952
O O8 0.087926 0.792409 0.063687
O O9 0.000000 0.500000 0.500000
O O10 0.800780 0.685277 0.346279
O O11 0.077039 0.132584 0.292625
O O12 0.745547 0.204162 0.100108
O O13 0.603187 0.076992 0.755198
O O14 0.605825 0.907150 0.862330
O O15 0.500000 0.000000 0.000000
#
# Coordination Sequence:
#
# PCOD8022813 Si02
#       7
#     2   2   2   2   2   2   2
#     4  10  24  42  65  97 132 181 207 266 338 375
#     4   9  20  36  65  95 126 172 219 270 319 380
#     4  10  23  39  63  95 131 172 214 267 326 389
#     4   9  19  38  60  96 128 167 227 262 316 395
#     4  11  23  40  68  99 131 167 224 268 316 397
#     4  10  24  42  61  99 133 170 220 264 322 391
#     4   9  20  37  65  98 122 174 217 266 327 371
#
# _framework density 26.494547000000001
#
# number of rings (size 3 to 8) (size 9 to 14) (size 15 to 20)
#    0.000    2.286    0.000    1.286   14.000    2.857 
#    0.000    2.857    0.000    5.143    0.000    0.000 
#    0.000    0.000    0.000    0.000    0.000    0.000 
#
# Total GULP energy -173534.994619 kJ/mol
# GULP energy per Si atom -12395.356758 kJ/mol
# Density = 2.643424 g / cm^3
# Si number density = 26.494547 Si / 1000 Ang^3
#
#
#
# Elastic Constant Matrix: (Units=GPa)
#
#
# Indices 1 2 3 4 5 6 
#
# 1 74.0720 36.6728 23.5031 -2.0374 15.2560 -31.2331
# 2 36.6728 137.3996 40.5832 -37.5134 14.0455 -32.3421
# 3 23.5031 40.5832 134.2635 -1.5172 22.4186 -12.1662
# 4 -2.0374 -37.5134 -1.5172 40.1254 -5.4024 -5.4479
# 5 15.2560 14.0455 22.4186 -5.4024 27.8268 -8.5887
# 6 -31.2331 -32.3421 -12.1662 -5.4479 -8.5887 45.6799
#
#
#
# Elastic Compliance Matrix: (Units=1/GPa)
#
#
# Indices 1 2 3 4 5 6 
#
# 1 0.020886 -0.001992 -0.000994 -0.000112 -0.006135 0.011438
# 2 -0.001992 0.015732 -0.003661 0.016370 0.002758 0.011272
# 3 -0.000994 -0.003661 0.009616 -0.004397 -0.006995 -0.002550
# 4 -0.000112 0.016370 -0.004397 0.043629 0.009140 0.017264
# 5 -0.006135 0.002758 -0.006995 0.009140 0.047122 0.005845
# 6 0.011438 0.011272 -0.002550 0.017264 0.005845 0.040172
#
#
# Mechanical properties :
#
#
# Convention : Reuss Voigt Hill
#
# Bulk Modulus (GPa) = 30.35872 60.80592 45.58232
# Shear Modulus (GPa) = 24.82264 39.05817 31.94041
#
# Velocity S-wave (km/s) = 3.06420 3.84369 3.47586
# Velocity P-wave (km/s) = 4.89923 6.53443 5.77500
#
# Compressibility (1/GPa) = 0.03293946
#
# Stress axis : x y z
#
# Youngs Moduli (GPa) = 47.87977 63.56607 103.99600
#
# Poissons Ratio (x) = 0.12662 0.10341
# Poissons Ratio (y) = 0.09537 0.38068
# Poissons Ratio (z) = 0.04761 0.23269
#
# Static dielectric constant tensor:
#      x y z
#    x 4.983320 -0.705490 -0.008800 
#    y -0.705490 5.481540 -0.410210 
#    z -0.008800 -0.410210 4.849140 
# 
# 
# High freq. dielectric constant tensor:
#      x y z
#    x 2.065280 -0.019970 -0.002810 
#    y -0.019970 2.060250 -0.015630 
#    z -0.002810 -0.015630 2.069100 
# 
# From -- ./inp_files/566291.got.cif
#   From: 2010.06.25/outbox.cif.g09.slc.cpg/sg2_284_cif.got.tgz:566291.got - 2010.06.27 13:26:56.
