data_PCOD8022761
_publ_section_title
;
Structure prediction by ZEFSAII (Michael W. Deem and Ramdas Pophale) SiO2 
 PCOD8022761
Probable space group: P -1
;
_chemical_formula_sum "Si O2"
_cell_formula_units_Z 16
_cell_length_a 17.201908
_cell_length_b 8.408927
_cell_length_c 11.791536
_cell_angle_alpha 38.364574
_cell_angle_beta 135.453725
_cell_angle_gamma 138.835042
_cell_volume 664.801516
_symmetry_space_group_name_H-M "P -1"
_symmetry_group_IT_number 2
_symmetry_cell_setting 'triclinic'
loop_
_space_group_symop_operation_xyz
x,y,z
-x,-y,-z
loop_
_atom_site_type_symbol
_atom_site_label
_atom_site_fract_x
_atom_site_fract_y
_atom_site_fract_z
Si Si1 0.253462 0.694819 0.983116
Si Si2 0.001820 0.284930 0.030681
Si Si3 0.272404 0.034635 0.150215
Si Si4 0.234866 0.965949 0.605056
Si Si5 0.281828 0.273261 0.798531
Si Si6 0.983997 0.868215 0.432135
Si Si7 0.630620 0.431932 0.490538
Si Si8 0.639917 0.718256 0.653067
O O1 0.114974 0.436608 0.976793
O O2 0.300768 0.821594 0.834750
O O3 0.250156 0.945319 0.917339
O O4 0.342431 0.565876 0.200090
O O5 0.875491 0.150381 0.902696
O O6 0.000000 0.500000 0.000000
O O7 0.026079 0.064661 0.254863
O O8 0.339451 0.833192 0.314041
O O9 0.307920 0.189176 0.219899
O O10 0.318490 0.287848 0.960653
O O11 0.260895 0.279295 0.507062
O O12 0.286857 0.012503 0.505596
O O13 0.087401 0.751512 0.589837
O O14 0.161849 0.337882 0.620664
O O15 0.385610 0.509547 0.693880
O O16 0.000000 0.000000 0.500000
O O17 0.504157 0.365708 0.460671
#
# Coordination Sequence:
#
# PCOD8022761 Si02
#       8
#     2   2   2   2   2   2   2   2
#     4  11  22  39  65  94 128 158 208 265 320 364
#     4  11  19  37  68  93 122 159 210 268 308 367
#     4  11  25  42  65  93 128 169 213 259 317 377
#     4  11  23  40  67  98 125 165 213 268 312 369
#     4  10  23  38  69 101 114 164 221 268 305 367
#     4  11  17  34  65  98 124 146 213 266 306 363
#     4  11  24  43  69  88 123 175 225 255 299 373
#     4  12  27  43  58  94 138 172 202 257 325 383
#
# _framework density 24.067335
#
# number of rings (size 3 to 8) (size 9 to 14) (size 15 to 20)
#    0.000    1.000    6.250    2.250    1.750    5.000 
#    0.000    0.625    0.000    0.000    0.000    0.000 
#    0.000    0.000    0.000    0.000    0.000    0.000 
#
# Total GULP energy -198230.695015 kJ/mol
# GULP energy per Si atom -12389.418438 kJ/mol
# Density = 2.401256 g / cm^3
# Si number density = 24.067335 Si / 1000 Ang^3
#
#
#
# Elastic Constant Matrix: (Units=GPa)
#
#
# Indices 1 2 3 4 5 6 
#
# 1 112.3329 8.2428 37.5357 4.5444 -14.6631 31.3777
# 2 8.2428 22.4060 1.6078 7.1586 5.1412 3.7041
# 3 37.5357 1.6078 102.3311 5.8081 -15.4652 15.8493
# 4 4.5444 7.1586 5.8081 22.0754 0.7904 -6.4100
# 5 -14.6631 5.1412 -15.4652 0.7904 49.2846 5.1957
# 6 31.3777 3.7041 15.8493 -6.4100 5.1957 28.3156
#
#
#
# Elastic Compliance Matrix: (Units=1/GPa)
#
#
# Indices 1 2 3 4 5 6 
#
# 1 0.016451 -0.001312 -0.001264 -0.008869 0.006952 -0.020634
# 2 -0.001312 0.054301 0.001849 -0.020774 -0.004019 -0.010650
# 3 -0.001264 0.001849 0.012428 -0.006072 0.004267 -0.007956
# 4 -0.008869 -0.020774 -0.006072 0.064963 -0.006782 0.031895
# 5 0.006952 -0.004019 0.004267 -0.006782 0.025897 -0.015854
# 6 -0.020634 -0.010650 -0.007956 0.031895 -0.015854 0.074158
#
#
# Mechanical properties :
#
#
# Convention : Reuss Voigt Hill
#
# Bulk Modulus (GPa) = 12.23579 36.87142 24.55360
# Shear Modulus (GPa) = 18.05753 32.58069 25.31911
#
# Velocity S-wave (km/s) = 2.74212 3.68330 3.24699
# Velocity P-wave (km/s) = 3.88853 5.78293 4.92762
#
# Compressibility (1/GPa) = 0.08172745
#
# Stress axis : x y z
#
# Youngs Moduli (GPa) = 60.78812 18.41601 80.46051
#
# Poissons Ratio (x) = 0.02416 0.10167
# Poissons Ratio (y) = 0.07974 -0.14879
# Poissons Ratio (z) = 0.07681 -0.03406
#
# Static dielectric constant tensor:
#      x y z
#    x -1.930540 -4.365270 3.085140 
#    y -4.365270 0.548010 2.422550 
#    z 3.085140 2.422550 3.011890 
# 
# 
# High freq. dielectric constant tensor:
#      x y z
#    x 1.957780 0.020130 -0.017840 
#    y 0.020130 1.904250 0.006310 
#    z -0.017840 0.006310 1.979350 
# 
# From -- ./inp_files/461823.got.cif
#   From: 2010.06.25/outbox.cif.g09.slc.cpg/sg2_231_cif.got.tgz:461823.got - 2010.06.27 13:26:56.
