data_PCOD8022194
_publ_section_title
;
Structure prediction by ZEFSAII (Michael W. Deem and Ramdas Pophale) SiO2 
 PCOD8022194
Probable space group: P -1
;
_chemical_formula_sum "Si O2"
_cell_formula_units_Z 14
_cell_length_a 15.351759
_cell_length_b 9.273376
_cell_length_c 20.508631
_cell_angle_alpha 29.289328
_cell_angle_beta 28.235569
_cell_angle_gamma 47.100463
_cell_volume 625.401614
_symmetry_space_group_name_H-M "P -1"
_symmetry_group_IT_number 2
_symmetry_cell_setting 'triclinic'
loop_
_space_group_symop_operation_xyz
x,y,z
-x,-y,-z
loop_
_atom_site_type_symbol
_atom_site_label
_atom_site_fract_x
_atom_site_fract_y
_atom_site_fract_z
Si Si1 0.414598 0.188573 0.934586
Si Si2 0.863860 0.185353 0.990057
Si Si3 0.989449 0.841769 0.383379
Si Si4 0.587339 0.825013 0.419096
Si Si5 0.879787 0.079983 0.489501
Si Si6 0.303246 0.109382 0.541527
Si Si7 0.462580 0.109096 0.783231
O O1 0.529946 0.559266 0.720354
O O2 0.415404 0.075426 0.904347
O O3 0.500000 0.000000 0.000000
O O4 0.201369 0.123053 0.131476
O O5 0.680435 0.094768 0.197211
O O6 0.747789 0.089848 0.035008
O O7 0.006544 0.552750 0.749880
O O8 0.000000 0.000000 0.000000
O O9 0.000000 0.500000 0.500000
O O10 0.895984 0.940621 0.343854
O O11 0.877243 0.851988 0.520347
O O12 0.742434 0.895130 0.349513
O O13 0.537192 0.471033 0.564867
O O14 0.381196 0.833340 0.579321
O O15 0.647337 0.996352 0.693008
O O16 0.000000 0.000000 0.500000
#
# Coordination Sequence:
#
# PCOD8022194 Si02
#       7
#     2   2   2   2   2   2   2
#     4  11  23  43  69 103 139 186 236 291 357 423
#     4  12  26  43  74 102 147 188 236 289 363 424
#     4  12  26  43  73  99 141 188 236 289 355 422
#     4  10  22  45  68 101 140 183 232 298 347 423
#     4  12  29  48  73 109 144 190 244 296 361 432
#     4  10  23  42  68  98 141 178 236 289 351 418
#     4  11  26  45  73 104 146 185 240 300 358 424
#
# _framework density 22.385615999999999
#
# number of rings (size 3 to 8) (size 9 to 14) (size 15 to 20)
#    0.000    0.857    2.857    3.000    8.000    0.571 
#    0.000    2.857    0.000    0.000    0.000    0.000 
#    0.000    0.000    0.000    0.000    0.000    0.000 
#
# Total GULP energy -173549.013267 kJ/mol
# GULP energy per Si atom -12396.358090 kJ/mol
# Density = 2.233467 g / cm^3
# Si number density = 22.385616 Si / 1000 Ang^3
#
#
#
# Elastic Constant Matrix: (Units=GPa)
#
#
# Indices 1 2 3 4 5 6 
#
# 1 135.3075 25.5519 6.3255 -4.2257 -10.2944 -17.8726
# 2 25.5519 102.3997 6.7686 -4.3487 -10.2804 -4.8631
# 3 6.3255 6.7686 52.3831 -0.9682 -1.0052 -6.1939
# 4 -4.2257 -4.3487 -0.9682 31.8610 -6.5134 0.1874
# 5 -10.2944 -10.2804 -1.0052 -6.5134 43.6239 7.1321
# 6 -17.8726 -4.8631 -6.1939 0.1874 7.1321 38.5747
#
#
#
# Elastic Compliance Matrix: (Units=1/GPa)
#
#
# Indices 1 2 3 4 5 6 
#
# 1 0.008297 -0.001727 -0.000340 0.001071 0.001155 0.003353
# 2 -0.001727 0.010568 -0.001091 0.001654 0.002318 -0.000080
# 3 -0.000340 -0.001091 0.019616 0.000321 -0.000313 0.002911
# 4 0.001071 0.001654 0.000321 0.032919 0.005638 -0.000446
# 5 0.001155 0.002318 -0.000313 0.005638 0.025216 -0.003913
# 6 0.003353 -0.000080 0.002911 -0.000446 -0.003913 0.028660
#
#
# Mechanical properties :
#
#
# Convention : Reuss Voigt Hill
#
# Bulk Modulus (GPa) = 31.09113 40.82025 35.95569
# Shear Modulus (GPa) = 35.13325 39.57489 37.35407
#
# Velocity S-wave (km/s) = 3.96593 4.20917 4.08936
# Velocity P-wave (km/s) = 5.90682 6.47282 6.19629
#
# Compressibility (1/GPa) = 0.03216351
#
# Stress axis : x y z
#
# Youngs Moduli (GPa) = 120.52783 94.62579 50.97795
#
# Poissons Ratio (x) = 0.16344 0.01735
# Poissons Ratio (y) = 0.20817 0.05563
# Poissons Ratio (z) = 0.04101 0.10327
#
# Static dielectric constant tensor:
#      x y z
#    x 4.405600 -0.107300 -0.033810 
#    y -0.107300 4.134470 0.086670 
#    z -0.033810 0.086670 4.053990 
# 
# 
# High freq. dielectric constant tensor:
#      x y z
#    x 1.903810 -0.004540 0.002630 
#    y -0.004540 1.887390 0.004320 
#    z 0.002630 0.004320 1.876660 
# 
# From -- ./inp_files/597295.got.cif
#   From: 2010.06.25/outbox.cif.g09.slc.cpg/sg2_299_cif.got.tgz:597295.got - 2010.06.27 13:26:56.
