data_PCOD8022584
_publ_section_title
;
Structure prediction by ZEFSAII (Michael W. Deem and Ramdas Pophale) SiO2 
 PCOD8022584
Probable space group: P -1
;
_chemical_formula_sum "Si O2"
_cell_formula_units_Z 16
_cell_length_a 9.526744
_cell_length_b 24.242994
_cell_length_c 9.853791
_cell_angle_alpha 27.919274
_cell_angle_beta 43.472527
_cell_angle_gamma 47.646336
_cell_volume 729.401043
_symmetry_space_group_name_H-M "P -1"
_symmetry_group_IT_number 2
_symmetry_cell_setting 'triclinic'
loop_
_space_group_symop_operation_xyz
x,y,z
-x,-y,-z
loop_
_atom_site_type_symbol
_atom_site_label
_atom_site_fract_x
_atom_site_fract_y
_atom_site_fract_z
Si Si1 0.796894 0.789125 0.551844
Si Si2 0.592019 0.613982 0.243713
Si Si3 0.765040 0.227749 0.708082
Si Si4 0.718082 0.230722 0.428995
Si Si5 0.737386 0.986941 0.378430
Si Si6 0.902129 0.854217 0.798519
Si Si7 0.040687 0.392762 0.806264
Si Si8 0.355018 0.121077 0.823182
O O1 0.836353 0.882407 0.439953
O O2 0.721510 0.858954 0.318668
O O3 0.020778 0.713047 0.550462
O O4 0.630094 0.701377 0.902445
O O5 0.500000 0.500000 0.500000
O O6 0.426871 0.681580 0.312896
O O7 0.809513 0.573242 0.252330
O O8 0.725838 0.182199 0.682476
O O9 0.812833 0.113026 0.019201
O O10 0.485546 0.230089 0.539640
O O11 0.857742 0.144023 0.415057
O O12 0.814234 0.358480 0.088337
O O13 0.777039 0.953332 0.579887
O O14 0.500000 0.000000 0.500000
O O15 0.838353 0.722274 0.099477
O O16 0.846989 0.882401 0.932554
O O17 0.000000 0.500000 0.500000
O O18 0.500000 0.000000 0.000000
#
# Coordination Sequence:
#
# PCOD8022584 Si02
#       8
#     2   2   2   2   2   2   2   2
#     4  12  25  45  66 112 138 178 236 285 350 412
#     4  12  27  47  70 102 143 178 232 300 347 403
#     4  12  24  44  78 100 135 187 234 283 348 421
#     4  10  23  45  69  96 136 176 235 273 336 412
#     4  12  20  41  76  98 137 183 229 281 339 416
#     4  10  23  45  66  98 138 176 234 270 334 420
#     4  10  22  47  73  94 132 181 237 279 339 408
#     4  12  27  41  65 106 148 178 219 281 354 408
#
# _framework density 21.935807
#
# number of rings (size 3 to 8) (size 9 to 14) (size 15 to 20)
#    0.750    0.000    5.000    3.375    3.500    3.000 
#    2.250    1.250    0.000    0.000    0.000    0.000 
#    0.000    0.000    0.000    0.000    0.000    0.000 
#
# Total GULP energy -198282.176152 kJ/mol
# GULP energy per Si atom -12392.636010 kJ/mol
# Density = 2.188588 g / cm^3
# Si number density = 21.935807 Si / 1000 Ang^3
#
#
#
# Elastic Constant Matrix: (Units=GPa)
#
#
# Indices 1 2 3 4 5 6 
#
# 1 86.9453 19.0128 29.2459 7.5181 3.3049 0.1394
# 2 19.0128 80.1795 47.7823 22.3699 -0.6151 1.5560
# 3 29.2459 47.7823 97.6166 3.6441 12.2204 9.5761
# 4 7.5181 22.3699 3.6441 39.3395 3.5270 -4.7537
# 5 3.3049 -0.6151 12.2204 3.5270 41.3489 0.8746
# 6 0.1394 1.5560 9.5761 -4.7537 0.8746 30.6332
#
#
#
# Elastic Compliance Matrix: (Units=1/GPa)
#
#
# Indices 1 2 3 4 5 6 
#
# 1 0.012994 -0.000328 -0.003772 -0.001865 0.000213 0.000841
# 2 -0.000328 0.022596 -0.011126 -0.012137 0.004679 0.000315
# 3 -0.003772 -0.011126 0.017690 0.005422 -0.005471 -0.003950
# 4 -0.001865 -0.012137 0.005422 0.033090 -0.004545 0.004195
# 5 0.000213 0.004679 -0.005471 -0.004545 0.026241 0.000017
# 6 0.000841 0.000315 -0.003950 0.004195 0.000017 0.034510
#
#
# Mechanical properties :
#
#
# Convention : Reuss Voigt Hill
#
# Bulk Modulus (GPa) = 43.80410 50.75816 47.28113
# Shear Modulus (GPa) = 27.00038 33.51103 30.25570
#
# Velocity S-wave (km/s) = 3.51220 3.91280 3.71790
# Velocity P-wave (km/s) = 6.03821 6.60326 6.32704
#
# Compressibility (1/GPa) = 0.02282891
#
# Stress axis : x y z
#
# Youngs Moduli (GPa) = 76.95994 44.25523 56.52791
#
# Poissons Ratio (x) = 0.01450 0.21323
# Poissons Ratio (y) = 0.02521 0.62893
# Poissons Ratio (z) = 0.29030 0.49238
#
# Static dielectric constant tensor:
#      x y z
#    x 3.856540 -0.150150 -0.083280 
#    y -0.150150 3.729440 0.345090 
#    z -0.083280 0.345090 3.857250 
# 
# 
# High freq. dielectric constant tensor:
#      x y z
#    x 1.861940 -0.010300 -0.004610 
#    y -0.010300 1.844430 0.023020 
#    z -0.004610 0.023020 1.869500 
# 
# From -- ./inp_files/225807.got.cif
#   From: 2010.06.25/outbox.cif.g09.slc.cpg/sg2_113_cif.got.tgz:225807.got - 2010.06.27 13:26:56.
