data_PCOD8022530
_publ_section_title
;
Structure prediction by ZEFSAII (Michael W. Deem and Ramdas Pophale) SiO2 
 PCOD8022530
Probable space group: P -1
;
_chemical_formula_sum "Si O2"
_cell_formula_units_Z 16
_cell_length_a 15.532324
_cell_length_b 14.801816
_cell_length_c 9.116503
_cell_angle_alpha 78.670501
_cell_angle_beta 61.959467
_cell_angle_gamma 28.555046
_cell_volume 759.002916
_symmetry_space_group_name_H-M "P -1"
_symmetry_group_IT_number 2
_symmetry_cell_setting 'triclinic'
loop_
_space_group_symop_operation_xyz
x,y,z
-x,-y,-z
loop_
_atom_site_type_symbol
_atom_site_label
_atom_site_fract_x
_atom_site_fract_y
_atom_site_fract_z
Si Si1 0.761404 0.194397 0.543204
Si Si2 0.113386 0.588032 0.682075
Si Si3 0.369309 0.511249 0.331407
Si Si4 0.157026 0.925621 0.793172
Si Si5 0.170276 0.439256 0.391637
Si Si6 0.566574 0.043529 0.985463
Si Si7 0.416957 0.331188 0.808957
Si Si8 0.861292 0.350045 0.810496
O O1 0.589211 0.418599 0.677374
O O2 0.652396 0.186442 0.641313
O O3 0.805022 0.174563 0.343289
O O4 0.000000 0.000000 0.500000
O O5 0.160577 0.648307 0.554739
O O6 0.193457 0.443929 0.543085
O O7 0.273266 0.433864 0.744410
O O8 0.841939 0.813245 0.872249
O O9 0.318681 0.545987 0.188547
O O10 0.604894 0.253663 0.256944
O O11 0.066510 0.102693 0.757002
O O12 0.000000 0.000000 0.000000
O O13 0.054991 0.625604 0.338888
O O14 0.000000 0.500000 0.500000
O O15 0.422287 0.197739 0.197039
O O16 0.494711 0.168536 0.867225
O O17 0.500000 0.000000 0.000000
O O18 0.257666 0.528232 0.979436
#
# Coordination Sequence:
#
# PCOD8022530 Si02
#       8
#     2   2   2   2   2   2   2   2
#     4  12  24  43  67  96 138 185 228 280 346 404
#     4  11  24  44  72 100 139 177 230 282 349 408
#     4  11  24  44  66  96 139 181 229 285 340 409
#     4  12  26  40  66  98 134 181 236 278 340 410
#     4  10  22  46  74 101 138 179 228 288 351 421
#     4  11  24  46  74 100 135 181 225 285 354 411
#     4  11  26  44  67 100 138 174 233 285 339 414
#     4  10  25  44  65  97 135 177 227 284 346 406
#
# _framework density 21.080286999999998
#
# number of rings (size 3 to 8) (size 9 to 14) (size 15 to 20)
#    0.000    1.000    3.750    1.875    5.250    4.500 
#    0.000    0.625    0.000    0.000    0.000    0.000 
#    0.000    0.000    0.000    0.000    0.000    0.000 
#
# Total GULP energy -198384.577530 kJ/mol
# GULP energy per Si atom -12399.036096 kJ/mol
# Density = 2.103231 g / cm^3
# Si number density = 21.080287 Si / 1000 Ang^3
#
#
#
# Elastic Constant Matrix: (Units=GPa)
#
#
# Indices 1 2 3 4 5 6 
#
# 1 137.8571 76.3639 71.3485 -1.5341 0.4957 4.5796
# 2 76.3639 142.9880 50.8676 6.9293 3.9362 -12.3812
# 3 71.3485 50.8676 129.4453 -4.2434 7.5043 -12.4245
# 4 -1.5341 6.9293 -4.2434 32.3693 -7.0549 -0.7465
# 5 0.4957 3.9362 7.5043 -7.0549 45.5405 1.5712
# 6 4.5796 -12.3812 -12.4245 -0.7465 1.5712 37.5871
#
#
#
# Elastic Compliance Matrix: (Units=1/GPa)
#
#
# Indices 1 2 3 4 5 6 
#
# 1 0.013711 -0.005837 -0.005853 0.001380 0.001726 -0.005573
# 2 -0.005837 0.010885 -0.000686 -0.002898 -0.001354 0.004069
# 3 -0.005853 -0.000686 0.011793 0.001126 -0.001800 0.004483
# 4 0.001380 -0.002898 0.001126 0.032842 0.005148 -0.000313
# 5 0.001726 -0.001354 -0.001800 0.005148 0.023224 -0.002120
# 6 -0.005573 0.004069 0.004483 -0.000313 -0.002120 0.030188
#
#
# Mechanical properties :
#
#
# Convention : Reuss Voigt Hill
#
# Bulk Modulus (GPa) = 85.94144 89.71670 87.82907
# Shear Modulus (GPa) = 33.05262 37.21341 35.13301
#
# Velocity S-wave (km/s) = 3.96402 4.20613 4.08687
# Velocity P-wave (km/s) = 7.86183 8.13883 8.00153
#
# Compressibility (1/GPa) = 0.01163583
#
# Stress axis : x y z
#
# Youngs Moduli (GPa) = 72.93497 91.86937 84.79846
#
# Poissons Ratio (x) = 0.53625 0.49634
# Poissons Ratio (y) = 0.42572 0.05818
# Poissons Ratio (z) = 0.42690 0.06303
#
# Static dielectric constant tensor:
#      x y z
#    x 3.988720 0.064690 0.111820 
#    y 0.064690 3.847490 -0.010540 
#    z 0.111820 -0.010540 4.086330 
# 
# 
# High freq. dielectric constant tensor:
#      x y z
#    x 1.834040 0.001450 0.007080 
#    y 0.001450 1.824360 -0.002910 
#    z 0.007080 -0.002910 1.838720 
# 
# From -- ./inp_files/315221.got.cif
#   From: 2010.06.25/outbox.cif.g09.slc.cpg/sg2_158_cif.got.tgz:315221.got - 2010.06.27 13:26:56.
