data_PCOD8022920
_publ_section_title
;
Structure prediction by ZEFSAII (Michael W. Deem and Ramdas Pophale) SiO2 
 PCOD8022920
Probable space group: P -1
;
_chemical_formula_sum "Si O2"
_cell_formula_units_Z 14
_cell_length_a 18.021413
_cell_length_b 24.788818
_cell_length_c 6.666889
_cell_angle_alpha 44.351208
_cell_angle_beta 125.474199
_cell_angle_gamma 159.636673
_cell_volume 673.012026
_symmetry_space_group_name_H-M "P -1"
_symmetry_group_IT_number 2
_symmetry_cell_setting 'triclinic'
loop_
_space_group_symop_operation_xyz
x,y,z
-x,-y,-z
loop_
_atom_site_type_symbol
_atom_site_label
_atom_site_fract_x
_atom_site_fract_y
_atom_site_fract_z
Si Si1 0.452552 0.765565 0.896096
Si Si2 0.055515 0.462957 0.784264
Si Si3 0.354315 0.241402 0.895904
Si Si4 0.151686 0.448459 0.579760
Si Si5 0.075008 0.096772 0.157669
Si Si6 0.273830 0.872684 0.533916
Si Si7 0.346254 0.441093 0.789739
O O1 0.253927 0.643185 0.768253
O O2 0.647446 0.980232 0.673117
O O3 0.556943 0.776307 0.904922
O O4 0.340563 0.649964 0.235707
O O5 0.000000 0.500000 0.500000
O O6 0.126772 0.455964 0.748614
O O7 0.843205 0.260650 0.107587
O O8 0.531049 0.435021 0.548570
O O9 0.302958 0.232282 0.064266
O O10 0.123204 0.062881 0.885668
O O11 0.255458 0.442788 0.771501
O O12 0.907129 0.261998 0.575493
O O13 0.122506 0.222960 0.940978
O O14 0.000000 0.000000 0.500000
O O15 0.500000 0.000000 0.500000
O O16 0.500000 0.500000 0.000000
#
# Coordination Sequence:
#
# PCOD8022920 Si02
#       7
#     2   2   2   2   2   2   2
#     4  10  23  41  63  89 124 163 203 252 312 365
#     4  11  24  41  64  95 124 159 207 255 310 377
#     4  10  23  40  60  87 123 164 202 258 304 357
#     4  10  24  42  62  93 127 160 210 257 302 375
#     4  11  22  38  59  88 120 158 211 252 297 362
#     4  11  23  42  66  91 124 163 202 258 319 367
#     4  11  22  40  63  88 124 168 203 250 310 360
#
# _framework density 20.802005999999999
#
# number of rings (size 3 to 8) (size 9 to 14) (size 15 to 20)
#    0.000    1.429    1.429    3.000    2.000    6.857 
#    2.571    0.000    0.000    0.000    0.000    0.000 
#    0.000    0.000    0.000    0.000    0.000    0.000 
#
# Total GULP energy -173575.295276 kJ/mol
# GULP energy per Si atom -12398.235377 kJ/mol
# Density = 2.075466 g / cm^3
# Si number density = 20.802006 Si / 1000 Ang^3
#
#
#
# Elastic Constant Matrix: (Units=GPa)
#
#
# Indices 1 2 3 4 5 6 
#
# 1 105.1567 17.6077 63.8760 -1.0040 -4.2941 4.2724
# 2 17.6077 51.7428 28.0234 -12.1040 5.3798 -3.1018
# 3 63.8760 28.0234 121.4224 -16.3207 3.8280 -6.4184
# 4 -1.0040 -12.1040 -16.3207 35.8090 -2.6268 9.9095
# 5 -4.2941 5.3798 3.8280 -2.6268 42.9921 -1.2706
# 6 4.2724 -3.1018 -6.4184 9.9095 -1.2706 38.4721
#
#
#
# Elastic Compliance Matrix: (Units=1/GPa)
#
#
# Indices 1 2 3 4 5 6 
#
# 1 0.014802 -0.001792 -0.007969 -0.003038 0.002160 -0.002264
# 2 -0.001792 0.023567 -0.003603 0.006140 -0.002437 -0.000164
# 3 -0.007969 -0.003603 0.013977 0.004347 -0.001272 0.001765
# 4 -0.003038 0.006140 0.004347 0.033909 0.000401 -0.007163
# 5 0.002160 -0.002437 -0.001272 0.000401 0.023920 0.000038
# 6 -0.002264 -0.000164 0.001765 -0.007163 0.000038 0.028372
#
#
# Mechanical properties :
#
#
# Convention : Reuss Voigt Hill
#
# Bulk Modulus (GPa) = 39.03464 55.25957 47.14710
# Shear Modulus (GPa) = 28.76632 34.70897 31.73764
#
# Velocity S-wave (km/s) = 3.72272 4.08921 3.91026
# Velocity P-wave (km/s) = 6.10604 6.99412 6.56512
#
# Compressibility (1/GPa) = 0.02561827
#
# Stress axis : x y z
#
# Youngs Moduli (GPa) = 67.56067 42.43142 71.54478
#
# Poissons Ratio (x) = 0.07603 0.57015
# Poissons Ratio (y) = 0.12105 0.25779
# Poissons Ratio (z) = 0.53840 0.15289
#
# Static dielectric constant tensor:
#      x y z
#    x 4.609290 0.092840 -0.317300 
#    y 0.092840 3.870600 -0.270840 
#    z -0.317300 -0.270840 4.021660 
# 
# 
# High freq. dielectric constant tensor:
#      x y z
#    x 1.828480 0.000200 0.002560 
#    y 0.000200 1.821480 -0.007310 
#    z 0.002560 -0.007310 1.820790 
# 
# From -- ./inp_files/38306.got.cif
#   From: 2010.06.25/outbox.cif.g09.slc.cpg/sg2_20_cif.got.tgz:38306.got - 2010.06.27 13:26:56.
