data_PCOD8022517
_publ_section_title
;
Structure prediction by ZEFSAII (Michael W. Deem and Ramdas Pophale) SiO2 
 PCOD8022517
Probable space group: P -1
;
_chemical_formula_sum "Si O2"
_cell_formula_units_Z 16
_cell_length_a 12.300413
_cell_length_b 8.890548
_cell_length_c 20.471905
_cell_angle_alpha 143.525641
_cell_angle_beta 149.184361
_cell_angle_gamma 48.885690
_cell_volume 677.744778
_symmetry_space_group_name_H-M "P -1"
_symmetry_group_IT_number 2
_symmetry_cell_setting 'triclinic'
loop_
_space_group_symop_operation_xyz
x,y,z
-x,-y,-z
loop_
_atom_site_type_symbol
_atom_site_label
_atom_site_fract_x
_atom_site_fract_y
_atom_site_fract_z
Si Si1 0.558356 0.426224 0.214526
Si Si2 0.187737 0.525906 0.270029
Si Si3 0.192678 0.234438 0.876319
Si Si4 0.590496 0.869044 0.834973
Si Si5 0.021140 0.748058 0.672397
Si Si6 0.071214 0.649159 0.804734
Si Si7 0.618348 0.930871 0.472336
Si Si8 0.811551 0.885135 0.313874
O O1 0.485179 0.236645 0.170161
O O2 0.811912 0.427782 0.334455
O O3 0.482048 0.711907 0.283277
O O4 0.438622 0.335160 0.052932
O O5 0.340287 0.362514 0.252243
O O6 0.962733 0.541222 0.121332
O O7 0.127505 0.401900 0.265798
O O8 0.303935 0.815161 0.439353
O O9 0.146172 0.079832 0.730095
O O10 0.129751 0.038197 0.833813
O O11 0.401004 0.981155 0.735443
O O12 0.786557 0.087720 0.016282
O O13 0.954352 0.652669 0.676533
O O14 0.803849 0.751270 0.521986
O O15 0.223256 0.420655 0.802470
O O16 0.500000 0.000000 0.500000
O O17 0.000000 0.000000 0.500000
#
# Coordination Sequence:
#
# PCOD8022517 Si02
#       8
#     2   2   2   2   2   2   2   2
#     4  12  23  42  80 108 143 188 245 304 356 423
#     4  10  25  47  71 103 152 189 243 296 365 438
#     4  10  22  46  72 108 142 183 244 296 359 428
#     4  12  23  45  77 108 144 193 247 294 365 429
#     4  11  23  42  72 104 143 186 246 297 360 427
#     4  11  25  45  71 105 146 193 235 301 364 434
#     4  11  25  45  70 108 146 191 242 303 360 428
#     4  11  26  46  72 104 147 188 240 303 362 427
#
# _framework density 23.607709
#
# number of rings (size 3 to 8) (size 9 to 14) (size 15 to 20)
#    0.000    1.000    3.750    2.250    1.750    5.500 
#    0.000    8.125    0.000    0.000    0.000    0.000 
#    0.000    0.000    0.000    0.000    0.000    0.000 
#
# Total GULP energy -198248.721519 kJ/mol
# GULP energy per Si atom -12390.545095 kJ/mol
# Density = 2.355398 g / cm^3
# Si number density = 23.607709 Si / 1000 Ang^3
#
#
#
# Elastic Constant Matrix: (Units=GPa)
#
#
# Indices 1 2 3 4 5 6 
#
# 1 133.9975 40.7946 44.5324 -2.5833 -4.3241 8.8973
# 2 40.7946 97.1127 26.5793 4.8035 -13.8026 -5.5557
# 3 44.5324 26.5793 84.8386 5.7627 -7.8762 1.7269
# 4 -2.5833 4.8035 5.7627 31.4341 1.0759 15.2375
# 5 -4.3241 -13.8026 -7.8762 1.0759 29.4518 6.6353
# 6 8.8973 -5.5557 1.7269 15.2375 6.6353 47.1965
#
#
#
# Elastic Compliance Matrix: (Units=1/GPa)
#
#
# Indices 1 2 3 4 5 6 
#
# 1 0.010349 -0.003589 -0.004575 0.003890 -0.000773 -0.003353
# 2 -0.003589 0.013264 -0.001647 -0.003524 0.004754 0.002768
# 3 -0.004575 -0.001647 0.015154 -0.003404 0.002540 0.000856
# 4 0.003890 -0.003524 -0.003404 0.040048 -0.000321 -0.013908
# 5 -0.000773 0.004754 0.002540 -0.000321 0.037795 -0.004598
# 6 -0.003353 0.002768 0.000856 -0.013908 -0.004598 0.027251
#
#
# Mechanical properties :
#
#
# Convention : Reuss Voigt Hill
#
# Bulk Modulus (GPa) = 52.23566 59.97349 56.10458
# Shear Modulus (GPa) = 29.43489 35.21930 32.32709
#
# Velocity S-wave (km/s) = 3.53488 3.86665 3.70448
# Velocity P-wave (km/s) = 6.23178 6.73750 6.48957
#
# Compressibility (1/GPa) = 0.01914401
#
# Stress axis : x y z
#
# Youngs Moduli (GPa) = 96.62994 75.39103 65.98701
#
# Poissons Ratio (x) = 0.27058 0.30192
# Poissons Ratio (y) = 0.34681 0.10870
# Poissons Ratio (z) = 0.44212 0.12419
#
# Static dielectric constant tensor:
#      x y z
#    x 4.203400 0.038880 -0.001600 
#    y 0.038880 4.576950 0.046600 
#    z -0.001600 0.046600 4.323680 
# 
# 
# High freq. dielectric constant tensor:
#      x y z
#    x 1.930030 0.000100 0.003120 
#    y 0.000100 1.949800 0.009490 
#    z 0.003120 0.009490 1.927880 
# 
# From -- ./inp_files/594286.got.cif
#   From: 2010.06.25/outbox.cif.g09.slc.cpg/sg2_298_cif.got.tgz:594286.got - 2010.06.27 13:26:56.
