data_PCOD8022583
_publ_section_title
;
Structure prediction by ZEFSAII (Michael W. Deem and Ramdas Pophale) SiO2 
 PCOD8022583
Probable space group: P -1
;
_chemical_formula_sum "Si O2"
_cell_formula_units_Z 16
_cell_length_a 14.647985
_cell_length_b 8.492221
_cell_length_c 15.504340
_cell_angle_alpha 59.487511
_cell_angle_beta 152.428183
_cell_angle_gamma 115.251158
_cell_volume 767.737533
_symmetry_space_group_name_H-M "P -1"
_symmetry_group_IT_number 2
_symmetry_cell_setting 'triclinic'
loop_
_space_group_symop_operation_xyz
x,y,z
-x,-y,-z
loop_
_atom_site_type_symbol
_atom_site_label
_atom_site_fract_x
_atom_site_fract_y
_atom_site_fract_z
Si Si1 0.370607 0.754192 0.569318
Si Si2 0.406879 0.320124 0.501681
Si Si3 0.195753 0.385761 0.483325
Si Si4 0.980042 0.953449 0.835434
Si Si5 0.764330 0.693929 0.813666
Si Si6 0.140308 0.675301 0.903696
Si Si7 0.598748 0.957691 0.830336
Si Si8 0.487117 0.115215 0.871094
O O1 0.241262 0.576524 0.514175
O O2 0.541617 0.752261 0.640244
O O3 0.489277 0.784131 0.749683
O O4 0.218508 0.925451 0.382858
O O5 0.500000 0.500000 0.500000
O O6 0.328844 0.367291 0.516491
O O7 0.236549 0.300352 0.294155
O O8 0.553956 0.140845 0.684285
O O9 0.267926 0.217655 0.653351
O O10 0.971636 0.367960 0.268010
O O11 0.935625 0.841189 0.919520
O O12 0.036001 0.837741 0.827011
O O13 0.164654 0.080025 0.971095
O O14 0.842533 0.505129 0.972793
O O15 0.357244 0.726492 0.042351
O O16 0.528031 0.978240 0.863653
O O17 0.500000 0.000000 0.000000
#
# Coordination Sequence:
#
# PCOD8022583 Si02
#       8
#     2   2   2   2   2   2   2   2
#     4  12  24  40  56  93 142 168 203 250 315 364
#     4  11  19  37  58  85 126 172 218 248 293 350
#     4  11  23  38  65  91 125 166 206 266 303 369
#     4  11  23  37  59  89 129 176 208 246 298 358
#     4  12  22  36  61  91 129 176 212 244 288 370
#     4  11  23  42  65  95 122 161 222 257 301 368
#     4  10  24  40  60  91 129 165 207 262 311 367
#     4  10  22  47  73  92 114 157 215 269 322 375
#
# _framework density 20.840454999999999
#
# number of rings (size 3 to 8) (size 9 to 14) (size 15 to 20)
#    0.000    1.000    5.000    3.000    3.500    1.000 
#    0.000    0.625    0.000    3.750    0.000    0.000 
#    0.000    0.000    0.000    0.000    0.000    0.000 
#
# Total GULP energy -198231.281253 kJ/mol
# GULP energy per Si atom -12389.455078 kJ/mol
# Density = 2.079302 g / cm^3
# Si number density = 20.840455 Si / 1000 Ang^3
#
#
#
# Elastic Constant Matrix: (Units=GPa)
#
#
# Indices 1 2 3 4 5 6 
#
# 1 35.9579 24.3191 36.2989 -5.8439 -13.5444 2.4971
# 2 24.3191 79.4717 43.4822 15.3704 -10.3940 -14.5498
# 3 36.2989 43.4822 129.3829 3.8109 -9.5825 -3.5422
# 4 -5.8439 15.3704 3.8109 41.0240 2.3268 -2.1927
# 5 -13.5444 -10.3940 -9.5825 2.3268 37.9048 -7.0720
# 6 2.4971 -14.5498 -3.5422 -2.1927 -7.0720 20.1019
#
#
#
# Elastic Compliance Matrix: (Units=1/GPa)
#
#
# Indices 1 2 3 4 5 6 
#
# 1 0.055580 -0.015366 -0.010544 0.013315 0.009338 -0.015147
# 2 -0.015366 0.025376 -0.002962 -0.010624 0.005181 0.020418
# 3 -0.010544 -0.002962 0.011630 -0.001361 -0.001452 0.000556
# 4 0.013315 -0.010624 -0.001361 0.030105 -0.001630 -0.006873
# 5 0.009338 0.005181 -0.001452 -0.001630 0.033471 0.013931
# 6 -0.015147 0.020418 0.000556 -0.006873 0.013931 0.070656
#
#
# Mechanical properties :
#
#
# Convention : Reuss Voigt Hill
#
# Bulk Modulus (GPa) = 28.70045 50.33479 39.51762
# Shear Modulus (GPa) = 16.88185 29.18698 23.03441
#
# Velocity S-wave (km/s) = 2.84923 3.74638 3.32817
# Velocity P-wave (km/s) = 4.96241 6.55124 5.81138
#
# Compressibility (1/GPa) = 0.03484266
#
# Stress axis : x y z
#
# Youngs Moduli (GPa) = 17.99210 39.40724 85.98171
#
# Poissons Ratio (x) = 0.60552 0.90663
# Poissons Ratio (y) = 0.27646 0.25465
# Poissons Ratio (z) = 0.18972 0.11671
#
# Static dielectric constant tensor:
#      x y z
#    x 2.870570 -1.775800 -0.573930 
#    y -1.775800 -0.683930 -1.652260 
#    z -0.573930 -1.652260 3.152730 
# 
# 
# High freq. dielectric constant tensor:
#      x y z
#    x 1.776530 -0.008840 0.012620 
#    y -0.008840 1.819570 0.016280 
#    z 0.012620 0.016280 1.828600 
# 
# From -- ./inp_files/528213.got.cif
#   From: 2010.06.25/outbox.cif.g09.slc.cpg/sg2_265_cif.got.tgz:528213.got - 2010.06.27 13:26:56.
