data_PCOD8022322
_publ_section_title
;
Structure prediction by ZEFSAII (Michael W. Deem and Ramdas Pophale) SiO2 
 PCOD8022322
Probable space group: P -1
;
_chemical_formula_sum "Si O2"
_cell_formula_units_Z 14
_cell_length_a 22.644340
_cell_length_b 13.930056
_cell_length_c 4.949791
_cell_angle_alpha 80.903225
_cell_angle_beta 75.845829
_cell_angle_gamma 20.676274
_cell_volume 523.040496
_symmetry_space_group_name_H-M "P -1"
_symmetry_group_IT_number 2
_symmetry_cell_setting 'triclinic'
loop_
_space_group_symop_operation_xyz
x,y,z
-x,-y,-z
loop_
_atom_site_type_symbol
_atom_site_label
_atom_site_fract_x
_atom_site_fract_y
_atom_site_fract_z
Si Si1 0.362996 0.790346 0.991098
Si Si2 0.068869 0.322556 0.284755
Si Si3 0.255477 0.212790 0.838017
Si Si4 0.827798 0.061481 0.214437
Si Si5 0.771851 0.570548 0.870061
Si Si6 0.637490 0.665561 0.486317
Si Si7 0.702416 0.365692 0.717655
O O1 0.246200 0.933091 0.800001
O O2 0.492350 0.689197 0.863154
O O3 0.500000 0.500000 0.000000
O O4 0.227273 0.008806 0.303583
O O5 0.000000 0.500000 0.500000
O O6 0.902745 0.506578 0.294139
O O7 0.175281 0.224567 0.976225
O O8 0.433401 0.945316 0.593003
O O9 0.270431 0.255583 0.071991
O O10 0.721568 0.262800 0.494193
O O11 0.812611 0.162626 0.940086
O O12 0.024183 0.753107 0.226470
O O13 0.682015 0.688540 0.626475
O O14 0.684428 0.624774 0.149254
O O15 0.755573 0.396316 0.565544
#
# Coordination Sequence:
#
# PCOD8022322 Si02
#       7
#     2   2   2   2   2   2   2
#     4  10  22  45  71 109 139 187 236 302 374 428
#     4  11  25  45  79 105 145 186 235 308 374 431
#     4  11  26  46  66 106 140 183 244 294 370 425
#     4  11  24  44  72 103 142 183 239 298 361 431
#     4  12  27  45  72 100 143 195 242 291 351 424
#     4  12  27  45  72 100 143 195 242 291 351 424
#     4  11  24  44  72 103 142 183 239 298 361 431
#
# _framework density 26.766573000000001
#
# number of rings (size 3 to 8) (size 9 to 14) (size 15 to 20)
#    0.000    0.857    2.857    3.000    4.000    8.000 
#    0.000    0.000    0.000    0.000    0.000    0.000 
#    0.000    0.000    0.000    0.000    0.000    0.000 
#
# Total GULP energy -173487.782224 kJ/mol
# GULP energy per Si atom -12391.984445 kJ/mol
# Density = 2.670565 g / cm^3
# Si number density = 26.766573 Si / 1000 Ang^3
#
#
#
# Elastic Constant Matrix: (Units=GPa)
#
#
# Indices 1 2 3 4 5 6 
#
# 1 60.0775 4.2006 -19.0920 9.5241 4.8375 -6.9720
# 2 4.2006 93.7395 22.9502 27.5163 6.2310 -12.1952
# 3 -19.0920 22.9502 67.6841 20.7434 22.1862 -17.9508
# 4 9.5241 27.5163 20.7434 39.6322 4.6131 -3.1086
# 5 4.8375 6.2310 22.1862 4.6131 48.6694 10.4740
# 6 -6.9720 -12.1952 -17.9508 -3.1086 10.4740 43.5539
#
#
#
# Elastic Compliance Matrix: (Units=1/GPa)
#
#
# Indices 1 2 3 4 5 6 
#
# 1 0.029591 0.001273 0.022589 -0.016690 -0.015463 0.016931
# 2 0.001273 0.014032 0.000292 -0.009649 -0.002013 0.004049
# 3 0.022589 0.000292 0.043493 -0.023380 -0.025507 0.026089
# 4 -0.016690 -0.009649 -0.023380 0.045580 0.012404 -0.014739
# 5 -0.015463 -0.002013 -0.025507 0.012404 0.037458 -0.021675
# 6 0.016931 0.004049 0.026089 -0.014739 -0.021675 0.041717
#
#
# Mechanical properties :
#
#
# Convention : Reuss Voigt Hill
#
# Bulk Modulus (GPa) = 7.38420 26.40207 16.89313
# Shear Modulus (GPa) = 23.95749 40.60057 32.27903
#
# Velocity S-wave (km/s) = 2.99499 3.89889 3.47644
# Velocity P-wave (km/s) = 3.83727 5.49123 4.73700
#
# Compressibility (1/GPa) = 0.13542435
#
# Stress axis : x y z
#
# Youngs Moduli (GPa) = 33.79457 71.26398 22.99227
#
# Poissons Ratio (x) = -0.09074 -0.51937
# Poissons Ratio (y) = -0.04303 -0.00671
# Poissons Ratio (z) = -0.76339 -0.02080
#
# Static dielectric constant tensor:
#      x y z
#    x 5.821010 -0.299020 -0.831540 
#    y -0.299020 5.490090 0.447110 
#    z -0.831540 0.447110 5.302170 
# 
# 
# High freq. dielectric constant tensor:
#      x y z
#    x 2.083810 0.008910 -0.010390 
#    y 0.008910 2.091590 0.017430 
#    z -0.010390 0.017430 2.075190 
# 
# From -- ./inp_files/124162.got.cif
#   From: 2010.06.25/outbox.cif.g09.slc.cpg/sg2_63_cif.got.tgz:124162.got - 2010.06.27 13:26:56.
