data_PCOD8022989
_publ_section_title
;
Structure prediction by ZEFSAII (Michael W. Deem and Ramdas Pophale) SiO2 
 PCOD8022989
Probable space group: P -1
;
_chemical_formula_sum "Si O2"
_cell_formula_units_Z 14
_cell_length_a 12.148141
_cell_length_b 5.034905
_cell_length_c 18.802125
_cell_angle_alpha 61.364127
_cell_angle_beta 39.294075
_cell_angle_gamma 68.231568
_cell_volume 639.228074
_symmetry_space_group_name_H-M "P -1"
_symmetry_group_IT_number 2
_symmetry_cell_setting 'triclinic'
loop_
_space_group_symop_operation_xyz
x,y,z
-x,-y,-z
loop_
_atom_site_type_symbol
_atom_site_label
_atom_site_fract_x
_atom_site_fract_y
_atom_site_fract_z
Si Si1 0.883684 0.392947 0.895290
Si Si2 0.500073 0.128152 0.598962
Si Si3 0.883793 0.606955 0.721040
Si Si4 0.210297 0.499894 0.644919
Si Si5 0.841867 0.311026 0.636704
Si Si6 0.499889 0.562045 0.292846
Si Si7 0.841780 0.688846 0.021535
O O1 0.786523 0.499979 0.856764
O O2 0.083821 0.517207 0.775334
O O3 0.789923 0.539481 0.991108
O O4 0.897549 0.032981 0.939309
O O5 0.329755 0.199203 0.627676
O O6 0.670129 0.199512 0.457310
O O7 0.500219 0.364177 0.633740
O O8 0.500228 0.795706 0.672153
O O9 0.790104 0.460396 0.718947
O O10 0.083907 0.482679 0.640903
O O11 0.897697 0.966923 0.663115
O O12 0.672080 0.303803 0.673901
O O13 0.000000 0.500000 0.500000
O O14 0.672078 0.695867 0.154163
O O15 0.000000 0.500000 0.000000
#
# Coordination Sequence:
#
# PCOD8022989 Si02
#       7
#     2   2   2   2   2   2   2
#     4  10  23  40  64  91 122 170 215 254 315 377
#     4  11  22  40  60 100 123 164 196 286 311 402
#     4  10  23  40  64  91 122 170 215 254 315 377
#     4   9  22  38  68  89 130 156 218 251 344 365
#     4  12  23  42  64  92 130 170 211 263 313 381
#     4  12  26  39  65  94 132 160 222 248 336 362
#     4  12  23  42  64  92 130 170 211 263 313 381
#
# _framework density 21.901418
#
# number of rings (size 3 to 8) (size 9 to 14) (size 15 to 20)
#    0.857    0.286    0.000    6.857    0.000    4.571 
#    0.000    4.286    0.000    0.000    0.000    0.000 
#    0.000    0.000    0.000    0.000    0.000    0.000 
#
# Total GULP energy -173542.118341 kJ/mol
# GULP energy per Si atom -12395.865596 kJ/mol
# Density = 2.185157 g / cm^3
# Si number density = 21.901418 Si / 1000 Ang^3
#
#
#
# Elastic Constant Matrix: (Units=GPa)
#
#
# Indices 1 2 3 4 5 6 
#
# 1 81.1987 48.6075 36.4407 -6.2407 12.8158 -3.4075
# 2 48.6075 97.6786 40.6650 -14.8362 10.1577 1.4010
# 3 36.4407 40.6650 106.0835 -14.0776 2.8013 -13.2347
# 4 -6.2407 -14.8362 -14.0776 25.6615 -6.6990 2.9853
# 5 12.8158 10.1577 2.8013 -6.6990 32.4707 7.4754
# 6 -3.4075 1.4010 -13.2347 2.9853 7.4754 42.0471
#
#
#
# Elastic Compliance Matrix: (Units=1/GPa)
#
#
# Indices 1 2 3 4 5 6 
#
# 1 0.019650 -0.008217 -0.003690 -0.003838 -0.006135 0.002068
# 2 -0.008217 0.016555 -0.003028 0.006282 0.000234 -0.002658
# 3 -0.003690 -0.003028 0.012804 0.004375 0.001450 0.003264
# 4 -0.003838 0.006282 0.004375 0.047140 0.009875 -0.004246
# 5 -0.006135 0.000234 0.001450 0.009875 0.036734 -0.007280
# 6 0.002068 -0.002658 0.003264 -0.004246 -0.007280 0.026662
#
#
# Mechanical properties :
#
#
# Convention : Reuss Voigt Hill
#
# Bulk Modulus (GPa) = 52.24364 59.59858 55.92111
# Shear Modulus (GPa) = 25.53709 30.65236 28.09472
#
# Velocity S-wave (km/s) = 3.41838 3.74513 3.58548
# Velocity P-wave (km/s) = 6.28381 6.78031 6.53677
#
# Compressibility (1/GPa) = 0.01914109
#
# Stress axis : x y z
#
# Youngs Moduli (GPa) = 50.88960 60.40395 78.10094
#
# Poissons Ratio (x) = 0.49635 0.28815
# Poissons Ratio (y) = 0.41817 0.23645
# Poissons Ratio (z) = 0.18776 0.18287
#
# Static dielectric constant tensor:
#      x y z
#    x 3.980080 -0.104090 0.186580 
#    y -0.104090 3.773490 -0.059960 
#    z 0.186580 -0.059960 3.999290 
# 
# 
# High freq. dielectric constant tensor:
#      x y z
#    x 1.860210 -0.007470 0.014990 
#    y -0.007470 1.859310 -0.012790 
#    z 0.014990 -0.012790 1.865420 
# 
# From -- ./inp_files/592644.got.cif
#   From: 2010.06.25/outbox.cif.g09.slc.cpg/sg2_297_cif.got.tgz:592644.got - 2010.06.27 13:26:56.
