data_PCOD8022684
_publ_section_title
;
Structure prediction by ZEFSAII (Michael W. Deem and Ramdas Pophale) SiO2 
 PCOD8022684
Probable space group: P -1
;
_chemical_formula_sum "Si O2"
_cell_formula_units_Z 12
_cell_length_a 7.558388
_cell_length_b 13.439086
_cell_length_c 11.948967
_cell_angle_alpha 119.355089
_cell_angle_beta 131.975389
_cell_angle_gamma 46.857986
_cell_volume 657.192281
_symmetry_space_group_name_H-M "P -1"
_symmetry_group_IT_number 2
_symmetry_cell_setting 'triclinic'
loop_
_space_group_symop_operation_xyz
x,y,z
-x,-y,-z
loop_
_atom_site_type_symbol
_atom_site_label
_atom_site_fract_x
_atom_site_fract_y
_atom_site_fract_z
Si Si1 0.978758 0.135891 0.034686
Si Si2 0.926826 0.846914 0.154091
Si Si3 0.640597 0.418696 0.686253
Si Si4 0.316445 0.576073 0.856628
Si Si5 0.483875 0.132698 0.176639
Si Si6 0.739296 0.592546 0.662111
O O1 0.294945 0.105308 0.166125
O O2 0.764957 0.267520 0.092549
O O3 0.877643 0.174362 0.882974
O O4 0.000000 0.000000 0.000000
O O5 0.108372 0.734871 0.262044
O O6 0.803515 0.998041 0.236268
O O7 0.659674 0.838752 0.993291
O O8 0.497958 0.507605 0.785231
O O9 0.789008 0.477139 0.707020
O O10 0.397960 0.416867 0.514810
O O11 0.035985 0.571888 0.743350
O O12 0.500000 0.500000 0.000000
O O13 0.481313 0.262611 0.291211
#
# Coordination Sequence:
#
# PCOD8022684 Si02
#       6
#     2   2   2   2   2   2
#     4   9  18  32  53  82 105 135 179 234 276 312
#     4   9  18  35  54  80 106 140 185 228 269 320
#     4  11  22  37  57  82 116 151 181 223 281 335
#     4  11  21  38  59  84 108 144 189 236 272 321
#     4   8  18  35  53  78 106 142 182 230 266 318
#     4  10  23  38  55  82 116 151 183 222 279 334
#
# _framework density 18.259495999999999
#
# number of rings (size 3 to 8) (size 9 to 14) (size 15 to 20)
#    1.000    1.333    1.667    0.500    2.333    4.667 
#    0.000    0.000    0.000    2.000    0.000    0.000 
#    0.000    0.000    0.000    0.000    0.000    0.000 
#
# Total GULP energy -148698.494189 kJ/mol
# GULP energy per Si atom -12391.541182 kJ/mol
# Density = 1.821794 g / cm^3
# Si number density = 18.259496 Si / 1000 Ang^3
#
#
#
# Elastic Constant Matrix: (Units=GPa)
#
#
# Indices 1 2 3 4 5 6 
#
# 1 37.7312 25.7565 20.5716 -16.0774 -2.4059 10.2124
# 2 25.7565 113.9457 38.4090 -16.3359 -6.0742 11.5556
# 3 20.5716 38.4090 64.3975 -6.2728 -12.0096 11.0499
# 4 -16.0774 -16.3359 -6.2728 21.1661 3.1797 -1.5915
# 5 -2.4059 -6.0742 -12.0096 3.1797 26.1733 5.0107
# 6 10.2124 11.5556 11.0499 -1.5915 5.0107 35.1899
#
#
#
# Elastic Compliance Matrix: (Units=1/GPa)
#
#
# Indices 1 2 3 4 5 6 
#
# 1 0.049896 -0.002352 -0.010465 0.032814 -0.003121 -0.008493
# 2 -0.002352 0.012219 -0.005874 0.005904 -0.000575 -0.001137
# 3 -0.010465 -0.005874 0.024438 -0.007179 0.010631 -0.004546
# 4 0.032814 0.005904 -0.007179 0.075313 -0.007141 -0.004785
# 5 -0.003121 -0.000575 0.010631 -0.007141 0.045257 -0.009011
# 6 -0.008493 -0.001137 -0.004546 -0.004785 -0.009011 0.033750
#
#
# Mechanical properties :
#
#
# Convention : Reuss Voigt Hill
#
# Bulk Modulus (GPa) = 20.33654 42.83875 31.58764
# Shear Modulus (GPa) = 16.96964 25.26167 21.11566
#
# Velocity S-wave (km/s) = 3.05185 3.72355 3.40431
# Velocity P-wave (km/s) = 4.85593 6.48062 5.72619
#
# Compressibility (1/GPa) = 0.04917258
#
# Stress axis : x y z
#
# Youngs Moduli (GPa) = 20.04156 81.84230 40.91953
#
# Poissons Ratio (x) = 0.19247 0.42822
# Poissons Ratio (y) = 0.04713 0.24034
# Poissons Ratio (z) = 0.20974 0.48070
#
# Static dielectric constant tensor:
#      x y z
#    x 3.198680 -0.095970 -0.103050 
#    y -0.095970 3.424800 0.162150 
#    z -0.103050 0.162150 3.208270 
# 
# 
# High freq. dielectric constant tensor:
#      x y z
#    x 1.692070 -0.005220 -0.009910 
#    y -0.005220 1.722070 0.014090 
#    z -0.009910 0.014090 1.685630 
# 
# From -- ./inp_files/134760.got.cif
#   From: 2010.06.25/outbox.cif.g09.slc.cpg/sg2_68_cif.got.tgz:134760.got - 2010.06.27 13:26:56.
