data_PCOD8022078
_publ_section_title
;
Structure prediction by ZEFSAII (Michael W. Deem and Ramdas Pophale) SiO2 
 PCOD8022078
Probable space group: P -1
;
_chemical_formula_sum "Si O2"
_cell_formula_units_Z 10
_cell_length_a 5.257401
_cell_length_b 7.196240
_cell_length_c 12.171627
_cell_angle_alpha 95.317946
_cell_angle_beta 51.767861
_cell_angle_gamma 91.917655
_cell_volume 359.998693
_symmetry_space_group_name_H-M "P -1"
_symmetry_group_IT_number 2
_symmetry_cell_setting 'triclinic'
loop_
_space_group_symop_operation_xyz
x,y,z
-x,-y,-z
loop_
_atom_site_type_symbol
_atom_site_label
_atom_site_fract_x
_atom_site_fract_y
_atom_site_fract_z
Si Si1 0.131133 0.201647 0.959167
Si Si2 0.885890 0.610256 0.430790
Si Si3 0.250526 0.954757 0.287735
Si Si4 0.874988 0.474422 0.872345
Si Si5 0.641994 0.130222 0.378364
O O1 0.975504 0.342490 0.099519
O O2 0.527747 0.182903 0.858167
O O3 0.032798 0.101422 0.280683
O O4 0.000000 0.000000 0.000000
O O5 0.000000 0.500000 0.500000
O O6 0.035700 0.819031 0.413162
O O7 0.020329 0.509014 0.280756
O O8 0.491422 0.656353 0.544087
O O9 0.966612 0.716181 0.130512
O O10 0.511908 0.071318 0.291023
O O11 0.500000 0.500000 0.000000
O O12 0.500000 0.000000 0.500000
#
# Coordination Sequence:
#
# PCOD8022078 Si02
#       5
#     2   2   2   2   2
#     4  11  26  50  84 116 156 218 275 336 421 483
#     4  11  24  48  78 115 162 211 261 334 414 483
#     4  11  23  49  76 112 157 206 273 339 393 495
#     4  11  25  52  79 115 166 206 274 349 396 497
#     4  10  22  44  74 107 151 206 262 328 396 477
#
# _framework density 27.777878999999999
#
# number of rings (size 3 to 8) (size 9 to 14) (size 15 to 20)
#    0.000    1.200    2.000    4.800    0.000    2.400 
#   14.400   12.000    0.000    0.000    0.000    0.000 
#    0.000    0.000    0.000    0.000    0.000    0.000 
#
# Total GULP energy -124007.661905 kJ/mol
# GULP energy per Si atom -12400.766190 kJ/mol
# Density = 2.771466 g / cm^3
# Si number density = 27.777879 Si / 1000 Ang^3
#
#
#
# Elastic Constant Matrix: (Units=GPa)
#
#
# Indices 1 2 3 4 5 6 
#
# 1 207.2940 60.5321 89.6068 17.2919 -12.5003 -56.2038
# 2 60.5321 153.4983 62.6113 7.9780 0.6798 -45.8219
# 3 89.6068 62.6113 168.5280 26.3172 3.8034 -30.3993
# 4 17.2919 7.9780 26.3172 43.7296 -3.5570 -9.8480
# 5 -12.5003 0.6798 3.8034 -3.5570 57.7124 11.4184
# 6 -56.2038 -45.8219 -30.3993 -9.8480 11.4184 50.0204
#
#
#
# Elastic Compliance Matrix: (Units=1/GPa)
#
#
# Indices 1 2 3 4 5 6 
#
# 1 0.008114 0.000274 -0.003146 0.000345 0.000518 0.007406
# 2 0.000274 0.009875 -0.002467 0.001359 -0.001485 0.008461
# 3 -0.003146 -0.002467 0.009041 -0.004033 -0.001341 -0.000788
# 4 0.000345 0.001359 -0.004033 0.025909 0.001125 0.004025
# 5 0.000518 -0.001485 -0.001341 0.001125 0.018732 -0.005648
# 6 0.007406 0.008461 -0.000788 0.004025 -0.005648 0.037667
#
#
# Mechanical properties :
#
#
# Convention : Reuss Voigt Hill
#
# Bulk Modulus (GPa) = 61.15270 106.09118 83.62194
# Shear Modulus (GPa) = 39.85133 51.39714 45.62424
#
# Velocity S-wave (km/s) = 3.79178 4.30617 4.05713
# Velocity P-wave (km/s) = 6.42128 7.93723 7.21916
#
# Compressibility (1/GPa) = 0.01635251
#
# Stress axis : x y z
#
# Youngs Moduli (GPa) = 123.23690 101.27050 110.60975
#
# Poissons Ratio (x) = -0.02774 0.34795
# Poissons Ratio (y) = -0.03376 0.27285
# Poissons Ratio (z) = 0.38767 0.24982
#
# Static dielectric constant tensor:
#      x y z
#    x 7.327620 -0.117410 0.348000 
#    y -0.117410 5.652980 0.798720 
#    z 0.348000 0.798720 6.023620 
# 
# 
# High freq. dielectric constant tensor:
#      x y z
#    x 2.126440 -0.004060 -0.013910 
#    y -0.004060 2.144830 0.022830 
#    z -0.013910 0.022830 2.128770 
# 
# From -- ./inp_files/86546.got.cif
#   From: 2010.06.25/outbox.cif.g09.slc.cpg/sg2_44_cif.got.tgz:86546.got - 2010.06.27 13:26:56.
